MODEL 1
REMARK minimizedAffinity 4.38547277
REMARK minimizedRMSD -1
REMARK  1 active torsions:
REMARK  status: ('A' for Active; 'I' for Inactive)
REMARK    1  A    between atoms: C3_4  and  O_7 
ROOT
ATOM      1  C   UNL d   1       3.459  -4.243   4.172  0.00  0.00    -0.033 A 
ATOM      2  C1  UNL d   1       4.209  -3.101   3.887  0.00  0.00     0.039 A 
ATOM      3  C2  UNL d   1       3.608  -2.009   3.257  0.00  0.00    -0.080 A 
ATOM      4  C3  UNL d   1       2.259  -2.072   2.920  0.00  0.00     0.150 A 
ATOM      5  C4  UNL d   1       1.505  -3.205   3.205  0.00  0.00    -0.007 A 
ATOM      6  C5  UNL d   1       2.107  -4.295   3.833  0.00  0.00     0.039 A 
ENDROOT
BRANCH   4   7
ATOM      7  O   UNL d   1       1.630  -1.033   2.300  0.00  0.00    -0.526 OA
ATOM      8  H5  UNL d   1       2.282  -0.330   2.140  0.00  0.00     0.418 HD
ENDBRANCH   4   7
TORSDOF 1
ENDMDL
