MODEL 1
REMARK minimizedAffinity 3.77883816
REMARK minimizedRMSD -1
REMARK  1 active torsions:
REMARK  status: ('A' for Active; 'I' for Inactive)
REMARK    1  A    between atoms: C3_4  and  O_7 
ROOT
ATOM      1  C   UNL d   1       2.271  -4.182   4.735  0.00  0.00    -0.033 A 
ATOM      2  C1  UNL d   1       2.583  -2.823   4.798  0.00  0.00     0.039 A 
ATOM      3  C2  UNL d   1       2.217  -1.972   3.753  0.00  0.00    -0.080 A 
ATOM      4  C3  UNL d   1       1.542  -2.492   2.653  0.00  0.00     0.150 A 
ATOM      5  C4  UNL d   1       1.225  -3.844   2.585  0.00  0.00    -0.007 A 
ATOM      6  C5  UNL d   1       1.591  -4.693   3.629  0.00  0.00     0.039 A 
ENDROOT
BRANCH   4   7
ATOM      7  O   UNL d   1       1.169  -1.701   1.607  0.00  0.00    -0.526 OA
ATOM      8  H5  UNL d   1       1.479  -0.796   1.779  0.00  0.00     0.418 HD
ENDBRANCH   4   7
TORSDOF 1
ENDMDL
