MODEL 1
REMARK minimizedAffinity 0.837796748
REMARK minimizedRMSD -1
REMARK  1 active torsions:
REMARK  status: ('A' for Active; 'I' for Inactive)
REMARK    1  A    between atoms: C3_4  and  O_7 
ROOT
ATOM      1  C   UNL d   1       5.542  -5.974  -4.979  0.00  0.00    -0.033 A 
ATOM      2  C1  UNL d   1       5.138  -5.969  -3.642  0.00  0.00     0.039 A 
ATOM      3  C2  UNL d   1       3.779  -5.977  -3.322  0.00  0.00    -0.080 A 
ATOM      4  C3  UNL d   1       2.836  -5.991  -4.346  0.00  0.00     0.150 A 
ATOM      5  C4  UNL d   1       3.232  -6.000  -5.680  0.00  0.00    -0.007 A 
ATOM      6  C5  UNL d   1       4.589  -5.991  -5.997  0.00  0.00     0.039 A 
ENDROOT
BRANCH   4   7
ATOM      7  O   UNL d   1       1.498  -5.994  -4.083  0.00  0.00    -0.526 OA
ATOM      8  H5  UNL d   1       1.374  -5.958  -3.119  0.00  0.00     0.418 HD
ENDBRANCH   4   7
TORSDOF 1
ENDMDL
