MODEL 1
REMARK minimizedAffinity 2.99420595
REMARK minimizedRMSD -1
REMARK  1 active torsions:
REMARK  status: ('A' for Active; 'I' for Inactive)
REMARK    1  A    between atoms: C3_4  and  O_7 
ROOT
ATOM      1  C   UNL d   1       1.523  -3.196   3.133  0.00  0.00    -0.033 A 
ATOM      2  C1  UNL d   1       2.142  -4.105   3.994  0.00  0.00     0.039 A 
ATOM      3  C2  UNL d   1       3.505  -3.986   4.274  0.00  0.00    -0.080 A 
ATOM      4  C3  UNL d   1       4.236  -2.957   3.688  0.00  0.00     0.150 A 
ATOM      5  C4  UNL d   1       3.625  -2.046   2.832  0.00  0.00    -0.007 A 
ATOM      6  C5  UNL d   1       2.264  -2.166   2.553  0.00  0.00     0.039 A 
ENDROOT
BRANCH   4   7
ATOM      7  O   UNL d   1       5.570  -2.804   3.927  0.00  0.00    -0.526 OA
ATOM      8  H5  UNL d   1       5.861  -3.522   4.513  0.00  0.00     0.418 HD
ENDBRANCH   4   7
TORSDOF 1
ENDMDL
