MODEL 1
REMARK minimizedAffinity -2.37214017
REMARK minimizedRMSD -1
REMARK  1 active torsions:
REMARK  status: ('A' for Active; 'I' for Inactive)
REMARK    1  A    between atoms: C3_4  and  O_7 
ROOT
ATOM      1  C   UNL d   1       4.227  -5.962  -2.257  0.00  0.00    -0.033 A 
ATOM      2  C1  UNL d   1       5.021  -5.942  -3.406  0.00  0.00     0.039 A 
ATOM      3  C2  UNL d   1       4.426  -5.953  -4.669  0.00  0.00    -0.080 A 
ATOM      4  C3  UNL d   1       3.038  -5.983  -4.769  0.00  0.00     0.150 A 
ATOM      5  C4  UNL d   1       2.241  -6.000  -3.630  0.00  0.00    -0.007 A 
ATOM      6  C5  UNL d   1       2.837  -5.990  -2.369  0.00  0.00     0.039 A 
ENDROOT
BRANCH   4   7
ATOM      7  O   UNL d   1       2.411  -6.000  -5.980  0.00  0.00    -0.526 OA
ATOM      8  H5  UNL d   1       3.089  -6.014  -6.677  0.00  0.00     0.418 HD
ENDBRANCH   4   7
TORSDOF 1
ENDMDL
