MODEL 1
REMARK minimizedAffinity 8.58729744
REMARK minimizedRMSD -1
REMARK  1 active torsions:
REMARK  status: ('A' for Active; 'I' for Inactive)
REMARK    1  A    between atoms: C3_4  and  O_7 
ROOT
ATOM      1  C   UNL d   1       3.000  -4.573   4.236  0.00  0.00    -0.033 A 
ATOM      2  C1  UNL d   1       3.846  -3.466   4.325  0.00  0.00     0.039 A 
ATOM      3  C2  UNL d   1       3.472  -2.250   3.750  0.00  0.00    -0.080 A 
ATOM      4  C3  UNL d   1       2.250  -2.154   3.090  0.00  0.00     0.150 A 
ATOM      5  C4  UNL d   1       1.400  -3.252   3.000  0.00  0.00    -0.007 A 
ATOM      6  C5  UNL d   1       1.776  -4.465   3.574  0.00  0.00     0.039 A 
ENDROOT
BRANCH   4   7
ATOM      7  O   UNL d   1       1.844  -0.990   2.509  0.00  0.00    -0.526 OA
ATOM      8  H5  UNL d   1       2.544  -0.327   2.626  0.00  0.00     0.418 HD
ENDBRANCH   4   7
TORSDOF 1
ENDMDL
