MODEL 1
REMARK minimizedAffinity 7.29671526
REMARK minimizedRMSD -1
REMARK  1 active torsions:
REMARK  status: ('A' for Active; 'I' for Inactive)
REMARK    1  A    between atoms: C3_4  and  O_7 
ROOT
ATOM      1  C   UNL d   1       2.839   1.295   2.269  0.00  0.00    -0.033 A 
ATOM      2  C1  UNL d   1       1.668   2.042   2.409  0.00  0.00     0.039 A 
ATOM      3  C2  UNL d   1       1.223   2.849   1.360  0.00  0.00    -0.080 A 
ATOM      4  C3  UNL d   1       1.956   2.900   0.178  0.00  0.00     0.150 A 
ATOM      5  C4  UNL d   1       3.122   2.155   0.030  0.00  0.00    -0.007 A 
ATOM      6  C5  UNL d   1       3.565   1.351   1.079  0.00  0.00     0.039 A 
ENDROOT
BRANCH   4   7
ATOM      7  O   UNL d   1       1.564   3.676  -0.871  0.00  0.00    -0.526 OA
ATOM      8  H5  UNL d   1       0.758   4.156  -0.615  0.00  0.00     0.418 HD
ENDBRANCH   4   7
TORSDOF 1
ENDMDL
