MODEL 1
REMARK minimizedAffinity 5.23405409
REMARK minimizedRMSD -1
REMARK  0 active torsions:
REMARK  status: ('A' for Active; 'I' for Inactive)
ROOT
ATOM      1  C   UNL d   1       2.249   4.218  -2.837  0.00  0.00     0.172 C 
ATOM      2  N   UNL d   1       2.947   4.858  -1.746  0.00  0.00    -0.070 N 
ATOM      3  C1  UNL d   1       2.532   4.887  -0.442  0.00  0.00    -0.004 A 
ATOM      4  C2  UNL d   1       3.469   5.591   0.284  0.00  0.00    -0.047 A 
ATOM      5  C3  UNL d   1       4.481   6.000  -0.617  0.00  0.00    -0.047 A 
ATOM      6  C4  UNL d   1       4.133   5.533  -1.866  0.00  0.00    -0.004 A 
ENDROOT
TORSDOF 0
ENDMDL
