MODEL 1
REMARK minimizedAffinity 1.64972126
REMARK minimizedRMSD -1
REMARK  0 active torsions:
REMARK  status: ('A' for Active; 'I' for Inactive)
ROOT
ATOM      1  C   UNL d   1       4.049  -2.474  -5.266  0.00  0.00     0.172 C 
ATOM      2  N   UNL d   1       4.091  -3.902  -5.052  0.00  0.00    -0.070 N 
ATOM      3  C1  UNL d   1       3.075  -4.663  -4.539  0.00  0.00    -0.004 A 
ATOM      4  C2  UNL d   1       3.508  -5.970  -4.495  0.00  0.00    -0.047 A 
ATOM      5  C3  UNL d   1       4.830  -5.996  -4.998  0.00  0.00    -0.047 A 
ATOM      6  C4  UNL d   1       5.166  -4.702  -5.336  0.00  0.00    -0.004 A 
ENDROOT
TORSDOF 0
ENDMDL
