MODEL 1
REMARK minimizedAffinity 5.18373585
REMARK minimizedRMSD -1
REMARK  0 active torsions:
REMARK  status: ('A' for Active; 'I' for Inactive)
ROOT
ATOM      1  C   UNL d   1       4.445  -1.921  -4.598  0.00  0.00     0.172 C 
ATOM      2  N   UNL d   1       4.899  -3.245  -4.953  0.00  0.00    -0.070 N 
ATOM      3  C1  UNL d   1       5.848  -3.538  -5.895  0.00  0.00    -0.004 A 
ATOM      4  C2  UNL d   1       5.996  -4.907  -5.934  0.00  0.00    -0.047 A 
ATOM      5  C3  UNL d   1       5.104  -5.457  -4.983  0.00  0.00    -0.047 A 
ATOM      6  C4  UNL d   1       4.437  -4.406  -4.390  0.00  0.00    -0.004 A 
ENDROOT
TORSDOF 0
ENDMDL
