MODEL 1
REMARK minimizedAffinity 0.868517458
REMARK minimizedRMSD -1
REMARK  0 active torsions:
REMARK  status: ('A' for Active; 'I' for Inactive)
ROOT
ATOM      1  C   UNL d   1       4.174  -2.492  -5.055  0.00  0.00     0.172 C 
ATOM      2  N   UNL d   1       4.721  -3.823  -5.182  0.00  0.00    -0.070 N 
ATOM      3  C1  UNL d   1       4.283  -4.933  -4.512  0.00  0.00    -0.004 A 
ATOM      4  C2  UNL d   1       5.061  -6.000  -4.908  0.00  0.00    -0.047 A 
ATOM      5  C3  UNL d   1       6.000  -5.513  -5.848  0.00  0.00    -0.047 A 
ATOM      6  C4  UNL d   1       5.767  -4.162  -5.999  0.00  0.00    -0.004 A 
ENDROOT
TORSDOF 0
ENDMDL
