MODEL 1
REMARK minimizedAffinity 1.00348175
REMARK minimizedRMSD -1
REMARK  0 active torsions:
REMARK  status: ('A' for Active; 'I' for Inactive)
ROOT
ATOM      1  C   UNL d   1       4.729  -2.553  -5.954  0.00  0.00     0.172 C 
ATOM      2  N   UNL d   1       4.914  -3.949  -5.631  0.00  0.00    -0.070 N 
ATOM      3  C1  UNL d   1       4.041  -4.725  -4.916  0.00  0.00    -0.004 A 
ATOM      4  C2  UNL d   1       4.579  -5.991  -4.827  0.00  0.00    -0.047 A 
ATOM      5  C3  UNL d   1       5.817  -5.975  -5.512  0.00  0.00    -0.047 A 
ATOM      6  C4  UNL d   1       6.000  -4.698  -5.999  0.00  0.00    -0.004 A 
ENDROOT
TORSDOF 0
ENDMDL
