MODEL 1
REMARK minimizedAffinity 1.97752166
REMARK minimizedRMSD -1
REMARK  0 active torsions:
REMARK  status: ('A' for Active; 'I' for Inactive)
ROOT
ATOM      1  C   UNL d   1       4.633  -2.516  -5.532  0.00  0.00     0.172 C 
ATOM      2  N   UNL d   1       4.982  -3.906  -5.352  0.00  0.00    -0.070 N 
ATOM      3  C1  UNL d   1       5.992  -4.566  -5.999  0.00  0.00    -0.004 A 
ATOM      4  C2  UNL d   1       5.999  -5.869  -5.551  0.00  0.00    -0.047 A 
ATOM      5  C3  UNL d   1       4.956  -5.998  -4.603  0.00  0.00    -0.047 A 
ATOM      6  C4  UNL d   1       4.343  -4.767  -4.499  0.00  0.00    -0.004 A 
ENDROOT
TORSDOF 0
ENDMDL
