MODEL 1
REMARK minimizedAffinity 0.638083339
REMARK minimizedRMSD -1
REMARK  0 active torsions:
REMARK  status: ('A' for Active; 'I' for Inactive)
ROOT
ATOM      1  C   UNL d   1       4.603  -2.573  -5.864  0.00  0.00     0.172 C 
ATOM      2  N   UNL d   1       4.882  -3.956  -5.554  0.00  0.00    -0.070 N 
ATOM      3  C1  UNL d   1       5.960  -4.672  -6.000  0.00  0.00    -0.004 A 
ATOM      4  C2  UNL d   1       5.863  -5.946  -5.484  0.00  0.00    -0.047 A 
ATOM      5  C3  UNL d   1       4.685  -5.998  -4.701  0.00  0.00    -0.047 A 
ATOM      6  C4  UNL d   1       4.097  -4.752  -4.762  0.00  0.00    -0.004 A 
ENDROOT
TORSDOF 0
ENDMDL
