MODEL 1
REMARK minimizedAffinity 3.35585499
REMARK minimizedRMSD -1
REMARK  0 active torsions:
REMARK  status: ('A' for Active; 'I' for Inactive)
ROOT
ATOM      1  C   UNL d   1      -3.181   0.701  -3.230  0.00  0.00     0.172 C 
ATOM      2  N   UNL d   1      -3.910   1.947  -3.249  0.00  0.00    -0.070 N 
ATOM      3  C1  UNL d   1      -3.962   2.825  -4.298  0.00  0.00    -0.004 A 
ATOM      4  C2  UNL d   1      -4.759   3.885  -3.922  0.00  0.00    -0.047 A 
ATOM      5  C3  UNL d   1      -5.200   3.636  -2.600  0.00  0.00    -0.047 A 
ATOM      6  C4  UNL d   1      -4.660   2.429  -2.208  0.00  0.00    -0.004 A 
ENDROOT
TORSDOF 0
ENDMDL
