MODEL 1
REMARK minimizedAffinity 3.60111594
REMARK minimizedRMSD -1
REMARK  0 active torsions:
REMARK  status: ('A' for Active; 'I' for Inactive)
ROOT
ATOM      1  C   UNL d   1       5.034   3.929  -3.582  0.00  0.00     0.172 C 
ATOM      2  N   UNL d   1       4.159   4.577  -2.633  0.00  0.00    -0.070 N 
ATOM      3  C1  UNL d   1       2.848   4.252  -2.405  0.00  0.00    -0.004 A 
ATOM      4  C2  UNL d   1       2.367   5.099  -1.430  0.00  0.00    -0.047 A 
ATOM      5  C3  UNL d   1       3.425   5.963  -1.059  0.00  0.00    -0.047 A 
ATOM      6  C4  UNL d   1       4.523   5.617  -1.819  0.00  0.00    -0.004 A 
ENDROOT
TORSDOF 0
ENDMDL
