MODEL 1
REMARK minimizedAffinity 4.78872252
REMARK minimizedRMSD -1
REMARK  0 active torsions:
REMARK  status: ('A' for Active; 'I' for Inactive)
ROOT
ATOM      1  C   UNL d   1       6.000  -4.782   1.534  0.00  0.00     0.172 C 
ATOM      2  N   UNL d   1       4.839  -4.056   1.995  0.00  0.00    -0.070 N 
ATOM      3  C1  UNL d   1       4.175  -4.277   3.172  0.00  0.00    -0.004 A 
ATOM      4  C2  UNL d   1       3.130  -3.381   3.241  0.00  0.00    -0.047 A 
ATOM      5  C3  UNL d   1       3.167  -2.596   2.065  0.00  0.00    -0.047 A 
ATOM      6  C4  UNL d   1       4.235  -3.035   1.311  0.00  0.00    -0.004 A 
ENDROOT
TORSDOF 0
ENDMDL
