MODEL 1
REMARK minimizedAffinity 2.59345412
REMARK minimizedRMSD -1
REMARK  0 active torsions:
REMARK  status: ('A' for Active; 'I' for Inactive)
ROOT
ATOM      1  C   UNL d   1      -5.996  -4.700  -4.331  0.00  0.00     0.172 C 
ATOM      2  N   UNL d   1      -5.996  -3.306  -4.709  0.00  0.00    -0.070 N 
ATOM      3  C1  UNL d   1      -5.994  -2.245  -3.844  0.00  0.00    -0.004 A 
ATOM      4  C2  UNL d   1      -5.994  -1.089  -4.595  0.00  0.00    -0.047 A 
ATOM      5  C3  UNL d   1      -5.997  -1.469  -5.958  0.00  0.00    -0.047 A 
ATOM      6  C4  UNL d   1      -5.998  -2.848  -6.000  0.00  0.00    -0.004 A 
ENDROOT
TORSDOF 0
ENDMDL
