MODEL 1
REMARK minimizedAffinity 17.2157726
REMARK minimizedRMSD -1
REMARK  0 active torsions:
REMARK  status: ('A' for Active; 'I' for Inactive)
ROOT
ATOM      1  C2' OXE d   1       5.469   2.835   3.152  0.00  0.00     0.078 C 
ATOM      2  C1' OXE d   1       5.932   5.601   3.021  0.00  0.00     0.078 C 
ATOM      3  C1  OXE d   1       4.991   5.095   4.086  0.00  0.00    -0.078 A 
ATOM      4  C2  OXE d   1       4.734   3.745   4.113  0.00  0.00    -0.078 A 
ATOM      5  C3  OXE d   1       3.917   3.219   5.109  0.00  0.00     0.003 A 
ATOM      6  C4  OXE d   1       3.233   4.069   5.987  0.00  0.00    -0.002 A 
ATOM      7  C5  OXE d   1       3.450   5.450   5.951  0.00  0.00    -0.002 A 
ATOM      8  C6  OXE d   1       4.356   5.974   5.036  0.00  0.00     0.003 A 
ENDROOT
TORSDOF 0
ENDMDL
