MODEL 1
REMARK minimizedAffinity 14.6673031
REMARK minimizedRMSD -1
REMARK  0 active torsions:
REMARK  status: ('A' for Active; 'I' for Inactive)
ROOT
ATOM      1  C2' OXE d   1      -0.390  -5.914   1.960  0.00  0.00     0.078 C 
ATOM      2  C1' OXE d   1      -1.199  -5.968  -0.728  0.00  0.00     0.078 C 
ATOM      3  C1  OXE d   1      -1.220  -4.640  -0.013  0.00  0.00    -0.078 A 
ATOM      4  C2  OXE d   1      -0.867  -4.631   1.315  0.00  0.00    -0.078 A 
ATOM      5  C3  OXE d   1      -0.817  -3.424   2.007  0.00  0.00     0.003 A 
ATOM      6  C4  OXE d   1      -1.270  -2.244   1.406  0.00  0.00    -0.002 A 
ATOM      7  C5  OXE d   1      -1.671  -2.238   0.066  0.00  0.00    -0.002 A 
ATOM      8  C6  OXE d   1      -1.612  -3.417  -0.668  0.00  0.00     0.003 A 
ENDROOT
TORSDOF 0
ENDMDL
