MODEL 1
REMARK minimizedAffinity 12.7898006
REMARK minimizedRMSD -1
REMARK  0 active torsions:
REMARK  status: ('A' for Active; 'I' for Inactive)
ROOT
ATOM      1  C2' OXE d   1      -0.145  -4.698   1.543  0.00  0.00     0.078 C 
ATOM      2  C1' OXE d   1      -1.801  -2.873   2.887  0.00  0.00     0.078 C 
ATOM      3  C1  OXE d   1      -1.597  -2.678   1.405  0.00  0.00    -0.078 A 
ATOM      4  C2  OXE d   1      -0.748  -3.548   0.764  0.00  0.00    -0.078 A 
ATOM      5  C3  OXE d   1      -0.568  -3.448  -0.612  0.00  0.00     0.003 A 
ATOM      6  C4  OXE d   1      -1.122  -2.376  -1.323  0.00  0.00    -0.002 A 
ATOM      7  C5  OXE d   1      -1.958  -1.455  -0.682  0.00  0.00    -0.002 A 
ATOM      8  C6  OXE d   1      -2.239  -1.616   0.671  0.00  0.00     0.003 A 
ENDROOT
TORSDOF 0
ENDMDL
