MODEL 1
REMARK minimizedAffinity 6.19490194
REMARK minimizedRMSD -1
REMARK  0 active torsions:
REMARK  status: ('A' for Active; 'I' for Inactive)
ROOT
ATOM      1  C2' OXE d   1      -1.610  -2.846   2.247  0.00  0.00     0.078 C 
ATOM      2  C1' OXE d   1      -1.122  -4.961   0.466  0.00  0.00     0.078 C 
ATOM      3  C1  OXE d   1      -1.370  -3.592  -0.118  0.00  0.00    -0.078 A 
ATOM      4  C2  OXE d   1      -1.654  -2.573   0.759  0.00  0.00    -0.078 A 
ATOM      5  C3  OXE d   1      -1.837  -1.280   0.276  0.00  0.00     0.003 A 
ATOM      6  C4  OXE d   1      -1.886  -1.038  -1.102  0.00  0.00    -0.002 A 
ATOM      7  C5  OXE d   1      -1.639  -2.070  -2.013  0.00  0.00    -0.002 A 
ATOM      8  C6  OXE d   1      -1.337  -3.342  -1.538  0.00  0.00     0.003 A 
ENDROOT
TORSDOF 0
ENDMDL
