MODEL 1
REMARK minimizedAffinity 14.1023788
REMARK minimizedRMSD -1
REMARK  0 active torsions:
REMARK  status: ('A' for Active; 'I' for Inactive)
ROOT
ATOM      1  C2' OXE d   1      -0.595  -5.592   2.166  0.00  0.00     0.078 C 
ATOM      2  C1' OXE d   1      -2.411  -3.943   3.531  0.00  0.00     0.078 C 
ATOM      3  C1  OXE d   1      -2.050  -3.571   2.115  0.00  0.00    -0.078 A 
ATOM      4  C2  OXE d   1      -1.126  -4.357   1.470  0.00  0.00    -0.078 A 
ATOM      5  C3  OXE d   1      -0.798  -4.089   0.144  0.00  0.00     0.003 A 
ATOM      6  C4  OXE d   1      -1.286  -2.939  -0.488  0.00  0.00    -0.002 A 
ATOM      7  C5  OXE d   1      -2.198  -2.103   0.164  0.00  0.00    -0.002 A 
ATOM      8  C6  OXE d   1      -2.623  -2.427   1.448  0.00  0.00     0.003 A 
ENDROOT
TORSDOF 0
ENDMDL
