MODEL 1
REMARK minimizedAffinity 16.3842525
REMARK minimizedRMSD -1
REMARK  0 active torsions:
REMARK  status: ('A' for Active; 'I' for Inactive)
ROOT
ATOM      1  C2' OXE d   1      -2.855   0.246  -2.768  0.00  0.00     0.078 C 
ATOM      2  C1' OXE d   1      -1.433  -2.038  -3.570  0.00  0.00     0.078 C 
ATOM      3  C1  OXE d   1      -1.813  -1.921  -2.115  0.00  0.00    -0.078 A 
ATOM      4  C2  OXE d   1      -2.468  -0.778  -1.722  0.00  0.00    -0.078 A 
ATOM      5  C3  OXE d   1      -2.889  -0.644  -0.403  0.00  0.00     0.003 A 
ATOM      6  C4  OXE d   1      -2.519  -1.591   0.560  0.00  0.00    -0.002 A 
ATOM      7  C5  OXE d   1      -1.817  -2.743   0.189  0.00  0.00    -0.002 A 
ATOM      8  C6  OXE d   1      -1.495  -2.943  -1.149  0.00  0.00     0.003 A 
ENDROOT
TORSDOF 0
ENDMDL
