MODEL 1
REMARK minimizedAffinity 5.01378298
REMARK minimizedRMSD -1
REMARK  0 active torsions:
REMARK  status: ('A' for Active; 'I' for Inactive)
ROOT
ATOM      1  C2' OXE d   1      -0.318  -5.821   1.811  0.00  0.00     0.078 C 
ATOM      2  C1' OXE d   1      -2.013  -4.380   3.524  0.00  0.00     0.078 C 
ATOM      3  C1  OXE d   1      -1.730  -3.799   2.161  0.00  0.00    -0.078 A 
ATOM      4  C2  OXE d   1      -0.863  -4.487   1.348  0.00  0.00    -0.078 A 
ATOM      5  C3  OXE d   1      -0.611  -4.023   0.060  0.00  0.00     0.003 A 
ATOM      6  C4  OXE d   1      -1.111  -2.784  -0.358  0.00  0.00    -0.002 A 
ATOM      7  C5  OXE d   1      -1.964  -2.047   0.470  0.00  0.00    -0.002 A 
ATOM      8  C6  OXE d   1      -2.317  -2.560   1.714  0.00  0.00     0.003 A 
ENDROOT
TORSDOF 0
ENDMDL
