MODEL 1
REMARK minimizedAffinity 4.96576023
REMARK minimizedRMSD -1
REMARK  0 active torsions:
REMARK  status: ('A' for Active; 'I' for Inactive)
ROOT
ATOM      1  C2' OXE d   1      -2.637  -1.043   0.383  0.00  0.00     0.078 C 
ATOM      2  C1' OXE d   1      -1.922  -2.700   2.534  0.00  0.00     0.078 C 
ATOM      3  C1  OXE d   1      -1.453  -3.095   1.156  0.00  0.00    -0.078 A 
ATOM      4  C2  OXE d   1      -1.846  -2.303   0.103  0.00  0.00    -0.078 A 
ATOM      5  C3  OXE d   1      -1.396  -2.591  -1.182  0.00  0.00     0.003 A 
ATOM      6  C4  OXE d   1      -0.673  -3.764  -1.434  0.00  0.00    -0.002 A 
ATOM      7  C5  OXE d   1      -0.296  -4.605  -0.381  0.00  0.00    -0.002 A 
ATOM      8  C6  OXE d   1      -0.640  -4.263   0.922  0.00  0.00     0.003 A 
ENDROOT
TORSDOF 0
ENDMDL
