MODEL 1
REMARK minimizedAffinity 14.8156404
REMARK minimizedRMSD -1
REMARK  0 active torsions:
REMARK  status: ('A' for Active; 'I' for Inactive)
ROOT
ATOM      1  C2' OXE d   1      -1.922   3.042  -4.062  0.00  0.00     0.078 C 
ATOM      2  C1' OXE d   1      -3.822   2.094  -5.898  0.00  0.00     0.078 C 
ATOM      3  C1  OXE d   1      -4.025   3.475  -5.326  0.00  0.00    -0.078 A 
ATOM      4  C2  OXE d   1      -3.115   3.912  -4.393  0.00  0.00    -0.078 A 
ATOM      5  C3  OXE d   1      -3.225   5.199  -3.874  0.00  0.00     0.003 A 
ATOM      6  C4  OXE d   1      -4.337   5.993  -4.177  0.00  0.00    -0.002 A 
ATOM      7  C5  OXE d   1      -5.296   5.551  -5.095  0.00  0.00    -0.002 A 
ATOM      8  C6  OXE d   1      -5.133   4.314  -5.709  0.00  0.00     0.003 A 
ENDROOT
TORSDOF 0
ENDMDL
