MODEL 1
REMARK minimizedAffinity 11.672945
REMARK minimizedRMSD -1
REMARK  0 active torsions:
REMARK  status: ('A' for Active; 'I' for Inactive)
ROOT
ATOM      1  C2' OXE d   1       4.225   1.531   2.005  0.00  0.00     0.078 C 
ATOM      2  C1' OXE d   1       4.367   3.842   0.418  0.00  0.00     0.078 C 
ATOM      3  C1  OXE d   1       3.570   2.674  -0.109  0.00  0.00    -0.078 A 
ATOM      4  C2  OXE d   1       3.545   1.531   0.653  0.00  0.00    -0.078 A 
ATOM      5  C3  OXE d   1       2.780   0.444   0.240  0.00  0.00     0.003 A 
ATOM      6  C4  OXE d   1       2.162   0.449  -1.016  0.00  0.00    -0.002 A 
ATOM      7  C5  OXE d   1       2.209   1.588  -1.826  0.00  0.00    -0.002 A 
ATOM      8  C6  OXE d   1       2.872   2.722  -1.369  0.00  0.00     0.003 A 
ENDROOT
TORSDOF 0
ENDMDL
