MODEL 1
REMARK minimizedAffinity 8.1752491
REMARK minimizedRMSD -1
REMARK  0 active torsions:
REMARK  status: ('A' for Active; 'I' for Inactive)
ROOT
ATOM      1  C2' OXE d   1      -5.079  -1.539   5.839  0.00  0.00     0.078 C 
ATOM      2  C1' OXE d   1      -2.361  -0.835   5.820  0.00  0.00     0.078 C 
ATOM      3  C1  OXE d   1      -3.376   0.278   5.901  0.00  0.00    -0.078 A 
ATOM      4  C2  OXE d   1      -4.704  -0.073   5.862  0.00  0.00    -0.078 A 
ATOM      5  C3  OXE d   1      -5.681   0.910   5.989  0.00  0.00     0.003 A 
ATOM      6  C4  OXE d   1      -5.326   2.264   6.000  0.00  0.00    -0.002 A 
ATOM      7  C5  OXE d   1      -3.981   2.646   6.000  0.00  0.00    -0.002 A 
ATOM      8  C6  OXE d   1      -2.994   1.666   5.993  0.00  0.00     0.003 A 
ENDROOT
TORSDOF 0
ENDMDL
