MODEL 1
REMARK minimizedAffinity 10.3415575
REMARK minimizedRMSD -1
REMARK  0 active torsions:
REMARK  status: ('A' for Active; 'I' for Inactive)
ROOT
ATOM      1  C2' OXE d   1      -0.759  -5.439   1.482  0.00  0.00     0.078 C 
ATOM      2  C1' OXE d   1      -2.123  -3.597   3.104  0.00  0.00     0.078 C 
ATOM      3  C1  OXE d   1      -1.762  -3.169   1.703  0.00  0.00    -0.078 A 
ATOM      4  C2  OXE d   1      -1.054  -4.060   0.933  0.00  0.00    -0.078 A 
ATOM      5  C3  OXE d   1      -0.743  -3.736  -0.385  0.00  0.00     0.003 A 
ATOM      6  C4  OXE d   1      -1.010  -2.455  -0.882  0.00  0.00    -0.002 A 
ATOM      7  C5  OXE d   1      -1.696  -1.519  -0.101  0.00  0.00    -0.002 A 
ATOM      8  C6  OXE d   1      -2.115  -1.874   1.177  0.00  0.00     0.003 A 
ENDROOT
TORSDOF 0
ENDMDL
