MODEL 1
REMARK minimizedAffinity 6.31537437
REMARK minimizedRMSD -1
REMARK  0 active torsions:
REMARK  status: ('A' for Active; 'I' for Inactive)
ROOT
ATOM      1  C2' OXE d   1      -2.193   3.515  -4.468  0.00  0.00     0.078 C 
ATOM      2  C1' OXE d   1      -2.855   6.000  -3.342  0.00  0.00     0.078 C 
ATOM      3  C1  OXE d   1      -3.863   5.352  -4.258  0.00  0.00    -0.078 A 
ATOM      4  C2  OXE d   1      -3.511   4.158  -4.842  0.00  0.00    -0.078 A 
ATOM      5  C3  OXE d   1      -4.426   3.491  -5.652  0.00  0.00     0.003 A 
ATOM      6  C4  OXE d   1      -5.639   4.097  -6.000  0.00  0.00    -0.002 A 
ATOM      7  C5  OXE d   1      -6.000   5.331  -5.448  0.00  0.00    -0.002 A 
ATOM      8  C6  OXE d   1      -5.144   5.950  -4.544  0.00  0.00     0.003 A 
ENDROOT
TORSDOF 0
ENDMDL
