MODEL 1
REMARK minimizedAffinity 11.0149879
REMARK minimizedRMSD -1
REMARK  0 active torsions:
REMARK  status: ('A' for Active; 'I' for Inactive)
ROOT
ATOM      1  C2' OXE d   1       2.314   1.266  -1.104  0.00  0.00     0.078 C 
ATOM      2  C1' OXE d   1       4.522   2.839  -0.378  0.00  0.00     0.078 C 
ATOM      3  C1  OXE d   1       4.679   1.906  -1.553  0.00  0.00    -0.078 A 
ATOM      4  C2  OXE d   1       3.608   1.106  -1.872  0.00  0.00    -0.078 A 
ATOM      5  C3  OXE d   1       3.681   0.267  -2.980  0.00  0.00     0.003 A 
ATOM      6  C4  OXE d   1       4.885   0.118  -3.679  0.00  0.00    -0.002 A 
ATOM      7  C5  OXE d   1       6.000   0.895  -3.346  0.00  0.00    -0.002 A 
ATOM      8  C6  OXE d   1       5.901   1.822  -2.315  0.00  0.00     0.003 A 
ENDROOT
TORSDOF 0
ENDMDL
