MODEL 1
REMARK minimizedAffinity 16.3440113
REMARK minimizedRMSD -1
REMARK  0 active torsions:
REMARK  status: ('A' for Active; 'I' for Inactive)
ROOT
ATOM      1  C2' OXE d   1       4.402   1.106   4.253  0.00  0.00     0.078 C 
ATOM      2  C1' OXE d   1       2.228   1.428   5.999  0.00  0.00     0.078 C 
ATOM      3  C1  OXE d   1       2.973   2.666   5.568  0.00  0.00    -0.078 A 
ATOM      4  C2  OXE d   1       4.064   2.495   4.751  0.00  0.00    -0.078 A 
ATOM      5  C3  OXE d   1       4.754   3.608   4.280  0.00  0.00     0.003 A 
ATOM      6  C4  OXE d   1       4.441   4.889   4.753  0.00  0.00    -0.002 A 
ATOM      7  C5  OXE d   1       3.358   5.081   5.617  0.00  0.00    -0.002 A 
ATOM      8  C6  OXE d   1       2.589   3.987   6.000  0.00  0.00     0.003 A 
ENDROOT
TORSDOF 0
ENDMDL
