MODEL 1
REMARK minimizedAffinity 10.2378311
REMARK minimizedRMSD -1
REMARK  0 active torsions:
REMARK  status: ('A' for Active; 'I' for Inactive)
ROOT
ATOM      1  C2' OXE d   1      -2.253  -1.474   5.511  0.00  0.00     0.078 C 
ATOM      2  C1' OXE d   1      -4.981  -1.927   5.997  0.00  0.00     0.078 C 
ATOM      3  C1  OXE d   1      -4.513  -0.497   5.889  0.00  0.00    -0.078 A 
ATOM      4  C2  OXE d   1      -3.169  -0.284   5.697  0.00  0.00    -0.078 A 
ATOM      5  C3  OXE d   1      -2.693   1.014   5.536  0.00  0.00     0.003 A 
ATOM      6  C4  OXE d   1      -3.546   2.110   5.720  0.00  0.00    -0.002 A 
ATOM      7  C5  OXE d   1      -4.911   1.916   5.954  0.00  0.00    -0.002 A 
ATOM      8  C6  OXE d   1      -5.417   0.622   5.999  0.00  0.00     0.003 A 
ENDROOT
TORSDOF 0
ENDMDL
