MODEL 1
REMARK minimizedAffinity 5.62307644
REMARK minimizedRMSD -1
REMARK  0 active torsions:
REMARK  status: ('A' for Active; 'I' for Inactive)
ROOT
ATOM      1  C2' OXE d   1      -5.962   4.058  -5.999  0.00  0.00     0.078 C 
ATOM      2  C1' OXE d   1      -4.743   6.000  -4.380  0.00  0.00     0.078 C 
ATOM      3  C1  OXE d   1      -3.954   4.755  -4.701  0.00  0.00    -0.078 A 
ATOM      4  C2  OXE d   1      -4.575   3.789  -5.455  0.00  0.00    -0.078 A 
ATOM      5  C3  OXE d   1      -3.873   2.646  -5.826  0.00  0.00     0.003 A 
ATOM      6  C4  OXE d   1      -2.595   2.401  -5.310  0.00  0.00    -0.002 A 
ATOM      7  C5  OXE d   1      -1.958   3.354  -4.507  0.00  0.00    -0.002 A 
ATOM      8  C6  OXE d   1      -2.606   4.552  -4.229  0.00  0.00     0.003 A 
ENDROOT
TORSDOF 0
ENDMDL
