MODEL 1
REMARK minimizedAffinity 7.68852901
REMARK minimizedRMSD -1
REMARK  0 active torsions:
REMARK  status: ('A' for Active; 'I' for Inactive)
ROOT
ATOM      1  C2' OXE d   1      -0.510  -0.916  -2.501  0.00  0.00     0.078 C 
ATOM      2  C1' OXE d   1      -2.696   0.616  -3.370  0.00  0.00     0.078 C 
ATOM      3  C1  OXE d   1      -2.809  -0.078  -2.036  0.00  0.00    -0.078 A 
ATOM      4  C2  OXE d   1      -1.754  -0.864  -1.640  0.00  0.00    -0.078 A 
ATOM      5  C3  OXE d   1      -1.785  -1.482  -0.393  0.00  0.00     0.003 A 
ATOM      6  C4  OXE d   1      -2.943  -1.437   0.392  0.00  0.00    -0.002 A 
ATOM      7  C5  OXE d   1      -4.044  -0.674  -0.011  0.00  0.00    -0.002 A 
ATOM      8  C6  OXE d   1      -3.978   0.044  -1.200  0.00  0.00     0.003 A 
ENDROOT
TORSDOF 0
ENDMDL
