MODEL 1
REMARK minimizedAffinity 3.02323389
REMARK minimizedRMSD -1
REMARK  0 active torsions:
REMARK  status: ('A' for Active; 'I' for Inactive)
ROOT
ATOM      1  C2' OXE d   1      -3.370   1.216  -3.837  0.00  0.00     0.078 C 
ATOM      2  C1' OXE d   1      -4.487   0.602  -1.336  0.00  0.00     0.078 C 
ATOM      3  C1  OXE d   1      -3.119   0.051  -1.650  0.00  0.00    -0.078 A 
ATOM      4  C2  OXE d   1      -2.600   0.318  -2.894  0.00  0.00    -0.078 A 
ATOM      5  C3  OXE d   1      -1.318  -0.121  -3.215  0.00  0.00     0.003 A 
ATOM      6  C4  OXE d   1      -0.617  -0.960  -2.341  0.00  0.00    -0.002 A 
ATOM      7  C5  OXE d   1      -1.144  -1.277  -1.085  0.00  0.00    -0.002 A 
ATOM      8  C6  OXE d   1      -2.373  -0.745  -0.708  0.00  0.00     0.003 A 
ENDROOT
TORSDOF 0
ENDMDL
