MODEL 1
REMARK minimizedAffinity 20.5605984
REMARK minimizedRMSD -1
REMARK  0 active torsions:
REMARK  status: ('A' for Active; 'I' for Inactive)
ROOT
ATOM      1  C2' OXE d   1      -1.931  -1.140   0.027  0.00  0.00     0.078 C 
ATOM      2  C1' OXE d   1      -2.378  -1.146   2.798  0.00  0.00     0.078 C 
ATOM      3  C1  OXE d   1      -3.583  -1.169   1.892  0.00  0.00    -0.078 A 
ATOM      4  C2  OXE d   1      -3.356  -1.118   0.537  0.00  0.00    -0.078 A 
ATOM      5  C3  OXE d   1      -4.430  -1.191  -0.345  0.00  0.00     0.003 A 
ATOM      6  C4  OXE d   1      -5.745  -1.161   0.135  0.00  0.00    -0.002 A 
ATOM      7  C5  OXE d   1      -5.999  -1.172   1.511  0.00  0.00    -0.002 A 
ATOM      8  C6  OXE d   1      -4.931  -1.219   2.401  0.00  0.00     0.003 A 
ENDROOT
TORSDOF 0
ENDMDL
