MODEL 1
REMARK minimizedAffinity 13.0092335
REMARK minimizedRMSD -1
REMARK  1 active torsions:
REMARK  status: ('A' for Active; 'I' for Inactive)
REMARK    1  A    between atoms: C1_2  and  C2_3 
ROOT
ATOM      1  C2  UNL d   1      -1.181   2.375  -2.914  0.00  0.00    -0.077 A 
ATOM      2  C3  UNL d   1      -0.923   1.353  -1.989  0.00  0.00     0.002 A 
ATOM      3  C4  UNL d   1      -1.976   0.699  -1.348  0.00  0.00     0.002 A 
ATOM      4  C5  UNL d   1      -3.294   1.055  -1.627  0.00  0.00    -0.004 A 
ATOM      5  C6  UNL d   1      -3.561   2.071  -2.544  0.00  0.00     0.002 A 
ATOM      6  C7  UNL d   1      -2.510   2.727  -3.185  0.00  0.00     0.002 A 
ENDROOT
BRANCH   1   7
ATOM      7  C1  UNL d   1      -0.049   3.048  -3.644  0.00  0.00     0.055 C 
ATOM      8  C   UNL d   1       0.277   2.329  -4.945  0.00  0.00     0.019 C 
ENDBRANCH   1   7
TORSDOF 1
ENDMDL
