MODEL 1
REMARK minimizedAffinity 14.5477762
REMARK minimizedRMSD -1
REMARK  1 active torsions:
REMARK  status: ('A' for Active; 'I' for Inactive)
REMARK    1  A    between atoms: C1_2  and  C2_3 
ROOT
ATOM      1  C2  UNL d   1      -3.661   2.432  -4.038  0.00  0.00    -0.077 A 
ATOM      2  C3  UNL d   1      -4.045   3.767  -4.231  0.00  0.00     0.002 A 
ATOM      3  C4  UNL d   1      -5.208   4.072  -4.941  0.00  0.00     0.002 A 
ATOM      4  C5  UNL d   1      -5.997   3.048  -5.461  0.00  0.00    -0.004 A 
ATOM      5  C6  UNL d   1      -5.623   1.718  -5.277  0.00  0.00     0.002 A 
ATOM      6  C7  UNL d   1      -4.461   1.411  -4.568  0.00  0.00     0.002 A 
ENDROOT
BRANCH   1   7
ATOM      7  C1  UNL d   1      -2.434   2.100  -3.230  0.00  0.00     0.055 C 
ATOM      8  C   UNL d   1      -2.689   0.927  -2.295  0.00  0.00     0.019 C 
ENDBRANCH   1   7
TORSDOF 1
ENDMDL
