MODEL 1
REMARK minimizedAffinity 6.99253511
REMARK minimizedRMSD -1
REMARK  1 active torsions:
REMARK  status: ('A' for Active; 'I' for Inactive)
REMARK    1  A    between atoms: C1_2  and  C2_3 
ROOT
ATOM      1  C2  UNL d   1      -2.702   3.283  -4.040  0.00  0.00    -0.077 A 
ATOM      2  C3  UNL d   1      -2.985   4.655  -3.974  0.00  0.00     0.002 A 
ATOM      3  C4  UNL d   1      -3.829   5.248  -4.914  0.00  0.00     0.002 A 
ATOM      4  C5  UNL d   1      -4.400   4.477  -5.924  0.00  0.00    -0.004 A 
ATOM      5  C6  UNL d   1      -4.123   3.112  -6.000  0.00  0.00     0.002 A 
ATOM      6  C7  UNL d   1      -3.279   2.518  -5.061  0.00  0.00     0.002 A 
ENDROOT
BRANCH   1   7
ATOM      7  C1  UNL d   1      -1.830   2.632  -2.997  0.00  0.00     0.055 C 
ATOM      8  C   UNL d   1      -2.629   1.667  -2.133  0.00  0.00     0.019 C 
ENDBRANCH   1   7
TORSDOF 1
ENDMDL
