MODEL 1
REMARK minimizedAffinity 5.16703749
REMARK minimizedRMSD -1
REMARK  1 active torsions:
REMARK  status: ('A' for Active; 'I' for Inactive)
REMARK    1  A    between atoms: C1_2  and  C2_3 
ROOT
ATOM      1  C2  UNL d   1      -4.666   1.617  -3.914  0.00  0.00    -0.077 A 
ATOM      2  C3  UNL d   1      -4.080   0.983  -2.810  0.00  0.00     0.002 A 
ATOM      3  C4  UNL d   1      -2.906   1.486  -2.247  0.00  0.00     0.002 A 
ATOM      4  C5  UNL d   1      -2.309   2.627  -2.779  0.00  0.00    -0.004 A 
ATOM      5  C6  UNL d   1      -2.883   3.264  -3.878  0.00  0.00     0.002 A 
ATOM      6  C7  UNL d   1      -4.056   2.762  -4.443  0.00  0.00     0.002 A 
ENDROOT
BRANCH   1   7
ATOM      7  C1  UNL d   1      -5.959   1.105  -4.492  0.00  0.00     0.055 C 
ATOM      8  C   UNL d   1      -6.000  -0.416  -4.496  0.00  0.00     0.019 C 
ENDBRANCH   1   7
TORSDOF 1
ENDMDL
