MODEL 1
REMARK minimizedAffinity 0.692864835
REMARK minimizedRMSD -1
REMARK  1 active torsions:
REMARK  status: ('A' for Active; 'I' for Inactive)
REMARK    1  A    between atoms: C1_2  and  C2_3 
ROOT
ATOM      1  C2  UNL d   1       1.529   5.695   5.248  0.00  0.00    -0.077 A 
ATOM      2  C3  UNL d   1       0.385   6.000   6.000  0.00  0.00     0.002 A 
ATOM      3  C4  UNL d   1      -0.881   5.944   5.413  0.00  0.00     0.002 A 
ATOM      4  C5  UNL d   1      -1.015   5.580   4.075  0.00  0.00    -0.004 A 
ATOM      5  C6  UNL d   1       0.117   5.277   3.319  0.00  0.00     0.002 A 
ATOM      6  C7  UNL d   1       1.383   5.334   3.903  0.00  0.00     0.002 A 
ENDROOT
BRANCH   1   7
ATOM      7  C1  UNL d   1       2.890   5.707   5.892  0.00  0.00     0.055 C 
ATOM      8  C   UNL d   1       3.983   5.985   4.871  0.00  0.00     0.019 C 
ENDBRANCH   1   7
TORSDOF 1
ENDMDL
