MODEL 1
REMARK minimizedAffinity 7.44283867
REMARK minimizedRMSD -1
REMARK  1 active torsions:
REMARK  status: ('A' for Active; 'I' for Inactive)
REMARK    1  A    between atoms: C1_2  and  C2_3 
ROOT
ATOM      1  C2  UNL d   1       2.059  -2.469   1.112  0.00  0.00    -0.077 A 
ATOM      2  C3  UNL d   1       1.508  -3.745   0.930  0.00  0.00     0.002 A 
ATOM      3  C4  UNL d   1       2.338  -4.859   0.784  0.00  0.00     0.002 A 
ATOM      4  C5  UNL d   1       3.723  -4.708   0.822  0.00  0.00    -0.004 A 
ATOM      5  C6  UNL d   1       4.280  -3.442   1.001  0.00  0.00     0.002 A 
ATOM      6  C7  UNL d   1       3.453  -2.328   1.146  0.00  0.00     0.002 A 
ENDROOT
BRANCH   1   7
ATOM      7  C1  UNL d   1       1.166  -1.274   1.320  0.00  0.00     0.055 C 
ATOM      8  C   UNL d   1       0.030  -1.592   2.281  0.00  0.00     0.019 C 
ENDBRANCH   1   7
TORSDOF 1
ENDMDL
