MODEL 1
REMARK minimizedAffinity 6.52654696
REMARK minimizedRMSD -1
REMARK  1 active torsions:
REMARK  status: ('A' for Active; 'I' for Inactive)
REMARK    1  A    between atoms: C1_2  and  C2_3 
ROOT
ATOM      1  C2  UNL d   1       4.155  -2.306  -0.123  0.00  0.00    -0.077 A 
ATOM      2  C3  UNL d   1       3.528  -1.438   0.783  0.00  0.00     0.002 A 
ATOM      3  C4  UNL d   1       2.185  -1.618   1.119  0.00  0.00     0.002 A 
ATOM      4  C5  UNL d   1       1.459  -2.667   0.558  0.00  0.00    -0.004 A 
ATOM      5  C6  UNL d   1       2.073  -3.534  -0.346  0.00  0.00     0.002 A 
ATOM      6  C7  UNL d   1       3.415  -3.355  -0.684  0.00  0.00     0.002 A 
ENDROOT
BRANCH   1   7
ATOM      7  C1  UNL d   1       5.617  -2.143  -0.449  0.00  0.00     0.055 C 
ATOM      8  C   UNL d   1       5.979  -0.679  -0.654  0.00  0.00     0.019 C 
ENDBRANCH   1   7
TORSDOF 1
ENDMDL
