MODEL 1
REMARK minimizedAffinity 9.28635025
REMARK minimizedRMSD -1
REMARK  1 active torsions:
REMARK  status: ('A' for Active; 'I' for Inactive)
REMARK    1  A    between atoms: C1_2  and  C2_3 
ROOT
ATOM      1  C2  UNL d   1       5.353   1.431  -4.631  0.00  0.00    -0.077 A 
ATOM      2  C3  UNL d   1       5.997   0.505  -3.798  0.00  0.00     0.002 A 
ATOM      3  C4  UNL d   1       5.499  -0.794  -3.670  0.00  0.00     0.002 A 
ATOM      4  C5  UNL d   1       4.360  -1.178  -4.373  0.00  0.00    -0.004 A 
ATOM      5  C6  UNL d   1       3.712  -0.263  -5.202  0.00  0.00     0.002 A 
ATOM      6  C7  UNL d   1       4.207   1.035  -5.331  0.00  0.00     0.002 A 
ENDROOT
BRANCH   1   7
ATOM      7  C1  UNL d   1       5.916   2.817  -4.809  0.00  0.00     0.055 C 
ATOM      8  C   UNL d   1       5.277   3.526  -5.994  0.00  0.00     0.019 C 
ENDBRANCH   1   7
TORSDOF 1
ENDMDL
