MODEL 1
REMARK minimizedAffinity 9.11314487
REMARK minimizedRMSD -1
REMARK  1 active torsions:
REMARK  status: ('A' for Active; 'I' for Inactive)
REMARK    1  A    between atoms: C1_2  and  C2_3 
ROOT
ATOM      1  C2  UNL d   1       2.075  -1.035   2.201  0.00  0.00    -0.077 A 
ATOM      2  C3  UNL d   1       0.794  -1.584   2.048  0.00  0.00     0.002 A 
ATOM      3  C4  UNL d   1       0.468  -2.306   0.898  0.00  0.00     0.002 A 
ATOM      4  C5  UNL d   1       1.418  -2.490  -0.104  0.00  0.00    -0.004 A 
ATOM      5  C6  UNL d   1       2.694  -1.946   0.038  0.00  0.00     0.002 A 
ATOM      6  C7  UNL d   1       3.021  -1.223   1.186  0.00  0.00     0.002 A 
ENDROOT
BRANCH   1   7
ATOM      7  C1  UNL d   1       2.443  -0.298   3.462  0.00  0.00     0.055 C 
ATOM      8  C   UNL d   1       3.388  -1.119   4.327  0.00  0.00     0.019 C 
ENDBRANCH   1   7
TORSDOF 1
ENDMDL
