MODEL 1
REMARK minimizedAffinity 1.20865548
REMARK minimizedRMSD -1
REMARK  1 active torsions:
REMARK  status: ('A' for Active; 'I' for Inactive)
REMARK    1  A    between atoms: C1_2  and  C2_3 
ROOT
ATOM      1  C2  UNL d   1      -3.668   3.576  -5.079  0.00  0.00    -0.077 A 
ATOM      2  C3  UNL d   1      -3.120   4.812  -4.706  0.00  0.00     0.002 A 
ATOM      3  C4  UNL d   1      -3.838   5.992  -4.908  0.00  0.00     0.002 A 
ATOM      4  C5  UNL d   1      -5.108   5.949  -5.480  0.00  0.00    -0.004 A 
ATOM      5  C6  UNL d   1      -5.660   4.725  -5.857  0.00  0.00     0.002 A 
ATOM      6  C7  UNL d   1      -4.943   3.544  -5.657  0.00  0.00     0.002 A 
ENDROOT
BRANCH   1   7
ATOM      7  C1  UNL d   1      -2.916   2.298  -4.817  0.00  0.00     0.055 C 
ATOM      8  C   UNL d   1      -2.275   2.305  -3.437  0.00  0.00     0.019 C 
ENDBRANCH   1   7
TORSDOF 1
ENDMDL
