MODEL 1
REMARK minimizedAffinity 4.81593227
REMARK minimizedRMSD -1
REMARK  1 active torsions:
REMARK  status: ('A' for Active; 'I' for Inactive)
REMARK    1  A    between atoms: C1_2  and  C2_3 
ROOT
ATOM      1  C2  UNL d   1      -0.756   2.146  -3.998  0.00  0.00    -0.077 A 
ATOM      2  C3  UNL d   1      -1.341   2.162  -5.273  0.00  0.00     0.002 A 
ATOM      3  C4  UNL d   1      -2.727   2.072  -5.415  0.00  0.00     0.002 A 
ATOM      4  C5  UNL d   1      -3.539   1.970  -4.288  0.00  0.00    -0.004 A 
ATOM      5  C6  UNL d   1      -2.968   1.951  -3.017  0.00  0.00     0.002 A 
ATOM      6  C7  UNL d   1      -1.583   2.039  -2.872  0.00  0.00     0.002 A 
ENDROOT
BRANCH   1   7
ATOM      7  C1  UNL d   1       0.735   2.292  -3.840  0.00  0.00     0.055 C 
ATOM      8  C   UNL d   1       1.215   3.644  -4.347  0.00  0.00     0.019 C 
ENDBRANCH   1   7
TORSDOF 1
ENDMDL
