MODEL 1
REMARK minimizedAffinity 7.7271986
REMARK minimizedRMSD -1
REMARK  0 active torsions:
REMARK  status: ('A' for Active; 'I' for Inactive)
ROOT
ATOM      1  C2' OXE d   1       1.450  -4.948  -0.413  0.00  0.00     0.078 C 
ATOM      2  C1' OXE d   1       2.450  -2.364   0.037  0.00  0.00     0.078 C 
ATOM      3  C1  OXE d   1       3.424  -3.428  -0.405  0.00  0.00    -0.078 A 
ATOM      4  C2  OXE d   1       2.934  -4.700  -0.578  0.00  0.00    -0.078 A 
ATOM      5  C3  OXE d   1       3.779  -5.707  -1.038  0.00  0.00     0.003 A 
ATOM      6  C4  OXE d   1       5.152  -5.471  -1.178  0.00  0.00    -0.002 A 
ATOM      7  C5  OXE d   1       5.678  -4.192  -0.968  0.00  0.00    -0.002 A 
ATOM      8  C6  OXE d   1       4.822  -3.152  -0.624  0.00  0.00     0.003 A 
ENDROOT
TORSDOF 0
ENDMDL
