MODEL 1
REMARK minimizedAffinity -0.202018172
REMARK minimizedRMSD -1
REMARK  0 active torsions:
REMARK  status: ('A' for Active; 'I' for Inactive)
ROOT
ATOM      1  C2' OXE d   1      -5.999   3.534  -5.367  0.00  0.00     0.078 C 
ATOM      2  C1' OXE d   1      -5.988   0.743  -5.069  0.00  0.00     0.078 C 
ATOM      3  C1  OXE d   1      -5.983   1.584  -3.817  0.00  0.00    -0.078 A 
ATOM      4  C2  OXE d   1      -5.942   2.949  -3.972  0.00  0.00    -0.078 A 
ATOM      5  C3  OXE d   1      -5.991   3.772  -2.851  0.00  0.00     0.003 A 
ATOM      6  C4  OXE d   1      -5.928   3.222  -1.565  0.00  0.00    -0.002 A 
ATOM      7  C5  OXE d   1      -5.929   1.835  -1.385  0.00  0.00    -0.002 A 
ATOM      8  C6  OXE d   1      -5.999   1.003  -2.497  0.00  0.00     0.003 A 
ENDROOT
TORSDOF 0
ENDMDL
