MODEL 1
REMARK minimizedAffinity 8.40661812
REMARK minimizedRMSD -1
REMARK  0 active torsions:
REMARK  status: ('A' for Active; 'I' for Inactive)
ROOT
ATOM      1  C2' OXE d   1      -4.825   0.015   2.098  0.00  0.00     0.078 C 
ATOM      2  C1' OXE d   1      -2.992   2.125   1.833  0.00  0.00     0.078 C 
ATOM      3  C1  OXE d   1      -4.046   1.971   0.765  0.00  0.00    -0.078 A 
ATOM      4  C2  OXE d   1      -4.909   0.908   0.879  0.00  0.00    -0.078 A 
ATOM      5  C3  OXE d   1      -5.935   0.750  -0.050  0.00  0.00     0.003 A 
ATOM      6  C4  OXE d   1      -6.000   1.574  -1.180  0.00  0.00    -0.002 A 
ATOM      7  C5  OXE d   1      -5.106   2.638  -1.335  0.00  0.00    -0.002 A 
ATOM      8  C6  OXE d   1      -4.152   2.876  -0.352  0.00  0.00     0.003 A 
ENDROOT
TORSDOF 0
ENDMDL
