MODEL 1
REMARK minimizedAffinity 2.68321085
REMARK minimizedRMSD -1
REMARK  0 active torsions:
REMARK  status: ('A' for Active; 'I' for Inactive)
ROOT
ATOM      1  C2' OXE d   1      -5.980   0.751  -4.875  0.00  0.00     0.078 C 
ATOM      2  C1' OXE d   1      -5.887   3.555  -4.966  0.00  0.00     0.078 C 
ATOM      3  C1  OXE d   1      -5.907   2.896  -3.610  0.00  0.00    -0.078 A 
ATOM      4  C2  OXE d   1      -6.000   1.525  -3.575  0.00  0.00    -0.078 A 
ATOM      5  C3  OXE d   1      -5.968   0.863  -2.350  0.00  0.00     0.003 A 
ATOM      6  C4  OXE d   1      -5.996   1.587  -1.152  0.00  0.00    -0.002 A 
ATOM      7  C5  OXE d   1      -5.943   2.985  -1.166  0.00  0.00    -0.002 A 
ATOM      8  C6  OXE d   1      -5.855   3.652  -2.383  0.00  0.00     0.003 A 
ENDROOT
TORSDOF 0
ENDMDL
