MODEL 1
REMARK minimizedAffinity 8.43067169
REMARK minimizedRMSD -1
REMARK  0 active torsions:
REMARK  status: ('A' for Active; 'I' for Inactive)
ROOT
ATOM      1  C2' OXE d   1      -0.930  -4.496  -1.800  0.00  0.00     0.078 C 
ATOM      2  C1' OXE d   1       1.099  -5.995  -0.568  0.00  0.00     0.078 C 
ATOM      3  C1  OXE d   1       1.070  -4.509  -0.315  0.00  0.00    -0.078 A 
ATOM      4  C2  OXE d   1       0.103  -3.776  -0.959  0.00  0.00    -0.078 A 
ATOM      5  C3  OXE d   1      -0.002  -2.409  -0.718  0.00  0.00     0.003 A 
ATOM      6  C4  OXE d   1       0.963  -1.750   0.053  0.00  0.00    -0.002 A 
ATOM      7  C5  OXE d   1       1.980  -2.471   0.687  0.00  0.00    -0.002 A 
ATOM      8  C6  OXE d   1       2.023  -3.854   0.547  0.00  0.00     0.003 A 
ENDROOT
TORSDOF 0
ENDMDL
