MODEL 1
REMARK minimizedAffinity 5.05167866
REMARK minimizedRMSD -1
REMARK  0 active torsions:
REMARK  status: ('A' for Active; 'I' for Inactive)
ROOT
ATOM      1  C2' OXE d   1      -5.711   2.652  -0.208  0.00  0.00     0.078 C 
ATOM      2  C1' OXE d   1      -5.681   4.914  -1.870  0.00  0.00     0.078 C 
ATOM      3  C1  OXE d   1      -5.811   3.562  -2.525  0.00  0.00    -0.078 A 
ATOM      4  C2  OXE d   1      -5.778   2.458  -1.708  0.00  0.00    -0.078 A 
ATOM      5  C3  OXE d   1      -5.949   1.189  -2.255  0.00  0.00     0.003 A 
ATOM      6  C4  OXE d   1      -6.000   1.018  -3.644  0.00  0.00    -0.002 A 
ATOM      7  C5  OXE d   1      -5.995   2.127  -4.497  0.00  0.00    -0.002 A 
ATOM      8  C6  OXE d   1      -5.945   3.405  -3.952  0.00  0.00     0.003 A 
ENDROOT
TORSDOF 0
ENDMDL
