MODEL 1
REMARK minimizedAffinity 6.10527229
REMARK minimizedRMSD -1
REMARK  0 active torsions:
REMARK  status: ('A' for Active; 'I' for Inactive)
ROOT
ATOM      1  C2' OXE d   1      -0.073   2.118  -0.795  0.00  0.00     0.078 C 
ATOM      2  C1' OXE d   1       1.657   4.305  -0.469  0.00  0.00     0.078 C 
ATOM      3  C1  OXE d   1       0.336   4.549  -1.154  0.00  0.00    -0.078 A 
ATOM      4  C2  OXE d   1      -0.484   3.464  -1.351  0.00  0.00    -0.078 A 
ATOM      5  C3  OXE d   1      -1.738   3.644  -1.928  0.00  0.00     0.003 A 
ATOM      6  C4  OXE d   1      -2.106   4.890  -2.449  0.00  0.00    -0.002 A 
ATOM      7  C5  OXE d   1      -1.269   6.000  -2.294  0.00  0.00    -0.002 A 
ATOM      8  C6  OXE d   1      -0.065   5.856  -1.613  0.00  0.00     0.003 A 
ENDROOT
TORSDOF 0
ENDMDL
