MODEL 1
REMARK minimizedAffinity 12.1383333
REMARK minimizedRMSD -1
REMARK  0 active torsions:
REMARK  status: ('A' for Active; 'I' for Inactive)
ROOT
ATOM      1  C2' OXE d   1      -0.752   6.000   0.845  0.00  0.00     0.078 C 
ATOM      2  C1' OXE d   1       0.367   3.486   0.290  0.00  0.00     0.078 C 
ATOM      3  C1  OXE d   1      -0.563   4.084  -0.736  0.00  0.00    -0.078 A 
ATOM      4  C2  OXE d   1      -1.142   5.294  -0.436  0.00  0.00    -0.078 A 
ATOM      5  C3  OXE d   1      -1.964   5.916  -1.371  0.00  0.00     0.003 A 
ATOM      6  C4  OXE d   1      -2.328   5.251  -2.548  0.00  0.00    -0.002 A 
ATOM      7  C5  OXE d   1      -1.780   4.001  -2.856  0.00  0.00    -0.002 A 
ATOM      8  C6  OXE d   1      -0.865   3.424  -1.982  0.00  0.00     0.003 A 
ENDROOT
TORSDOF 0
ENDMDL
