MODEL 1
REMARK minimizedAffinity -2.08679008
REMARK minimizedRMSD -1
REMARK  0 active torsions:
REMARK  status: ('A' for Active; 'I' for Inactive)
ROOT
ATOM      1  C2' OXE d   1      -5.688   4.132  -5.237  0.00  0.00     0.078 C 
ATOM      2  C1' OXE d   1      -6.000   5.967  -3.135  0.00  0.00     0.078 C 
ATOM      3  C1  OXE d   1      -5.927   4.501  -2.785  0.00  0.00    -0.078 A 
ATOM      4  C2  OXE d   1      -5.821   3.608  -3.824  0.00  0.00    -0.078 A 
ATOM      5  C3  OXE d   1      -5.695   2.248  -3.554  0.00  0.00     0.003 A 
ATOM      6  C4  OXE d   1      -5.830   1.771  -2.244  0.00  0.00    -0.002 A 
ATOM      7  C5  OXE d   1      -5.978   2.661  -1.176  0.00  0.00    -0.002 A 
ATOM      8  C6  OXE d   1      -5.986   4.029  -1.424  0.00  0.00     0.003 A 
ENDROOT
TORSDOF 0
ENDMDL
