MODEL 1
REMARK minimizedAffinity 18.7267075
REMARK minimizedRMSD -1
REMARK  0 active torsions:
REMARK  status: ('A' for Active; 'I' for Inactive)
ROOT
ATOM      1  C   UNL d   1      -4.730  -4.751   4.094  0.00  0.00     0.124 A 
ATOM      2  C1  UNL d   1      -5.095  -3.823   5.059  0.00  0.00     0.062 A 
ATOM      3  C2  UNL d   1      -4.531  -2.550   5.055  0.00  0.00     0.162 A 
ATOM      4  C3  UNL d   1      -3.597  -2.197   4.081  0.00  0.00    -0.034 A 
ATOM      5  C4  UNL d   1      -3.235  -3.137   3.114  0.00  0.00     0.162 A 
ATOM      6  C5  UNL d   1      -3.801  -4.407   3.122  0.00  0.00     0.062 A 
ATOM      7  F   UNL d   1      -3.448  -5.303   2.189  0.00  0.00    -0.097 F 
ATOM      8  F1  UNL d   1      -2.340  -2.831   2.163  0.00  0.00    -0.096 F 
ATOM      9  I   UNL d   1      -2.752  -0.295   4.071  0.00  0.00    -0.060 I 
ATOM     10  F2  UNL d   1      -4.902  -1.673   6.000  0.00  0.00    -0.096 F 
ATOM     11  F3  UNL d   1      -5.992  -4.153   6.000  0.00  0.00    -0.097 F 
ATOM     12  F4  UNL d   1      -5.273  -5.975   4.101  0.00  0.00    -0.092 F 
ENDROOT
TORSDOF 0
ENDMDL
