MODEL 1
REMARK minimizedAffinity 21.4955387
REMARK minimizedRMSD -1
REMARK  0 active torsions:
REMARK  status: ('A' for Active; 'I' for Inactive)
ROOT
ATOM      1  C   UNL d   1       2.583   2.596  -3.236  0.00  0.00     0.124 A 
ATOM      2  C1  UNL d   1       3.657   2.326  -4.072  0.00  0.00     0.062 A 
ATOM      3  C2  UNL d   1       4.629   3.296  -4.298  0.00  0.00     0.162 A 
ATOM      4  C3  UNL d   1       4.533   4.545  -3.684  0.00  0.00    -0.034 A 
ATOM      5  C4  UNL d   1       3.449   4.809  -2.845  0.00  0.00     0.162 A 
ATOM      6  C5  UNL d   1       2.480   3.837  -2.623  0.00  0.00     0.062 A 
ATOM      7  F   UNL d   1       1.443   4.099  -1.814  0.00  0.00    -0.097 F 
ATOM      8  F1  UNL d   1       3.326   6.000  -2.239  0.00  0.00    -0.096 F 
ATOM      9  I   UNL d   1       5.985   5.998  -4.019  0.00  0.00    -0.060 I 
ATOM     10  F2  UNL d   1       5.656   3.008  -5.111  0.00  0.00    -0.096 F 
ATOM     11  F3  UNL d   1       3.758   1.128  -4.666  0.00  0.00    -0.097 F 
ATOM     12  F4  UNL d   1       1.648   1.661  -3.021  0.00  0.00    -0.092 F 
ENDROOT
TORSDOF 0
ENDMDL
