MODEL 1
REMARK minimizedAffinity 21.4171219
REMARK minimizedRMSD -1
REMARK  0 active torsions:
REMARK  status: ('A' for Active; 'I' for Inactive)
ROOT
ATOM      1  C   UNL d   1       2.478  -0.055   1.395  0.00  0.00     0.124 A 
ATOM      2  C1  UNL d   1       2.460   0.841   0.334  0.00  0.00     0.062 A 
ATOM      3  C2  UNL d   1       3.352   1.909   0.306  0.00  0.00     0.162 A 
ATOM      4  C3  UNL d   1       4.270   2.087   1.340  0.00  0.00    -0.034 A 
ATOM      5  C4  UNL d   1       4.282   1.183   2.403  0.00  0.00     0.162 A 
ATOM      6  C5  UNL d   1       3.388   0.117   2.428  0.00  0.00     0.062 A 
ATOM      7  F   UNL d   1       3.407  -0.748   3.453  0.00  0.00    -0.097 F 
ATOM      8  F1  UNL d   1       5.152   1.324   3.414  0.00  0.00    -0.096 F 
ATOM      9  I   UNL d   1       5.606   3.683   1.300  0.00  0.00    -0.060 I 
ATOM     10  F2  UNL d   1       3.312   2.759  -0.731  0.00  0.00    -0.096 F 
ATOM     11  F3  UNL d   1       1.580   0.678  -0.664  0.00  0.00    -0.097 F 
ATOM     12  F4  UNL d   1       1.618  -1.081   1.420  0.00  0.00    -0.092 F 
ENDROOT
TORSDOF 0
ENDMDL
