MODEL 1
REMARK minimizedAffinity 16.5346165
REMARK minimizedRMSD -1
REMARK  0 active torsions:
REMARK  status: ('A' for Active; 'I' for Inactive)
ROOT
ATOM      1  C   UNL d   1      -1.794  -0.252   3.133  0.00  0.00     0.124 A 
ATOM      2  C1  UNL d   1      -1.822   0.679   4.162  0.00  0.00     0.062 A 
ATOM      3  C2  UNL d   1      -3.020   1.291   4.520  0.00  0.00     0.162 A 
ATOM      4  C3  UNL d   1      -4.201   0.973   3.848  0.00  0.00    -0.034 A 
ATOM      5  C4  UNL d   1      -4.164   0.037   2.813  0.00  0.00     0.162 A 
ATOM      6  C5  UNL d   1      -2.964  -0.572   2.460  0.00  0.00     0.062 A 
ATOM      7  F   UNL d   1      -2.939  -1.471   1.465  0.00  0.00    -0.097 F 
ATOM      8  F1  UNL d   1      -5.280  -0.292   2.146  0.00  0.00    -0.096 F 
ATOM      9  I   UNL d   1      -5.994   1.885   4.380  0.00  0.00    -0.060 I 
ATOM     10  F2  UNL d   1      -3.018   2.186   5.518  0.00  0.00    -0.096 F 
ATOM     11  F3  UNL d   1      -0.693   0.991   4.814  0.00  0.00    -0.097 F 
ATOM     12  F4  UNL d   1      -0.639  -0.838   2.790  0.00  0.00    -0.092 F 
ENDROOT
TORSDOF 0
ENDMDL
