MODEL 1
REMARK minimizedAffinity 23.8823738
REMARK minimizedRMSD -1
REMARK  0 active torsions:
REMARK  status: ('A' for Active; 'I' for Inactive)
ROOT
ATOM      1  C   UNL d   1       0.046  -0.876   3.430  0.00  0.00     0.124 A 
ATOM      2  C1  UNL d   1      -0.275  -1.552   2.261  0.00  0.00     0.062 A 
ATOM      3  C2  UNL d   1      -1.432  -1.227   1.559  0.00  0.00     0.162 A 
ATOM      4  C3  UNL d   1      -2.278  -0.220   2.024  0.00  0.00    -0.034 A 
ATOM      5  C4  UNL d   1      -1.949   0.455   3.201  0.00  0.00     0.162 A 
ATOM      6  C5  UNL d   1      -0.792   0.127   3.899  0.00  0.00     0.062 A 
ATOM      7  F   UNL d   1      -0.484   0.781   5.028  0.00  0.00    -0.097 F 
ATOM      8  F1  UNL d   1      -2.740   1.428   3.676  0.00  0.00    -0.096 F 
ATOM      9  I   UNL d   1      -4.009   0.268   0.978  0.00  0.00    -0.060 I 
ATOM     10  F2  UNL d   1      -1.717  -1.897   0.432  0.00  0.00    -0.096 F 
ATOM     11  F3  UNL d   1       0.532  -2.521   1.806  0.00  0.00    -0.097 F 
ATOM     12  F4  UNL d   1       1.159  -1.191   4.104  0.00  0.00    -0.092 F 
ENDROOT
TORSDOF 0
ENDMDL
