MODEL 1
REMARK minimizedAffinity 25.9258099
REMARK minimizedRMSD -1
REMARK  0 active torsions:
REMARK  status: ('A' for Active; 'I' for Inactive)
ROOT
ATOM      1  C   UNL d   1      -3.059  -0.655   1.832  0.00  0.00     0.124 A 
ATOM      2  C1  UNL d   1      -4.331  -0.109   1.734  0.00  0.00     0.062 A 
ATOM      3  C2  UNL d   1      -4.765   0.828   2.667  0.00  0.00     0.162 A 
ATOM      4  C3  UNL d   1      -3.925   1.226   3.707  0.00  0.00    -0.034 A 
ATOM      5  C4  UNL d   1      -2.647   0.672   3.800  0.00  0.00     0.162 A 
ATOM      6  C5  UNL d   1      -2.218  -0.264   2.864  0.00  0.00     0.062 A 
ATOM      7  F   UNL d   1      -0.988  -0.790   2.961  0.00  0.00    -0.097 F 
ATOM      8  F1  UNL d   1      -1.814   1.033   4.787  0.00  0.00    -0.096 F 
ATOM      9  I   UNL d   1      -4.570   2.627   5.105  0.00  0.00    -0.060 I 
ATOM     10  F2  UNL d   1      -5.999   1.339   2.547  0.00  0.00    -0.096 F 
ATOM     11  F3  UNL d   1      -5.145  -0.486   0.737  0.00  0.00    -0.097 F 
ATOM     12  F4  UNL d   1      -2.644  -1.557   0.933  0.00  0.00    -0.092 F 
ENDROOT
TORSDOF 0
ENDMDL
