MODEL 1
REMARK minimizedAffinity 22.6500664
REMARK minimizedRMSD -1
REMARK  0 active torsions:
REMARK  status: ('A' for Active; 'I' for Inactive)
ROOT
ATOM      1  C   UNL d   1      -0.017   3.637  -3.016  0.00  0.00     0.124 A 
ATOM      2  C1  UNL d   1       0.645   4.834  -2.774  0.00  0.00     0.062 A 
ATOM      3  C2  UNL d   1       1.952   4.827  -2.297  0.00  0.00     0.162 A 
ATOM      4  C3  UNL d   1       2.608   3.619  -2.058  0.00  0.00    -0.034 A 
ATOM      5  C4  UNL d   1       1.936   2.420  -2.302  0.00  0.00     0.162 A 
ATOM      6  C5  UNL d   1       0.629   2.432  -2.780  0.00  0.00     0.062 A 
ATOM      7  F   UNL d   1      -0.008   1.275  -3.012  0.00  0.00    -0.097 F 
ATOM      8  F1  UNL d   1       2.537   1.241  -2.083  0.00  0.00    -0.096 F 
ATOM      9  I   UNL d   1       4.562   3.605  -1.343  0.00  0.00    -0.060 I 
ATOM     10  F2  UNL d   1       2.567   5.998  -2.072  0.00  0.00    -0.096 F 
ATOM     11  F3  UNL d   1       0.023   6.000  -3.001  0.00  0.00    -0.097 F 
ATOM     12  F4  UNL d   1      -1.275   3.647  -3.475  0.00  0.00    -0.092 F 
ENDROOT
TORSDOF 0
ENDMDL
