MODEL 1
REMARK minimizedAffinity 21.2236977
REMARK minimizedRMSD -1
REMARK  0 active torsions:
REMARK  status: ('A' for Active; 'I' for Inactive)
ROOT
ATOM      1  C   UNL d   1      -0.646   3.978  -0.809  0.00  0.00     0.124 A 
ATOM      2  C1  UNL d   1      -1.970   4.282  -1.094  0.00  0.00     0.062 A 
ATOM      3  C2  UNL d   1      -2.348   4.613  -2.392  0.00  0.00     0.162 A 
ATOM      4  C3  UNL d   1      -1.401   4.641  -3.416  0.00  0.00    -0.034 A 
ATOM      5  C4  UNL d   1      -0.071   4.335  -3.121  0.00  0.00     0.162 A 
ATOM      6  C5  UNL d   1       0.302   4.005  -1.822  0.00  0.00     0.062 A 
ATOM      7  F   UNL d   1       1.581   3.712  -1.548  0.00  0.00    -0.097 F 
ATOM      8  F1  UNL d   1       0.865   4.353  -4.081  0.00  0.00    -0.096 F 
ATOM      9  I   UNL d   1      -1.962   5.135  -5.358  0.00  0.00    -0.060 I 
ATOM     10  F2  UNL d   1      -3.635   4.902  -2.639  0.00  0.00    -0.096 F 
ATOM     11  F3  UNL d   1      -2.888   4.257  -0.117  0.00  0.00    -0.097 F 
ATOM     12  F4  UNL d   1      -0.285   3.661   0.441  0.00  0.00    -0.092 F 
ENDROOT
TORSDOF 0
ENDMDL
