MODEL 1
REMARK minimizedAffinity 16.452425
REMARK minimizedRMSD -1
REMARK  0 active torsions:
REMARK  status: ('A' for Active; 'I' for Inactive)
ROOT
ATOM      1  C   UNL d   1      -3.732   0.693   2.784  0.00  0.00     0.124 A 
ATOM      2  C1  UNL d   1      -3.384  -0.140   1.730  0.00  0.00     0.062 A 
ATOM      3  C2  UNL d   1      -2.184  -0.845   1.761  0.00  0.00     0.162 A 
ATOM      4  C3  UNL d   1      -1.322  -0.720   2.851  0.00  0.00    -0.034 A 
ATOM      5  C4  UNL d   1      -1.678   0.121   3.907  0.00  0.00     0.162 A 
ATOM      6  C5  UNL d   1      -2.879   0.823   3.871  0.00  0.00     0.062 A 
ATOM      7  F   UNL d   1      -3.213   1.627   4.891  0.00  0.00    -0.097 F 
ATOM      8  F1  UNL d   1      -0.873   0.264   4.970  0.00  0.00    -0.096 F 
ATOM      9  I   UNL d   1       0.473  -1.771   2.901  0.00  0.00    -0.060 I 
ATOM     10  F2  UNL d   1      -1.874  -1.643   0.728  0.00  0.00    -0.096 F 
ATOM     11  F3  UNL d   1      -4.206  -0.267   0.678  0.00  0.00    -0.097 F 
ATOM     12  F4  UNL d   1      -4.887   1.370   2.752  0.00  0.00    -0.092 F 
ENDROOT
TORSDOF 0
ENDMDL
