MODEL 1
REMARK minimizedAffinity 17.7789173
REMARK minimizedRMSD -1
REMARK  0 active torsions:
REMARK  status: ('A' for Active; 'I' for Inactive)
ROOT
ATOM      1  C   UNL d   1      -3.171   4.820  -2.745  0.00  0.00     0.124 A 
ATOM      2  C1  UNL d   1      -2.418   4.839  -3.911  0.00  0.00     0.062 A 
ATOM      3  C2  UNL d   1      -1.029   4.798  -3.848  0.00  0.00     0.162 A 
ATOM      4  C3  UNL d   1      -0.382   4.736  -2.613  0.00  0.00    -0.034 A 
ATOM      5  C4  UNL d   1      -1.146   4.718  -1.445  0.00  0.00     0.162 A 
ATOM      6  C5  UNL d   1      -2.535   4.760  -1.514  0.00  0.00     0.062 A 
ATOM      7  F   UNL d   1      -3.261   4.741  -0.386  0.00  0.00    -0.097 F 
ATOM      8  F1  UNL d   1      -0.557   4.659  -0.241  0.00  0.00    -0.096 F 
ATOM      9  I   UNL d   1       1.696   4.673  -2.514  0.00  0.00    -0.060 I 
ATOM     10  F2  UNL d   1      -0.326   4.817  -4.990  0.00  0.00    -0.096 F 
ATOM     11  F3  UNL d   1      -3.031   4.899  -5.102  0.00  0.00    -0.097 F 
ATOM     12  F4  UNL d   1      -4.508   4.862  -2.809  0.00  0.00    -0.092 F 
ENDROOT
TORSDOF 0
ENDMDL
