MODEL 1
REMARK minimizedAffinity 22.2225323
REMARK minimizedRMSD -1
REMARK  0 active torsions:
REMARK  status: ('A' for Active; 'I' for Inactive)
ROOT
ATOM      1  C   UNL d   1       0.552   3.756  -2.625  0.00  0.00     0.124 A 
ATOM      2  C1  UNL d   1       1.183   4.892  -2.138  0.00  0.00     0.062 A 
ATOM      3  C2  UNL d   1       2.555   4.886  -1.904  0.00  0.00     0.162 A 
ATOM      4  C3  UNL d   1       3.306   3.739  -2.158  0.00  0.00    -0.034 A 
ATOM      5  C4  UNL d   1       2.665   2.599  -2.647  0.00  0.00     0.162 A 
ATOM      6  C5  UNL d   1       1.293   2.611  -2.879  0.00  0.00     0.062 A 
ATOM      7  F   UNL d   1       0.686   1.511  -3.349  0.00  0.00    -0.097 F 
ATOM      8  F1  UNL d   1       3.357   1.479  -2.901  0.00  0.00    -0.096 F 
ATOM      9  I   UNL d   1       5.358   3.725  -1.810  0.00  0.00    -0.060 I 
ATOM     10  F2  UNL d   1       3.138   5.998  -1.434  0.00  0.00    -0.096 F 
ATOM     11  F3  UNL d   1       0.468   6.000  -1.891  0.00  0.00    -0.097 F 
ATOM     12  F4  UNL d   1      -0.768   3.765  -2.848  0.00  0.00    -0.092 F 
ENDROOT
TORSDOF 0
ENDMDL
