MODEL 1
REMARK minimizedAffinity 22.9193497
REMARK minimizedRMSD -1
REMARK  0 active torsions:
REMARK  status: ('A' for Active; 'I' for Inactive)
ROOT
ATOM      1  C   UNL d   1      -5.418   0.784   0.281  0.00  0.00     0.124 A 
ATOM      2  C1  UNL d   1      -5.375   1.696  -0.764  0.00  0.00     0.062 A 
ATOM      3  C2  UNL d   1      -5.540   1.264  -2.077  0.00  0.00     0.162 A 
ATOM      4  C3  UNL d   1      -5.752  -0.087  -2.352  0.00  0.00    -0.034 A 
ATOM      5  C4  UNL d   1      -5.793  -0.998  -1.295  0.00  0.00     0.162 A 
ATOM      6  C5  UNL d   1      -5.627  -0.562   0.015  0.00  0.00     0.062 A 
ATOM      7  F   UNL d   1      -5.669  -1.444   1.024  0.00  0.00    -0.097 F 
ATOM      8  F1  UNL d   1      -5.994  -2.304  -1.524  0.00  0.00    -0.096 F 
ATOM      9  I   UNL d   1      -5.999  -0.736  -4.314  0.00  0.00    -0.060 I 
ATOM     10  F2  UNL d   1      -5.494   2.168  -3.067  0.00  0.00    -0.096 F 
ATOM     11  F3  UNL d   1      -5.173   2.997  -0.509  0.00  0.00    -0.097 F 
ATOM     12  F4  UNL d   1      -5.258   1.202   1.543  0.00  0.00    -0.092 F 
ENDROOT
TORSDOF 0
ENDMDL
