MODEL 1
REMARK minimizedAffinity -1.31902564
REMARK minimizedRMSD -1
REMARK  0 active torsions:
REMARK  status: ('A' for Active; 'I' for Inactive)
ROOT
ATOM      1  C   UNL d   1       0.769  -0.556  -1.503  0.00  0.00     0.124 A 
ATOM      2  C1  UNL d   1      -0.200  -0.614  -0.510  0.00  0.00     0.062 A 
ATOM      3  C2  UNL d   1      -0.010   0.060   0.693  0.00  0.00     0.162 A 
ATOM      4  C3  UNL d   1       1.153   0.799   0.910  0.00  0.00    -0.034 A 
ATOM      5  C4  UNL d   1       2.123   0.852  -0.093  0.00  0.00     0.162 A 
ATOM      6  C5  UNL d   1       1.929   0.177  -1.293  0.00  0.00     0.062 A 
ATOM      7  F   UNL d   1       2.865   0.234  -2.251  0.00  0.00    -0.097 F 
ATOM      8  F1  UNL d   1       3.253   1.553   0.083  0.00  0.00    -0.096 F 
ATOM      9  I   UNL d   1       1.440   1.808   2.708  0.00  0.00    -0.060 I 
ATOM     10  F2  UNL d   1      -0.962  -0.014   1.635  0.00  0.00    -0.096 F 
ATOM     11  F3  UNL d   1      -1.321  -1.322  -0.710  0.00  0.00    -0.097 F 
ATOM     12  F4  UNL d   1       0.584  -1.206  -2.659  0.00  0.00    -0.092 F 
ENDROOT
TORSDOF 0
ENDMDL
