MODEL 1
REMARK minimizedAffinity -3.71368217
REMARK minimizedRMSD -1
REMARK  0 active torsions:
REMARK  status: ('A' for Active; 'I' for Inactive)
ROOT
ATOM      1  C   UNL d   1       1.367  -0.278  -1.772  0.00  0.00     0.124 A 
ATOM      2  C1  UNL d   1       0.547  -1.209  -1.150  0.00  0.00     0.062 A 
ATOM      3  C2  UNL d   1      -0.160  -0.864  -0.002  0.00  0.00     0.162 A 
ATOM      4  C3  UNL d   1      -0.052   0.421   0.531  0.00  0.00    -0.034 A 
ATOM      5  C4  UNL d   1       0.775   1.352  -0.099  0.00  0.00     0.162 A 
ATOM      6  C5  UNL d   1       1.480   1.002  -1.246  0.00  0.00     0.062 A 
ATOM      7  F   UNL d   1       2.272   1.903  -1.845  0.00  0.00    -0.097 F 
ATOM      8  F1  UNL d   1       0.902   2.596   0.387  0.00  0.00    -0.096 F 
ATOM      9  I   UNL d   1      -1.108   0.941   2.247  0.00  0.00    -0.060 I 
ATOM     10  F2  UNL d   1      -0.945  -1.784   0.578  0.00  0.00    -0.096 F 
ATOM     11  F3  UNL d   1       0.437  -2.446  -1.655  0.00  0.00    -0.097 F 
ATOM     12  F4  UNL d   1       2.047  -0.613  -2.875  0.00  0.00    -0.092 F 
ENDROOT
TORSDOF 0
ENDMDL
