MODEL 1
REMARK minimizedAffinity 2.77475166
REMARK minimizedRMSD -1
REMARK  0 active torsions:
REMARK  status: ('A' for Active; 'I' for Inactive)
ROOT
ATOM      1  C   UNL d   1       1.672   0.245  -1.680  0.00  0.00     0.124 A 
ATOM      2  C1  UNL d   1       2.462   1.023  -0.845  0.00  0.00     0.062 A 
ATOM      3  C2  UNL d   1       2.072   1.254   0.471  0.00  0.00     0.162 A 
ATOM      4  C3  UNL d   1       0.886   0.706   0.961  0.00  0.00    -0.034 A 
ATOM      5  C4  UNL d   1       0.096  -0.074   0.114  0.00  0.00     0.162 A 
ATOM      6  C5  UNL d   1       0.490  -0.302  -1.201  0.00  0.00     0.062 A 
ATOM      7  F   UNL d   1      -0.274  -1.053  -2.007  0.00  0.00    -0.097 F 
ATOM      8  F1  UNL d   1      -1.050  -0.616   0.551  0.00  0.00    -0.096 F 
ATOM      9  I   UNL d   1       0.299   1.049   2.928  0.00  0.00    -0.060 I 
ATOM     10  F2  UNL d   1       2.855   2.009   1.257  0.00  0.00    -0.096 F 
ATOM     11  F3  UNL d   1       3.603   1.553  -1.306  0.00  0.00    -0.097 F 
ATOM     12  F4  UNL d   1       2.049   0.026  -2.947  0.00  0.00    -0.092 F 
ENDROOT
TORSDOF 0
ENDMDL
