MODEL 1
REMARK minimizedAffinity 0.849728346
REMARK minimizedRMSD -1
REMARK  0 active torsions:
REMARK  status: ('A' for Active; 'I' for Inactive)
ROOT
ATOM      1  C   UNL d   1      -1.273  -0.202   1.247  0.00  0.00     0.124 A 
ATOM      2  C1  UNL d   1      -2.629   0.031   1.060  0.00  0.00     0.062 A 
ATOM      3  C2  UNL d   1      -3.312   0.901   1.905  0.00  0.00     0.162 A 
ATOM      4  C3  UNL d   1      -2.641   1.546   2.944  0.00  0.00    -0.034 A 
ATOM      5  C4  UNL d   1      -1.278   1.306   3.125  0.00  0.00     0.162 A 
ATOM      6  C5  UNL d   1      -0.599   0.435   2.279  0.00  0.00     0.062 A 
ATOM      7  F   UNL d   1       0.711   0.212   2.460  0.00  0.00    -0.097 F 
ATOM      8  F1  UNL d   1      -0.601   1.909   4.114  0.00  0.00    -0.096 F 
ATOM      9  I   UNL d   1      -3.659   2.847   4.208  0.00  0.00    -0.060 I 
ATOM     10  F2  UNL d   1      -4.622   1.107   1.701  0.00  0.00    -0.096 F 
ATOM     11  F3  UNL d   1      -3.283  -0.585   0.065  0.00  0.00    -0.097 F 
ATOM     12  F4  UNL d   1      -0.618  -1.041   0.433  0.00  0.00    -0.092 F 
ENDROOT
TORSDOF 0
ENDMDL
