MODEL 1
REMARK minimizedAffinity -1.78545892
REMARK minimizedRMSD -1
REMARK  0 active torsions:
REMARK  status: ('A' for Active; 'I' for Inactive)
ROOT
ATOM      1  C   UNL d   1       1.521   0.516  -0.951  0.00  0.00     0.124 A 
ATOM      2  C1  UNL d   1       1.289   0.888   0.366  0.00  0.00     0.062 A 
ATOM      3  C2  UNL d   1       0.042   0.671   0.945  0.00  0.00     0.162 A 
ATOM      4  C3  UNL d   1      -0.984   0.080   0.207  0.00  0.00    -0.034 A 
ATOM      5  C4  UNL d   1      -0.743  -0.290  -1.118  0.00  0.00     0.162 A 
ATOM      6  C5  UNL d   1       0.505  -0.072  -1.692  0.00  0.00     0.062 A 
ATOM      7  F   UNL d   1       0.728  -0.431  -2.964  0.00  0.00    -0.097 F 
ATOM      8  F1  UNL d   1      -1.706  -0.861  -1.856  0.00  0.00    -0.096 F 
ATOM      9  I   UNL d   1      -2.850  -0.245   1.069  0.00  0.00    -0.060 I 
ATOM     10  F2  UNL d   1      -0.154   1.040   2.219  0.00  0.00    -0.096 F 
ATOM     11  F3  UNL d   1       2.269   1.457   1.083  0.00  0.00    -0.097 F 
ATOM     12  F4  UNL d   1       2.722   0.726  -1.506  0.00  0.00    -0.092 F 
ENDROOT
TORSDOF 0
ENDMDL
