MODEL 1
REMARK minimizedAffinity -0.577779412
REMARK minimizedRMSD -1
REMARK  0 active torsions:
REMARK  status: ('A' for Active; 'I' for Inactive)
ROOT
ATOM      1  C   UNL d   1      -3.895   0.844   2.391  0.00  0.00     0.124 A 
ATOM      2  C1  UNL d   1      -3.393   1.847   3.208  0.00  0.00     0.062 A 
ATOM      3  C2  UNL d   1      -2.021   1.959   3.417  0.00  0.00     0.162 A 
ATOM      4  C3  UNL d   1      -1.141   1.066   2.806  0.00  0.00    -0.034 A 
ATOM      5  C4  UNL d   1      -1.653   0.059   1.986  0.00  0.00     0.162 A 
ATOM      6  C5  UNL d   1      -3.025  -0.049   1.781  0.00  0.00     0.062 A 
ATOM      7  F   UNL d   1      -3.508  -1.019   0.991  0.00  0.00    -0.097 F 
ATOM      8  F1  UNL d   1      -0.836  -0.816   1.383  0.00  0.00    -0.096 F 
ATOM      9  I   UNL d   1       0.911   1.231   3.115  0.00  0.00    -0.060 I 
ATOM     10  F2  UNL d   1      -1.564   2.938   4.211  0.00  0.00    -0.096 F 
ATOM     11  F3  UNL d   1      -4.231   2.710   3.800  0.00  0.00    -0.097 F 
ATOM     12  F4  UNL d   1      -5.215   0.738   2.193  0.00  0.00    -0.092 F 
ENDROOT
TORSDOF 0
ENDMDL
