MODEL 1
REMARK minimizedAffinity 6.89146662
REMARK minimizedRMSD -1
REMARK  0 active torsions:
REMARK  status: ('A' for Active; 'I' for Inactive)
ROOT
ATOM      1  C   UNL d   1      -2.719   1.589   2.397  0.00  0.00     0.124 A 
ATOM      2  C1  UNL d   1      -1.362   1.345   2.557  0.00  0.00     0.062 A 
ATOM      3  C2  UNL d   1      -0.750   0.309   1.857  0.00  0.00     0.162 A 
ATOM      4  C3  UNL d   1      -1.495  -0.491   0.990  0.00  0.00    -0.034 A 
ATOM      5  C4  UNL d   1      -2.860  -0.240   0.836  0.00  0.00     0.162 A 
ATOM      6  C5  UNL d   1      -3.466   0.797   1.537  0.00  0.00     0.062 A 
ATOM      7  F   UNL d   1      -4.778   1.031   1.382  0.00  0.00    -0.097 F 
ATOM      8  F1  UNL d   1      -3.606  -0.990   0.011  0.00  0.00    -0.096 F 
ATOM      9  I   UNL d   1      -0.584  -2.042  -0.057  0.00  0.00    -0.060 I 
ATOM     10  F2  UNL d   1       0.563   0.095   2.031  0.00  0.00    -0.096 F 
ATOM     11  F3  UNL d   1      -0.638   2.108   3.388  0.00  0.00    -0.097 F 
ATOM     12  F4  UNL d   1      -3.305   2.586   3.072  0.00  0.00    -0.092 F 
ENDROOT
TORSDOF 0
ENDMDL
