MODEL 1
REMARK minimizedAffinity 0.571649849
REMARK minimizedRMSD -1
REMARK  0 active torsions:
REMARK  status: ('A' for Active; 'I' for Inactive)
ROOT
ATOM      1  C   UNL d   1       1.146   0.737  -0.171  0.00  0.00     0.124 A 
ATOM      2  C1  UNL d   1       0.202   0.175  -1.018  0.00  0.00     0.062 A 
ATOM      3  C2  UNL d   1      -1.045  -0.200  -0.526  0.00  0.00     0.162 A 
ATOM      4  C3  UNL d   1      -1.355  -0.015   0.821  0.00  0.00    -0.034 A 
ATOM      5  C4  UNL d   1      -0.399   0.549   1.668  0.00  0.00     0.162 A 
ATOM      6  C5  UNL d   1       0.845   0.923   1.171  0.00  0.00     0.062 A 
ATOM      7  F   UNL d   1       1.757   1.466   1.992  0.00  0.00    -0.097 F 
ATOM      8  F1  UNL d   1      -0.664   0.742   2.968  0.00  0.00    -0.096 F 
ATOM      9  I   UNL d   1      -3.218  -0.576   1.560  0.00  0.00    -0.060 I 
ATOM     10  F2  UNL d   1      -1.939  -0.740  -1.369  0.00  0.00    -0.096 F 
ATOM     11  F3  UNL d   1       0.490  -0.007  -2.315  0.00  0.00    -0.097 F 
ATOM     12  F4  UNL d   1       2.345   1.097  -0.647  0.00  0.00    -0.092 F 
ENDROOT
TORSDOF 0
ENDMDL
