MODEL 1
REMARK minimizedAffinity 1.26317084
REMARK minimizedRMSD -1
REMARK  0 active torsions:
REMARK  status: ('A' for Active; 'I' for Inactive)
ROOT
ATOM      1  C   UNL d   1       0.952  -1.035  -1.546  0.00  0.00     0.124 A 
ATOM      2  C1  UNL d   1       0.074  -1.739  -0.734  0.00  0.00     0.062 A 
ATOM      3  C2  UNL d   1      -0.250  -1.256   0.531  0.00  0.00     0.162 A 
ATOM      4  C3  UNL d   1       0.304  -0.062   0.992  0.00  0.00    -0.034 A 
ATOM      5  C4  UNL d   1       1.188   0.640   0.169  0.00  0.00     0.162 A 
ATOM      6  C5  UNL d   1       1.508   0.153  -1.094  0.00  0.00     0.062 A 
ATOM      7  F   UNL d   1       2.357   0.835  -1.877  0.00  0.00    -0.097 F 
ATOM      8  F1  UNL d   1       1.739   1.792   0.581  0.00  0.00    -0.096 F 
ATOM      9  I   UNL d   1      -0.177   0.663   2.882  0.00  0.00    -0.060 I 
ATOM     10  F2  UNL d   1      -1.101  -1.957   1.295  0.00  0.00    -0.096 F 
ATOM     11  F3  UNL d   1      -0.464  -2.888  -1.168  0.00  0.00    -0.097 F 
ATOM     12  F4  UNL d   1       1.262  -1.502  -2.762  0.00  0.00    -0.092 F 
ENDROOT
TORSDOF 0
ENDMDL
