MODEL 1
REMARK minimizedAffinity 2.18706894
REMARK minimizedRMSD -1
REMARK  0 active torsions:
REMARK  status: ('A' for Active; 'I' for Inactive)
ROOT
ATOM      1  C   UNL d   1       2.221   2.609   2.645  0.00  0.00     0.124 A 
ATOM      2  C1  UNL d   1       1.984   1.515   3.466  0.00  0.00     0.062 A 
ATOM      3  C2  UNL d   1       1.104   0.515   3.062  0.00  0.00     0.162 A 
ATOM      4  C3  UNL d   1       0.455   0.604   1.831  0.00  0.00    -0.034 A 
ATOM      5  C4  UNL d   1       0.697   1.707   1.011  0.00  0.00     0.162 A 
ATOM      6  C5  UNL d   1       1.578   2.704   1.419  0.00  0.00     0.062 A 
ATOM      7  F   UNL d   1       1.806   3.761   0.625  0.00  0.00    -0.097 F 
ATOM      8  F1  UNL d   1       0.090   1.824  -0.179  0.00  0.00    -0.096 F 
ATOM      9  I   UNL d   1      -0.862  -0.889   1.224  0.00  0.00    -0.060 I 
ATOM     10  F2  UNL d   1       0.894  -0.531   3.875  0.00  0.00    -0.096 F 
ATOM     11  F3  UNL d   1       2.603   1.421   4.651  0.00  0.00    -0.097 F 
ATOM     12  F4  UNL d   1       3.068   3.570   3.036  0.00  0.00    -0.092 F 
ENDROOT
TORSDOF 0
ENDMDL
