MODEL 1
REMARK minimizedAffinity -0.382235497
REMARK minimizedRMSD -1
REMARK  0 active torsions:
REMARK  status: ('A' for Active; 'I' for Inactive)
ROOT
ATOM      1  C   UNL d   1      -1.802   1.238   3.068  0.00  0.00     0.124 A 
ATOM      2  C1  UNL d   1      -0.430   1.186   2.870  0.00  0.00     0.062 A 
ATOM      3  C2  UNL d   1       0.095   0.515   1.769  0.00  0.00     0.162 A 
ATOM      4  C3  UNL d   1      -0.754  -0.109   0.856  0.00  0.00    -0.034 A 
ATOM      5  C4  UNL d   1      -2.134  -0.054   1.061  0.00  0.00     0.162 A 
ATOM      6  C5  UNL d   1      -2.653   0.618   2.163  0.00  0.00     0.062 A 
ATOM      7  F   UNL d   1      -3.980   0.666   2.352  0.00  0.00    -0.097 F 
ATOM      8  F1  UNL d   1      -2.979  -0.644   0.202  0.00  0.00    -0.096 F 
ATOM      9  I   UNL d   1       0.026  -1.113  -0.792  0.00  0.00    -0.060 I 
ATOM     10  F2  UNL d   1       1.426   0.482   1.604  0.00  0.00    -0.096 F 
ATOM     11  F3  UNL d   1       0.395   1.784   3.743  0.00  0.00    -0.097 F 
ATOM     12  F4  UNL d   1      -2.304   1.883   4.128  0.00  0.00    -0.092 F 
ENDROOT
TORSDOF 0
ENDMDL
