MODEL 1
REMARK minimizedAffinity -0.0288159084
REMARK minimizedRMSD -1
REMARK  0 active torsions:
REMARK  status: ('A' for Active; 'I' for Inactive)
ROOT
ATOM      1  C   UNL d   1       0.369  -0.953  -1.277  0.00  0.00     0.124 A 
ATOM      2  C1  UNL d   1      -0.211  -0.474  -0.110  0.00  0.00     0.062 A 
ATOM      3  C2  UNL d   1       0.321   0.642   0.529  0.00  0.00     0.162 A 
ATOM      4  C3  UNL d   1       1.440   1.288   0.002  0.00  0.00    -0.034 A 
ATOM      5  C4  UNL d   1       2.018   0.800  -1.171  0.00  0.00     0.162 A 
ATOM      6  C5  UNL d   1       1.482  -0.315  -1.806  0.00  0.00     0.062 A 
ATOM      7  F   UNL d   1       2.044  -0.777  -2.933  0.00  0.00    -0.097 F 
ATOM      8  F1  UNL d   1       3.094   1.397  -1.705  0.00  0.00    -0.096 F 
ATOM      9  I   UNL d   1       2.239   2.957   0.955  0.00  0.00    -0.060 I 
ATOM     10  F2  UNL d   1      -0.259   1.083   1.655  0.00  0.00    -0.096 F 
ATOM     11  F3  UNL d   1      -1.286  -1.088   0.404  0.00  0.00    -0.097 F 
ATOM     12  F4  UNL d   1      -0.145  -2.027  -1.889  0.00  0.00    -0.092 F 
ENDROOT
TORSDOF 0
ENDMDL
