MODEL 1
REMARK minimizedAffinity -3.30049729
REMARK minimizedRMSD -1
REMARK  0 active torsions:
REMARK  status: ('A' for Active; 'I' for Inactive)
ROOT
ATOM      1  C   UNL d   1       0.094   0.375   1.192  0.00  0.00     0.124 A 
ATOM      2  C1  UNL d   1       0.926   1.335   0.634  0.00  0.00     0.062 A 
ATOM      3  C2  UNL d   1       1.443   1.154  -0.646  0.00  0.00     0.162 A 
ATOM      4  C3  UNL d   1       1.128   0.009  -1.377  0.00  0.00    -0.034 A 
ATOM      5  C4  UNL d   1       0.291  -0.953  -0.808  0.00  0.00     0.162 A 
ATOM      6  C5  UNL d   1      -0.223  -0.768   0.472  0.00  0.00     0.062 A 
ATOM      7  F   UNL d   1      -1.026  -1.696   1.010  0.00  0.00    -0.097 F 
ATOM      8  F1  UNL d   1      -0.032  -2.066  -1.483  0.00  0.00    -0.096 F 
ATOM      9  I   UNL d   1       1.899  -0.265  -3.291  0.00  0.00    -0.060 I 
ATOM     10  F2  UNL d   1       2.244   2.099  -1.161  0.00  0.00    -0.096 F 
ATOM     11  F3  UNL d   1       1.234   2.440   1.329  0.00  0.00    -0.097 F 
ATOM     12  F4  UNL d   1      -0.401   0.551   2.424  0.00  0.00    -0.092 F 
ENDROOT
TORSDOF 0
ENDMDL
