MODEL 1
REMARK minimizedAffinity -3.61919999
REMARK minimizedRMSD -1
REMARK  0 active torsions:
REMARK  status: ('A' for Active; 'I' for Inactive)
ROOT
ATOM      1  C   UNL d   1      -0.317  -0.355  -0.852  0.00  0.00     0.124 A 
ATOM      2  C1  UNL d   1      -0.744  -0.210   0.461  0.00  0.00     0.062 A 
ATOM      3  C2  UNL d   1      -0.067   0.644   1.327  0.00  0.00     0.162 A 
ATOM      4  C3  UNL d   1       1.045   1.360   0.883  0.00  0.00    -0.034 A 
ATOM      5  C4  UNL d   1       1.469   1.207  -0.438  0.00  0.00     0.162 A 
ATOM      6  C5  UNL d   1       0.789   0.353  -1.300  0.00  0.00     0.062 A 
ATOM      7  F   UNL d   1       1.204   0.214  -2.567  0.00  0.00    -0.097 F 
ATOM      8  F1  UNL d   1       2.535   1.881  -0.898  0.00  0.00    -0.096 F 
ATOM      9  I   UNL d   1       2.060   2.637   2.175  0.00  0.00    -0.060 I 
ATOM     10  F2  UNL d   1      -0.502   0.765   2.590  0.00  0.00    -0.096 F 
ATOM     11  F3  UNL d   1      -1.812  -0.894   0.897  0.00  0.00    -0.097 F 
ATOM     12  F4  UNL d   1      -0.970  -1.178  -1.682  0.00  0.00    -0.092 F 
ENDROOT
TORSDOF 0
ENDMDL
