MODEL 1
REMARK minimizedAffinity 2.83647776
REMARK minimizedRMSD -1
REMARK  1 active torsions:
REMARK  status: ('A' for Active; 'I' for Inactive)
REMARK    1  A    between atoms: C1_2  and  C2_3 
ROOT
ATOM      1  C2  UNL d   1       3.474   0.680   0.879  0.00  0.00    -0.076 A 
ATOM      2  C3  UNL d   1       4.371  -0.216   1.485  0.00  0.00     0.004 A 
ATOM      3  C4  UNL d   1       5.620   0.211   1.932  0.00  0.00    -0.003 A 
ATOM      4  C5  UNL d   1       5.993   1.542   1.780  0.00  0.00     0.000 A 
ATOM      5  C6  UNL d   1       5.109   2.449   1.196  0.00  0.00     0.000 A 
ATOM      6  C7  UNL d   1       3.839   2.038   0.755  0.00  0.00    -0.073 A 
ATOM      7  C8  UNL d   1       2.928   3.057   0.128  0.00  0.00     0.078 C 
ENDROOT
BRANCH   1   8
ATOM      8  C1  UNL d   1       2.144   0.154   0.389  0.00  0.00     0.053 C 
ATOM      9  C   UNL d   1       2.291  -1.091  -0.472  0.00  0.00     0.018 C 
ENDBRANCH   1   8
TORSDOF 1
ENDMDL
