MODEL 1
REMARK minimizedAffinity -2.8334415
REMARK minimizedRMSD -1
REMARK  1 active torsions:
REMARK  status: ('A' for Active; 'I' for Inactive)
REMARK    1  A    between atoms: C1_2  and  C2_3 
ROOT
ATOM      1  C2  UNL d   1       3.299   3.899  -5.288  0.00  0.00    -0.076 A 
ATOM      2  C3  UNL d   1       3.778   5.166  -5.664  0.00  0.00     0.004 A 
ATOM      3  C4  UNL d   1       5.117   5.356  -6.000  0.00  0.00    -0.003 A 
ATOM      4  C5  UNL d   1       6.000   4.282  -5.966  0.00  0.00     0.000 A 
ATOM      5  C6  UNL d   1       5.538   3.015  -5.613  0.00  0.00     0.000 A 
ATOM      6  C7  UNL d   1       4.188   2.802  -5.287  0.00  0.00    -0.073 A 
ATOM      7  C8  UNL d   1       3.746   1.416  -4.907  0.00  0.00     0.078 C 
ENDROOT
BRANCH   1   8
ATOM      8  C1  UNL d   1       1.843   3.759  -4.908  0.00  0.00     0.053 C 
ATOM      9  C   UNL d   1       0.908   4.339  -5.958  0.00  0.00     0.018 C 
ENDBRANCH   1   8
TORSDOF 1
ENDMDL
