MODEL 1
REMARK minimizedAffinity 0.577988148
REMARK minimizedRMSD -1
REMARK  1 active torsions:
REMARK  status: ('A' for Active; 'I' for Inactive)
REMARK    1  A    between atoms: C1_2  and  C2_3 
ROOT
ATOM      1  C2  UNL d   1       2.912   3.993  -5.522  0.00  0.00    -0.076 A 
ATOM      2  C3  UNL d   1       2.627   2.627  -5.359  0.00  0.00     0.004 A 
ATOM      3  C4  UNL d   1       3.621   1.663  -5.522  0.00  0.00    -0.003 A 
ATOM      4  C5  UNL d   1       4.915   2.050  -5.851  0.00  0.00     0.000 A 
ATOM      5  C6  UNL d   1       5.219   3.403  -6.000  0.00  0.00     0.000 A 
ATOM      6  C7  UNL d   1       4.233   4.388  -5.822  0.00  0.00    -0.073 A 
ATOM      7  C8  UNL d   1       4.615   5.832  -6.000  0.00  0.00     0.078 C 
ENDROOT
BRANCH   1   8
ATOM      8  C1  UNL d   1       1.788   4.992  -5.358  0.00  0.00     0.053 C 
ATOM      9  C   UNL d   1       0.418   4.368  -5.579  0.00  0.00     0.018 C 
ENDBRANCH   1   8
TORSDOF 1
ENDMDL
