MODEL 1
REMARK minimizedAffinity -1.63034403
REMARK minimizedRMSD -1
REMARK  1 active torsions:
REMARK  status: ('A' for Active; 'I' for Inactive)
REMARK    1  A    between atoms: C1_2  and  C2_3 
ROOT
ATOM      1  C2  UNL d   1       3.614   4.572  -5.904  0.00  0.00    -0.076 A 
ATOM      2  C3  UNL d   1       2.950   5.807  -5.998  0.00  0.00     0.004 A 
ATOM      3  C4  UNL d   1       1.558   5.875  -5.991  0.00  0.00    -0.003 A 
ATOM      4  C5  UNL d   1       0.807   4.709  -5.888  0.00  0.00     0.000 A 
ATOM      5  C6  UNL d   1       1.449   3.477  -5.776  0.00  0.00     0.000 A 
ATOM      6  C7  UNL d   1       2.852   3.392  -5.765  0.00  0.00    -0.073 A 
ATOM      7  C8  UNL d   1       3.492   2.036  -5.648  0.00  0.00     0.078 C 
ENDROOT
BRANCH   1   8
ATOM      8  C1  UNL d   1       5.125   4.557  -5.944  0.00  0.00     0.053 C 
ATOM      9  C   UNL d   1       5.722   5.956  -5.926  0.00  0.00     0.018 C 
ENDBRANCH   1   8
TORSDOF 1
ENDMDL
