MODEL 1
REMARK minimizedAffinity 3.3598361
REMARK minimizedRMSD -1
REMARK  1 active torsions:
REMARK  status: ('A' for Active; 'I' for Inactive)
REMARK    1  A    between atoms: C1_2  and  C2_3 
ROOT
ATOM      1  C2  UNL d   1       2.953   3.639  -5.025  0.00  0.00    -0.076 A 
ATOM      2  C3  UNL d   1       3.408   4.884  -5.492  0.00  0.00     0.004 A 
ATOM      3  C4  UNL d   1       4.710   5.040  -5.966  0.00  0.00    -0.003 A 
ATOM      4  C5  UNL d   1       5.577   3.953  -5.980  0.00  0.00     0.000 A 
ATOM      5  C6  UNL d   1       5.136   2.706  -5.537  0.00  0.00     0.000 A 
ATOM      6  C7  UNL d   1       3.822   2.528  -5.072  0.00  0.00    -0.073 A 
ATOM      7  C8  UNL d   1       3.402   1.163  -4.601  0.00  0.00     0.078 C 
ENDROOT
BRANCH   1   8
ATOM      8  C1  UNL d   1       1.539   3.536  -4.498  0.00  0.00     0.053 C 
ATOM      9  C   UNL d   1       0.658   4.683  -4.968  0.00  0.00     0.018 C 
ENDBRANCH   1   8
TORSDOF 1
ENDMDL
