MODEL 1
REMARK minimizedAffinity -0.858971596
REMARK minimizedRMSD -1
REMARK  1 active torsions:
REMARK  status: ('A' for Active; 'I' for Inactive)
REMARK    1  A    between atoms: C1_2  and  C2_3 
ROOT
ATOM      1  C2  UNL d   1       3.267   3.263  -5.763  0.00  0.00    -0.076 A 
ATOM      2  C3  UNL d   1       4.597   3.710  -5.845  0.00  0.00     0.004 A 
ATOM      3  C4  UNL d   1       4.891   5.068  -5.962  0.00  0.00    -0.003 A 
ATOM      4  C5  UNL d   1       3.860   6.000  -6.000  0.00  0.00     0.000 A 
ATOM      5  C6  UNL d   1       2.536   5.575  -5.903  0.00  0.00     0.000 A 
ATOM      6  C7  UNL d   1       2.222   4.212  -5.768  0.00  0.00    -0.073 A 
ATOM      7  C8  UNL d   1       0.776   3.809  -5.673  0.00  0.00     0.078 C 
ENDROOT
BRANCH   1   8
ATOM      8  C1  UNL d   1       3.008   1.776  -5.665  0.00  0.00     0.053 C 
ATOM      9  C   UNL d   1       4.132   1.035  -4.958  0.00  0.00     0.018 C 
ENDBRANCH   1   8
TORSDOF 1
ENDMDL
