MODEL 1
REMARK minimizedAffinity 3.23986292
REMARK minimizedRMSD -1
REMARK  1 active torsions:
REMARK  status: ('A' for Active; 'I' for Inactive)
REMARK    1  A    between atoms: C1_2  and  C2_3 
ROOT
ATOM      1  C2  UNL d   1       2.706   3.701  -5.622  0.00  0.00    -0.076 A 
ATOM      2  C3  UNL d   1       2.418   2.333  -5.474  0.00  0.00     0.004 A 
ATOM      3  C4  UNL d   1       3.423   1.373  -5.576  0.00  0.00    -0.003 A 
ATOM      4  C5  UNL d   1       4.733   1.765  -5.828  0.00  0.00     0.000 A 
ATOM      5  C6  UNL d   1       5.040   3.119  -5.960  0.00  0.00     0.000 A 
ATOM      6  C7  UNL d   1       4.042   4.101  -5.843  0.00  0.00    -0.073 A 
ATOM      7  C8  UNL d   1       4.428   5.546  -6.000  0.00  0.00     0.078 C 
ENDROOT
BRANCH   1   8
ATOM      8  C1  UNL d   1       1.571   4.695  -5.527  0.00  0.00     0.053 C 
ATOM      9  C   UNL d   1       0.247   4.113  -5.998  0.00  0.00     0.018 C 
ENDBRANCH   1   8
TORSDOF 1
ENDMDL
