MODEL 1
REMARK minimizedAffinity 4.84214211
REMARK minimizedRMSD -1
REMARK  1 active torsions:
REMARK  status: ('A' for Active; 'I' for Inactive)
REMARK    1  A    between atoms: C1_2  and  C2_3 
ROOT
ATOM      1  C2  UNL d   1       4.715   0.663   1.455  0.00  0.00    -0.076 A 
ATOM      2  C3  UNL d   1       3.490  -0.007   1.622  0.00  0.00     0.004 A 
ATOM      3  C4  UNL d   1       2.286   0.601   1.270  0.00  0.00    -0.003 A 
ATOM      4  C5  UNL d   1       2.287   1.888   0.745  0.00  0.00     0.000 A 
ATOM      5  C6  UNL d   1       3.494   2.561   0.556  0.00  0.00     0.000 A 
ATOM      6  C7  UNL d   1       4.718   1.957   0.890  0.00  0.00    -0.073 A 
ATOM      7  C8  UNL d   1       5.989   2.730   0.670  0.00  0.00     0.078 C 
ENDROOT
BRANCH   1   8
ATOM      8  C1  UNL d   1       5.986  -0.036   1.879  0.00  0.00     0.053 C 
ATOM      9  C   UNL d   1       5.994  -0.383   3.360  0.00  0.00     0.018 C 
ENDBRANCH   1   8
TORSDOF 1
ENDMDL
