MODEL 1
REMARK minimizedAffinity -2.194309
REMARK minimizedRMSD -1
REMARK  1 active torsions:
REMARK  status: ('A' for Active; 'I' for Inactive)
REMARK    1  A    between atoms: C1_2  and  C2_3 
ROOT
ATOM      1  C2  UNL d   1       3.375   3.594  -5.924  0.00  0.00    -0.076 A 
ATOM      2  C3  UNL d   1       1.979   3.429  -5.908  0.00  0.00     0.004 A 
ATOM      3  C4  UNL d   1       1.126   4.532  -5.904  0.00  0.00    -0.003 A 
ATOM      4  C5  UNL d   1       1.655   5.818  -5.916  0.00  0.00     0.000 A 
ATOM      5  C6  UNL d   1       3.038   6.000  -5.949  0.00  0.00     0.000 A 
ATOM      6  C7  UNL d   1       3.911   4.899  -5.970  0.00  0.00    -0.073 A 
ATOM      7  C8  UNL d   1       5.393   5.154  -6.000  0.00  0.00     0.078 C 
ENDROOT
BRANCH   1   8
ATOM      8  C1  UNL d   1       4.250   2.362  -5.900  0.00  0.00     0.053 C 
ATOM      9  C   UNL d   1       3.769   1.325  -4.896  0.00  0.00     0.018 C 
ENDBRANCH   1   8
TORSDOF 1
ENDMDL
