MODEL 1
REMARK minimizedAffinity -1.1327796
REMARK minimizedRMSD -1
REMARK  1 active torsions:
REMARK  status: ('A' for Active; 'I' for Inactive)
REMARK    1  A    between atoms: C1_2  and  C2_3 
ROOT
ATOM      1  C2  UNL d   1       3.649   3.801  -5.287  0.00  0.00    -0.076 A 
ATOM      2  C3  UNL d   1       3.624   2.421  -5.020  0.00  0.00     0.004 A 
ATOM      3  C4  UNL d   1       4.761   1.635  -5.197  0.00  0.00    -0.003 A 
ATOM      4  C5  UNL d   1       5.943   2.217  -5.643  0.00  0.00     0.000 A 
ATOM      5  C6  UNL d   1       5.991   3.588  -5.895  0.00  0.00     0.000 A 
ATOM      6  C7  UNL d   1       4.857   4.397  -5.706  0.00  0.00    -0.073 A 
ATOM      7  C8  UNL d   1       4.964   5.868  -5.999  0.00  0.00     0.078 C 
ENDROOT
BRANCH   1   8
ATOM      8  C1  UNL d   1       2.377   4.597  -5.102  0.00  0.00     0.053 C 
ATOM      9  C   UNL d   1       1.249   4.111  -5.999  0.00  0.00     0.018 C 
ENDBRANCH   1   8
TORSDOF 1
ENDMDL
