MODEL 1
REMARK minimizedAffinity -0.378289014
REMARK minimizedRMSD -1
REMARK  1 active torsions:
REMARK  status: ('A' for Active; 'I' for Inactive)
REMARK    1  A    between atoms: C1_2  and  C2_3 
ROOT
ATOM      1  C2  UNL d   1       3.943   4.103  -5.679  0.00  0.00    -0.076 A 
ATOM      2  C3  UNL d   1       3.231   5.276  -5.985  0.00  0.00     0.004 A 
ATOM      3  C4  UNL d   1       1.837   5.288  -5.991  0.00  0.00    -0.003 A 
ATOM      4  C5  UNL d   1       1.132   4.128  -5.689  0.00  0.00     0.000 A 
ATOM      5  C6  UNL d   1       1.822   2.960  -5.365  0.00  0.00     0.000 A 
ATOM      6  C7  UNL d   1       3.227   2.935  -5.340  0.00  0.00    -0.073 A 
ATOM      7  C8  UNL d   1       3.920   1.646  -4.990  0.00  0.00     0.078 C 
ENDROOT
BRANCH   1   8
ATOM      8  C1  UNL d   1       5.454   4.143  -5.715  0.00  0.00     0.053 C 
ATOM      9  C   UNL d   1       5.994   5.545  -5.952  0.00  0.00     0.018 C 
ENDBRANCH   1   8
TORSDOF 1
ENDMDL
