MODEL 1
REMARK minimizedAffinity -0.422174692
REMARK minimizedRMSD -1
REMARK  1 active torsions:
REMARK  status: ('A' for Active; 'I' for Inactive)
REMARK    1  A    between atoms: C1_2  and  C2_3 
ROOT
ATOM      1  C2  UNL d   1       4.293   4.160  -5.723  0.00  0.00    -0.076 A 
ATOM      2  C3  UNL d   1       3.351   5.169  -5.986  0.00  0.00     0.004 A 
ATOM      3  C4  UNL d   1       1.985   4.890  -6.000  0.00  0.00    -0.003 A 
ATOM      4  C5  UNL d   1       1.540   3.596  -5.749  0.00  0.00     0.000 A 
ATOM      5  C6  UNL d   1       2.460   2.587  -5.468  0.00  0.00     0.000 A 
ATOM      6  C7  UNL d   1       3.839   2.855  -5.435  0.00  0.00    -0.073 A 
ATOM      7  C8  UNL d   1       4.787   1.727  -5.133  0.00  0.00     0.078 C 
ENDROOT
BRANCH   1   8
ATOM      8  C1  UNL d   1       5.762   4.517  -5.749  0.00  0.00     0.053 C 
ATOM      9  C   UNL d   1       5.998   5.999  -5.998  0.00  0.00     0.018 C 
ENDBRANCH   1   8
TORSDOF 1
ENDMDL
