MODEL 1
REMARK minimizedAffinity 2.30345535
REMARK minimizedRMSD -1
REMARK  1 active torsions:
REMARK  status: ('A' for Active; 'I' for Inactive)
REMARK    1  A    between atoms: C1_2  and  C2_3 
ROOT
ATOM      1  C2  UNL d   1       5.032   1.697   1.574  0.00  0.00    -0.076 A 
ATOM      2  C3  UNL d   1       5.999   0.967   2.286  0.00  0.00     0.004 A 
ATOM      3  C4  UNL d   1       5.664  -0.214   2.947  0.00  0.00    -0.003 A 
ATOM      4  C5  UNL d   1       4.356  -0.684   2.906  0.00  0.00     0.000 A 
ATOM      5  C6  UNL d   1       3.388   0.017   2.189  0.00  0.00     0.000 A 
ATOM      6  C7  UNL d   1       3.712   1.201   1.504  0.00  0.00    -0.073 A 
ATOM      7  C8  UNL d   1       2.627   1.920   0.751  0.00  0.00     0.078 C 
ENDROOT
BRANCH   1   8
ATOM      8  C1  UNL d   1       5.448   2.984   0.899  0.00  0.00     0.053 C 
ATOM      9  C   UNL d   1       5.668   4.116   1.891  0.00  0.00     0.018 C 
ENDBRANCH   1   8
TORSDOF 1
ENDMDL
