MODEL 1
REMARK minimizedAffinity -2.65021229
REMARK minimizedRMSD -1
REMARK  1 active torsions:
REMARK  status: ('A' for Active; 'I' for Inactive)
REMARK    1  A    between atoms: C1_2  and  C2_3 
ROOT
ATOM      1  C2  UNL d   1       3.925   4.486  -5.897  0.00  0.00    -0.076 A 
ATOM      2  C3  UNL d   1       3.209   5.693  -5.814  0.00  0.00     0.004 A 
ATOM      3  C4  UNL d   1       1.817   5.698  -5.743  0.00  0.00    -0.003 A 
ATOM      4  C5  UNL d   1       1.118   4.495  -5.753  0.00  0.00     0.000 A 
ATOM      5  C6  UNL d   1       1.813   3.288  -5.817  0.00  0.00     0.000 A 
ATOM      6  C7  UNL d   1       3.217   3.265  -5.873  0.00  0.00    -0.073 A 
ATOM      7  C8  UNL d   1       3.915   1.934  -5.946  0.00  0.00     0.078 C 
ENDROOT
BRANCH   1   8
ATOM      8  C1  UNL d   1       5.432   4.543  -5.999  0.00  0.00     0.053 C 
ATOM      9  C   UNL d   1       5.962   5.969  -5.996  0.00  0.00     0.018 C 
ENDBRANCH   1   8
TORSDOF 1
ENDMDL
