MODEL 1
REMARK minimizedAffinity 4.66153049
REMARK minimizedRMSD -1
REMARK  1 active torsions:
REMARK  status: ('A' for Active; 'I' for Inactive)
REMARK    1  A    between atoms: C1_2  and  C2_3 
ROOT
ATOM      1  C2  UNL d   1       0.982  -3.281   1.923  0.00  0.00    -0.076 A 
ATOM      2  C3  UNL d   1       0.724  -1.965   2.344  0.00  0.00     0.004 A 
ATOM      3  C4  UNL d   1      -0.424  -1.657   3.072  0.00  0.00    -0.003 A 
ATOM      4  C5  UNL d   1      -1.332  -2.660   3.393  0.00  0.00     0.000 A 
ATOM      5  C6  UNL d   1      -1.083  -3.975   2.999  0.00  0.00     0.000 A 
ATOM      6  C7  UNL d   1       0.078  -4.305   2.278  0.00  0.00    -0.073 A 
ATOM      7  C8  UNL d   1       0.293  -5.738   1.874  0.00  0.00     0.078 C 
ENDROOT
BRANCH   1   8
ATOM      8  C1  UNL d   1       2.230  -3.551   1.113  0.00  0.00     0.053 C 
ATOM      9  C   UNL d   1       3.503  -3.214   1.873  0.00  0.00     0.018 C 
ENDBRANCH   1   8
TORSDOF 1
ENDMDL
