MODEL 1
REMARK minimizedAffinity -0.828280985
REMARK minimizedRMSD -1
REMARK  1 active torsions:
REMARK  status: ('A' for Active; 'I' for Inactive)
REMARK    1  A    between atoms: C1_2  and  C2_3 
ROOT
ATOM      1  C2  UNL d   1       2.073  -2.834   3.262  0.00  0.00    -0.081 A 
ATOM      2  C3  UNL d   1       1.630  -1.532   3.000  0.00  0.00     0.006 A 
ATOM      3  C4  UNL d   1       1.234  -1.165   1.712  0.00  0.00     0.002 A 
ATOM      4  C5  UNL d   1       1.267  -2.094   0.667  0.00  0.00    -0.080 A 
ATOM      5  C6  UNL d   1       0.815  -1.721  -0.714  0.00  0.00     0.076 C 
ATOM      6  C7  UNL d   1       1.726  -3.390   0.924  0.00  0.00     0.002 A 
ATOM      7  C8  UNL d   1       2.123  -3.758   2.212  0.00  0.00     0.006 A 
ENDROOT
BRANCH   1   8
ATOM      8  C1  UNL d   1       2.440  -3.252   4.663  0.00  0.00     0.054 C 
ATOM      9  C   UNL d   1       1.767  -4.563   5.044  0.00  0.00     0.018 C 
ENDBRANCH   1   8
TORSDOF 1
ENDMDL
