MODEL 1
REMARK minimizedAffinity 8.05138874
REMARK minimizedRMSD -1
REMARK  1 active torsions:
REMARK  status: ('A' for Active; 'I' for Inactive)
REMARK    1  A    between atoms: C1_2  and  C2_3 
ROOT
ATOM      1  C2  UNL d   1       1.305  -0.848   1.360  0.00  0.00    -0.081 A 
ATOM      2  C3  UNL d   1      -0.043  -0.798   1.737  0.00  0.00     0.006 A 
ATOM      3  C4  UNL d   1      -1.026  -1.376   0.930  0.00  0.00     0.002 A 
ATOM      4  C5  UNL d   1      -0.678  -2.019  -0.262  0.00  0.00    -0.080 A 
ATOM      5  C6  UNL d   1      -1.720  -2.670  -1.122  0.00  0.00     0.076 C 
ATOM      6  C7  UNL d   1       0.667  -2.054  -0.647  0.00  0.00     0.002 A 
ATOM      7  C8  UNL d   1       1.650  -1.476   0.159  0.00  0.00     0.006 A 
ENDROOT
BRANCH   1   8
ATOM      8  C1  UNL d   1       2.374  -0.283   2.260  0.00  0.00     0.054 C 
ATOM      9  C   UNL d   1       2.227  -0.798   3.685  0.00  0.00     0.018 C 
ENDBRANCH   1   8
TORSDOF 1
ENDMDL
