MODEL 1
REMARK minimizedAffinity 10.2216949
REMARK minimizedRMSD -1
REMARK  1 active torsions:
REMARK  status: ('A' for Active; 'I' for Inactive)
REMARK    1  A    between atoms: C1_2  and  C2_3 
ROOT
ATOM      1  C2  UNL d   1      -5.890   2.117   0.369  0.00  0.00    -0.081 A 
ATOM      2  C3  UNL d   1      -5.773   3.051  -0.668  0.00  0.00     0.006 A 
ATOM      3  C4  UNL d   1      -5.773   2.633  -2.001  0.00  0.00     0.002 A 
ATOM      4  C5  UNL d   1      -5.898   1.277  -2.319  0.00  0.00    -0.080 A 
ATOM      5  C6  UNL d   1      -5.931   0.818  -3.747  0.00  0.00     0.076 C 
ATOM      6  C7  UNL d   1      -5.998   0.342  -1.283  0.00  0.00     0.002 A 
ATOM      7  C8  UNL d   1      -5.997   0.759   0.050  0.00  0.00     0.006 A 
ENDROOT
BRANCH   1   8
ATOM      8  C1  UNL d   1      -5.955   2.570   1.805  0.00  0.00     0.054 C 
ATOM      9  C   UNL d   1      -4.611   2.403   2.499  0.00  0.00     0.018 C 
ENDBRANCH   1   8
TORSDOF 1
ENDMDL
