MODEL 1
REMARK minimizedAffinity 11.7448635
REMARK minimizedRMSD -1
REMARK  1 active torsions:
REMARK  status: ('A' for Active; 'I' for Inactive)
REMARK    1  A    between atoms: C1_2  and  C2_3 
ROOT
ATOM      1  C2  UNL d   1       2.815   0.718   2.272  0.00  0.00    -0.081 A 
ATOM      2  C3  UNL d   1       3.189   0.322   3.562  0.00  0.00     0.006 A 
ATOM      3  C4  UNL d   1       2.848  -0.945   4.041  0.00  0.00     0.002 A 
ATOM      4  C5  UNL d   1       2.135  -1.839   3.236  0.00  0.00    -0.080 A 
ATOM      5  C6  UNL d   1       1.788  -3.214   3.727  0.00  0.00     0.076 C 
ATOM      6  C7  UNL d   1       1.746  -1.438   1.953  0.00  0.00     0.002 A 
ATOM      7  C8  UNL d   1       2.086  -0.171   1.474  0.00  0.00     0.006 A 
ENDROOT
BRANCH   1   8
ATOM      8  C1  UNL d   1       3.238   2.059   1.729  0.00  0.00     0.054 C 
ATOM      9  C   UNL d   1       2.964   2.163   0.235  0.00  0.00     0.018 C 
ENDBRANCH   1   8
TORSDOF 1
ENDMDL
