MODEL 1
REMARK minimizedAffinity 9.07554245
REMARK minimizedRMSD -1
REMARK  0 active torsions:
REMARK  status: ('A' for Active; 'I' for Inactive)
ROOT
ATOM      1  C2' OXE d   1       2.289   0.251   1.205  0.00  0.00     0.078 C 
ATOM      2  C1' OXE d   1       1.104  -0.860   3.495  0.00  0.00     0.078 C 
ATOM      3  C1  OXE d   1       0.535   0.433   2.965  0.00  0.00    -0.078 A 
ATOM      4  C2  OXE d   1       1.151   0.993   1.872  0.00  0.00    -0.078 A 
ATOM      5  C3  OXE d   1       0.633   2.157   1.310  0.00  0.00     0.003 A 
ATOM      6  C4  OXE d   1      -0.413   2.843   1.939  0.00  0.00    -0.002 A 
ATOM      7  C5  OXE d   1      -1.029   2.310   3.077  0.00  0.00    -0.002 A 
ATOM      8  C6  OXE d   1      -0.596   1.087   3.577  0.00  0.00     0.003 A 
ENDROOT
TORSDOF 0
ENDMDL
