MODEL 1
REMARK minimizedAffinity 7.39703846
REMARK minimizedRMSD -1
REMARK  0 active torsions:
REMARK  status: ('A' for Active; 'I' for Inactive)
ROOT
ATOM      1  C2' OXE d   1      -0.706   1.294  -2.101  0.00  0.00     0.078 C 
ATOM      2  C1' OXE d   1      -2.880  -0.247  -1.221  0.00  0.00     0.078 C 
ATOM      3  C1  OXE d   1      -3.154   1.169  -1.661  0.00  0.00    -0.078 A 
ATOM      4  C2  OXE d   1      -2.077   1.931  -2.046  0.00  0.00    -0.078 A 
ATOM      5  C3  OXE d   1      -2.281   3.226  -2.513  0.00  0.00     0.003 A 
ATOM      6  C4  OXE d   1      -3.551   3.811  -2.450  0.00  0.00    -0.002 A 
ATOM      7  C5  OXE d   1      -4.656   3.065  -2.023  0.00  0.00    -0.002 A 
ATOM      8  C6  OXE d   1      -4.482   1.733  -1.667  0.00  0.00     0.003 A 
ENDROOT
TORSDOF 0
ENDMDL
