MODEL 1
REMARK minimizedAffinity 5.18548155
REMARK minimizedRMSD -1
REMARK  0 active torsions:
REMARK  status: ('A' for Active; 'I' for Inactive)
ROOT
ATOM      1  C2' OXE d   1      -0.021   2.582   1.584  0.00  0.00     0.078 C 
ATOM      2  C1' OXE d   1       2.341   1.066   1.616  0.00  0.00     0.078 C 
ATOM      3  C1  OXE d   1       1.261   0.706   2.606  0.00  0.00    -0.078 A 
ATOM      4  C2  OXE d   1       0.128   1.484   2.614  0.00  0.00    -0.078 A 
ATOM      5  C3  OXE d   1      -0.922   1.162   3.470  0.00  0.00     0.003 A 
ATOM      6  C4  OXE d   1      -0.773   0.151   4.426  0.00  0.00    -0.002 A 
ATOM      7  C5  OXE d   1       0.389  -0.627   4.461  0.00  0.00    -0.002 A 
ATOM      8  C6  OXE d   1       1.396  -0.391   3.532  0.00  0.00     0.003 A 
ENDROOT
TORSDOF 0
ENDMDL
