MODEL 1
REMARK minimizedAffinity 1.37771058
REMARK minimizedRMSD -1
REMARK  0 active torsions:
REMARK  status: ('A' for Active; 'I' for Inactive)
ROOT
ATOM      1  C2' OXE d   1      -1.444  -2.676  -2.050  0.00  0.00     0.078 C 
ATOM      2  C1' OXE d   1      -3.387  -0.871  -1.130  0.00  0.00     0.078 C 
ATOM      3  C1  OXE d   1      -2.029  -0.321  -1.485  0.00  0.00    -0.078 A 
ATOM      4  C2  OXE d   1      -1.070  -1.218  -1.890  0.00  0.00    -0.078 A 
ATOM      5  C3  OXE d   1       0.184  -0.757  -2.282  0.00  0.00     0.003 A 
ATOM      6  C4  OXE d   1       0.526   0.591  -2.121  0.00  0.00    -0.002 A 
ATOM      7  C5  OXE d   1      -0.424   1.515  -1.672  0.00  0.00    -0.002 A 
ATOM      8  C6  OXE d   1      -1.715   1.084  -1.391  0.00  0.00     0.003 A 
ENDROOT
TORSDOF 0
ENDMDL
