MODEL 1
REMARK minimizedAffinity 3.88908815
REMARK minimizedRMSD -1
REMARK  0 active torsions:
REMARK  status: ('A' for Active; 'I' for Inactive)
ROOT
ATOM      1  C2' OXE d   1       0.148   0.545  -1.846  0.00  0.00     0.078 C 
ATOM      2  C1' OXE d   1      -0.650   3.225  -1.598  0.00  0.00     0.078 C 
ATOM      3  C1  OXE d   1      -0.165   2.517  -0.357  0.00  0.00    -0.078 A 
ATOM      4  C2  OXE d   1       0.180   1.193  -0.478  0.00  0.00    -0.078 A 
ATOM      5  C3  OXE d   1       0.686   0.508   0.623  0.00  0.00     0.003 A 
ATOM      6  C4  OXE d   1       0.702   1.112   1.886  0.00  0.00    -0.002 A 
ATOM      7  C5  OXE d   1       0.318   2.449   2.039  0.00  0.00    -0.002 A 
ATOM      8  C6  OXE d   1      -0.076   3.176   0.922  0.00  0.00     0.003 A 
ENDROOT
TORSDOF 0
ENDMDL
