MODEL 1
REMARK minimizedAffinity 7.59707546
REMARK minimizedRMSD -1
REMARK  0 active torsions:
REMARK  status: ('A' for Active; 'I' for Inactive)
ROOT
ATOM      1  C2' OXE d   1      -2.334  -2.092  -3.015  0.00  0.00     0.078 C 
ATOM      2  C1' OXE d   1      -3.589  -0.646  -0.962  0.00  0.00     0.078 C 
ATOM      3  C1  OXE d   1      -2.291  -0.107  -1.511  0.00  0.00    -0.078 A 
ATOM      4  C2  OXE d   1      -1.661  -0.846  -2.483  0.00  0.00    -0.078 A 
ATOM      5  C3  OXE d   1      -0.489  -0.366  -3.062  0.00  0.00     0.003 A 
ATOM      6  C4  OXE d   1       0.132   0.782  -2.556  0.00  0.00    -0.002 A 
ATOM      7  C5  OXE d   1      -0.473   1.528  -1.539  0.00  0.00    -0.002 A 
ATOM      8  C6  OXE d   1      -1.704   1.121  -1.036  0.00  0.00     0.003 A 
ENDROOT
TORSDOF 0
ENDMDL
