MODEL 1
REMARK minimizedAffinity 6.48553371
REMARK minimizedRMSD -1
REMARK  0 active torsions:
REMARK  status: ('A' for Active; 'I' for Inactive)
ROOT
ATOM      1  C2' OXE d   1      -0.689   0.778  -1.564  0.00  0.00     0.078 C 
ATOM      2  C1' OXE d   1      -1.938   3.284  -1.760  0.00  0.00     0.078 C 
ATOM      3  C1  OXE d   1      -1.605   2.769  -0.382  0.00  0.00    -0.078 A 
ATOM      4  C2  OXE d   1      -1.036   1.522  -0.293  0.00  0.00    -0.078 A 
ATOM      5  C3  OXE d   1      -0.659   1.023   0.951  0.00  0.00     0.003 A 
ATOM      6  C4  OXE d   1      -0.994   1.713   2.122  0.00  0.00    -0.002 A 
ATOM      7  C5  OXE d   1      -1.609   2.968   2.056  0.00  0.00    -0.002 A 
ATOM      8  C6  OXE d   1      -1.882   3.528   0.813  0.00  0.00     0.003 A 
ENDROOT
TORSDOF 0
ENDMDL
