MODEL 1
REMARK minimizedAffinity 4.78575563
REMARK minimizedRMSD -1
REMARK  0 active torsions:
REMARK  status: ('A' for Active; 'I' for Inactive)
ROOT
ATOM      1  C2' OXE d   1       0.457   0.010  -2.231  0.00  0.00     0.078 C 
ATOM      2  C1' OXE d   1      -0.760  -1.215  -4.445  0.00  0.00     0.078 C 
ATOM      3  C1  OXE d   1      -1.657  -0.646  -3.374  0.00  0.00    -0.078 A 
ATOM      4  C2  OXE d   1      -1.053  -0.090  -2.272  0.00  0.00    -0.078 A 
ATOM      5  C3  OXE d   1      -1.833   0.498  -1.281  0.00  0.00     0.003 A 
ATOM      6  C4  OXE d   1      -3.229   0.392  -1.322  0.00  0.00    -0.002 A 
ATOM      7  C5  OXE d   1      -3.864  -0.205  -2.416  0.00  0.00    -0.002 A 
ATOM      8  C6  OXE d   1      -3.095  -0.690  -3.469  0.00  0.00     0.003 A 
ENDROOT
TORSDOF 0
ENDMDL
