MODEL 1
REMARK minimizedAffinity 6.73232985
REMARK minimizedRMSD -1
REMARK  0 active torsions:
REMARK  status: ('A' for Active; 'I' for Inactive)
ROOT
ATOM      1  C2' OXE d   1       0.566  -0.774   1.875  0.00  0.00     0.078 C 
ATOM      2  C1' OXE d   1       0.044   0.306  -0.663  0.00  0.00     0.078 C 
ATOM      3  C1  OXE d   1       0.444   1.256   0.437  0.00  0.00    -0.078 A 
ATOM      4  C2  OXE d   1       0.652   0.725   1.687  0.00  0.00    -0.078 A 
ATOM      5  C3  OXE d   1       1.076   1.550   2.725  0.00  0.00     0.003 A 
ATOM      6  C4  OXE d   1       1.144   2.937   2.546  0.00  0.00    -0.002 A 
ATOM      7  C5  OXE d   1       0.897   3.503   1.291  0.00  0.00    -0.002 A 
ATOM      8  C6  OXE d   1       0.588   2.674   0.218  0.00  0.00     0.003 A 
ENDROOT
TORSDOF 0
ENDMDL
