MODEL 1
REMARK minimizedAffinity 0.506691694
REMARK minimizedRMSD -1
REMARK  0 active torsions:
REMARK  status: ('A' for Active; 'I' for Inactive)
ROOT
ATOM      1  C2' OXE d   1      -0.026  -0.361  -0.338  0.00  0.00     0.078 C 
ATOM      2  C1' OXE d   1       0.262  -0.879   2.406  0.00  0.00     0.078 C 
ATOM      3  C1  OXE d   1       0.312   0.558   1.953  0.00  0.00    -0.078 A 
ATOM      4  C2  OXE d   1       0.217   0.799   0.603  0.00  0.00    -0.078 A 
ATOM      5  C3  OXE d   1       0.202   2.111   0.136  0.00  0.00     0.003 A 
ATOM      6  C4  OXE d   1       0.437   3.177   1.012  0.00  0.00    -0.002 A 
ATOM      7  C5  OXE d   1       0.576   2.951   2.386  0.00  0.00    -0.002 A 
ATOM      8  C6  OXE d   1       0.474   1.654   2.876  0.00  0.00     0.003 A 
ENDROOT
TORSDOF 0
ENDMDL
