MODEL 1
REMARK minimizedAffinity -2.93327117
REMARK minimizedRMSD -1
REMARK  0 active torsions:
REMARK  status: ('A' for Active; 'I' for Inactive)
ROOT
ATOM      1  C2' OXE d   1       0.655   0.400  -1.623  0.00  0.00     0.078 C 
ATOM      2  C1' OXE d   1       0.642  -0.861   0.885  0.00  0.00     0.078 C 
ATOM      3  C1  OXE d   1       0.623   0.647   0.855  0.00  0.00    -0.078 A 
ATOM      4  C2  OXE d   1       0.677   1.256  -0.375  0.00  0.00    -0.078 A 
ATOM      5  C3  OXE d   1       0.607   2.644  -0.461  0.00  0.00     0.003 A 
ATOM      6  C4  OXE d   1       0.638   3.428   0.698  0.00  0.00    -0.002 A 
ATOM      7  C5  OXE d   1       0.623   2.828   1.962  0.00  0.00    -0.002 A 
ATOM      8  C6  OXE d   1       0.573   1.442   2.058  0.00  0.00     0.003 A 
ENDROOT
TORSDOF 0
ENDMDL
