MODEL 1
REMARK minimizedAffinity -5.16718912
REMARK minimizedRMSD -1
REMARK  0 active torsions:
REMARK  status: ('A' for Active; 'I' for Inactive)
ROOT
ATOM      1  C   UNL d   1      -2.974  -0.870  -0.927  0.00  0.00     0.023 A 
ATOM      2  C1  UNL d   1      -2.047  -0.379  -1.846  0.00  0.00     0.003 A 
ATOM      3  C2  UNL d   1      -0.764  -0.025  -1.424  0.00  0.00     0.048 A 
ATOM      4  C3  UNL d   1      -0.414  -0.166  -0.082  0.00  0.00     0.023 A 
ATOM      5  C4  UNL d   1      -1.339  -0.658   0.841  0.00  0.00     0.048 A 
ATOM      6  C5  UNL d   1      -2.621  -1.009   0.415  0.00  0.00     0.003 A 
ATOM      7  I   UNL d   1       1.495   0.360   0.549  0.00  0.00    -0.146 I 
ENDROOT
TORSDOF 0
ENDMDL
