MODEL 1
REMARK minimizedAffinity -5.08004999
REMARK minimizedRMSD -1
REMARK  0 active torsions:
REMARK  status: ('A' for Active; 'I' for Inactive)
ROOT
ATOM      1  C   UNL d   1      -2.885  -0.993  -0.100  0.00  0.00     0.023 A 
ATOM      2  C1  UNL d   1      -2.262  -0.357  -1.173  0.00  0.00     0.003 A 
ATOM      3  C2  UNL d   1      -0.908  -0.025  -1.099  0.00  0.00     0.048 A 
ATOM      4  C3  UNL d   1      -0.182  -0.334   0.051  0.00  0.00     0.023 A 
ATOM      5  C4  UNL d   1      -0.801  -0.971   1.127  0.00  0.00     0.048 A 
ATOM      6  C5  UNL d   1      -2.156  -1.300   1.049  0.00  0.00     0.003 A 
ATOM      7  I   UNL d   1       1.834   0.159   0.164  0.00  0.00    -0.146 I 
ENDROOT
TORSDOF 0
ENDMDL
