MODEL 1
REMARK minimizedAffinity -4.71552277
REMARK minimizedRMSD -1
REMARK  0 active torsions:
REMARK  status: ('A' for Active; 'I' for Inactive)
ROOT
ATOM      1  C   UNL d   1      -2.511  -0.833  -1.116  0.00  0.00     0.023 A 
ATOM      2  C1  UNL d   1      -2.268  -0.772   0.256  0.00  0.00     0.003 A 
ATOM      3  C2  UNL d   1      -1.076  -0.222   0.732  0.00  0.00     0.048 A 
ATOM      4  C3  UNL d   1      -0.132   0.267  -0.170  0.00  0.00     0.023 A 
ATOM      5  C4  UNL d   1      -0.371   0.209  -1.544  0.00  0.00     0.048 A 
ATOM      6  C5  UNL d   1      -1.563  -0.343  -2.015  0.00  0.00     0.003 A 
ATOM      7  I   UNL d   1       1.643   1.086   0.536  0.00  0.00    -0.146 I 
ENDROOT
TORSDOF 0
ENDMDL
