MODEL 1
REMARK minimizedAffinity -0.0974713191
REMARK minimizedRMSD -1
REMARK  0 active torsions:
REMARK  status: ('A' for Active; 'I' for Inactive)
ROOT
ATOM      1  C   UNL d   1      -1.642  -1.041  -0.714  0.00  0.00     0.023 A 
ATOM      2  C1  UNL d   1      -0.963  -0.261  -1.650  0.00  0.00     0.003 A 
ATOM      3  C2  UNL d   1       0.215   0.396  -1.289  0.00  0.00     0.048 A 
ATOM      4  C3  UNL d   1       0.709   0.269   0.009  0.00  0.00     0.023 A 
ATOM      5  C4  UNL d   1       0.032  -0.510   0.949  0.00  0.00     0.048 A 
ATOM      6  C5  UNL d   1      -1.145  -1.165   0.584  0.00  0.00     0.003 A 
ATOM      7  I   UNL d   1       2.462   1.247   0.548  0.00  0.00    -0.146 I 
ENDROOT
TORSDOF 0
ENDMDL
