MODEL 1
REMARK minimizedAffinity -4.06371307
REMARK minimizedRMSD -1
REMARK  0 active torsions:
REMARK  status: ('A' for Active; 'I' for Inactive)
ROOT
ATOM      1  C   UNL d   1      -2.613  -0.527  -0.908  0.00  0.00     0.023 A 
ATOM      2  C1  UNL d   1      -1.739   0.047  -1.832  0.00  0.00     0.003 A 
ATOM      3  C2  UNL d   1      -0.401   0.256  -1.492  0.00  0.00     0.048 A 
ATOM      4  C3  UNL d   1       0.057  -0.112  -0.228  0.00  0.00     0.023 A 
ATOM      5  C4  UNL d   1      -0.814  -0.687   0.700  0.00  0.00     0.048 A 
ATOM      6  C5  UNL d   1      -2.151  -0.893   0.356  0.00  0.00     0.003 A 
ATOM      7  I   UNL d   1       2.049   0.197   0.280  0.00  0.00    -0.146 I 
ENDROOT
TORSDOF 0
ENDMDL
