MODEL 1
REMARK minimizedAffinity -2.78963542
REMARK minimizedRMSD -1
REMARK  0 active torsions:
REMARK  status: ('A' for Active; 'I' for Inactive)
ROOT
ATOM      1  C   UNL d   1      -2.598  -0.847  -0.761  0.00  0.00     0.023 A 
ATOM      2  C1  UNL d   1      -1.636  -0.576  -1.735  0.00  0.00     0.003 A 
ATOM      3  C2  UNL d   1      -0.425   0.020  -1.375  0.00  0.00     0.048 A 
ATOM      4  C3  UNL d   1      -0.183   0.342  -0.040  0.00  0.00     0.023 A 
ATOM      5  C4  UNL d   1      -1.142   0.073   0.937  0.00  0.00     0.048 A 
ATOM      6  C5  UNL d   1      -2.351  -0.523   0.573  0.00  0.00     0.003 A 
ATOM      7  I   UNL d   1       1.618   1.230   0.498  0.00  0.00    -0.146 I 
ENDROOT
TORSDOF 0
ENDMDL
