MODEL 1
REMARK minimizedAffinity -3.81426954
REMARK minimizedRMSD -1
REMARK  0 active torsions:
REMARK  status: ('A' for Active; 'I' for Inactive)
ROOT
ATOM      1  C   UNL d   1      -2.491  -0.386  -1.188  0.00  0.00     0.023 A 
ATOM      2  C1  UNL d   1      -1.706   0.436  -1.996  0.00  0.00     0.003 A 
ATOM      3  C2  UNL d   1      -0.465   0.886  -1.540  0.00  0.00     0.048 A 
ATOM      4  C3  UNL d   1      -0.016   0.509  -0.275  0.00  0.00     0.023 A 
ATOM      5  C4  UNL d   1      -0.798  -0.314   0.537  0.00  0.00     0.048 A 
ATOM      6  C5  UNL d   1      -2.038  -0.761   0.077  0.00  0.00     0.003 A 
ATOM      7  I   UNL d   1       1.831   1.177   0.406  0.00  0.00    -0.146 I 
ENDROOT
TORSDOF 0
ENDMDL
