MODEL 1
REMARK minimizedAffinity -3.08419466
REMARK minimizedRMSD -1
REMARK  0 active torsions:
REMARK  status: ('A' for Active; 'I' for Inactive)
ROOT
ATOM      1  C   UNL d   1      -2.993  -0.295  -1.207  0.00  0.00     0.023 A 
ATOM      2  C1  UNL d   1      -2.183   0.613  -1.888  0.00  0.00     0.003 A 
ATOM      3  C2  UNL d   1      -0.886   0.869  -1.438  0.00  0.00     0.048 A 
ATOM      4  C3  UNL d   1      -0.405   0.213  -0.305  0.00  0.00     0.023 A 
ATOM      5  C4  UNL d   1      -1.212  -0.697   0.380  0.00  0.00     0.048 A 
ATOM      6  C5  UNL d   1      -2.508  -0.949  -0.074  0.00  0.00     0.003 A 
ATOM      7  I   UNL d   1       1.524   0.592   0.367  0.00  0.00    -0.146 I 
ENDROOT
TORSDOF 0
ENDMDL
