MODEL 1
REMARK minimizedAffinity -1.25200176
REMARK minimizedRMSD -1
REMARK  0 active torsions:
REMARK  status: ('A' for Active; 'I' for Inactive)
ROOT
ATOM      1  C   UNL d   1      -3.165  -0.884  -0.439  0.00  0.00     0.023 A 
ATOM      2  C1  UNL d   1      -2.372  -0.388  -1.473  0.00  0.00     0.003 A 
ATOM      3  C2  UNL d   1      -1.053  -0.004  -1.221  0.00  0.00     0.048 A 
ATOM      4  C3  UNL d   1      -0.534  -0.120   0.068  0.00  0.00     0.023 A 
ATOM      5  C4  UNL d   1      -1.324  -0.616   1.106  0.00  0.00     0.048 A 
ATOM      6  C5  UNL d   1      -2.642  -0.997   0.849  0.00  0.00     0.003 A 
ATOM      7  I   UNL d   1       1.429   0.451   0.446  0.00  0.00    -0.146 I 
ENDROOT
TORSDOF 0
ENDMDL
