MODEL 1
REMARK minimizedAffinity -0.517585695
REMARK minimizedRMSD -1
REMARK  0 active torsions:
REMARK  status: ('A' for Active; 'I' for Inactive)
ROOT
ATOM      1  C   UNL d   1      -1.170  -1.139   0.447  0.00  0.00     0.023 A 
ATOM      2  C1  UNL d   1      -0.137  -1.481   1.320  0.00  0.00     0.003 A 
ATOM      3  C2  UNL d   1       1.050  -0.746   1.322  0.00  0.00     0.048 A 
ATOM      4  C3  UNL d   1       1.197   0.331   0.449  0.00  0.00     0.023 A 
ATOM      5  C4  UNL d   1       0.166   0.678  -0.426  0.00  0.00     0.048 A 
ATOM      6  C5  UNL d   1      -1.019  -0.061  -0.424  0.00  0.00     0.003 A 
ATOM      7  I   UNL d   1       2.962   1.428   0.450  0.00  0.00    -0.146 I 
ENDROOT
TORSDOF 0
ENDMDL
