MODEL 1
REMARK minimizedAffinity -3.81626916
REMARK minimizedRMSD -1
REMARK  0 active torsions:
REMARK  status: ('A' for Active; 'I' for Inactive)
ROOT
ATOM      1  C   UNL d   1      -2.890  -0.857  -0.714  0.00  0.00     0.023 A 
ATOM      2  C1  UNL d   1      -1.988  -0.265  -1.598  0.00  0.00     0.003 A 
ATOM      3  C2  UNL d   1      -0.788   0.267  -1.121  0.00  0.00     0.048 A 
ATOM      4  C3  UNL d   1      -0.497   0.202   0.241  0.00  0.00     0.023 A 
ATOM      5  C4  UNL d   1      -1.396  -0.390   1.129  0.00  0.00     0.048 A 
ATOM      6  C5  UNL d   1      -2.595  -0.919   0.647  0.00  0.00     0.003 A 
ATOM      7  I   UNL d   1       1.289   0.993   0.953  0.00  0.00    -0.146 I 
ENDROOT
TORSDOF 0
ENDMDL
