MODEL 1
REMARK minimizedAffinity -0.668179989
REMARK minimizedRMSD -1
REMARK  0 active torsions:
REMARK  status: ('A' for Active; 'I' for Inactive)
ROOT
ATOM      1  C   UNL d   1      -1.554  -0.589  -0.662  0.00  0.00     0.023 A 
ATOM      2  C1  UNL d   1      -1.195  -0.821   0.666  0.00  0.00     0.003 A 
ATOM      3  C2  UNL d   1      -0.043  -0.233   1.192  0.00  0.00     0.048 A 
ATOM      4  C3  UNL d   1       0.744   0.588   0.386  0.00  0.00     0.023 A 
ATOM      5  C4  UNL d   1       0.388   0.824  -0.943  0.00  0.00     0.048 A 
ATOM      6  C5  UNL d   1      -0.764   0.233  -1.465  0.00  0.00     0.003 A 
ATOM      7  I   UNL d   1       2.459   1.465   1.167  0.00  0.00    -0.146 I 
ENDROOT
TORSDOF 0
ENDMDL
