MODEL 1
REMARK minimizedAffinity -1.41193235
REMARK minimizedRMSD -1
REMARK  0 active torsions:
REMARK  status: ('A' for Active; 'I' for Inactive)
ROOT
ATOM      1  C   UNL d   1       3.625   2.976   1.042  0.00  0.00     0.023 A 
ATOM      2  C1  UNL d   1       2.550   2.990   1.932  0.00  0.00     0.003 A 
ATOM      3  C2  UNL d   1       1.440   2.175   1.701  0.00  0.00     0.048 A 
ATOM      4  C3  UNL d   1       1.412   1.346   0.580  0.00  0.00     0.023 A 
ATOM      5  C4  UNL d   1       2.486   1.327  -0.312  0.00  0.00     0.048 A 
ATOM      6  C5  UNL d   1       3.593   2.145  -0.078  0.00  0.00     0.003 A 
ATOM      7  I   UNL d   1      -0.238   0.131   0.236  0.00  0.00    -0.146 I 
ENDROOT
TORSDOF 0
ENDMDL
