MODEL 1
REMARK minimizedAffinity 7.06364059
REMARK minimizedRMSD -1
REMARK  0 active torsions:
REMARK  status: ('A' for Active; 'I' for Inactive)
ROOT
ATOM      1  C   UNL d   1      -2.488   2.332   1.089  0.00  0.00     0.172 C 
ATOM      2  N   UNL d   1      -3.797   2.923   0.946  0.00  0.00    -0.070 N 
ATOM      3  C1  UNL d   1      -4.243   3.624  -0.143  0.00  0.00    -0.004 A 
ATOM      4  C2  UNL d   1      -5.538   4.019   0.111  0.00  0.00    -0.047 A 
ATOM      5  C3  UNL d   1      -5.883   3.540   1.397  0.00  0.00    -0.047 A 
ATOM      6  C4  UNL d   1      -4.787   2.866   1.892  0.00  0.00    -0.004 A 
ENDROOT
TORSDOF 0
ENDMDL
