MODEL 1
REMARK minimizedAffinity 1.91555429
REMARK minimizedRMSD -1
REMARK  0 active torsions:
REMARK  status: ('A' for Active; 'I' for Inactive)
ROOT
ATOM      1  C   UNL d   1       3.039  -5.993  -1.738  0.00  0.00     0.172 C 
ATOM      2  N   UNL d   1       2.499  -5.994  -0.399  0.00  0.00    -0.070 N 
ATOM      3  C1  UNL d   1       3.231  -5.991   0.758  0.00  0.00    -0.004 A 
ATOM      4  C2  UNL d   1       2.349  -5.993   1.817  0.00  0.00    -0.047 A 
ATOM      5  C3  UNL d   1       1.041  -5.999   1.277  0.00  0.00    -0.047 A 
ATOM      6  C4  UNL d   1       1.163  -6.000  -0.096  0.00  0.00    -0.004 A 
ENDROOT
TORSDOF 0
ENDMDL
