MODEL 1
REMARK minimizedAffinity 0.595386982
REMARK minimizedRMSD -1
REMARK  0 active torsions:
REMARK  status: ('A' for Active; 'I' for Inactive)
ROOT
ATOM      1  C   UNL d   1       4.132  -6.000  -2.283  0.00  0.00     0.172 C 
ATOM      2  N   UNL d   1       3.283  -5.881  -1.121  0.00  0.00    -0.070 N 
ATOM      3  C1  UNL d   1       1.919  -5.999  -1.112  0.00  0.00    -0.004 A 
ATOM      4  C2  UNL d   1       1.488  -5.822   0.184  0.00  0.00    -0.047 A 
ATOM      5  C3  UNL d   1       2.633  -5.587   0.983  0.00  0.00    -0.047 A 
ATOM      6  C4  UNL d   1       3.730  -5.629   0.149  0.00  0.00    -0.004 A 
ENDROOT
TORSDOF 0
ENDMDL
