MODEL 1
REMARK minimizedAffinity -0.136899561
REMARK minimizedRMSD -1
REMARK  0 active torsions:
REMARK  status: ('A' for Active; 'I' for Inactive)
ROOT
ATOM      1  C   UNL d   1       4.113  -5.993  -2.299  0.00  0.00     0.172 C 
ATOM      2  N   UNL d   1       3.257  -5.995  -1.136  0.00  0.00    -0.070 N 
ATOM      3  C1  UNL d   1       3.680  -6.000   0.166  0.00  0.00    -0.004 A 
ATOM      4  C2  UNL d   1       2.563  -6.000   0.973  0.00  0.00    -0.047 A 
ATOM      5  C3  UNL d   1       1.429  -5.996   0.126  0.00  0.00    -0.047 A 
ATOM      6  C4  UNL d   1       1.888  -5.993  -1.175  0.00  0.00    -0.004 A 
ENDROOT
TORSDOF 0
ENDMDL
