MODEL 1
REMARK minimizedAffinity 2.28805375
REMARK minimizedRMSD -1
REMARK  0 active torsions:
REMARK  status: ('A' for Active; 'I' for Inactive)
ROOT
ATOM      1  C   UNL d   1       5.700  -5.996  -4.993  0.00  0.00     0.172 C 
ATOM      2  N   UNL d   1       5.207  -5.953  -3.636  0.00  0.00    -0.070 N 
ATOM      3  C1  UNL d   1       3.891  -5.999  -3.263  0.00  0.00    -0.004 A 
ATOM      4  C2  UNL d   1       3.839  -5.933  -1.887  0.00  0.00    -0.047 A 
ATOM      5  C3  UNL d   1       5.171  -5.843  -1.417  0.00  0.00    -0.047 A 
ATOM      6  C4  UNL d   1       5.998  -5.857  -2.521  0.00  0.00    -0.004 A 
ENDROOT
TORSDOF 0
ENDMDL
