MODEL 1
REMARK minimizedAffinity -1.31210423
REMARK minimizedRMSD -1
REMARK  0 active torsions:
REMARK  status: ('A' for Active; 'I' for Inactive)
ROOT
ATOM      1  C   UNL d   1       4.401  -6.000  -5.025  0.00  0.00     0.172 C 
ATOM      2  N   UNL d   1       3.860  -5.999  -3.686  0.00  0.00    -0.070 N 
ATOM      3  C1  UNL d   1       4.592  -6.000  -2.529  0.00  0.00    -0.004 A 
ATOM      4  C2  UNL d   1       3.710  -5.998  -1.471  0.00  0.00    -0.047 A 
ATOM      5  C3  UNL d   1       2.401  -5.996  -2.011  0.00  0.00    -0.047 A 
ATOM      6  C4  UNL d   1       2.524  -5.997  -3.384  0.00  0.00    -0.004 A 
ENDROOT
TORSDOF 0
ENDMDL
