MODEL 1
REMARK minimizedAffinity -2.3768971
REMARK minimizedRMSD -1
REMARK  0 active torsions:
REMARK  status: ('A' for Active; 'I' for Inactive)
ROOT
ATOM      1  C   UNL d   1       6.000  -2.713  -6.000  0.00  0.00     0.172 C 
ATOM      2  N   UNL d   1       5.749  -1.443  -5.360  0.00  0.00    -0.070 N 
ATOM      3  C1  UNL d   1       5.419  -1.265  -4.043  0.00  0.00    -0.004 A 
ATOM      4  C2  UNL d   1       5.264   0.087  -3.826  0.00  0.00    -0.047 A 
ATOM      5  C3  UNL d   1       5.510   0.744  -5.056  0.00  0.00    -0.047 A 
ATOM      6  C4  UNL d   1       5.808  -0.227  -5.988  0.00  0.00    -0.004 A 
ENDROOT
TORSDOF 0
ENDMDL
