MODEL 1
REMARK minimizedAffinity -2.0259614
REMARK minimizedRMSD -1
REMARK  0 active torsions:
REMARK  status: ('A' for Active; 'I' for Inactive)
ROOT
ATOM      1  C   UNL d   1       5.973  -3.000  -6.000  0.00  0.00     0.172 C 
ATOM      2  N   UNL d   1       5.556  -1.767  -5.374  0.00  0.00    -0.070 N 
ATOM      3  C1  UNL d   1       5.443  -0.554  -5.999  0.00  0.00    -0.004 A 
ATOM      4  C2  UNL d   1       5.020   0.365  -5.063  0.00  0.00    -0.047 A 
ATOM      5  C3  UNL d   1       4.875  -0.320  -3.833  0.00  0.00    -0.047 A 
ATOM      6  C4  UNL d   1       5.214  -1.638  -4.054  0.00  0.00    -0.004 A 
ENDROOT
TORSDOF 0
ENDMDL
