MODEL 1
REMARK minimizedAffinity -0.716925621
REMARK minimizedRMSD -1
REMARK  2 active torsions:
REMARK  status: ('A' for Active; 'I' for Inactive)
REMARK    1  A    between atoms: C2'_3  and  C1'_4 
REMARK    2  A    between atoms: C1'_4  and  C1_5 
ROOT
ATOM      1  C1  I4B d   1      -4.500   0.828  -5.781  0.00  0.00    -0.075 A 
ATOM      2  C2  I4B d   1      -3.185   0.794  -5.388  0.00  0.00     0.003 A 
ATOM      3  C3  I4B d   1      -2.465   1.999  -5.202  0.00  0.00     0.002 A 
ATOM      4  C4  I4B d   1      -3.080   3.206  -5.468  0.00  0.00    -0.004 A 
ATOM      5  C5  I4B d   1      -4.419   3.239  -5.845  0.00  0.00     0.002 A 
ATOM      6  C6  I4B d   1      -5.138   2.044  -5.991  0.00  0.00     0.003 A 
ENDROOT
BRANCH   1   7
ATOM      7  C1' I4B d   1      -5.221  -0.464  -6.000  0.00  0.00     0.060 C 
BRANCH   7   8
ATOM      8  C2' I4B d   1      -4.583  -1.511  -5.109  0.00  0.00    -0.013 C 
ATOM      9  C4' I4B d   1      -5.258  -1.566  -3.764  0.00  0.00     0.013 C 
ATOM     10  C3' I4B d   1      -4.669  -2.832  -5.812  0.00  0.00     0.013 C 
ENDBRANCH   7   8
ENDBRANCH   1   7
TORSDOF 2
ENDMDL
