MODEL 1
REMARK minimizedAffinity 0.406136066
REMARK minimizedRMSD -1
REMARK  2 active torsions:
REMARK  status: ('A' for Active; 'I' for Inactive)
REMARK    1  A    between atoms: C2'_3  and  C1'_4 
REMARK    2  A    between atoms: C1'_4  and  C1_5 
ROOT
ATOM      1  C1  I4B d   1      -4.112   1.055  -5.483  0.00  0.00    -0.075 A 
ATOM      2  C2  I4B d   1      -3.016   0.934  -4.667  0.00  0.00     0.003 A 
ATOM      3  C3  I4B d   1      -2.234   2.071  -4.350  0.00  0.00     0.002 A 
ATOM      4  C4  I4B d   1      -2.553   3.292  -4.909  0.00  0.00    -0.004 A 
ATOM      5  C5  I4B d   1      -3.679   3.417  -5.718  0.00  0.00     0.002 A 
ATOM      6  C6  I4B d   1      -4.471   2.294  -5.997  0.00  0.00     0.003 A 
ENDROOT
BRANCH   1   7
ATOM      7  C1' I4B d   1      -4.896  -0.173  -5.824  0.00  0.00     0.060 C 
BRANCH   7   8
ATOM      8  C2' I4B d   1      -4.207  -1.360  -5.182  0.00  0.00    -0.013 C 
ATOM      9  C4' I4B d   1      -4.546  -1.460  -3.718  0.00  0.00     0.013 C 
ATOM     10  C3' I4B d   1      -4.627  -2.595  -5.921  0.00  0.00     0.013 C 
ENDBRANCH   7   8
ENDBRANCH   1   7
TORSDOF 2
ENDMDL
