MODEL 1
REMARK minimizedAffinity -2.98917913
REMARK minimizedRMSD -1
REMARK  2 active torsions:
REMARK  status: ('A' for Active; 'I' for Inactive)
REMARK    1  A    between atoms: C2'_3  and  C1'_4 
REMARK    2  A    between atoms: C1'_4  and  C1_5 
ROOT
ATOM      1  C1  I4B d   1       3.307  -0.818  -1.474  0.00  0.00    -0.075 A 
ATOM      2  C2  I4B d   1       2.695  -2.046  -1.451  0.00  0.00     0.003 A 
ATOM      3  C3  I4B d   1       3.358  -3.184  -1.972  0.00  0.00     0.002 A 
ATOM      4  C4  I4B d   1       4.603  -3.039  -2.549  0.00  0.00    -0.004 A 
ATOM      5  C5  I4B d   1       5.232  -1.798  -2.552  0.00  0.00     0.002 A 
ATOM      6  C6  I4B d   1       4.585  -0.682  -2.000  0.00  0.00     0.003 A 
ENDROOT
BRANCH   1   7
ATOM      7  C1' I4B d   1       2.565   0.368  -0.945  0.00  0.00     0.060 C 
BRANCH   7   8
ATOM      8  C2' I4B d   1       1.137  -0.060  -0.670  0.00  0.00    -0.013 C 
ATOM      9  C4' I4B d   1       0.495   0.821   0.368  0.00  0.00     0.013 C 
ATOM     10  C3' I4B d   1       0.382  -0.010  -1.965  0.00  0.00     0.013 C 
ENDBRANCH   7   8
ENDBRANCH   1   7
TORSDOF 2
ENDMDL
