MODEL 1
REMARK minimizedAffinity -2.89780998
REMARK minimizedRMSD -1
REMARK  2 active torsions:
REMARK  status: ('A' for Active; 'I' for Inactive)
REMARK    1  A    between atoms: C2'_3  and  C1'_4 
REMARK    2  A    between atoms: C1'_4  and  C1_5 
ROOT
ATOM      1  C1  I4B d   1      -4.166   2.565  -5.416  0.00  0.00    -0.075 A 
ATOM      2  C2  I4B d   1      -4.467   3.833  -5.848  0.00  0.00     0.003 A 
ATOM      3  C3  I4B d   1      -3.449   4.812  -5.949  0.00  0.00     0.002 A 
ATOM      4  C4  I4B d   1      -2.162   4.497  -5.563  0.00  0.00    -0.004 A 
ATOM      5  C5  I4B d   1      -1.854   3.205  -5.148  0.00  0.00     0.002 A 
ATOM      6  C6  I4B d   1      -2.859   2.229  -5.086  0.00  0.00     0.003 A 
ENDROOT
BRANCH   1   7
ATOM      7  C1' I4B d   1      -5.271   1.566  -5.290  0.00  0.00     0.060 C 
BRANCH   7   8
ATOM      8  C2' I4B d   1      -4.838   0.299  -6.000  0.00  0.00    -0.013 C 
ATOM      9  C4' I4B d   1      -3.630  -0.311  -5.339  0.00  0.00     0.013 C 
ATOM     10  C3' I4B d   1      -5.997  -0.653  -5.995  0.00  0.00     0.013 C 
ENDBRANCH   7   8
ENDBRANCH   1   7
TORSDOF 2
ENDMDL
