MODEL 1
REMARK minimizedAffinity -2.12644076
REMARK minimizedRMSD -1
REMARK  2 active torsions:
REMARK  status: ('A' for Active; 'I' for Inactive)
REMARK    1  A    between atoms: C2'_3  and  C1'_4 
REMARK    2  A    between atoms: C1'_4  and  C1_5 
ROOT
ATOM      1  C1  I4B d   1       0.281  -0.645  -1.243  0.00  0.00    -0.075 A 
ATOM      2  C2  I4B d   1       1.054   0.480  -1.386  0.00  0.00     0.003 A 
ATOM      3  C3  I4B d   1       1.299   1.323  -0.275  0.00  0.00     0.002 A 
ATOM      4  C4  I4B d   1       0.713   1.032   0.941  0.00  0.00    -0.004 A 
ATOM      5  C5  I4B d   1      -0.052  -0.121   1.089  0.00  0.00     0.002 A 
ATOM      6  C6  I4B d   1      -0.260  -0.972  -0.006  0.00  0.00     0.003 A 
ENDROOT
BRANCH   1   7
ATOM      7  C1' I4B d   1       0.016  -1.496  -2.445  0.00  0.00     0.060 C 
BRANCH   7   8
ATOM      8  C2' I4B d   1      -1.372  -1.166  -2.953  0.00  0.00    -0.013 C 
ATOM      9  C4' I4B d   1      -1.420   0.214  -3.553  0.00  0.00     0.013 C 
ATOM     10  C3' I4B d   1      -1.756  -2.208  -3.960  0.00  0.00     0.013 C 
ENDBRANCH   7   8
ENDBRANCH   1   7
TORSDOF 2
ENDMDL
