MODEL 1
REMARK minimizedAffinity -0.241768301
REMARK minimizedRMSD -1
REMARK  2 active torsions:
REMARK  status: ('A' for Active; 'I' for Inactive)
REMARK    1  A    between atoms: C2'_3  and  C1'_4 
REMARK    2  A    between atoms: C1'_4  and  C1_5 
ROOT
ATOM      1  C1  I4B d   1      -4.320  -0.270  -5.813  0.00  0.00    -0.075 A 
ATOM      2  C2  I4B d   1      -2.967  -0.430  -5.650  0.00  0.00     0.003 A 
ATOM      3  C3  I4B d   1      -2.397  -1.726  -5.660  0.00  0.00     0.002 A 
ATOM      4  C4  I4B d   1      -3.217  -2.829  -5.784  0.00  0.00    -0.004 A 
ATOM      5  C5  I4B d   1      -4.586  -2.663  -5.972  0.00  0.00     0.002 A 
ATOM      6  C6  I4B d   1      -5.140  -1.375  -5.999  0.00  0.00     0.003 A 
ENDROOT
BRANCH   1   7
ATOM      7  C1' I4B d   1      -4.894   1.111  -5.765  0.00  0.00     0.060 C 
BRANCH   7   8
ATOM      8  C2' I4B d   1      -3.763   2.094  -5.995  0.00  0.00    -0.013 C 
ATOM      9  C4' I4B d   1      -4.267   3.513  -5.997  0.00  0.00     0.013 C 
ATOM     10  C3' I4B d   1      -2.741   1.884  -4.918  0.00  0.00     0.013 C 
ENDBRANCH   7   8
ENDBRANCH   1   7
TORSDOF 2
ENDMDL
