MODEL 1
REMARK minimizedAffinity -5.00253439
REMARK minimizedRMSD -1
REMARK  2 active torsions:
REMARK  status: ('A' for Active; 'I' for Inactive)
REMARK    1  A    between atoms: C2'_3  and  C1'_4 
REMARK    2  A    between atoms: C1'_4  and  C1_5 
ROOT
ATOM      1  C1  I4B d   1       3.956  -2.169  -3.777  0.00  0.00    -0.075 A 
ATOM      2  C2  I4B d   1       5.122  -2.893  -3.764  0.00  0.00     0.003 A 
ATOM      3  C3  I4B d   1       5.998  -2.855  -4.876  0.00  0.00     0.002 A 
ATOM      4  C4  I4B d   1       5.646  -2.125  -5.993  0.00  0.00    -0.004 A 
ATOM      5  C5  I4B d   1       4.475  -1.373  -5.996  0.00  0.00     0.002 A 
ATOM      6  C6  I4B d   1       3.630  -1.385  -4.876  0.00  0.00     0.003 A 
ENDROOT
BRANCH   1   7
ATOM      7  C1' I4B d   1       3.039  -2.258  -2.599  0.00  0.00     0.060 C 
BRANCH   7   8
ATOM      8  C2' I4B d   1       2.404  -0.897  -2.397  0.00  0.00    -0.013 C 
ATOM      9  C4' I4B d   1       1.158  -0.996  -1.558  0.00  0.00     0.013 C 
ATOM     10  C3' I4B d   1       3.421  -0.003  -1.753  0.00  0.00     0.013 C 
ENDBRANCH   7   8
ENDBRANCH   1   7
TORSDOF 2
ENDMDL
