MODEL 1
REMARK minimizedAffinity -2.83595014
REMARK minimizedRMSD -1
REMARK  2 active torsions:
REMARK  status: ('A' for Active; 'I' for Inactive)
REMARK    1  A    between atoms: C2'_3  and  C1'_4 
REMARK    2  A    between atoms: C1'_4  and  C1_5 
ROOT
ATOM      1  C1  I4B d   1      -3.681  -3.063  -5.633  0.00  0.00    -0.075 A 
ATOM      2  C2  I4B d   1      -3.322  -4.384  -5.730  0.00  0.00     0.003 A 
ATOM      3  C3  I4B d   1      -4.309  -5.378  -5.942  0.00  0.00     0.002 A 
ATOM      4  C4  I4B d   1      -5.639  -5.013  -6.000  0.00  0.00    -0.004 A 
ATOM      5  C5  I4B d   1      -5.999  -3.671  -5.924  0.00  0.00     0.002 A 
ATOM      6  C6  I4B d   1      -5.013  -2.688  -5.752  0.00  0.00     0.003 A 
ENDROOT
BRANCH   1   7
ATOM      7  C1' I4B d   1      -2.617  -2.044  -5.376  0.00  0.00     0.060 C 
BRANCH   7   8
ATOM      8  C2' I4B d   1      -1.780  -2.527  -4.209  0.00  0.00    -0.013 C 
ATOM      9  C4' I4B d   1      -0.801  -3.586  -4.642  0.00  0.00     0.013 C 
ATOM     10  C3' I4B d   1      -1.072  -1.341  -3.625  0.00  0.00     0.013 C 
ENDBRANCH   7   8
ENDBRANCH   1   7
TORSDOF 2
ENDMDL
