MODEL 1
REMARK minimizedAffinity 5.93865538
REMARK minimizedRMSD -1
REMARK  2 active torsions:
REMARK  status: ('A' for Active; 'I' for Inactive)
REMARK    1  A    between atoms: C2'_3  and  C1'_4 
REMARK    2  A    between atoms: C1'_4  and  C1_5 
ROOT
ATOM      1  C1  I4B d   1      -4.955   1.185  -5.045  0.00  0.00    -0.075 A 
ATOM      2  C2  I4B d   1      -6.000   1.927  -5.537  0.00  0.00     0.003 A 
ATOM      3  C3  I4B d   1      -5.786   3.256  -5.978  0.00  0.00     0.002 A 
ATOM      4  C4  I4B d   1      -4.530   3.816  -5.862  0.00  0.00    -0.004 A 
ATOM      5  C5  I4B d   1      -3.467   3.055  -5.384  0.00  0.00     0.002 A 
ATOM      6  C6  I4B d   1      -3.678   1.727  -4.984  0.00  0.00     0.003 A 
ENDROOT
BRANCH   1   7
ATOM      7  C1' I4B d   1      -5.224  -0.203  -4.558  0.00  0.00     0.060 C 
BRANCH   7   8
ATOM      8  C2' I4B d   1      -4.575  -1.171  -5.526  0.00  0.00    -0.013 C 
ATOM      9  C4' I4B d   1      -3.321  -1.768  -4.943  0.00  0.00     0.013 C 
ATOM     10  C3' I4B d   1      -5.578  -2.236  -5.857  0.00  0.00     0.013 C 
ENDBRANCH   7   8
ENDBRANCH   1   7
TORSDOF 2
ENDMDL
