MODEL 1
REMARK minimizedAffinity -2.9572413
REMARK minimizedRMSD -1
REMARK  2 active torsions:
REMARK  status: ('A' for Active; 'I' for Inactive)
REMARK    1  A    between atoms: C2'_3  and  C1'_4 
REMARK    2  A    between atoms: C1'_4  and  C1_5 
ROOT
ATOM      1  C1  I4B d   1      -3.434  -0.500  -5.992  0.00  0.00    -0.075 A 
ATOM      2  C2  I4B d   1      -4.776  -0.212  -5.984  0.00  0.00     0.003 A 
ATOM      3  C3  I4B d   1      -5.216   1.133  -5.961  0.00  0.00     0.002 A 
ATOM      4  C4  I4B d   1      -4.288   2.151  -5.895  0.00  0.00    -0.004 A 
ATOM      5  C5  I4B d   1      -2.927   1.859  -5.926  0.00  0.00     0.002 A 
ATOM      6  C6  I4B d   1      -2.497   0.526  -5.987  0.00  0.00     0.003 A 
ENDROOT
BRANCH   1   7
ATOM      7  C1' I4B d   1      -3.003  -1.932  -5.984  0.00  0.00     0.060 C 
BRANCH   7   8
ATOM      8  C2' I4B d   1      -3.872  -2.675  -4.989  0.00  0.00    -0.013 C 
ATOM      9  C4' I4B d   1      -4.955  -3.455  -5.687  0.00  0.00     0.013 C 
ATOM     10  C3' I4B d   1      -2.986  -3.579  -4.185  0.00  0.00     0.013 C 
ENDBRANCH   7   8
ENDBRANCH   1   7
TORSDOF 2
ENDMDL
