MODEL 1
REMARK minimizedAffinity -3.82632494
REMARK minimizedRMSD -1
REMARK  2 active torsions:
REMARK  status: ('A' for Active; 'I' for Inactive)
REMARK    1  A    between atoms: C2'_3  and  C1'_4 
REMARK    2  A    between atoms: C1'_4  and  C1_5 
ROOT
ATOM      1  C1  I4B d   1       4.023  -2.236  -3.677  0.00  0.00    -0.075 A 
ATOM      2  C2  I4B d   1       3.590  -1.561  -4.790  0.00  0.00     0.003 A 
ATOM      3  C3  I4B d   1       4.357  -1.582  -5.980  0.00  0.00     0.002 A 
ATOM      4  C4  I4B d   1       5.568  -2.244  -5.996  0.00  0.00    -0.004 A 
ATOM      5  C5  I4B d   1       5.994  -2.947  -4.873  0.00  0.00     0.002 A 
ATOM      6  C6  I4B d   1       5.211  -2.954  -3.710  0.00  0.00     0.003 A 
ENDROOT
BRANCH   1   7
ATOM      7  C1' I4B d   1       3.203  -2.166  -2.427  0.00  0.00     0.060 C 
BRANCH   7   8
ATOM      8  C2' I4B d   1       2.630  -0.767  -2.323  0.00  0.00    -0.013 C 
ATOM      9  C4' I4B d   1       1.304  -0.773  -1.610  0.00  0.00     0.013 C 
ATOM     10  C3' I4B d   1       3.628   0.089  -1.602  0.00  0.00     0.013 C 
ENDBRANCH   7   8
ENDBRANCH   1   7
TORSDOF 2
ENDMDL
