MODEL 1
REMARK minimizedAffinity -1.63907242
REMARK minimizedRMSD -1
REMARK  2 active torsions:
REMARK  status: ('A' for Active; 'I' for Inactive)
REMARK    1  A    between atoms: C2'_3  and  C1'_4 
REMARK    2  A    between atoms: C1'_4  and  C1_5 
ROOT
ATOM      1  C1  I4B d   1      -3.470   0.651  -4.211  0.00  0.00    -0.075 A 
ATOM      2  C2  I4B d   1      -4.631   0.642  -4.944  0.00  0.00     0.003 A 
ATOM      3  C3  I4B d   1      -5.044   1.803  -5.640  0.00  0.00     0.002 A 
ATOM      4  C4  I4B d   1      -4.298   2.959  -5.536  0.00  0.00    -0.004 A 
ATOM      5  C5  I4B d   1      -3.109   2.961  -4.812  0.00  0.00     0.002 A 
ATOM      6  C6  I4B d   1      -2.686   1.796  -4.155  0.00  0.00     0.003 A 
ENDROOT
BRANCH   1   7
ATOM      7  C1' I4B d   1      -3.081  -0.583  -3.462  0.00  0.00     0.060 C 
BRANCH   7   8
ATOM      8  C2' I4B d   1      -1.569  -0.674  -3.466  0.00  0.00    -0.013 C 
ATOM      9  C4' I4B d   1      -0.983  -0.084  -2.211  0.00  0.00     0.013 C 
ATOM     10  C3' I4B d   1      -1.193  -2.119  -3.611  0.00  0.00     0.013 C 
ENDBRANCH   7   8
ENDBRANCH   1   7
TORSDOF 2
ENDMDL
