MODEL 1
REMARK minimizedAffinity -4.23874426
REMARK minimizedRMSD -1
REMARK  0 active torsions:
REMARK  status: ('A' for Active; 'I' for Inactive)
ROOT
ATOM      1  N1  IND d   1      -2.046   0.458   2.272  0.00  0.00    -0.196 N 
ATOM      2  C2  IND d   1      -2.138   1.794   2.548  0.00  0.00     0.054 A 
ATOM      3  C3  IND d   1      -1.272   2.493   1.782  0.00  0.00    -0.031 A 
ATOM      4  C4  IND d   1       0.319   1.662  -0.064  0.00  0.00     0.051 A 
ATOM      5  C5  IND d   1       0.782   0.519  -0.652  0.00  0.00    -0.031 A 
ATOM      6  C6  IND d   1       0.315  -0.728  -0.291  0.00  0.00     0.015 A 
ATOM      7  C7  IND d   1      -0.646  -0.878   0.669  0.00  0.00    -0.016 A 
ATOM      8  C8  IND d   1      -1.113   0.280   1.274  0.00  0.00    -0.047 A 
ATOM      9  C9  IND d   1      -0.612   1.545   0.941  0.00  0.00    -0.096 A 
ATOM     10  HN1 IND d   1      -2.495  -0.166   2.657  0.00  0.00     0.298 HD
ENDROOT
TORSDOF 0
ENDMDL
