MODEL 1
REMARK minimizedAffinity -4.49559164
REMARK minimizedRMSD -1
REMARK  0 active torsions:
REMARK  status: ('A' for Active; 'I' for Inactive)
ROOT
ATOM      1  N1  IND d   1       0.079   0.245  -0.658  0.00  0.00    -0.196 N 
ATOM      2  C2  IND d   1      -0.373  -1.044  -0.615  0.00  0.00     0.054 A 
ATOM      3  C3  IND d   1      -1.161  -1.231   0.467  0.00  0.00    -0.031 A 
ATOM      4  C4  IND d   1      -1.927   0.466   2.245  0.00  0.00     0.051 A 
ATOM      5  C5  IND d   1      -1.747   1.759   2.648  0.00  0.00    -0.031 A 
ATOM      6  C6  IND d   1      -0.934   2.633   1.954  0.00  0.00     0.015 A 
ATOM      7  C7  IND d   1      -0.278   2.246   0.819  0.00  0.00    -0.016 A 
ATOM      8  C8  IND d   1      -0.453   0.932   0.411  0.00  0.00    -0.047 A 
ATOM      9  C9  IND d   1      -1.243   0.029   1.135  0.00  0.00    -0.096 A 
ATOM     10  HN1 IND d   1       0.606   0.573  -1.253  0.00  0.00     0.298 HD
ENDROOT
TORSDOF 0
ENDMDL
