MODEL 1
REMARK minimizedAffinity -0.889412999
REMARK minimizedRMSD -1
REMARK  0 active torsions:
REMARK  status: ('A' for Active; 'I' for Inactive)
ROOT
ATOM      1  N1  IND d   1       0.369   1.049  -1.493  0.00  0.00    -0.196 N 
ATOM      2  C2  IND d   1      -0.653   1.308  -0.623  0.00  0.00     0.054 A 
ATOM      3  C3  IND d   1      -0.875   0.239   0.174  0.00  0.00    -0.031 A 
ATOM      4  C4  IND d   1       0.384  -2.004   0.291  0.00  0.00     0.051 A 
ATOM      5  C5  IND d   1       1.368  -2.720  -0.330  0.00  0.00    -0.031 A 
ATOM      6  C6  IND d   1       2.086  -2.205  -1.390  0.00  0.00     0.015 A 
ATOM      7  C7  IND d   1       1.853  -0.945  -1.863  0.00  0.00    -0.016 A 
ATOM      8  C8  IND d   1       0.850  -0.217  -1.240  0.00  0.00    -0.047 A 
ATOM      9  C9  IND d   1       0.089  -0.750  -0.191  0.00  0.00    -0.096 A 
ATOM     10  HN1 IND d   1       0.662   1.586  -2.097  0.00  0.00     0.298 HD
ENDROOT
TORSDOF 0
ENDMDL
