MODEL 1
REMARK minimizedAffinity -5.42780495
REMARK minimizedRMSD -1
REMARK  0 active torsions:
REMARK  status: ('A' for Active; 'I' for Inactive)
ROOT
ATOM      1  N1  IND d   1       0.616   1.711  -1.593  0.00  0.00    -0.196 N 
ATOM      2  C2  IND d   1      -0.441   2.224  -0.893  0.00  0.00     0.054 A 
ATOM      3  C3  IND d   1      -0.996   1.268  -0.114  0.00  0.00    -0.031 A 
ATOM      4  C4  IND d   1      -0.271  -1.175   0.244  0.00  0.00     0.051 A 
ATOM      5  C5  IND d   1       0.617  -2.112  -0.204  0.00  0.00    -0.031 A 
ATOM      6  C6  IND d   1       1.571  -1.816  -1.155  0.00  0.00     0.015 A 
ATOM      7  C7  IND d   1       1.681  -0.563  -1.688  0.00  0.00    -0.016 A 
ATOM      8  C8  IND d   1       0.776   0.389  -1.241  0.00  0.00    -0.047 A 
ATOM      9  C9  IND d   1      -0.222   0.083  -0.306  0.00  0.00    -0.096 A 
ATOM     10  HN1 IND d   1       1.099   2.143  -2.159  0.00  0.00     0.298 HD
ENDROOT
TORSDOF 0
ENDMDL
