MODEL 1
REMARK minimizedAffinity -3.92296124
REMARK minimizedRMSD -1
REMARK  0 active torsions:
REMARK  status: ('A' for Active; 'I' for Inactive)
ROOT
ATOM      1  N1  IND d   1      -0.552   1.310  -0.867  0.00  0.00    -0.196 N 
ATOM      2  C2  IND d   1      -1.204   1.148   0.324  0.00  0.00     0.054 A 
ATOM      3  C3  IND d   1      -0.830  -0.011   0.911  0.00  0.00    -0.031 A 
ATOM      4  C4  IND d   1       0.913  -1.744   0.144  0.00  0.00     0.051 A 
ATOM      5  C5  IND d   1       1.743  -2.049  -0.898  0.00  0.00    -0.031 A 
ATOM      6  C6  IND d   1       1.854  -1.231  -2.004  0.00  0.00     0.015 A 
ATOM      7  C7  IND d   1       1.145  -0.068  -2.105  0.00  0.00    -0.016 A 
ATOM      8  C8  IND d   1       0.296   0.241  -1.051  0.00  0.00    -0.047 A 
ATOM      9  C9  IND d   1       0.147  -0.606   0.055  0.00  0.00    -0.096 A 
ATOM     10  HN1 IND d   1      -0.655   1.970  -1.409  0.00  0.00     0.298 HD
ENDROOT
TORSDOF 0
ENDMDL
