MODEL 1
REMARK minimizedAffinity -5.14742994
REMARK minimizedRMSD -1
REMARK  0 active torsions:
REMARK  status: ('A' for Active; 'I' for Inactive)
ROOT
ATOM      1  N1  IND d   1      -0.972   0.612   3.197  0.00  0.00    -0.196 N 
ATOM      2  C2  IND d   1      -1.873   1.575   3.556  0.00  0.00     0.054 A 
ATOM      3  C3  IND d   1      -2.263   2.282   2.471  0.00  0.00    -0.031 A 
ATOM      4  C4  IND d   1      -1.626   1.964  -0.003  0.00  0.00     0.051 A 
ATOM      5  C5  IND d   1      -0.806   1.237  -0.819  0.00  0.00    -0.031 A 
ATOM      6  C6  IND d   1       0.016   0.243  -0.329  0.00  0.00     0.015 A 
ATOM      7  C7  IND d   1       0.039  -0.071   1.000  0.00  0.00    -0.016 A 
ATOM      8  C8  IND d   1      -0.787   0.670   1.833  0.00  0.00    -0.047 A 
ATOM      9  C9  IND d   1      -1.592   1.709   1.348  0.00  0.00    -0.096 A 
ATOM     10  HN1 IND d   1      -0.585   0.062   3.734  0.00  0.00     0.298 HD
ENDROOT
TORSDOF 0
ENDMDL
