MODEL 1
REMARK minimizedAffinity -2.84210801
REMARK minimizedRMSD -1
REMARK  0 active torsions:
REMARK  status: ('A' for Active; 'I' for Inactive)
ROOT
ATOM      1  N1  IND d   1       5.270  -0.354   4.836  0.00  0.00    -0.196 N 
ATOM      2  C2  IND d   1       5.854   0.063   6.000  0.00  0.00     0.054 A 
ATOM      3  C3  IND d   1       5.995   1.408   6.000  0.00  0.00    -0.031 A 
ATOM      4  C4  IND d   1       5.244   3.131   4.241  0.00  0.00     0.051 A 
ATOM      5  C5  IND d   1       4.699   3.227   2.991  0.00  0.00    -0.031 A 
ATOM      6  C6  IND d   1       4.306   2.112   2.279  0.00  0.00     0.015 A 
ATOM      7  C7  IND d   1       4.433   0.855   2.798  0.00  0.00    -0.016 A 
ATOM      8  C8  IND d   1       4.993   0.753   4.064  0.00  0.00    -0.047 A 
ATOM      9  C9  IND d   1       5.433   1.878   4.773  0.00  0.00    -0.096 A 
ATOM     10  HN1 IND d   1       5.104  -1.170   4.622  0.00  0.00     0.298 HD
ENDROOT
TORSDOF 0
ENDMDL
