MODEL 1
REMARK minimizedAffinity -3.65093684
REMARK minimizedRMSD -1
REMARK  0 active torsions:
REMARK  status: ('A' for Active; 'I' for Inactive)
ROOT
ATOM      1  N1  IND d   1       0.301   0.637  -0.575  0.00  0.00    -0.196 N 
ATOM      2  C2  IND d   1       0.156  -0.722  -0.610  0.00  0.00     0.054 A 
ATOM      3  C3  IND d   1      -0.671  -1.133   0.379  0.00  0.00    -0.031 A 
ATOM      4  C4  IND d   1      -1.976   0.263   2.104  0.00  0.00     0.051 A 
ATOM      5  C5  IND d   1      -2.137   1.543   2.553  0.00  0.00    -0.031 A 
ATOM      6  C6  IND d   1      -1.483   2.609   1.969  0.00  0.00     0.015 A 
ATOM      7  C7  IND d   1      -0.649   2.434   0.902  0.00  0.00    -0.016 A 
ATOM      8  C8  IND d   1      -0.477   1.134   0.448  0.00  0.00    -0.047 A 
ATOM      9  C9  IND d   1      -1.105   0.044   1.063  0.00  0.00    -0.096 A 
ATOM     10  HN1 IND d   1       0.794   1.102  -1.103  0.00  0.00     0.298 HD
ENDROOT
TORSDOF 0
ENDMDL
