MODEL 1
REMARK minimizedAffinity -0.573442996
REMARK minimizedRMSD -1
REMARK  0 active torsions:
REMARK  status: ('A' for Active; 'I' for Inactive)
ROOT
ATOM      1  N1  IND d   1      -0.750   0.038  -0.355  0.00  0.00    -0.196 N 
ATOM      2  C2  IND d   1      -0.372  -1.262  -0.549  0.00  0.00     0.054 A 
ATOM      3  C3  IND d   1       0.972  -1.378  -0.467  0.00  0.00    -0.031 A 
ATOM      4  C4  IND d   1       2.739   0.413   0.079  0.00  0.00     0.051 A 
ATOM      5  C5  IND d   1       2.881   1.755   0.297  0.00  0.00    -0.031 A 
ATOM      6  C6  IND d   1       1.798   2.610   0.312  0.00  0.00     0.015 A 
ATOM      7  C7  IND d   1       0.525   2.151   0.119  0.00  0.00    -0.016 A 
ATOM      8  C8  IND d   1       0.378   0.790  -0.109  0.00  0.00    -0.047 A 
ATOM      9  C9  IND d   1       1.478  -0.076  -0.168  0.00  0.00    -0.096 A 
ATOM     10  HN1 IND d   1      -1.556   0.336  -0.383  0.00  0.00     0.298 HD
ENDROOT
TORSDOF 0
ENDMDL
