MODEL 1
REMARK minimizedAffinity -4.14651346
REMARK minimizedRMSD -1
REMARK  0 active torsions:
REMARK  status: ('A' for Active; 'I' for Inactive)
ROOT
ATOM      1  N1  IND d   1       2.897   0.298  -0.545  0.00  0.00    -0.196 N 
ATOM      2  C2  IND d   1       2.978  -0.936  -1.129  0.00  0.00     0.054 A 
ATOM      3  C3  IND d   1       1.742  -1.451  -1.312  0.00  0.00    -0.031 A 
ATOM      4  C4  IND d   1      -0.557  -0.402  -0.823  0.00  0.00     0.051 A 
ATOM      5  C5  IND d   1      -1.142   0.695  -0.255  0.00  0.00    -0.031 A 
ATOM      6  C6  IND d   1      -0.395   1.738   0.253  0.00  0.00     0.015 A 
ATOM      7  C7  IND d   1       0.970   1.728   0.201  0.00  0.00    -0.016 A 
ATOM      8  C8  IND d   1       1.567   0.612  -0.368  0.00  0.00    -0.047 A 
ATOM      9  C9  IND d   1       0.816  -0.468  -0.847  0.00  0.00    -0.096 A 
ATOM     10  HN1 IND d   1       3.564   0.794  -0.326  0.00  0.00     0.298 HD
ENDROOT
TORSDOF 0
ENDMDL
