MODEL 1
REMARK minimizedAffinity -5.75543499
REMARK minimizedRMSD -1
REMARK  0 active torsions:
REMARK  status: ('A' for Active; 'I' for Inactive)
ROOT
ATOM      1  N1  IND d   1      -0.641   0.754   0.616  0.00  0.00    -0.196 N 
ATOM      2  C2  IND d   1      -0.146   1.975   0.979  0.00  0.00     0.054 A 
ATOM      3  C3  IND d   1       1.163   2.068   0.651  0.00  0.00    -0.031 A 
ATOM      4  C4  IND d   1       2.666   0.376  -0.576  0.00  0.00     0.051 A 
ATOM      5  C5  IND d   1       2.671  -0.896  -1.075  0.00  0.00    -0.031 A 
ATOM      6  C6  IND d   1       1.550  -1.699  -1.037  0.00  0.00     0.015 A 
ATOM      7  C7  IND d   1       0.372  -1.253  -0.506  0.00  0.00    -0.016 A 
ATOM      8  C8  IND d   1       0.365   0.036   0.007  0.00  0.00    -0.047 A 
ATOM      9  C9  IND d   1       1.512   0.840   0.010  0.00  0.00    -0.096 A 
ATOM     10  HN1 IND d   1      -1.445   0.480   0.747  0.00  0.00     0.298 HD
ENDROOT
TORSDOF 0
ENDMDL
