MODEL 1
REMARK minimizedAffinity -3.10136962
REMARK minimizedRMSD -1
REMARK  0 active torsions:
REMARK  status: ('A' for Active; 'I' for Inactive)
ROOT
ATOM      1  N1  IND d   1       1.874  -0.340  -1.607  0.00  0.00    -0.196 N 
ATOM      2  C2  IND d   1       1.730  -1.551  -0.991  0.00  0.00     0.054 A 
ATOM      3  C3  IND d   1       0.683  -1.523  -0.137  0.00  0.00    -0.031 A 
ATOM      4  C4  IND d   1      -0.993   0.374   0.334  0.00  0.00     0.051 A 
ATOM      5  C5  IND d   1      -1.248   1.684   0.039  0.00  0.00    -0.031 A 
ATOM      6  C6  IND d   1      -0.461   2.400  -0.840  0.00  0.00     0.015 A 
ATOM      7  C7  IND d   1       0.608   1.827  -1.468  0.00  0.00    -0.016 A 
ATOM      8  C8  IND d   1       0.874   0.499  -1.165  0.00  0.00    -0.047 A 
ATOM      9  C9  IND d   1       0.105  -0.221  -0.242  0.00  0.00    -0.096 A 
ATOM     10  HN1 IND d   1       2.487  -0.135  -2.175  0.00  0.00     0.298 HD
ENDROOT
TORSDOF 0
ENDMDL
