MODEL 1
REMARK minimizedAffinity -1.05608475
REMARK minimizedRMSD -1
REMARK  0 active torsions:
REMARK  status: ('A' for Active; 'I' for Inactive)
ROOT
ATOM      1  N1  IND d   1      -0.631   2.140   3.014  0.00  0.00    -0.196 N 
ATOM      2  C2  IND d   1      -1.241   1.173   3.763  0.00  0.00     0.054 A 
ATOM      3  C3  IND d   1      -1.520   0.092   3.000  0.00  0.00    -0.031 A 
ATOM      4  C4  IND d   1      -0.972  -0.346   0.523  0.00  0.00     0.051 A 
ATOM      5  C5  IND d   1      -0.454   0.258  -0.589  0.00  0.00    -0.031 A 
ATOM      6  C6  IND d   1       0.043   1.544  -0.555  0.00  0.00     0.015 A 
ATOM      7  C7  IND d   1       0.052   2.275   0.600  0.00  0.00    -0.016 A 
ATOM      8  C8  IND d   1      -0.479   1.668   1.729  0.00  0.00    -0.047 A 
ATOM      9  C9  IND d   1      -1.025   0.378   1.691  0.00  0.00    -0.096 A 
ATOM     10  HN1 IND d   1      -0.385   2.913   3.297  0.00  0.00     0.298 HD
ENDROOT
TORSDOF 0
ENDMDL
