MODEL 1
REMARK minimizedAffinity -1.57592463
REMARK minimizedRMSD -1
REMARK  0 active torsions:
REMARK  status: ('A' for Active; 'I' for Inactive)
ROOT
ATOM      1  N1  IND d   1       0.357   1.349  -1.391  0.00  0.00    -0.196 N 
ATOM      2  C2  IND d   1      -0.557   1.933  -0.558  0.00  0.00     0.054 A 
ATOM      3  C3  IND d   1      -1.057   1.021   0.305  0.00  0.00    -0.031 A 
ATOM      4  C4  IND d   1      -0.444  -1.462   0.598  0.00  0.00     0.051 A 
ATOM      5  C5  IND d   1       0.311  -2.457   0.045  0.00  0.00    -0.031 A 
ATOM      6  C6  IND d   1       1.140  -2.230  -1.035  0.00  0.00     0.015 A 
ATOM      7  C7  IND d   1       1.252  -0.990  -1.597  0.00  0.00    -0.016 A 
ATOM      8  C8  IND d   1       0.481   0.022  -1.043  0.00  0.00    -0.047 A 
ATOM      9  C9  IND d   1      -0.394  -0.213   0.026  0.00  0.00    -0.096 A 
ATOM     10  HN1 IND d   1       0.783   1.744  -2.025  0.00  0.00     0.298 HD
ENDROOT
TORSDOF 0
ENDMDL
