MODEL 1
REMARK minimizedAffinity -4.89636803
REMARK minimizedRMSD -1
REMARK  0 active torsions:
REMARK  status: ('A' for Active; 'I' for Inactive)
ROOT
ATOM      1  N1  IND d   1       0.532   1.588   0.729  0.00  0.00    -0.196 N 
ATOM      2  C2  IND d   1      -0.745   1.297   1.121  0.00  0.00     0.054 A 
ATOM      3  C3  IND d   1      -1.052   0.018   0.809  0.00  0.00    -0.031 A 
ATOM      4  C4  IND d   1       0.422  -1.805  -0.255  0.00  0.00     0.051 A 
ATOM      5  C5  IND d   1       1.651  -2.004  -0.818  0.00  0.00    -0.031 A 
ATOM      6  C6  IND d   1       2.590  -0.995  -0.893  0.00  0.00     0.015 A 
ATOM      7  C7  IND d   1       2.338   0.252  -0.396  0.00  0.00    -0.016 A 
ATOM      8  C8  IND d   1       1.088   0.459   0.171  0.00  0.00    -0.047 A 
ATOM      9  C9  IND d   1       0.116  -0.549   0.212  0.00  0.00    -0.096 A 
ATOM     10  HN1 IND d   1       0.922   2.350   0.817  0.00  0.00     0.298 HD
ENDROOT
TORSDOF 0
ENDMDL
