MODEL 1
REMARK minimizedAffinity 13.5806255
REMARK minimizedRMSD -1
REMARK  1 active torsions:
REMARK  status: ('A' for Active; 'I' for Inactive)
REMARK    1  A    between atoms: C1_2  and  C2_3 
ROOT
ATOM      1  C2  UNL d   1       3.380   1.156  -1.611  0.00  0.00    -0.073 A 
ATOM      2  C3  UNL d   1       3.563   0.012  -0.827  0.00  0.00    -0.002 A 
ATOM      3  C4  UNL d   1       2.888  -0.127   0.386  0.00  0.00     0.004 A 
ATOM      4  C5  UNL d   1       2.019   0.871   0.824  0.00  0.00    -0.004 A 
ATOM      5  C6  UNL d   1       1.813   2.017   0.049  0.00  0.00    -0.075 A 
ATOM      6  C7  UNL d   1       0.883   3.102   0.507  0.00  0.00     0.076 C 
ATOM      7  C8  UNL d   1       2.497   2.151  -1.167  0.00  0.00     0.001 A 
ENDROOT
BRANCH   1   8
ATOM      8  C1  UNL d   1       4.102   1.308  -2.925  0.00  0.00     0.053 C 
ATOM      9  C   UNL d   1       3.421   0.535  -4.043  0.00  0.00     0.018 C 
ENDBRANCH   1   8
TORSDOF 1
ENDMDL
