MODEL 1
REMARK minimizedAffinity 11.8147478
REMARK minimizedRMSD -1
REMARK  1 active torsions:
REMARK  status: ('A' for Active; 'I' for Inactive)
REMARK    1  A    between atoms: C1_2  and  C2_3 
ROOT
ATOM      1  C2  UNL d   1      -0.877  -3.443  -5.851  0.00  0.00    -0.073 A 
ATOM      2  C3  UNL d   1      -1.021  -4.835  -5.880  0.00  0.00    -0.002 A 
ATOM      3  C4  UNL d   1       0.103  -5.658  -5.955  0.00  0.00     0.004 A 
ATOM      4  C5  UNL d   1       1.381  -5.100  -5.995  0.00  0.00    -0.004 A 
ATOM      5  C6  UNL d   1       1.546  -3.712  -5.955  0.00  0.00    -0.075 A 
ATOM      6  C7  UNL d   1       2.913  -3.096  -5.999  0.00  0.00     0.076 C 
ATOM      7  C8  UNL d   1       0.412  -2.891  -5.883  0.00  0.00     0.001 A 
ENDROOT
BRANCH   1   8
ATOM      8  C1  UNL d   1      -2.088  -2.550  -5.764  0.00  0.00     0.053 C 
ATOM      9  C   UNL d   1      -2.544  -2.347  -4.328  0.00  0.00     0.018 C 
ENDBRANCH   1   8
TORSDOF 1
ENDMDL
