MODEL 1
REMARK minimizedAffinity 7.69302988
REMARK minimizedRMSD -1
REMARK  1 active torsions:
REMARK  status: ('A' for Active; 'I' for Inactive)
REMARK    1  A    between atoms: C1_2  and  C2_3 
ROOT
ATOM      1  C2  UNL d   1      -3.859  -4.925  -1.876  0.00  0.00    -0.073 A 
ATOM      2  C3  UNL d   1      -4.070  -3.565  -1.621  0.00  0.00    -0.002 A 
ATOM      3  C4  UNL d   1      -3.082  -2.629  -1.929  0.00  0.00     0.004 A 
ATOM      4  C5  UNL d   1      -1.878  -3.041  -2.501  0.00  0.00    -0.004 A 
ATOM      5  C6  UNL d   1      -1.653  -4.394  -2.774  0.00  0.00    -0.075 A 
ATOM      6  C7  UNL d   1      -0.362  -4.853  -3.386  0.00  0.00     0.076 C 
ATOM      7  C8  UNL d   1      -2.649  -5.328  -2.459  0.00  0.00     0.001 A 
ENDROOT
BRANCH   1   8
ATOM      8  C1  UNL d   1      -4.925  -5.939  -1.551  0.00  0.00     0.053 C 
ATOM      9  C   UNL d   1      -6.000  -6.000  -2.625  0.00  0.00     0.018 C 
ENDBRANCH   1   8
TORSDOF 1
ENDMDL
