MODEL 1
REMARK minimizedAffinity 0.878452361
REMARK minimizedRMSD -1
REMARK  1 active torsions:
REMARK  status: ('A' for Active; 'I' for Inactive)
REMARK    1  A    between atoms: C1_2  and  C2_3 
ROOT
ATOM      1  C2  UNL d   1       4.159   0.232   1.414  0.00  0.00    -0.073 A 
ATOM      2  C3  UNL d   1       2.819   0.636   1.415  0.00  0.00    -0.002 A 
ATOM      3  C4  UNL d   1       2.431   1.792   0.736  0.00  0.00     0.004 A 
ATOM      4  C5  UNL d   1       3.375   2.551   0.045  0.00  0.00    -0.004 A 
ATOM      5  C6  UNL d   1       4.717   2.157   0.023  0.00  0.00    -0.075 A 
ATOM      6  C7  UNL d   1       5.746   2.964  -0.714  0.00  0.00     0.076 C 
ATOM      7  C8  UNL d   1       5.100   0.997   0.708  0.00  0.00     0.001 A 
ENDROOT
BRANCH   1   8
ATOM      8  C1  UNL d   1       4.582  -1.019   2.139  0.00  0.00     0.053 C 
ATOM      9  C   UNL d   1       5.846  -0.804   2.958  0.00  0.00     0.018 C 
ENDBRANCH   1   8
TORSDOF 1
ENDMDL
