MODEL 1
REMARK minimizedAffinity 6.05955219
REMARK minimizedRMSD -1
REMARK  1 active torsions:
REMARK  status: ('A' for Active; 'I' for Inactive)
REMARK    1  A    between atoms: C1_2  and  C2_3 
ROOT
ATOM      1  C2  UNL d   1      -2.700  -2.764  -0.235  0.00  0.00    -0.073 A 
ATOM      2  C3  UNL d   1      -1.839  -2.222  -1.196  0.00  0.00    -0.002 A 
ATOM      3  C4  UNL d   1      -2.207  -2.201  -2.542  0.00  0.00     0.004 A 
ATOM      4  C5  UNL d   1      -3.441  -2.714  -2.940  0.00  0.00    -0.004 A 
ATOM      5  C6  UNL d   1      -4.321  -3.250  -1.994  0.00  0.00    -0.075 A 
ATOM      6  C7  UNL d   1      -5.651  -3.808  -2.406  0.00  0.00     0.076 C 
ATOM      7  C8  UNL d   1      -3.943  -3.270  -0.644  0.00  0.00     0.001 A 
ENDROOT
BRANCH   1   8
ATOM      8  C1  UNL d   1      -2.310  -2.783   1.220  0.00  0.00     0.053 C 
ATOM      9  C   UNL d   1      -0.830  -3.075   1.409  0.00  0.00     0.018 C 
ENDBRANCH   1   8
TORSDOF 1
ENDMDL
