MODEL 1
REMARK minimizedAffinity 15.0806131
REMARK minimizedRMSD -1
REMARK  1 active torsions:
REMARK  status: ('A' for Active; 'I' for Inactive)
REMARK    1  A    between atoms: C1_2  and  C2_3 
ROOT
ATOM      1  C2  UNL d   1       3.497   0.024   0.886  0.00  0.00    -0.073 A 
ATOM      2  C3  UNL d   1       3.428   1.293   0.298  0.00  0.00    -0.002 A 
ATOM      3  C4  UNL d   1       2.272   2.065   0.421  0.00  0.00     0.004 A 
ATOM      4  C5  UNL d   1       1.177   1.581   1.136  0.00  0.00    -0.004 A 
ATOM      5  C6  UNL d   1       1.230   0.320   1.740  0.00  0.00    -0.075 A 
ATOM      6  C7  UNL d   1       0.060  -0.216   2.511  0.00  0.00     0.076 C 
ATOM      7  C8  UNL d   1       2.394  -0.450   1.611  0.00  0.00     0.001 A 
ENDROOT
BRANCH   1   8
ATOM      8  C1  UNL d   1       4.745  -0.810   0.762  0.00  0.00     0.053 C 
ATOM      9  C   UNL d   1       5.439  -0.999   2.101  0.00  0.00     0.018 C 
ENDBRANCH   1   8
TORSDOF 1
ENDMDL
