MODEL 1
REMARK minimizedAffinity 8.19291592
REMARK minimizedRMSD -1
REMARK  1 active torsions:
REMARK  status: ('A' for Active; 'I' for Inactive)
REMARK    1  A    between atoms: C1_2  and  C2_3 
ROOT
ATOM      1  C2  UNL d   1      -3.791   1.626   3.270  0.00  0.00    -0.073 A 
ATOM      2  C3  UNL d   1      -4.201   0.288   3.299  0.00  0.00    -0.002 A 
ATOM      3  C4  UNL d   1      -5.182  -0.129   4.199  0.00  0.00     0.004 A 
ATOM      4  C5  UNL d   1      -5.768   0.787   5.073  0.00  0.00    -0.004 A 
ATOM      5  C6  UNL d   1      -5.380   2.130   5.052  0.00  0.00    -0.075 A 
ATOM      6  C7  UNL d   1      -5.999   3.127   5.987  0.00  0.00     0.076 C 
ATOM      7  C8  UNL d   1      -4.392   2.541   4.147  0.00  0.00     0.001 A 
ENDROOT
BRANCH   1   8
ATOM      8  C1  UNL d   1      -2.736   2.083   2.296  0.00  0.00     0.053 C 
ATOM      9  C   UNL d   1      -1.828   0.942   1.864  0.00  0.00     0.018 C 
ENDBRANCH   1   8
TORSDOF 1
ENDMDL
