MODEL 1
REMARK minimizedAffinity 9.6730051
REMARK minimizedRMSD -1
REMARK  1 active torsions:
REMARK  status: ('A' for Active; 'I' for Inactive)
REMARK    1  A    between atoms: C1_2  and  C2_3 
ROOT
ATOM      1  C2  UNL d   1      -3.017  -4.115  -0.187  0.00  0.00    -0.073 A 
ATOM      2  C3  UNL d   1      -4.156  -3.689   0.505  0.00  0.00    -0.002 A 
ATOM      3  C4  UNL d   1      -4.930  -2.638   0.009  0.00  0.00     0.004 A 
ATOM      4  C5  UNL d   1      -4.577  -2.009  -1.184  0.00  0.00    -0.004 A 
ATOM      5  C6  UNL d   1      -3.449  -2.428  -1.896  0.00  0.00    -0.075 A 
ATOM      6  C7  UNL d   1      -3.055  -1.760  -3.181  0.00  0.00     0.076 C 
ATOM      7  C8  UNL d   1      -2.676  -3.482  -1.391  0.00  0.00     0.001 A 
ENDROOT
BRANCH   1   8
ATOM      8  C1  UNL d   1      -2.182  -5.253   0.340  0.00  0.00     0.053 C 
ATOM      9  C   UNL d   1      -0.824  -4.782   0.837  0.00  0.00     0.018 C 
ENDBRANCH   1   8
TORSDOF 1
ENDMDL
