MODEL 1
REMARK minimizedAffinity 6.9388628
REMARK minimizedRMSD -1
REMARK  1 active torsions:
REMARK  status: ('A' for Active; 'I' for Inactive)
REMARK    1  A    between atoms: C1_2  and  C2_3 
ROOT
ATOM      1  C2  UNL d   1      -3.813   2.495   3.585  0.00  0.00    -0.073 A 
ATOM      2  C3  UNL d   1      -3.995   1.257   4.213  0.00  0.00    -0.002 A 
ATOM      3  C4  UNL d   1      -4.697   1.173   5.416  0.00  0.00     0.004 A 
ATOM      4  C5  UNL d   1      -5.230   2.322   5.999  0.00  0.00    -0.004 A 
ATOM      5  C6  UNL d   1      -5.069   3.566   5.382  0.00  0.00    -0.075 A 
ATOM      6  C7  UNL d   1      -5.634   4.812   5.998  0.00  0.00     0.076 C 
ATOM      7  C8  UNL d   1      -4.360   3.643   4.175  0.00  0.00     0.001 A 
ENDROOT
BRANCH   1   8
ATOM      8  C1  UNL d   1      -3.061   2.590   2.283  0.00  0.00     0.053 C 
ATOM      9  C   UNL d   1      -1.758   1.807   2.318  0.00  0.00     0.018 C 
ENDBRANCH   1   8
TORSDOF 1
ENDMDL
