MODEL 1
REMARK minimizedAffinity 0.896107256
REMARK minimizedRMSD -1
REMARK  1 active torsions:
REMARK  status: ('A' for Active; 'I' for Inactive)
REMARK    1  A    between atoms: C1_2  and  C2_3 
ROOT
ATOM      1  C2  UNL d   1      -3.946   1.873   4.798  0.00  0.00    -0.073 A 
ATOM      2  C3  UNL d   1      -4.481   0.655   4.365  0.00  0.00    -0.002 A 
ATOM      3  C4  UNL d   1      -3.936  -0.003   3.261  0.00  0.00     0.004 A 
ATOM      4  C5  UNL d   1      -2.847   0.547   2.584  0.00  0.00    -0.004 A 
ATOM      5  C6  UNL d   1      -2.291   1.757   3.009  0.00  0.00    -0.075 A 
ATOM      6  C7  UNL d   1      -1.121   2.363   2.290  0.00  0.00     0.076 C 
ATOM      7  C8  UNL d   1      -2.845   2.413   4.116  0.00  0.00     0.001 A 
ENDROOT
BRANCH   1   8
ATOM      8  C1  UNL d   1      -4.527   2.583   5.993  0.00  0.00     0.053 C 
ATOM      9  C   UNL d   1      -5.527   3.655   5.588  0.00  0.00     0.018 C 
ENDBRANCH   1   8
TORSDOF 1
ENDMDL
