MODEL 1
REMARK minimizedAffinity -4.11754799
REMARK minimizedRMSD -1
REMARK  0 active torsions:
REMARK  status: ('A' for Active; 'I' for Inactive)
ROOT
ATOM      1  C   UNL d   1      -0.964   1.973   0.839  0.00  0.00     0.124 A 
ATOM      2  C1  UNL d   1      -1.096   1.850  -0.537  0.00  0.00     0.062 A 
ATOM      3  C2  UNL d   1      -0.603   0.724  -1.189  0.00  0.00     0.162 A 
ATOM      4  C3  UNL d   1       0.026  -0.290  -0.466  0.00  0.00    -0.034 A 
ATOM      5  C4  UNL d   1       0.156  -0.159   0.917  0.00  0.00     0.162 A 
ATOM      6  C5  UNL d   1      -0.338   0.969   1.565  0.00  0.00     0.062 A 
ATOM      7  F   UNL d   1      -0.210   1.086   2.895  0.00  0.00    -0.097 F 
ATOM      8  F1  UNL d   1       0.755  -1.114   1.643  0.00  0.00    -0.096 F 
ATOM      9  I   UNL d   1       0.764  -1.976  -1.438  0.00  0.00    -0.060 I 
ATOM     10  F2  UNL d   1      -0.745   0.632  -2.520  0.00  0.00    -0.096 F 
ATOM     11  F3  UNL d   1      -1.699   2.819  -1.240  0.00  0.00    -0.097 F 
ATOM     12  F4  UNL d   1      -1.438   3.058   1.465  0.00  0.00    -0.092 F 
ENDROOT
TORSDOF 0
ENDMDL
