MODEL 1
REMARK minimizedAffinity -0.234745592
REMARK minimizedRMSD -1
REMARK  0 active torsions:
REMARK  status: ('A' for Active; 'I' for Inactive)
ROOT
ATOM      1  C   UNL d   1      -0.299   1.758   1.700  0.00  0.00     0.124 A 
ATOM      2  C1  UNL d   1      -0.977   1.418   0.537  0.00  0.00     0.062 A 
ATOM      3  C2  UNL d   1      -0.718   0.205  -0.095  0.00  0.00     0.162 A 
ATOM      4  C3  UNL d   1       0.222  -0.678   0.435  0.00  0.00    -0.034 A 
ATOM      5  C4  UNL d   1       0.901  -0.329   1.604  0.00  0.00     0.162 A 
ATOM      6  C5  UNL d   1       0.639   0.885   2.232  0.00  0.00     0.062 A 
ATOM      7  F   UNL d   1       1.296   1.211   3.355  0.00  0.00    -0.097 F 
ATOM      8  F1  UNL d   1       1.812  -1.155   2.140  0.00  0.00    -0.096 F 
ATOM      9  I   UNL d   1       0.611  -2.493  -0.507  0.00  0.00    -0.060 I 
ATOM     10  F2  UNL d   1      -1.389  -0.098  -1.216  0.00  0.00    -0.096 F 
ATOM     11  F3  UNL d   1      -1.883   2.261   0.021  0.00  0.00    -0.097 F 
ATOM     12  F4  UNL d   1      -0.548   2.926   2.305  0.00  0.00    -0.092 F 
ENDROOT
TORSDOF 0
ENDMDL
