MODEL 1
REMARK minimizedAffinity -2.44843364
REMARK minimizedRMSD -1
REMARK  0 active torsions:
REMARK  status: ('A' for Active; 'I' for Inactive)
ROOT
ATOM      1  C   UNL d   1      -0.926   1.118   0.242  0.00  0.00     0.124 A 
ATOM      2  C1  UNL d   1      -0.646   1.655   1.491  0.00  0.00     0.062 A 
ATOM      3  C2  UNL d   1       0.355   1.101   2.283  0.00  0.00     0.162 A 
ATOM      4  C3  UNL d   1       1.086   0.004   1.828  0.00  0.00    -0.034 A 
ATOM      5  C4  UNL d   1       0.798  -0.532   0.571  0.00  0.00     0.162 A 
ATOM      6  C5  UNL d   1      -0.204   0.025  -0.217  0.00  0.00     0.062 A 
ATOM      7  F   UNL d   1      -0.473  -0.495  -1.423  0.00  0.00    -0.097 F 
ATOM      8  F1  UNL d   1       1.481  -1.587   0.103  0.00  0.00    -0.096 F 
ATOM      9  I   UNL d   1       2.585  -0.827   3.009  0.00  0.00    -0.060 I 
ATOM     10  F2  UNL d   1       0.604   1.641   3.485  0.00  0.00    -0.096 F 
ATOM     11  F3  UNL d   1      -1.343   2.710   1.937  0.00  0.00    -0.097 F 
ATOM     12  F4  UNL d   1      -1.891   1.652  -0.517  0.00  0.00    -0.092 F 
ENDROOT
TORSDOF 0
ENDMDL
