MODEL 1
REMARK minimizedAffinity -2.04048014
REMARK minimizedRMSD -1
REMARK  0 active torsions:
REMARK  status: ('A' for Active; 'I' for Inactive)
ROOT
ATOM      1  C   UNL d   1      -0.970   1.767  -0.120  0.00  0.00     0.124 A 
ATOM      2  C1  UNL d   1      -0.537   0.480  -0.407  0.00  0.00     0.062 A 
ATOM      3  C2  UNL d   1       0.332  -0.176   0.460  0.00  0.00     0.162 A 
ATOM      4  C3  UNL d   1       0.773   0.453   1.624  0.00  0.00    -0.034 A 
ATOM      5  C4  UNL d   1       0.335   1.748   1.906  0.00  0.00     0.162 A 
ATOM      6  C5  UNL d   1      -0.534   2.400   1.036  0.00  0.00     0.062 A 
ATOM      7  F   UNL d   1      -0.951   3.643   1.315  0.00  0.00    -0.097 F 
ATOM      8  F1  UNL d   1       0.740   2.383   3.016  0.00  0.00    -0.096 F 
ATOM      9  I   UNL d   1       2.073  -0.525   2.923  0.00  0.00    -0.060 I 
ATOM     10  F2  UNL d   1       0.734  -1.420   0.157  0.00  0.00    -0.096 F 
ATOM     11  F3  UNL d   1      -0.956  -0.133  -1.523  0.00  0.00    -0.097 F 
ATOM     12  F4  UNL d   1      -1.805   2.396  -0.956  0.00  0.00    -0.092 F 
ENDROOT
TORSDOF 0
ENDMDL
