MODEL 1
REMARK minimizedAffinity -2.61152601
REMARK minimizedRMSD -1
REMARK  0 active torsions:
REMARK  status: ('A' for Active; 'I' for Inactive)
ROOT
ATOM      1  C   UNL d   1      -0.811   1.866   1.026  0.00  0.00     0.124 A 
ATOM      2  C1  UNL d   1      -0.422   0.944   1.989  0.00  0.00     0.062 A 
ATOM      3  C2  UNL d   1       0.060  -0.304   1.607  0.00  0.00     0.162 A 
ATOM      4  C3  UNL d   1       0.158  -0.639   0.256  0.00  0.00    -0.034 A 
ATOM      5  C4  UNL d   1      -0.236   0.293  -0.706  0.00  0.00     0.162 A 
ATOM      6  C5  UNL d   1      -0.717   1.540  -0.319  0.00  0.00     0.062 A 
ATOM      7  F   UNL d   1      -1.093   2.429  -1.250  0.00  0.00    -0.097 F 
ATOM      8  F1  UNL d   1      -0.155   0.005  -2.013  0.00  0.00    -0.096 F 
ATOM      9  I   UNL d   1       0.879  -2.504  -0.318  0.00  0.00    -0.060 I 
ATOM     10  F2  UNL d   1       0.429  -1.176   2.558  0.00  0.00    -0.096 F 
ATOM     11  F3  UNL d   1      -0.513   1.256   3.289  0.00  0.00    -0.097 F 
ATOM     12  F4  UNL d   1      -1.276   3.066   1.396  0.00  0.00    -0.092 F 
ENDROOT
TORSDOF 0
ENDMDL
