MODEL 1
REMARK minimizedAffinity 12.9409742
REMARK minimizedRMSD -1
REMARK  0 active torsions:
REMARK  status: ('A' for Active; 'I' for Inactive)
ROOT
ATOM      1  C   UNL d   1      -1.898   3.154  -0.605  0.00  0.00     0.124 A 
ATOM      2  C1  UNL d   1      -1.948   2.065  -1.464  0.00  0.00     0.062 A 
ATOM      3  C2  UNL d   1      -0.931   1.115  -1.451  0.00  0.00     0.162 A 
ATOM      4  C3  UNL d   1       0.146   1.249  -0.575  0.00  0.00    -0.034 A 
ATOM      5  C4  UNL d   1       0.190   2.348   0.286  0.00  0.00     0.162 A 
ATOM      6  C5  UNL d   1      -0.829   3.294   0.269  0.00  0.00     0.062 A 
ATOM      7  F   UNL d   1      -0.778   4.345   1.100  0.00  0.00    -0.097 F 
ATOM      8  F1  UNL d   1       1.211   2.507   1.141  0.00  0.00    -0.096 F 
ATOM      9  I   UNL d   1       1.669  -0.169  -0.552  0.00  0.00    -0.060 I 
ATOM     10  F2  UNL d   1      -1.006   0.073  -2.292  0.00  0.00    -0.096 F 
ATOM     11  F3  UNL d   1      -2.979   1.928  -2.310  0.00  0.00    -0.097 F 
ATOM     12  F4  UNL d   1      -2.877   4.067  -0.620  0.00  0.00    -0.092 F 
ENDROOT
TORSDOF 0
ENDMDL
