MODEL 1
REMARK minimizedAffinity 1.89148486
REMARK minimizedRMSD -1
REMARK  0 active torsions:
REMARK  status: ('A' for Active; 'I' for Inactive)
ROOT
ATOM      1  C4' PXY d   1       5.790   4.677  -5.451  0.00  0.00     0.077 C 
ATOM      2  C1' PXY d   1       3.782   5.998  -0.195  0.00  0.00     0.077 C 
ATOM      3  C1  PXY d   1       4.300   5.642  -1.574  0.00  0.00    -0.082 A 
ATOM      4  C2  PXY d   1       5.527   5.994  -1.923  0.00  0.00     0.003 A 
ATOM      5  C3  PXY d   1       6.000   5.708  -3.178  0.00  0.00     0.003 A 
ATOM      6  C4  PXY d   1       5.229   5.007  -4.066  0.00  0.00    -0.082 A 
ATOM      7  C5  PXY d   1       3.980   4.635  -3.714  0.00  0.00     0.003 A 
ATOM      8  C6  PXY d   1       3.503   4.972  -2.450  0.00  0.00     0.003 A 
ENDROOT
TORSDOF 0
ENDMDL
