MODEL 1
REMARK minimizedAffinity 6.71664381
REMARK minimizedRMSD -1
REMARK  0 active torsions:
REMARK  status: ('A' for Active; 'I' for Inactive)
ROOT
ATOM      1  C4' PXY d   1      -0.050   1.683  -2.994  0.00  0.00     0.077 C 
ATOM      2  C1' PXY d   1       3.577   6.000  -1.719  0.00  0.00     0.077 C 
ATOM      3  C1  PXY d   1       2.632   4.866  -2.065  0.00  0.00    -0.082 A 
ATOM      4  C2  PXY d   1       1.454   4.791  -1.467  0.00  0.00     0.003 A 
ATOM      5  C3  PXY d   1       0.600   3.755  -1.744  0.00  0.00     0.003 A 
ATOM      6  C4  PXY d   1       0.933   2.815  -2.682  0.00  0.00    -0.082 A 
ATOM      7  C5  PXY d   1       2.129   2.890  -3.304  0.00  0.00     0.003 A 
ATOM      8  C6  PXY d   1       2.998   3.927  -2.978  0.00  0.00     0.003 A 
ENDROOT
TORSDOF 0
ENDMDL
