MODEL 1
REMARK minimizedAffinity 7.11581659
REMARK minimizedRMSD -1
REMARK  0 active torsions:
REMARK  status: ('A' for Active; 'I' for Inactive)
ROOT
ATOM      1  C4' PXY d   1      -4.770   3.308  -3.035  0.00  0.00     0.077 C 
ATOM      2  C1' PXY d   1      -0.547  -0.631  -2.788  0.00  0.00     0.077 C 
ATOM      3  C1  PXY d   1      -1.661   0.395  -2.861  0.00  0.00    -0.082 A 
ATOM      4  C2  PXY d   1      -1.406   1.659  -2.567  0.00  0.00     0.003 A 
ATOM      5  C3  PXY d   1      -2.409   2.594  -2.597  0.00  0.00     0.003 A 
ATOM      6  C4  PXY d   1      -3.674   2.240  -2.984  0.00  0.00    -0.082 A 
ATOM      7  C5  PXY d   1      -3.939   0.954  -3.296  0.00  0.00     0.003 A 
ATOM      8  C6  PXY d   1      -2.917   0.013  -3.219  0.00  0.00     0.003 A 
ENDROOT
TORSDOF 0
ENDMDL
