MODEL 1
REMARK minimizedAffinity 5.17200851
REMARK minimizedRMSD -1
REMARK  0 active torsions:
REMARK  status: ('A' for Active; 'I' for Inactive)
ROOT
ATOM      1  C4' PXY d   1      -5.531   3.337  -3.294  0.00  0.00     0.077 C 
ATOM      2  C1' PXY d   1      -0.233   1.033  -3.125  0.00  0.00     0.077 C 
ATOM      3  C1  PXY d   1      -1.627   1.625  -3.172  0.00  0.00    -0.082 A 
ATOM      4  C2  PXY d   1      -1.785   2.904  -3.471  0.00  0.00     0.003 A 
ATOM      5  C3  PXY d   1      -3.037   3.464  -3.486  0.00  0.00     0.003 A 
ATOM      6  C4  PXY d   1      -4.143   2.694  -3.245  0.00  0.00    -0.082 A 
ATOM      7  C5  PXY d   1      -3.991   1.386  -2.949  0.00  0.00     0.003 A 
ATOM      8  C6  PXY d   1      -2.709   0.846  -2.898  0.00  0.00     0.003 A 
ENDROOT
TORSDOF 0
ENDMDL
