MODEL 1
REMARK minimizedAffinity -3.39119244
REMARK minimizedRMSD -1
REMARK  0 active torsions:
REMARK  status: ('A' for Active; 'I' for Inactive)
ROOT
ATOM      1  C4' PXY d   1       5.994  -5.402  -6.000  0.00  0.00     0.077 C 
ATOM      2  C1' PXY d   1       1.582  -1.729  -5.324  0.00  0.00     0.077 C 
ATOM      3  C1  PXY d   1       2.731  -2.702  -5.497  0.00  0.00    -0.082 A 
ATOM      4  C2  PXY d   1       3.976  -2.252  -5.486  0.00  0.00     0.003 A 
ATOM      5  C3  PXY d   1       5.026  -3.114  -5.673  0.00  0.00     0.003 A 
ATOM      6  C4  PXY d   1       4.802  -4.457  -5.819  0.00  0.00    -0.082 A 
ATOM      7  C5  PXY d   1       3.536  -4.925  -5.821  0.00  0.00     0.003 A 
ATOM      8  C6  PXY d   1       2.482  -4.028  -5.671  0.00  0.00     0.003 A 
ENDROOT
TORSDOF 0
ENDMDL
