MODEL 1
REMARK minimizedAffinity 1.83373106
REMARK minimizedRMSD -1
REMARK  0 active torsions:
REMARK  status: ('A' for Active; 'I' for Inactive)
ROOT
ATOM      1  C4' PXY d   1       1.994  -2.031  -4.003  0.00  0.00     0.077 C 
ATOM      2  C1' PXY d   1       6.000  -5.997  -5.282  0.00  0.00     0.077 C 
ATOM      3  C1  PXY d   1       4.940  -4.966  -4.946  0.00  0.00    -0.082 A 
ATOM      4  C2  PXY d   1       5.096  -3.714  -5.344  0.00  0.00     0.003 A 
ATOM      5  C3  PXY d   1       4.163  -2.763  -5.021  0.00  0.00     0.003 A 
ATOM      6  C4  PXY d   1       3.033  -3.107  -4.328  0.00  0.00    -0.082 A 
ATOM      7  C5  PXY d   1       2.862  -4.384  -3.927  0.00  0.00     0.003 A 
ATOM      8  C6  PXY d   1       3.841  -5.327  -4.230  0.00  0.00     0.003 A 
ENDROOT
TORSDOF 0
ENDMDL
