MODEL 1
REMARK minimizedAffinity 14.4546938
REMARK minimizedRMSD -1
REMARK  0 active torsions:
REMARK  status: ('A' for Active; 'I' for Inactive)
ROOT
ATOM      1  C4' PXY d   1      -5.554   5.007  -3.260  0.00  0.00     0.077 C 
ATOM      2  C1' PXY d   1      -2.164   0.336  -2.940  0.00  0.00     0.077 C 
ATOM      3  C1  PXY d   1      -3.044   1.566  -3.032  0.00  0.00    -0.082 A 
ATOM      4  C2  PXY d   1      -3.862   1.862  -2.035  0.00  0.00     0.003 A 
ATOM      5  C3  PXY d   1      -4.688   2.953  -2.116  0.00  0.00     0.003 A 
ATOM      6  C4  PXY d   1      -4.640   3.780  -3.206  0.00  0.00    -0.082 A 
ATOM      7  C5  PXY d   1      -3.801   3.491  -4.223  0.00  0.00     0.003 A 
ATOM      8  C6  PXY d   1      -2.999   2.356  -4.140  0.00  0.00     0.003 A 
ENDROOT
TORSDOF 0
ENDMDL
