MODEL 1
REMARK minimizedAffinity 0.736328542
REMARK minimizedRMSD -1
REMARK  0 active torsions:
REMARK  status: ('A' for Active; 'I' for Inactive)
ROOT
ATOM      1  C4' PXY d   1       3.463  -1.045  -4.392  0.00  0.00     0.077 C 
ATOM      2  C1' PXY d   1       5.999  -5.985  -5.998  0.00  0.00     0.077 C 
ATOM      3  C1  PXY d   1       5.345  -4.683  -5.577  0.00  0.00    -0.082 A 
ATOM      4  C2  PXY d   1       4.217  -4.711  -4.886  0.00  0.00     0.003 A 
ATOM      5  C3  PXY d   1       3.596  -3.543  -4.526  0.00  0.00     0.003 A 
ATOM      6  C4  PXY d   1       4.163  -2.335  -4.829  0.00  0.00    -0.082 A 
ATOM      7  C5  PXY d   1       5.319  -2.298  -5.525  0.00  0.00     0.003 A 
ATOM      8  C6  PXY d   1       5.912  -3.494  -5.917  0.00  0.00     0.003 A 
ENDROOT
TORSDOF 0
ENDMDL
