MODEL 1
REMARK minimizedAffinity 1.14610445
REMARK minimizedRMSD -1
REMARK  0 active torsions:
REMARK  status: ('A' for Active; 'I' for Inactive)
ROOT
ATOM      1  C4' PXY d   1      -5.578   5.289  -2.651  0.00  0.00     0.077 C 
ATOM      2  C1' PXY d   1      -2.454   0.445  -3.084  0.00  0.00     0.077 C 
ATOM      3  C1  PXY d   1      -3.268   1.719  -2.982  0.00  0.00    -0.082 A 
ATOM      4  C2  PXY d   1      -3.661   2.151  -1.795  0.00  0.00     0.003 A 
ATOM      5  C3  PXY d   1      -4.425   3.284  -1.687  0.00  0.00     0.003 A 
ATOM      6  C4  PXY d   1      -4.746   4.012  -2.801  0.00  0.00    -0.082 A 
ATOM      7  C5  PXY d   1      -4.341   3.584  -4.015  0.00  0.00     0.003 A 
ATOM      8  C6  PXY d   1      -3.600   2.409  -4.107  0.00  0.00     0.003 A 
ENDROOT
TORSDOF 0
ENDMDL
