MODEL 1
REMARK minimizedAffinity 5.3677454
REMARK minimizedRMSD -1
REMARK  0 active torsions:
REMARK  status: ('A' for Active; 'I' for Inactive)
ROOT
ATOM      1  C4' PXY d   1      -5.968   4.928  -2.325  0.00  0.00     0.077 C 
ATOM      2  C1' PXY d   1      -2.969   0.252  -3.925  0.00  0.00     0.077 C 
ATOM      3  C1  PXY d   1      -3.760   1.472  -3.495  0.00  0.00    -0.082 A 
ATOM      4  C2  PXY d   1      -4.138   2.359  -4.400  0.00  0.00     0.003 A 
ATOM      5  C3  PXY d   1      -4.825   3.484  -4.024  0.00  0.00     0.003 A 
ATOM      6  C4  PXY d   1      -5.176   3.677  -2.715  0.00  0.00    -0.082 A 
ATOM      7  C5  PXY d   1      -4.804   2.771  -1.786  0.00  0.00     0.003 A 
ATOM      8  C6  PXY d   1      -4.070   1.656  -2.183  0.00  0.00     0.003 A 
ENDROOT
TORSDOF 0
ENDMDL
