MODEL 1
REMARK minimizedAffinity 10.286768
REMARK minimizedRMSD -1
REMARK  0 active torsions:
REMARK  status: ('A' for Active; 'I' for Inactive)
ROOT
ATOM      1  C4' PXY d   1      -4.838   5.097  -2.973  0.00  0.00     0.077 C 
ATOM      2  C1' PXY d   1      -1.257   0.563  -3.170  0.00  0.00     0.077 C 
ATOM      3  C1  PXY d   1      -2.190   1.758  -3.128  0.00  0.00    -0.082 A 
ATOM      4  C2  PXY d   1      -2.865   2.022  -2.021  0.00  0.00     0.003 A 
ATOM      5  C3  PXY d   1      -3.736   3.079  -1.976  0.00  0.00     0.003 A 
ATOM      6  C4  PXY d   1      -3.878   3.907  -3.058  0.00  0.00    -0.082 A 
ATOM      7  C5  PXY d   1      -3.185   3.650  -4.187  0.00  0.00     0.003 A 
ATOM      8  C6  PXY d   1      -2.336   2.547  -4.226  0.00  0.00     0.003 A 
ENDROOT
TORSDOF 0
ENDMDL
