MODEL 1
REMARK minimizedAffinity -3.47731686
REMARK minimizedRMSD -1
REMARK  0 active torsions:
REMARK  status: ('A' for Active; 'I' for Inactive)
ROOT
ATOM      1  C4' PXY d   1       5.999  -4.565   0.599  0.00  0.00     0.077 C 
ATOM      2  C1' PXY d   1       5.147  -2.598   5.967  0.00  0.00     0.077 C 
ATOM      3  C1  PXY d   1       5.362  -3.105   4.555  0.00  0.00    -0.082 A 
ATOM      4  C2  PXY d   1       5.769  -4.349   4.361  0.00  0.00     0.003 A 
ATOM      5  C3  PXY d   1       6.000  -4.814   3.092  0.00  0.00     0.003 A 
ATOM      6  C4  PXY d   1       5.760  -4.013   2.007  0.00  0.00    -0.082 A 
ATOM      7  C5  PXY d   1       5.335  -2.746   2.196  0.00  0.00     0.003 A 
ATOM      8  C6  PXY d   1       5.146  -2.281   3.494  0.00  0.00     0.003 A 
ENDROOT
TORSDOF 0
ENDMDL
