MODEL 1
REMARK minimizedAffinity -0.973525047
REMARK minimizedRMSD -1
REMARK  0 active torsions:
REMARK  status: ('A' for Active; 'I' for Inactive)
ROOT
ATOM      1  C4' PXY d   1       4.119  -2.348   5.923  0.00  0.00     0.077 C 
ATOM      2  C1' PXY d   1       5.965  -4.344   0.822  0.00  0.00     0.077 C 
ATOM      3  C1  PXY d   1       5.477  -3.810   2.154  0.00  0.00    -0.082 A 
ATOM      4  C2  PXY d   1       6.000  -4.275   3.277  0.00  0.00     0.003 A 
ATOM      5  C3  PXY d   1       5.548  -3.826   4.491  0.00  0.00     0.003 A 
ATOM      6  C4  PXY d   1       4.587  -2.852   4.556  0.00  0.00    -0.082 A 
ATOM      7  C5  PXY d   1       4.056  -2.365   3.414  0.00  0.00     0.003 A 
ATOM      8  C6  PXY d   1       4.500  -2.863   2.193  0.00  0.00     0.003 A 
ENDROOT
TORSDOF 0
ENDMDL
