MODEL 1
REMARK minimizedAffinity -2.197855
REMARK minimizedRMSD -1
REMARK  0 active torsions:
REMARK  status: ('A' for Active; 'I' for Inactive)
ROOT
ATOM      1  C4' PXY d   1       5.958  -4.964   0.819  0.00  0.00     0.077 C 
ATOM      2  C1' PXY d   1       5.995  -2.262   5.929  0.00  0.00     0.077 C 
ATOM      3  C1  PXY d   1       5.980  -2.960   4.583  0.00  0.00    -0.082 A 
ATOM      4  C2  PXY d   1       5.957  -4.282   4.532  0.00  0.00     0.003 A 
ATOM      5  C3  PXY d   1       5.976  -4.930   3.324  0.00  0.00     0.003 A 
ATOM      6  C4  PXY d   1       5.964  -4.217   2.155  0.00  0.00    -0.082 A 
ATOM      7  C5  PXY d   1       5.976  -2.868   2.199  0.00  0.00     0.003 A 
ATOM      8  C6  PXY d   1       5.999  -2.229   3.436  0.00  0.00     0.003 A 
ENDROOT
TORSDOF 0
ENDMDL
