MODEL 1
REMARK minimizedAffinity -2.6635952
REMARK minimizedRMSD -1
REMARK  0 active torsions:
REMARK  status: ('A' for Active; 'I' for Inactive)
ROOT
ATOM      1  C4' PXY d   1       5.724  -2.599   6.000  0.00  0.00     0.077 C 
ATOM      2  C1' PXY d   1       5.998  -4.534   0.560  0.00  0.00     0.077 C 
ATOM      3  C1  PXY d   1       5.920  -4.037   1.990  0.00  0.00    -0.082 A 
ATOM      4  C2  PXY d   1       5.977  -2.739   2.235  0.00  0.00     0.003 A 
ATOM      5  C3  PXY d   1       5.940  -2.274   3.525  0.00  0.00     0.003 A 
ATOM      6  C4  PXY d   1       5.790  -3.145   4.571  0.00  0.00    -0.082 A 
ATOM      7  C5  PXY d   1       5.720  -4.471   4.328  0.00  0.00     0.003 A 
ATOM      8  C6  PXY d   1       5.801  -4.925   3.015  0.00  0.00     0.003 A 
ENDROOT
TORSDOF 0
ENDMDL
