MODEL 1
REMARK minimizedAffinity -1.52421427
REMARK minimizedRMSD -1
REMARK  0 active torsions:
REMARK  status: ('A' for Active; 'I' for Inactive)
ROOT
ATOM      1  C4' PXY d   1       5.665  -5.956   6.000  0.00  0.00     0.077 C 
ATOM      2  C1' PXY d   1       5.998  -2.763   1.192  0.00  0.00     0.077 C 
ATOM      3  C1  PXY d   1       5.915  -3.590   2.460  0.00  0.00    -0.082 A 
ATOM      4  C2  PXY d   1       5.971  -4.910   2.385  0.00  0.00     0.003 A 
ATOM      5  C3  PXY d   1       5.865  -5.675   3.518  0.00  0.00     0.003 A 
ATOM      6  C4  PXY d   1       5.754  -5.080   4.747  0.00  0.00    -0.082 A 
ATOM      7  C5  PXY d   1       5.707  -3.734   4.833  0.00  0.00     0.003 A 
ATOM      8  C6  PXY d   1       5.775  -2.977   3.666  0.00  0.00     0.003 A 
ENDROOT
TORSDOF 0
ENDMDL
