MODEL 1
REMARK minimizedAffinity -0.719388366
REMARK minimizedRMSD -1
REMARK  0 active torsions:
REMARK  status: ('A' for Active; 'I' for Inactive)
ROOT
ATOM      1  C4' PXY d   1       6.000  -3.786   0.424  0.00  0.00     0.077 C 
ATOM      2  C1' PXY d   1       5.968  -2.171   5.975  0.00  0.00     0.077 C 
ATOM      3  C1  PXY d   1       5.971  -2.583   4.516  0.00  0.00    -0.082 A 
ATOM      4  C2  PXY d   1       5.964  -3.868   4.199  0.00  0.00     0.003 A 
ATOM      5  C3  PXY d   1       5.999  -4.258   2.885  0.00  0.00     0.003 A 
ATOM      6  C4  PXY d   1       5.987  -3.324   1.884  0.00  0.00    -0.082 A 
ATOM      7  C5  PXY d   1       5.983  -2.011   2.199  0.00  0.00     0.003 A 
ATOM      8  C6  PXY d   1       5.990  -1.636   3.540  0.00  0.00     0.003 A 
ENDROOT
TORSDOF 0
ENDMDL
