MODEL 1
REMARK minimizedAffinity -3.90370512
REMARK minimizedRMSD -1
REMARK  0 active torsions:
REMARK  status: ('A' for Active; 'I' for Inactive)
ROOT
ATOM      1  C4' PXY d   1       3.524  -5.282   6.000  0.00  0.00     0.077 C 
ATOM      2  C1' PXY d   1       6.000  -1.916   2.006  0.00  0.00     0.077 C 
ATOM      3  C1  PXY d   1       5.355  -2.790   3.063  0.00  0.00    -0.082 A 
ATOM      4  C2  PXY d   1       5.140  -4.071   2.810  0.00  0.00     0.003 A 
ATOM      5  C3  PXY d   1       4.529  -4.869   3.742  0.00  0.00     0.003 A 
ATOM      6  C4  PXY d   1       4.181  -4.363   4.966  0.00  0.00    -0.082 A 
ATOM      7  C5  PXY d   1       4.406  -3.060   5.236  0.00  0.00     0.003 A 
ATOM      8  C6  PXY d   1       4.991  -2.257   4.260  0.00  0.00     0.003 A 
ENDROOT
TORSDOF 0
ENDMDL
