MODEL 1
REMARK minimizedAffinity -2.4129498
REMARK minimizedRMSD -1
REMARK  0 active torsions:
REMARK  status: ('A' for Active; 'I' for Inactive)
ROOT
ATOM      1  C4' PXY d   1       5.986  -2.479   2.143  0.00  0.00     0.077 C 
ATOM      2  C1' PXY d   1       2.304  -4.713   6.000  0.00  0.00     0.077 C 
ATOM      3  C1  PXY d   1       3.277  -4.122   4.998  0.00  0.00    -0.082 A 
ATOM      4  C2  PXY d   1       2.892  -3.932   3.747  0.00  0.00     0.003 A 
ATOM      5  C3  PXY d   1       3.768  -3.428   2.820  0.00  0.00     0.003 A 
ATOM      6  C4  PXY d   1       5.035  -3.065   3.191  0.00  0.00    -0.082 A 
ATOM      7  C5  PXY d   1       5.432  -3.245   4.469  0.00  0.00     0.003 A 
ATOM      8  C6  PXY d   1       4.540  -3.796   5.384  0.00  0.00     0.003 A 
ENDROOT
TORSDOF 0
ENDMDL
