MODEL 1
REMARK minimizedAffinity -4.04168463
REMARK minimizedRMSD -1
REMARK  0 active torsions:
REMARK  status: ('A' for Active; 'I' for Inactive)
ROOT
ATOM      1  C4' PXY d   1       5.627  -5.966   5.983  0.00  0.00     0.077 C 
ATOM      2  C1' PXY d   1       6.000  -2.197   1.616  0.00  0.00     0.077 C 
ATOM      3  C1  PXY d   1       5.906  -3.176   2.770  0.00  0.00    -0.082 A 
ATOM      4  C2  PXY d   1       5.998  -4.475   2.534  0.00  0.00     0.003 A 
ATOM      5  C3  PXY d   1       5.883  -5.376   3.562  0.00  0.00     0.003 A 
ATOM      6  C4  PXY d   1       5.725  -4.940   4.850  0.00  0.00    -0.082 A 
ATOM      7  C5  PXY d   1       5.641  -3.616   5.100  0.00  0.00     0.003 A 
ATOM      8  C6  PXY d   1       5.719  -2.720   4.038  0.00  0.00     0.003 A 
ENDROOT
TORSDOF 0
ENDMDL
