MODEL 1
REMARK minimizedAffinity -2.68375111
REMARK minimizedRMSD -1
REMARK  0 active torsions:
REMARK  status: ('A' for Active; 'I' for Inactive)
ROOT
ATOM      1  C4' PXY d   1       6.000  -3.365   0.558  0.00  0.00     0.077 C 
ATOM      2  C1' PXY d   1       3.998  -3.078   5.973  0.00  0.00     0.077 C 
ATOM      3  C1  PXY d   1       4.527  -3.141   4.554  0.00  0.00    -0.082 A 
ATOM      4  C2  PXY d   1       4.025  -4.025   3.707  0.00  0.00     0.003 A 
ATOM      5  C3  PXY d   1       4.514  -4.118   2.429  0.00  0.00     0.003 A 
ATOM      6  C4  PXY d   1       5.490  -3.260   1.998  0.00  0.00    -0.082 A 
ATOM      7  C5  PXY d   1       6.000  -2.348   2.852  0.00  0.00     0.003 A 
ATOM      8  C6  PXY d   1       5.519  -2.298   4.157  0.00  0.00     0.003 A 
ENDROOT
TORSDOF 0
ENDMDL
