MODEL 1
REMARK minimizedAffinity -3.65636396
REMARK minimizedRMSD -1
REMARK  0 active torsions:
REMARK  status: ('A' for Active; 'I' for Inactive)
ROOT
ATOM      1  C4' PXY d   1       5.998  -5.643   1.311  0.00  0.00     0.077 C 
ATOM      2  C1' PXY d   1       5.114  -2.379   6.000  0.00  0.00     0.077 C 
ATOM      3  C1  PXY d   1       5.343  -3.225   4.763  0.00  0.00    -0.082 A 
ATOM      4  C2  PXY d   1       5.202  -4.538   4.833  0.00  0.00     0.003 A 
ATOM      5  C3  PXY d   1       5.437  -5.321   3.732  0.00  0.00     0.003 A 
ATOM      6  C4  PXY d   1       5.767  -4.749   2.533  0.00  0.00    -0.082 A 
ATOM      7  C5  PXY d   1       5.903  -3.408   2.450  0.00  0.00     0.003 A 
ATOM      8  C6  PXY d   1       5.700  -2.635   3.590  0.00  0.00     0.003 A 
ENDROOT
TORSDOF 0
ENDMDL
