MODEL 1
REMARK minimizedAffinity -2.2192843
REMARK minimizedRMSD -1
REMARK  0 active torsions:
REMARK  status: ('A' for Active; 'I' for Inactive)
ROOT
ATOM      1  C4' PXY d   1       6.000  -3.453   6.000  0.00  0.00     0.077 C 
ATOM      2  C1' PXY d   1       2.775  -3.114   1.214  0.00  0.00     0.077 C 
ATOM      3  C1  PXY d   1       3.631  -3.201   2.462  0.00  0.00    -0.082 A 
ATOM      4  C2  PXY d   1       3.167  -3.826   3.532  0.00  0.00     0.003 A 
ATOM      5  C3  PXY d   1       3.915  -3.887   4.679  0.00  0.00     0.003 A 
ATOM      6  C4  PXY d   1       5.174  -3.348   4.715  0.00  0.00    -0.082 A 
ATOM      7  C5  PXY d   1       5.659  -2.718   3.624  0.00  0.00     0.003 A 
ATOM      8  C6  PXY d   1       4.867  -2.632   2.483  0.00  0.00     0.003 A 
ENDROOT
TORSDOF 0
ENDMDL
