MODEL 1
REMARK minimizedAffinity -3.38833475
REMARK minimizedRMSD -1
REMARK  0 active torsions:
REMARK  status: ('A' for Active; 'I' for Inactive)
ROOT
ATOM      1  C4' PXY d   1       5.982  -2.175   6.000  0.00  0.00     0.077 C 
ATOM      2  C1' PXY d   1       5.997  -5.017   0.966  0.00  0.00     0.077 C 
ATOM      3  C1  PXY d   1       5.999  -4.261   2.280  0.00  0.00    -0.082 A 
ATOM      4  C2  PXY d   1       6.000  -4.932   3.420  0.00  0.00     0.003 A 
ATOM      5  C3  PXY d   1       5.969  -4.265   4.618  0.00  0.00     0.003 A 
ATOM      6  C4  PXY d   1       5.990  -2.896   4.649  0.00  0.00    -0.082 A 
ATOM      7  C5  PXY d   1       6.000  -2.204   3.490  0.00  0.00     0.003 A 
ATOM      8  C6  PXY d   1       5.990  -2.900   2.285  0.00  0.00     0.003 A 
ENDROOT
TORSDOF 0
ENDMDL
