MODEL 1
REMARK minimizedAffinity -0.879647911
REMARK minimizedRMSD -1
REMARK  0 active torsions:
REMARK  status: ('A' for Active; 'I' for Inactive)
ROOT
ATOM      1  C4' PXY d   1       5.988  -5.865   5.994  0.00  0.00     0.077 C 
ATOM      2  C1' PXY d   1       5.991  -2.913   1.024  0.00  0.00     0.077 C 
ATOM      3  C1  PXY d   1       5.995  -3.677   2.334  0.00  0.00    -0.082 A 
ATOM      4  C2  PXY d   1       5.999  -5.000   2.319  0.00  0.00     0.003 A 
ATOM      5  C3  PXY d   1       5.971  -5.707   3.494  0.00  0.00     0.003 A 
ATOM      6  C4  PXY d   1       5.993  -5.053   4.696  0.00  0.00    -0.082 A 
ATOM      7  C5  PXY d   1       6.000  -3.703   4.720  0.00  0.00     0.003 A 
ATOM      8  C6  PXY d   1       5.987  -3.004   3.516  0.00  0.00     0.003 A 
ENDROOT
TORSDOF 0
ENDMDL
