MODEL 1
REMARK minimizedAffinity -1.52623129
REMARK minimizedRMSD -1
REMARK  0 active torsions:
REMARK  status: ('A' for Active; 'I' for Inactive)
ROOT
ATOM      1  C4' PXY d   1       5.983  -4.444   0.421  0.00  0.00     0.077 C 
ATOM      2  C1' PXY d   1       5.994  -2.247   5.768  0.00  0.00     0.077 C 
ATOM      3  C1  PXY d   1       5.986  -2.812   4.361  0.00  0.00    -0.082 A 
ATOM      4  C2  PXY d   1       5.975  -4.123   4.183  0.00  0.00     0.003 A 
ATOM      5  C3  PXY d   1       6.000  -4.651   2.918  0.00  0.00     0.003 A 
ATOM      6  C4  PXY d   1       5.982  -3.829   1.823  0.00  0.00    -0.082 A 
ATOM      7  C5  PXY d   1       5.983  -2.490   1.997  0.00  0.00     0.003 A 
ATOM      8  C6  PXY d   1       6.000  -1.974   3.289  0.00  0.00     0.003 A 
ENDROOT
TORSDOF 0
ENDMDL
