MODEL 1
REMARK minimizedAffinity -3.26368499
REMARK minimizedRMSD -1
REMARK  0 active torsions:
REMARK  status: ('A' for Active; 'I' for Inactive)
ROOT
ATOM      1  C4' PXY d   1       5.999  -1.951   1.821  0.00  0.00     0.077 C 
ATOM      2  C1' PXY d   1       5.949  -6.000   5.947  0.00  0.00     0.077 C 
ATOM      3  C1  PXY d   1       5.957  -4.930   4.873  0.00  0.00    -0.082 A 
ATOM      4  C2  PXY d   1       5.960  -5.282   3.598  0.00  0.00     0.003 A 
ATOM      5  C3  PXY d   1       6.000  -4.328   2.614  0.00  0.00     0.003 A 
ATOM      6  C4  PXY d   1       5.982  -2.998   2.939  0.00  0.00    -0.082 A 
ATOM      7  C5  PXY d   1       5.967  -2.630   4.237  0.00  0.00     0.003 A 
ATOM      8  C6  PXY d   1       5.969  -3.614   5.221  0.00  0.00     0.003 A 
ENDROOT
TORSDOF 0
ENDMDL
