MODEL 1
REMARK minimizedAffinity -2.53742981
REMARK minimizedRMSD -1
REMARK  0 active torsions:
REMARK  status: ('A' for Active; 'I' for Inactive)
ROOT
ATOM      1  C4' PXY d   1       5.835  -1.913   1.968  0.00  0.00     0.077 C 
ATOM      2  C1' PXY d   1       4.964  -5.964   6.000  0.00  0.00     0.077 C 
ATOM      3  C1  PXY d   1       5.182  -4.894   4.947  0.00  0.00    -0.082 A 
ATOM      4  C2  PXY d   1       5.766  -5.212   3.803  0.00  0.00     0.003 A 
ATOM      5  C3  PXY d   1       6.000  -4.251   2.854  0.00  0.00     0.003 A 
ATOM      6  C4  PXY d   1       5.585  -2.962   3.056  0.00  0.00    -0.082 A 
ATOM      7  C5  PXY d   1       4.980  -2.632   4.216  0.00  0.00     0.003 A 
ATOM      8  C6  PXY d   1       4.788  -3.614   5.184  0.00  0.00     0.003 A 
ENDROOT
TORSDOF 0
ENDMDL
