MODEL 1
REMARK minimizedAffinity -3.36171412
REMARK minimizedRMSD -1
REMARK  0 active torsions:
REMARK  status: ('A' for Active; 'I' for Inactive)
ROOT
ATOM      1  C4' PXY d   1       5.985  -4.683   0.482  0.00  0.00     0.077 C 
ATOM      2  C1' PXY d   1       5.526  -3.009   5.996  0.00  0.00     0.077 C 
ATOM      3  C1  PXY d   1       5.640  -3.438   4.546  0.00  0.00    -0.082 A 
ATOM      4  C2  PXY d   1       5.851  -4.711   4.255  0.00  0.00     0.003 A 
ATOM      5  C3  PXY d   1       5.988  -5.111   2.951  0.00  0.00     0.003 A 
ATOM      6  C4  PXY d   1       5.854  -4.207   1.931  0.00  0.00    -0.082 A 
ATOM      7  C5  PXY d   1       5.628  -2.908   2.220  0.00  0.00     0.003 A 
ATOM      8  C6  PXY d   1       5.533  -2.515   3.552  0.00  0.00     0.003 A 
ENDROOT
TORSDOF 0
ENDMDL
