MODEL 1
REMARK minimizedAffinity 3.07403636
REMARK minimizedRMSD -1
REMARK  0 active torsions:
REMARK  status: ('A' for Active; 'I' for Inactive)
ROOT
ATOM      1  C4' PXY d   1       5.484  -6.000   4.919  0.00  0.00     0.077 C 
ATOM      2  C1' PXY d   1       5.990  -1.919   0.857  0.00  0.00     0.077 C 
ATOM      3  C1  PXY d   1       5.854  -2.998   1.913  0.00  0.00    -0.082 A 
ATOM      4  C2  PXY d   1       5.602  -2.658   3.167  0.00  0.00     0.003 A 
ATOM      5  C3  PXY d   1       5.508  -3.619   4.140  0.00  0.00     0.003 A 
ATOM      6  C4  PXY d   1       5.620  -4.945   3.818  0.00  0.00    -0.082 A 
ATOM      7  C5  PXY d   1       5.866  -5.300   2.539  0.00  0.00     0.003 A 
ATOM      8  C6  PXY d   1       5.999  -4.307   1.573  0.00  0.00     0.003 A 
ENDROOT
TORSDOF 0
ENDMDL
