MODEL 1
REMARK minimizedAffinity -1.32437694
REMARK minimizedRMSD -1
REMARK  0 active torsions:
REMARK  status: ('A' for Active; 'I' for Inactive)
ROOT
ATOM      1  C4' PXY d   1       4.849  -5.949   5.334  0.00  0.00     0.077 C 
ATOM      2  C1' PXY d   1       6.000  -1.864   1.409  0.00  0.00     0.077 C 
ATOM      3  C1  PXY d   1       5.698  -2.945   2.429  0.00  0.00    -0.082 A 
ATOM      4  C2  PXY d   1       5.147  -2.616   3.586  0.00  0.00     0.003 A 
ATOM      5  C3  PXY d   1       4.896  -3.576   4.532  0.00  0.00     0.003 A 
ATOM      6  C4  PXY d   1       5.163  -4.893   4.271  0.00  0.00    -0.082 A 
ATOM      7  C5  PXY d   1       5.715  -5.238   3.088  0.00  0.00     0.003 A 
ATOM      8  C6  PXY d   1       6.000  -4.243   2.157  0.00  0.00     0.003 A 
ENDROOT
TORSDOF 0
ENDMDL
