MODEL 1
REMARK minimizedAffinity 1.59266341
REMARK minimizedRMSD -1
REMARK  0 active torsions:
REMARK  status: ('A' for Active; 'I' for Inactive)
ROOT
ATOM      1  C   UNL d   1       4.694   2.332  -1.654  0.00  0.00     0.172 C 
ATOM      2  N   UNL d   1       3.823   1.279  -1.187  0.00  0.00    -0.070 N 
ATOM      3  C1  UNL d   1       3.516   0.134  -1.872  0.00  0.00    -0.004 A 
ATOM      4  C2  UNL d   1       2.658  -0.609  -1.089  0.00  0.00    -0.047 A 
ATOM      5  C3  UNL d   1       2.441   0.116   0.106  0.00  0.00    -0.047 A 
ATOM      6  C4  UNL d   1       3.174   1.281   0.020  0.00  0.00    -0.004 A 
ENDROOT
TORSDOF 0
ENDMDL
