MODEL 1
REMARK minimizedAffinity 3.50098133
REMARK minimizedRMSD -1
REMARK  0 active torsions:
REMARK  status: ('A' for Active; 'I' for Inactive)
ROOT
ATOM      1  C   UNL d   1      -5.177   5.998   5.997  0.00  0.00     0.172 C 
ATOM      2  N   UNL d   1      -5.428   4.727   5.358  0.00  0.00    -0.070 N 
ATOM      3  C1  UNL d   1      -5.250   4.454   4.028  0.00  0.00    -0.004 A 
ATOM      4  C2  UNL d   1      -5.597   3.137   3.817  0.00  0.00    -0.047 A 
ATOM      5  C3  UNL d   1      -5.997   2.600   5.064  0.00  0.00    -0.047 A 
ATOM      6  C4  UNL d   1      -5.883   3.606   6.000  0.00  0.00    -0.004 A 
ENDROOT
TORSDOF 0
ENDMDL
