MODEL 1
REMARK minimizedAffinity 0.157929495
REMARK minimizedRMSD -1
REMARK  0 active torsions:
REMARK  status: ('A' for Active; 'I' for Inactive)
ROOT
ATOM      1  C   UNL d   1      -4.897   4.196   2.063  0.00  0.00     0.172 C 
ATOM      2  N   UNL d   1      -5.146   4.710   3.389  0.00  0.00    -0.070 N 
ATOM      3  C1  UNL d   1      -6.000   4.165   4.310  0.00  0.00    -0.004 A 
ATOM      4  C2  UNL d   1      -5.954   4.947   5.443  0.00  0.00    -0.047 A 
ATOM      5  C3  UNL d   1      -5.041   6.000   5.195  0.00  0.00    -0.047 A 
ATOM      6  C4  UNL d   1      -4.556   5.829   3.915  0.00  0.00    -0.004 A 
ENDROOT
TORSDOF 0
ENDMDL
