MODEL 1
REMARK minimizedAffinity 7.5348134
REMARK minimizedRMSD -1
REMARK  0 active torsions:
REMARK  status: ('A' for Active; 'I' for Inactive)
ROOT
ATOM      1  C   UNL d   1       2.428   2.200   2.625  0.00  0.00     0.172 C 
ATOM      2  N   UNL d   1       2.630   1.536   1.359  0.00  0.00    -0.070 N 
ATOM      3  C1  UNL d   1       3.029   0.236   1.193  0.00  0.00    -0.004 A 
ATOM      4  C2  UNL d   1       3.102  -0.014  -0.160  0.00  0.00    -0.047 A 
ATOM      5  C3  UNL d   1       2.736   1.177  -0.831  0.00  0.00    -0.047 A 
ATOM      6  C4  UNL d   1       2.448   2.120   0.133  0.00  0.00    -0.004 A 
ENDROOT
TORSDOF 0
ENDMDL
