MODEL 1
REMARK minimizedAffinity -1.6147778
REMARK minimizedRMSD -1
REMARK  0 active torsions:
REMARK  status: ('A' for Active; 'I' for Inactive)
ROOT
ATOM      1  C   UNL d   1      -4.866   4.323   2.613  0.00  0.00     0.172 C 
ATOM      2  N   UNL d   1      -4.946   4.885   3.941  0.00  0.00    -0.070 N 
ATOM      3  C1  UNL d   1      -5.997   4.740   4.807  0.00  0.00    -0.004 A 
ATOM      4  C2  UNL d   1      -5.689   5.423   5.963  0.00  0.00    -0.047 A 
ATOM      5  C3  UNL d   1      -4.409   6.000   5.786  0.00  0.00    -0.047 A 
ATOM      6  C4  UNL d   1      -3.973   5.651   4.525  0.00  0.00    -0.004 A 
ENDROOT
TORSDOF 0
ENDMDL
