MODEL 1
REMARK minimizedAffinity 0.341034591
REMARK minimizedRMSD -1
REMARK  0 active torsions:
REMARK  status: ('A' for Active; 'I' for Inactive)
ROOT
ATOM      1  C   UNL d   1       5.009   3.056   1.514  0.00  0.00     0.172 C 
ATOM      2  N   UNL d   1       4.101   2.313   0.672  0.00  0.00    -0.070 N 
ATOM      3  C1  UNL d   1       2.842   1.904   1.021  0.00  0.00    -0.004 A 
ATOM      4  C2  UNL d   1       2.305   1.229  -0.054  0.00  0.00    -0.047 A 
ATOM      5  C3  UNL d   1       3.275   1.232  -1.084  0.00  0.00    -0.047 A 
ATOM      6  C4  UNL d   1       4.377   1.910  -0.608  0.00  0.00    -0.004 A 
ENDROOT
TORSDOF 0
ENDMDL
