MODEL 1
REMARK minimizedAffinity -0.49243331
REMARK minimizedRMSD -1
REMARK  0 active torsions:
REMARK  status: ('A' for Active; 'I' for Inactive)
ROOT
ATOM      1  C   UNL d   1       5.989   2.903   1.472  0.00  0.00     0.172 C 
ATOM      2  N   UNL d   1       5.129   2.371   0.441  0.00  0.00    -0.070 N 
ATOM      3  C1  UNL d   1       3.931   1.741   0.647  0.00  0.00    -0.004 A 
ATOM      4  C2  UNL d   1       3.423   1.385  -0.583  0.00  0.00    -0.047 A 
ATOM      5  C3  UNL d   1       4.349   1.814  -1.564  0.00  0.00    -0.047 A 
ATOM      6  C4  UNL d   1       5.396   2.422  -0.902  0.00  0.00    -0.004 A 
ENDROOT
TORSDOF 0
ENDMDL
