MODEL 1
REMARK minimizedAffinity 7.07351637
REMARK minimizedRMSD -1
REMARK  0 active torsions:
REMARK  status: ('A' for Active; 'I' for Inactive)
ROOT
ATOM      1  C   UNL d   1       2.473   1.193  -0.042  0.00  0.00     0.172 C 
ATOM      2  N   UNL d   1       3.808   1.690  -0.277  0.00  0.00    -0.070 N 
ATOM      3  C1  UNL d   1       4.765   1.892   0.682  0.00  0.00    -0.004 A 
ATOM      4  C2  UNL d   1       5.895   2.372   0.056  0.00  0.00    -0.047 A 
ATOM      5  C3  UNL d   1       5.607   2.463  -1.327  0.00  0.00    -0.047 A 
ATOM      6  C4  UNL d   1       4.308   2.035  -1.505  0.00  0.00    -0.004 A 
ENDROOT
TORSDOF 0
ENDMDL
