MODEL 1
REMARK minimizedAffinity 3.37549877
REMARK minimizedRMSD -1
REMARK  0 active torsions:
REMARK  status: ('A' for Active; 'I' for Inactive)
ROOT
ATOM      1  C   UNL d   1       4.627   2.291   1.573  0.00  0.00     0.172 C 
ATOM      2  N   UNL d   1       3.772   1.589   0.645  0.00  0.00    -0.070 N 
ATOM      3  C1  UNL d   1       3.726   1.793  -0.709  0.00  0.00    -0.004 A 
ATOM      4  C2  UNL d   1       2.788   0.931  -1.233  0.00  0.00    -0.047 A 
ATOM      5  C3  UNL d   1       2.250   0.184  -0.158  0.00  0.00    -0.047 A 
ATOM      6  C4  UNL d   1       2.877   0.612   0.993  0.00  0.00    -0.004 A 
ENDROOT
TORSDOF 0
ENDMDL
