MODEL 1
REMARK minimizedAffinity -0.183728218
REMARK minimizedRMSD -1
REMARK  0 active torsions:
REMARK  status: ('A' for Active; 'I' for Inactive)
ROOT
ATOM      1  C   UNL d   1       4.731   4.501   2.997  0.00  0.00     0.172 C 
ATOM      2  N   UNL d   1       3.342   4.863   2.844  0.00  0.00    -0.070 N 
ATOM      3  C1  UNL d   1       2.273   4.141   3.306  0.00  0.00    -0.004 A 
ATOM      4  C2  UNL d   1       1.125   4.820   2.960  0.00  0.00    -0.047 A 
ATOM      5  C3  UNL d   1       1.516   5.988   2.265  0.00  0.00    -0.047 A 
ATOM      6  C4  UNL d   1       2.894   5.990   2.207  0.00  0.00    -0.004 A 
ENDROOT
TORSDOF 0
ENDMDL
