MODEL 1
REMARK minimizedAffinity 5.10132265
REMARK minimizedRMSD -1
REMARK  0 active torsions:
REMARK  status: ('A' for Active; 'I' for Inactive)
ROOT
ATOM      1  C   UNL d   1       4.731   1.882  -2.714  0.00  0.00     0.172 C 
ATOM      2  N   UNL d   1       3.801   1.220  -1.829  0.00  0.00    -0.070 N 
ATOM      3  C1  UNL d   1       3.140   0.051  -2.096  0.00  0.00    -0.004 A 
ATOM      4  C2  UNL d   1       2.351  -0.246  -1.006  0.00  0.00    -0.047 A 
ATOM      5  C3  UNL d   1       2.545   0.780  -0.051  0.00  0.00    -0.047 A 
ATOM      6  C4  UNL d   1       3.447   1.675  -0.587  0.00  0.00    -0.004 A 
ENDROOT
TORSDOF 0
ENDMDL
