MODEL 1
REMARK minimizedAffinity 6.14825821
REMARK minimizedRMSD -1
REMARK  0 active torsions:
REMARK  status: ('A' for Active; 'I' for Inactive)
ROOT
ATOM      1  C   UNL d   1       5.622   2.187  -2.288  0.00  0.00     0.172 C 
ATOM      2  N   UNL d   1       4.684   1.520  -1.417  0.00  0.00    -0.070 N 
ATOM      3  C1  UNL d   1       4.676   1.589  -0.049  0.00  0.00    -0.004 A 
ATOM      4  C2  UNL d   1       3.629   0.817   0.406  0.00  0.00    -0.047 A 
ATOM      5  C3  UNL d   1       2.986   0.264  -0.727  0.00  0.00    -0.047 A 
ATOM      6  C4  UNL d   1       3.659   0.716  -1.843  0.00  0.00    -0.004 A 
ENDROOT
TORSDOF 0
ENDMDL
