MODEL 1
REMARK minimizedAffinity 2.32525492
REMARK minimizedRMSD -1
REMARK  0 active torsions:
REMARK  status: ('A' for Active; 'I' for Inactive)
ROOT
ATOM      1  C   UNL d   1      -5.979   5.988   5.800  0.00  0.00     0.172 C 
ATOM      2  N   UNL d   1      -5.827   5.355   4.510  0.00  0.00    -0.070 N 
ATOM      3  C1  UNL d   1      -5.497   5.991   3.343  0.00  0.00    -0.004 A 
ATOM      4  C2  UNL d   1      -5.452   5.042   2.345  0.00  0.00    -0.047 A 
ATOM      5  C3  UNL d   1      -5.767   3.794   2.931  0.00  0.00    -0.047 A 
ATOM      6  C4  UNL d   1      -5.995   4.016   4.273  0.00  0.00    -0.004 A 
ENDROOT
TORSDOF 0
ENDMDL
