MODEL 1
REMARK minimizedAffinity -1.01625609
REMARK minimizedRMSD -1
REMARK  0 active torsions:
REMARK  status: ('A' for Active; 'I' for Inactive)
ROOT
ATOM      1  C   UNL d   1      -0.832  -2.949  -2.865  0.00  0.00     0.172 C 
ATOM      2  N   UNL d   1      -1.988  -2.886  -3.728  0.00  0.00    -0.070 N 
ATOM      3  C1  UNL d   1      -2.671  -1.748  -4.066  0.00  0.00    -0.004 A 
ATOM      4  C2  UNL d   1      -3.704  -2.109  -4.903  0.00  0.00    -0.047 A 
ATOM      5  C3  UNL d   1      -3.640  -3.512  -5.074  0.00  0.00    -0.047 A 
ATOM      6  C4  UNL d   1      -2.568  -3.968  -4.336  0.00  0.00    -0.004 A 
ENDROOT
TORSDOF 0
ENDMDL
