MODEL 1
REMARK minimizedAffinity 5.29612207
REMARK minimizedRMSD -1
REMARK  0 active torsions:
REMARK  status: ('A' for Active; 'I' for Inactive)
ROOT
ATOM      1  C   UNL d   1      -5.974  -0.789  -0.952  0.00  0.00     0.172 C 
ATOM      2  N   UNL d   1      -4.795  -0.006  -0.665  0.00  0.00    -0.070 N 
ATOM      3  C1  UNL d   1      -4.770   1.176   0.025  0.00  0.00    -0.004 A 
ATOM      4  C2  UNL d   1      -3.461   1.602   0.085  0.00  0.00    -0.047 A 
ATOM      5  C3  UNL d   1      -2.672   0.644  -0.594  0.00  0.00    -0.047 A 
ATOM      6  C4  UNL d   1      -3.523  -0.341  -1.048  0.00  0.00    -0.004 A 
ENDROOT
TORSDOF 0
ENDMDL
