MODEL 1
REMARK minimizedAffinity 7.93229723
REMARK minimizedRMSD -1
REMARK  0 active torsions:
REMARK  status: ('A' for Active; 'I' for Inactive)
ROOT
ATOM      1  C   UNL d   1      -6.000  -0.726  -2.528  0.00  0.00     0.172 C 
ATOM      2  N   UNL d   1      -5.595  -0.518  -1.157  0.00  0.00    -0.070 N 
ATOM      3  C1  UNL d   1      -5.998  -1.266  -0.084  0.00  0.00    -0.004 A 
ATOM      4  C2  UNL d   1      -5.393  -0.750   1.042  0.00  0.00    -0.047 A 
ATOM      5  C3  UNL d   1      -4.599   0.347   0.630  0.00  0.00    -0.047 A 
ATOM      6  C4  UNL d   1      -4.743   0.468  -0.736  0.00  0.00    -0.004 A 
ENDROOT
TORSDOF 0
ENDMDL
