MODEL 1
REMARK minimizedAffinity 1.69809258
REMARK minimizedRMSD -1
REMARK  0 active torsions:
REMARK  status: ('A' for Active; 'I' for Inactive)
ROOT
ATOM      1  C   UNL d   1      -5.996  -0.907  -0.345  0.00  0.00     0.172 C 
ATOM      2  N   UNL d   1      -5.147   0.118   0.216  0.00  0.00    -0.070 N 
ATOM      3  C1  UNL d   1      -5.549   1.106   1.074  0.00  0.00    -0.004 A 
ATOM      4  C2  UNL d   1      -4.447   1.877   1.376  0.00  0.00    -0.047 A 
ATOM      5  C3  UNL d   1      -3.345   1.334   0.674  0.00  0.00    -0.047 A 
ATOM      6  C4  UNL d   1      -3.807   0.246  -0.037  0.00  0.00    -0.004 A 
ENDROOT
TORSDOF 0
ENDMDL
