MODEL 1
REMARK minimizedAffinity 5.13298893
REMARK minimizedRMSD -1
REMARK  0 active torsions:
REMARK  status: ('A' for Active; 'I' for Inactive)
ROOT
ATOM      1  C2' OXE d   1       0.705   2.020   2.495  0.00  0.00     0.078 C 
ATOM      2  C1' OXE d   1      -0.088   2.627   5.118  0.00  0.00     0.078 C 
ATOM      3  C1  OXE d   1      -1.118   2.031   4.192  0.00  0.00    -0.078 A 
ATOM      4  C2  OXE d   1      -0.734   1.780   2.897  0.00  0.00    -0.078 A 
ATOM      5  C3  OXE d   1      -1.630   1.179   2.016  0.00  0.00     0.003 A 
ATOM      6  C4  OXE d   1      -2.962   0.970   2.393  0.00  0.00    -0.002 A 
ATOM      7  C5  OXE d   1      -3.384   1.255   3.696  0.00  0.00    -0.002 A 
ATOM      8  C6  OXE d   1      -2.466   1.745   4.618  0.00  0.00     0.003 A 
ENDROOT
TORSDOF 0
ENDMDL
