MODEL 1
REMARK minimizedAffinity 12.8729048
REMARK minimizedRMSD -1
REMARK  0 active torsions:
REMARK  status: ('A' for Active; 'I' for Inactive)
ROOT
ATOM      1  C2' OXE d   1       4.735  -1.799  -0.044  0.00  0.00     0.078 C 
ATOM      2  C1' OXE d   1       3.561   0.632  -0.811  0.00  0.00     0.078 C 
ATOM      3  C1  OXE d   1       2.715  -0.614  -0.891  0.00  0.00    -0.078 A 
ATOM      4  C2  OXE d   1       3.312  -1.806  -0.558  0.00  0.00    -0.078 A 
ATOM      5  C3  OXE d   1       2.561  -2.978  -0.563  0.00  0.00     0.003 A 
ATOM      6  C4  OXE d   1       1.248  -2.976  -1.050  0.00  0.00    -0.002 A 
ATOM      7  C5  OXE d   1       0.634  -1.779  -1.431  0.00  0.00    -0.002 A 
ATOM      8  C6  OXE d   1       1.338  -0.585  -1.318  0.00  0.00     0.003 A 
ENDROOT
TORSDOF 0
ENDMDL
