MODEL 1
REMARK minimizedAffinity 14.8626509
REMARK minimizedRMSD -1
REMARK  0 active torsions:
REMARK  status: ('A' for Active; 'I' for Inactive)
ROOT
ATOM      1  C2' OXE d   1      -1.437   3.419  -4.112  0.00  0.00     0.078 C 
ATOM      2  C1' OXE d   1       1.072   2.167  -3.981  0.00  0.00     0.078 C 
ATOM      3  C1  OXE d   1       0.869   3.422  -3.170  0.00  0.00    -0.078 A 
ATOM      4  C2  OXE d   1      -0.346   4.054  -3.276  0.00  0.00    -0.078 A 
ATOM      5  C3  OXE d   1      -0.605   5.185  -2.507  0.00  0.00     0.003 A 
ATOM      6  C4  OXE d   1       0.413   5.772  -1.745  0.00  0.00    -0.002 A 
ATOM      7  C5  OXE d   1       1.670   5.166  -1.654  0.00  0.00    -0.002 A 
ATOM      8  C6  OXE d   1       1.901   3.970  -2.325  0.00  0.00     0.003 A 
ENDROOT
TORSDOF 0
ENDMDL
