MODEL 1
REMARK minimizedAffinity 17.2656841
REMARK minimizedRMSD -1
REMARK  0 active torsions:
REMARK  status: ('A' for Active; 'I' for Inactive)
ROOT
ATOM      1  C2' OXE d   1      -2.648  -5.375  -1.945  0.00  0.00     0.078 C 
ATOM      2  C1' OXE d   1      -0.824  -3.423  -2.805  0.00  0.00     0.078 C 
ATOM      3  C1  OXE d   1      -2.162  -3.487  -3.496  0.00  0.00    -0.078 A 
ATOM      4  C2  OXE d   1      -3.031  -4.476  -3.101  0.00  0.00    -0.078 A 
ATOM      5  C3  OXE d   1      -4.300  -4.546  -3.668  0.00  0.00     0.003 A 
ATOM      6  C4  OXE d   1      -4.642  -3.717  -4.744  0.00  0.00    -0.002 A 
ATOM      7  C5  OXE d   1      -3.757  -2.730  -5.189  0.00  0.00    -0.002 A 
ATOM      8  C6  OXE d   1      -2.532  -2.574  -4.549  0.00  0.00     0.003 A 
ENDROOT
TORSDOF 0
ENDMDL
