MODEL 1
REMARK minimizedAffinity 13.8544731
REMARK minimizedRMSD -1
REMARK  0 active torsions:
REMARK  status: ('A' for Active; 'I' for Inactive)
ROOT
ATOM      1  C2' OXE d   1      -2.237   1.464   2.985  0.00  0.00     0.078 C 
ATOM      2  C1' OXE d   1      -0.004  -0.132   2.394  0.00  0.00     0.078 C 
ATOM      3  C1  OXE d   1       0.019   0.663   3.676  0.00  0.00    -0.078 A 
ATOM      4  C2  OXE d   1      -1.058   1.477   3.934  0.00  0.00    -0.078 A 
ATOM      5  C3  OXE d   1      -1.112   2.189   5.129  0.00  0.00     0.003 A 
ATOM      6  C4  OXE d   1      -0.014   2.203   5.996  0.00  0.00    -0.002 A 
ATOM      7  C5  OXE d   1       1.110   1.412   5.733  0.00  0.00    -0.002 A 
ATOM      8  C6  OXE d   1       1.124   0.605   4.600  0.00  0.00     0.003 A 
ENDROOT
TORSDOF 0
ENDMDL
