MODEL 1
REMARK minimizedAffinity 17.6740952
REMARK minimizedRMSD -1
REMARK  0 active torsions:
REMARK  status: ('A' for Active; 'I' for Inactive)
ROOT
ATOM      1  C2' OXE d   1      -0.092   3.298   5.947  0.00  0.00     0.078 C 
ATOM      2  C1' OXE d   1       2.043   1.477   5.997  0.00  0.00     0.078 C 
ATOM      3  C1  OXE d   1       1.148   1.479   4.783  0.00  0.00    -0.078 A 
ATOM      4  C2  OXE d   1       0.078   2.341   4.787  0.00  0.00    -0.078 A 
ATOM      5  C3  OXE d   1      -0.747   2.422   3.669  0.00  0.00     0.003 A 
ATOM      6  C4  OXE d   1      -0.588   1.527   2.605  0.00  0.00    -0.002 A 
ATOM      7  C5  OXE d   1       0.472   0.613   2.598  0.00  0.00    -0.002 A 
ATOM      8  C6  OXE d   1       1.372   0.606   3.657  0.00  0.00     0.003 A 
ENDROOT
TORSDOF 0
ENDMDL
