MODEL 1
REMARK minimizedAffinity 22.2387924
REMARK minimizedRMSD -1
REMARK  0 active torsions:
REMARK  status: ('A' for Active; 'I' for Inactive)
ROOT
ATOM      1  C2' OXE d   1      -2.239   6.000  -5.967  0.00  0.00     0.078 C 
ATOM      2  C1' OXE d   1      -1.122   5.850  -3.396  0.00  0.00     0.078 C 
ATOM      3  C1  OXE d   1      -1.519   4.559  -4.067  0.00  0.00    -0.078 A 
ATOM      4  C2  OXE d   1      -2.108   4.645  -5.306  0.00  0.00    -0.078 A 
ATOM      5  C3  OXE d   1      -2.443   3.481  -5.992  0.00  0.00     0.003 A 
ATOM      6  C4  OXE d   1      -2.327   2.233  -5.369  0.00  0.00    -0.002 A 
ATOM      7  C5  OXE d   1      -1.766   2.125  -4.092  0.00  0.00    -0.002 A 
ATOM      8  C6  OXE d   1      -1.319   3.273  -3.446  0.00  0.00     0.003 A 
ENDROOT
TORSDOF 0
ENDMDL
