MODEL 1
REMARK minimizedAffinity 14.9796772
REMARK minimizedRMSD -1
REMARK  0 active torsions:
REMARK  status: ('A' for Active; 'I' for Inactive)
ROOT
ATOM      1  C2' OXE d   1      -0.018   0.899   2.150  0.00  0.00     0.078 C 
ATOM      2  C1' OXE d   1       2.527   2.079   2.261  0.00  0.00     0.078 C 
ATOM      3  C1  OXE d   1       1.890   1.657   3.561  0.00  0.00    -0.078 A 
ATOM      4  C2  OXE d   1       0.625   1.124   3.502  0.00  0.00    -0.078 A 
ATOM      5  C3  OXE d   1       0.013   0.668   4.666  0.00  0.00     0.003 A 
ATOM      6  C4  OXE d   1       0.609   0.889   5.913  0.00  0.00    -0.002 A 
ATOM      7  C5  OXE d   1       1.880   1.467   6.000  0.00  0.00    -0.002 A 
ATOM      8  C6  OXE d   1       2.551   1.817   4.833  0.00  0.00     0.003 A 
ENDROOT
TORSDOF 0
ENDMDL
