MODEL 1
REMARK minimizedAffinity 12.7519503
REMARK minimizedRMSD -1
REMARK  0 active torsions:
REMARK  status: ('A' for Active; 'I' for Inactive)
ROOT
ATOM      1  C2' OXE d   1      -6.000   3.210   3.503  0.00  0.00     0.078 C 
ATOM      2  C1' OXE d   1      -4.871   3.818   6.000  0.00  0.00     0.078 C 
ATOM      3  C1  OXE d   1      -4.389   2.575   5.294  0.00  0.00    -0.078 A 
ATOM      4  C2  OXE d   1      -4.981   2.260   4.094  0.00  0.00    -0.078 A 
ATOM      5  C3  OXE d   1      -4.535   1.154   3.375  0.00  0.00     0.003 A 
ATOM      6  C4  OXE d   1      -3.600   0.276   3.934  0.00  0.00    -0.002 A 
ATOM      7  C5  OXE d   1      -3.013   0.557   5.173  0.00  0.00    -0.002 A 
ATOM      8  C6  OXE d   1      -3.365   1.722   5.845  0.00  0.00     0.003 A 
ENDROOT
TORSDOF 0
ENDMDL
