MODEL 1
REMARK minimizedAffinity 15.5613289
REMARK minimizedRMSD -1
REMARK  0 active torsions:
REMARK  status: ('A' for Active; 'I' for Inactive)
ROOT
ATOM      1  C2' OXE d   1      -4.398   1.126   3.687  0.00  0.00     0.078 C 
ATOM      2  C1' OXE d   1      -3.044   1.963   6.000  0.00  0.00     0.078 C 
ATOM      3  C1  OXE d   1      -2.236   1.779   4.739  0.00  0.00    -0.078 A 
ATOM      4  C2  OXE d   1      -2.899   1.324   3.625  0.00  0.00    -0.078 A 
ATOM      5  C3  OXE d   1      -2.212   1.189   2.421  0.00  0.00     0.003 A 
ATOM      6  C4  OXE d   1      -0.823   1.365   2.374  0.00  0.00    -0.002 A 
ATOM      7  C5  OXE d   1      -0.123   1.789   3.508  0.00  0.00    -0.002 A 
ATOM      8  C6  OXE d   1      -0.819   2.042   4.685  0.00  0.00     0.003 A 
ENDROOT
TORSDOF 0
ENDMDL
