MODEL 1
REMARK minimizedAffinity 21.5064564
REMARK minimizedRMSD -1
REMARK  0 active torsions:
REMARK  status: ('A' for Active; 'I' for Inactive)
ROOT
ATOM      1  C2' OXE d   1      -4.818   3.571   6.000  0.00  0.00     0.078 C 
ATOM      2  C1' OXE d   1      -6.000   2.977   3.524  0.00  0.00     0.078 C 
ATOM      3  C1  OXE d   1      -5.060   1.958   4.117  0.00  0.00    -0.078 A 
ATOM      4  C2  OXE d   1      -4.450   2.277   5.306  0.00  0.00    -0.078 A 
ATOM      5  C3  OXE d   1      -3.616   1.349   5.924  0.00  0.00     0.003 A 
ATOM      6  C4  OXE d   1      -3.273   0.159   5.271  0.00  0.00    -0.002 A 
ATOM      7  C5  OXE d   1      -3.852  -0.168   4.040  0.00  0.00    -0.002 A 
ATOM      8  C6  OXE d   1      -4.778   0.699   3.471  0.00  0.00     0.003 A 
ENDROOT
TORSDOF 0
ENDMDL
