MODEL 1
REMARK minimizedAffinity 5.2266283
REMARK minimizedRMSD -1
REMARK  0 active torsions:
REMARK  status: ('A' for Active; 'I' for Inactive)
ROOT
ATOM      1  C2' OXE d   1      -3.124   2.661  -5.973  0.00  0.00     0.078 C 
ATOM      2  C1' OXE d   1      -4.108   5.290  -5.996  0.00  0.00     0.078 C 
ATOM      3  C1  OXE d   1      -2.928   4.988  -5.106  0.00  0.00    -0.078 A 
ATOM      4  C2  OXE d   1      -2.483   3.688  -5.065  0.00  0.00    -0.078 A 
ATOM      5  C3  OXE d   1      -1.364   3.367  -4.303  0.00  0.00     0.003 A 
ATOM      6  C4  OXE d   1      -0.783   4.321  -3.458  0.00  0.00    -0.002 A 
ATOM      7  C5  OXE d   1      -1.247   5.641  -3.454  0.00  0.00    -0.002 A 
ATOM      8  C6  OXE d   1      -2.289   6.000  -4.302  0.00  0.00     0.003 A 
ENDROOT
TORSDOF 0
ENDMDL
