MODEL 1
REMARK minimizedAffinity 10.1858549
REMARK minimizedRMSD -1
REMARK  0 active torsions:
REMARK  status: ('A' for Active; 'I' for Inactive)
ROOT
ATOM      1  C2' OXE d   1      -3.214   2.170  -5.994  0.00  0.00     0.078 C 
ATOM      2  C1' OXE d   1      -1.390   2.236  -3.861  0.00  0.00     0.078 C 
ATOM      3  C1  OXE d   1      -1.882   3.553  -4.406  0.00  0.00    -0.078 A 
ATOM      4  C2  OXE d   1      -2.738   3.512  -5.480  0.00  0.00    -0.078 A 
ATOM      5  C3  OXE d   1      -3.266   4.696  -5.987  0.00  0.00     0.003 A 
ATOM      6  C4  OXE d   1      -2.813   5.934  -5.513  0.00  0.00    -0.002 A 
ATOM      7  C5  OXE d   1      -1.911   5.998  -4.446  0.00  0.00    -0.002 A 
ATOM      8  C6  OXE d   1      -1.470   4.820  -3.855  0.00  0.00     0.003 A 
ENDROOT
TORSDOF 0
ENDMDL
