MODEL 1
REMARK minimizedAffinity 2.35128212
REMARK minimizedRMSD -1
REMARK  0 active torsions:
REMARK  status: ('A' for Active; 'I' for Inactive)
ROOT
ATOM      1  C2' OXE d   1      -1.876   6.000  -3.985  0.00  0.00     0.078 C 
ATOM      2  C1' OXE d   1      -3.874   5.973  -5.957  0.00  0.00     0.078 C 
ATOM      3  C1  OXE d   1      -3.330   4.646  -5.488  0.00  0.00    -0.078 A 
ATOM      4  C2  OXE d   1      -2.320   4.671  -4.557  0.00  0.00    -0.078 A 
ATOM      5  C3  OXE d   1      -1.820   3.474  -4.050  0.00  0.00     0.003 A 
ATOM      6  C4  OXE d   1      -2.229   2.250  -4.592  0.00  0.00    -0.002 A 
ATOM      7  C5  OXE d   1      -3.229   2.204  -5.569  0.00  0.00    -0.002 A 
ATOM      8  C6  OXE d   1      -3.819   3.388  -5.997  0.00  0.00     0.003 A 
ENDROOT
TORSDOF 0
ENDMDL
