MODEL 1
REMARK minimizedAffinity 15.7900953
REMARK minimizedRMSD -1
REMARK  0 active torsions:
REMARK  status: ('A' for Active; 'I' for Inactive)
ROOT
ATOM      1  C2' OXE d   1      -2.510   0.748  -5.999  0.00  0.00     0.078 C 
ATOM      2  C1' OXE d   1      -1.037   1.273  -3.668  0.00  0.00     0.078 C 
ATOM      3  C1  OXE d   1      -1.834   2.405  -4.266  0.00  0.00    -0.078 A 
ATOM      4  C2  OXE d   1      -2.514   2.152  -5.433  0.00  0.00    -0.078 A 
ATOM      5  C3  OXE d   1      -3.309   3.145  -5.997  0.00  0.00     0.003 A 
ATOM      6  C4  OXE d   1      -3.300   4.443  -5.472  0.00  0.00    -0.002 A 
ATOM      7  C5  OXE d   1      -2.582   4.733  -4.307  0.00  0.00    -0.002 A 
ATOM      8  C6  OXE d   1      -1.880   3.717  -3.669  0.00  0.00     0.003 A 
ENDROOT
TORSDOF 0
ENDMDL
