MODEL 1
REMARK minimizedAffinity 22.7074318
REMARK minimizedRMSD -1
REMARK  0 active torsions:
REMARK  status: ('A' for Active; 'I' for Inactive)
ROOT
ATOM      1  C2' OXE d   1      -5.656   2.750   3.327  0.00  0.00     0.078 C 
ATOM      2  C1' OXE d   1      -4.918   3.197   5.998  0.00  0.00     0.078 C 
ATOM      3  C1  OXE d   1      -4.407   1.947   5.327  0.00  0.00    -0.078 A 
ATOM      4  C2  OXE d   1      -4.811   1.713   4.034  0.00  0.00    -0.078 A 
ATOM      5  C3  OXE d   1      -4.325   0.602   3.350  0.00  0.00     0.003 A 
ATOM      6  C4  OXE d   1      -3.552  -0.357   4.015  0.00  0.00    -0.002 A 
ATOM      7  C5  OXE d   1      -3.162  -0.158   5.344  0.00  0.00    -0.002 A 
ATOM      8  C6  OXE d   1      -3.545   1.007   5.999  0.00  0.00     0.003 A 
ENDROOT
TORSDOF 0
ENDMDL
