MODEL 1
REMARK minimizedAffinity 20.7414398
REMARK minimizedRMSD -1
REMARK  0 active torsions:
REMARK  status: ('A' for Active; 'I' for Inactive)
ROOT
ATOM      1  C2' OXE d   1      -5.998   3.280   3.444  0.00  0.00     0.078 C 
ATOM      2  C1' OXE d   1      -5.023   3.912   5.999  0.00  0.00     0.078 C 
ATOM      3  C1  OXE d   1      -4.540   2.636   5.358  0.00  0.00    -0.078 A 
ATOM      4  C2  OXE d   1      -5.058   2.311   4.127  0.00  0.00    -0.078 A 
ATOM      5  C3  OXE d   1      -4.604   1.172   3.467  0.00  0.00     0.003 A 
ATOM      6  C4  OXE d   1      -3.742   0.276   4.110  0.00  0.00    -0.002 A 
ATOM      7  C5  OXE d   1      -3.234   0.568   5.380  0.00  0.00    -0.002 A 
ATOM      8  C6  OXE d   1      -3.588   1.762   5.998  0.00  0.00     0.003 A 
ENDROOT
TORSDOF 0
ENDMDL
