MODEL 1
REMARK minimizedAffinity 21.5751553
REMARK minimizedRMSD -1
REMARK  0 active torsions:
REMARK  status: ('A' for Active; 'I' for Inactive)
ROOT
ATOM      1  C2' OXE d   1       1.668  -0.217  -2.853  0.00  0.00     0.078 C 
ATOM      2  C1' OXE d   1       2.273  -1.516  -0.439  0.00  0.00     0.078 C 
ATOM      3  C1  OXE d   1       2.834  -0.133  -0.653  0.00  0.00    -0.078 A 
ATOM      4  C2  OXE d   1       2.571   0.477  -1.857  0.00  0.00    -0.078 A 
ATOM      5  C3  OXE d   1       3.019   1.775  -2.084  0.00  0.00     0.003 A 
ATOM      6  C4  OXE d   1       3.862   2.406  -1.162  0.00  0.00    -0.002 A 
ATOM      7  C5  OXE d   1       4.175   1.787   0.053  0.00  0.00    -0.002 A 
ATOM      8  C6  OXE d   1       3.636   0.538   0.340  0.00  0.00     0.003 A 
ENDROOT
TORSDOF 0
ENDMDL
