MODEL 1
REMARK minimizedAffinity 16.3675003
REMARK minimizedRMSD -1
REMARK  0 active torsions:
REMARK  status: ('A' for Active; 'I' for Inactive)
ROOT
ATOM      1  C2' OXE d   1      -1.860   1.173  -3.531  0.00  0.00     0.078 C 
ATOM      2  C1' OXE d   1       0.531  -0.040  -2.701  0.00  0.00     0.078 C 
ATOM      3  C1  OXE d   1      -0.559  -0.931  -3.241  0.00  0.00    -0.078 A 
ATOM      4  C2  OXE d   1      -1.743  -0.334  -3.601  0.00  0.00    -0.078 A 
ATOM      5  C3  OXE d   1      -2.762  -1.103  -4.156  0.00  0.00     0.003 A 
ATOM      6  C4  OXE d   1      -2.650  -2.498  -4.208  0.00  0.00    -0.002 A 
ATOM      7  C5  OXE d   1      -1.467  -3.130  -3.809  0.00  0.00    -0.002 A 
ATOM      8  C6  OXE d   1      -0.399  -2.359  -3.364  0.00  0.00     0.003 A 
ENDROOT
TORSDOF 0
ENDMDL
