MODEL 1
REMARK minimizedAffinity 10.3808222
REMARK minimizedRMSD -1
REMARK  0 active torsions:
REMARK  status: ('A' for Active; 'I' for Inactive)
ROOT
ATOM      1  C2' OXE d   1      -4.199  -1.299   2.999  0.00  0.00     0.078 C 
ATOM      2  C1' OXE d   1      -4.557   1.394   3.703  0.00  0.00     0.078 C 
ATOM      3  C1  OXE d   1      -3.188   0.965   3.238  0.00  0.00    -0.078 A 
ATOM      4  C2  OXE d   1      -3.010  -0.365   2.941  0.00  0.00    -0.078 A 
ATOM      5  C3  OXE d   1      -1.782  -0.804   2.455  0.00  0.00     0.003 A 
ATOM      6  C4  OXE d   1      -0.685   0.064   2.414  0.00  0.00    -0.002 A 
ATOM      7  C5  OXE d   1      -0.834   1.414   2.750  0.00  0.00    -0.002 A 
ATOM      8  C6  OXE d   1      -2.087   1.888   3.123  0.00  0.00     0.003 A 
ENDROOT
TORSDOF 0
ENDMDL
