MODEL 1
REMARK minimizedAffinity -4.29186392
REMARK minimizedRMSD -1
REMARK  0 active torsions:
REMARK  status: ('A' for Active; 'I' for Inactive)
ROOT
ATOM      1  C1  BNZ d   1      -2.579  -2.099   0.191  0.00  0.00     0.000 A 
ATOM      2  C2  BNZ d   1      -2.238  -1.013  -0.570  0.00  0.00     0.000 A 
ATOM      3  C3  BNZ d   1      -1.068  -0.342  -0.346  0.00  0.00     0.000 A 
ATOM      4  C4  BNZ d   1      -0.262  -0.733   0.662  0.00  0.00     0.000 A 
ATOM      5  C5  BNZ d   1      -0.597  -1.821   1.443  0.00  0.00     0.000 A 
ATOM      6  C6  BNZ d   1      -1.756  -2.518   1.190  0.00  0.00     0.000 A 
ENDROOT
TORSDOF 0
ENDMDL
