MODEL 1
REMARK minimizedAffinity -2.79320383
REMARK minimizedRMSD -1
REMARK  0 active torsions:
REMARK  status: ('A' for Active; 'I' for Inactive)
ROOT
ATOM      1  C1  BNZ d   1      -3.064  -1.714   0.055  0.00  0.00     0.000 A 
ATOM      2  C2  BNZ d   1      -2.922  -2.904   0.719  0.00  0.00     0.000 A 
ATOM      3  C3  BNZ d   1      -1.866  -3.114   1.560  0.00  0.00     0.000 A 
ATOM      4  C4  BNZ d   1      -0.932  -2.152   1.707  0.00  0.00     0.000 A 
ATOM      5  C5  BNZ d   1      -1.056  -0.951   1.037  0.00  0.00     0.000 A 
ATOM      6  C6  BNZ d   1      -2.142  -0.728   0.221  0.00  0.00     0.000 A 
ENDROOT
TORSDOF 0
ENDMDL
