MODEL 1
REMARK minimizedAffinity -3.46685791
REMARK minimizedRMSD -1
REMARK  0 active torsions:
REMARK  status: ('A' for Active; 'I' for Inactive)
ROOT
ATOM      1  C1  BNZ d   1       0.766   1.842   0.779  0.00  0.00     0.000 A 
ATOM      2  C2  BNZ d   1      -0.511   1.475   1.112  0.00  0.00     0.000 A 
ATOM      3  C3  BNZ d   1      -0.928   0.182   0.964  0.00  0.00     0.000 A 
ATOM      4  C4  BNZ d   1      -0.082  -0.733   0.447  0.00  0.00     0.000 A 
ATOM      5  C5  BNZ d   1       1.205  -0.376   0.097  0.00  0.00     0.000 A 
ATOM      6  C6  BNZ d   1       1.634   0.918   0.284  0.00  0.00     0.000 A 
ENDROOT
TORSDOF 0
ENDMDL
