MODEL 1
REMARK minimizedAffinity -3.9450531
REMARK minimizedRMSD -1
REMARK  0 active torsions:
REMARK  status: ('A' for Active; 'I' for Inactive)
ROOT
ATOM      1  C1  BNZ d   1      -2.964  -2.049  -0.593  0.00  0.00     0.000 A 
ATOM      2  C2  BNZ d   1      -2.629  -0.949  -1.337  0.00  0.00     0.000 A 
ATOM      3  C3  BNZ d   1      -1.498  -0.234  -1.059  0.00  0.00     0.000 A 
ATOM      4  C4  BNZ d   1      -0.725  -0.596  -0.014  0.00  0.00     0.000 A 
ATOM      5  C5  BNZ d   1      -1.054  -1.697   0.751  0.00  0.00     0.000 A 
ATOM      6  C6  BNZ d   1      -2.172  -2.437   0.444  0.00  0.00     0.000 A 
ENDROOT
TORSDOF 0
ENDMDL
