MODEL 1
REMARK minimizedAffinity -5.08040762
REMARK minimizedRMSD -1
REMARK  0 active torsions:
REMARK  status: ('A' for Active; 'I' for Inactive)
ROOT
ATOM      1  C1  BNZ d   1      -2.871  -2.262   0.628  0.00  0.00     0.000 A 
ATOM      2  C2  BNZ d   1      -1.757  -2.768   1.242  0.00  0.00     0.000 A 
ATOM      3  C3  BNZ d   1      -0.618  -2.019   1.353  0.00  0.00     0.000 A 
ATOM      4  C4  BNZ d   1      -0.583  -0.783   0.816  0.00  0.00     0.000 A 
ATOM      5  C5  BNZ d   1      -1.695  -0.263   0.185  0.00  0.00     0.000 A 
ATOM      6  C6  BNZ d   1      -2.852  -1.004   0.109  0.00  0.00     0.000 A 
ENDROOT
TORSDOF 0
ENDMDL
