MODEL 1
REMARK minimizedAffinity -3.55958557
REMARK minimizedRMSD -1
REMARK  0 active torsions:
REMARK  status: ('A' for Active; 'I' for Inactive)
ROOT
ATOM      1  C1  BNZ d   1       0.080   0.159  -0.938  0.00  0.00     0.000 A 
ATOM      2  C2  BNZ d   1      -0.857   0.137  -1.937  0.00  0.00     0.000 A 
ATOM      3  C3  BNZ d   1      -2.150  -0.221  -1.676  0.00  0.00     0.000 A 
ATOM      4  C4  BNZ d   1      -2.495  -0.595  -0.427  0.00  0.00     0.000 A 
ATOM      5  C5  BNZ d   1      -1.559  -0.588   0.589  0.00  0.00     0.000 A 
ATOM      6  C6  BNZ d   1      -0.268  -0.189   0.331  0.00  0.00     0.000 A 
ENDROOT
TORSDOF 0
ENDMDL
