MODEL 1
REMARK minimizedAffinity -2.95142794
REMARK minimizedRMSD -1
REMARK  0 active torsions:
REMARK  status: ('A' for Active; 'I' for Inactive)
ROOT
ATOM      1  C1  BNZ d   1      -0.567   0.997  -0.806  0.00  0.00     0.000 A 
ATOM      2  C2  BNZ d   1      -1.866   0.830  -1.205  0.00  0.00     0.000 A 
ATOM      3  C3  BNZ d   1      -2.558  -0.303  -0.881  0.00  0.00     0.000 A 
ATOM      4  C4  BNZ d   1      -1.939  -1.284  -0.193  0.00  0.00     0.000 A 
ATOM      5  C5  BNZ d   1      -0.627  -1.135   0.208  0.00  0.00     0.000 A 
ATOM      6  C6  BNZ d   1       0.055   0.023  -0.086  0.00  0.00     0.000 A 
ENDROOT
TORSDOF 0
ENDMDL
