MODEL 1
REMARK minimizedAffinity -2.96678495
REMARK minimizedRMSD -1
REMARK  0 active torsions:
REMARK  status: ('A' for Active; 'I' for Inactive)
ROOT
ATOM      1  C1  BNZ d   1      -2.668  -0.142  -1.565  0.00  0.00     0.000 A 
ATOM      2  C2  BNZ d   1      -1.546   0.626  -1.400  0.00  0.00     0.000 A 
ATOM      3  C3  BNZ d   1      -0.504   0.186  -0.632  0.00  0.00     0.000 A 
ATOM      4  C4  BNZ d   1      -0.601  -1.001   0.001  0.00  0.00     0.000 A 
ATOM      5  C5  BNZ d   1      -1.730  -1.782  -0.148  0.00  0.00     0.000 A 
ATOM      6  C6  BNZ d   1      -2.760  -1.354  -0.953  0.00  0.00     0.000 A 
ENDROOT
TORSDOF 0
ENDMDL
