MODEL 1
REMARK minimizedAffinity -3.19546461
REMARK minimizedRMSD -1
REMARK  0 active torsions:
REMARK  status: ('A' for Active; 'I' for Inactive)
ROOT
ATOM      1  C1  BNZ d   1      -2.175  -0.339  -1.821  0.00  0.00     0.000 A 
ATOM      2  C2  BNZ d   1      -0.874   0.061  -1.968  0.00  0.00     0.000 A 
ATOM      3  C3  BNZ d   1      -0.084   0.290  -0.875  0.00  0.00     0.000 A 
ATOM      4  C4  BNZ d   1      -0.608   0.159   0.360  0.00  0.00     0.000 A 
ATOM      5  C5  BNZ d   1      -1.921  -0.234   0.525  0.00  0.00     0.000 A 
ATOM      6  C6  BNZ d   1      -2.702  -0.501  -0.576  0.00  0.00     0.000 A 
ENDROOT
TORSDOF 0
ENDMDL
