MODEL 1
REMARK minimizedAffinity -4.07327318
REMARK minimizedRMSD -1
REMARK  0 active torsions:
REMARK  status: ('A' for Active; 'I' for Inactive)
ROOT
ATOM      1  C1  BNZ d   1      -2.127  -0.525   1.013  0.00  0.00     0.000 A 
ATOM      2  C2  BNZ d   1      -0.904   0.056   0.803  0.00  0.00     0.000 A 
ATOM      3  C3  BNZ d   1      -0.513   0.430  -0.452  0.00  0.00     0.000 A 
ATOM      4  C4  BNZ d   1      -1.327   0.188  -1.500  0.00  0.00     0.000 A 
ATOM      5  C5  BNZ d   1      -2.559  -0.405  -1.306  0.00  0.00     0.000 A 
ATOM      6  C6  BNZ d   1      -2.965  -0.745  -0.036  0.00  0.00     0.000 A 
ENDROOT
TORSDOF 0
ENDMDL
