MODEL 1
REMARK minimizedAffinity -2.47370529
REMARK minimizedRMSD -1
REMARK  0 active torsions:
REMARK  status: ('A' for Active; 'I' for Inactive)
ROOT
ATOM      1  C1  BNZ d   1      -0.721  -0.100  -0.846  0.00  0.00     0.000 A 
ATOM      2  C2  BNZ d   1      -1.678  -0.838  -1.489  0.00  0.00     0.000 A 
ATOM      3  C3  BNZ d   1      -2.759  -1.326  -0.809  0.00  0.00     0.000 A 
ATOM      4  C4  BNZ d   1      -2.861  -1.109   0.518  0.00  0.00     0.000 A 
ATOM      5  C5  BNZ d   1      -1.899  -0.375   1.182  0.00  0.00     0.000 A 
ATOM      6  C6  BNZ d   1      -0.832   0.147   0.488  0.00  0.00     0.000 A 
ENDROOT
TORSDOF 0
ENDMDL
