MODEL 1
REMARK minimizedAffinity -4.52719784
REMARK minimizedRMSD -1
REMARK  0 active torsions:
REMARK  status: ('A' for Active; 'I' for Inactive)
ROOT
ATOM      1  C1  BNZ d   1      -1.717  -0.296   0.010  0.00  0.00     0.000 A 
ATOM      2  C2  BNZ d   1      -0.540   0.336  -0.292  0.00  0.00     0.000 A 
ATOM      3  C3  BNZ d   1       0.643  -0.095   0.242  0.00  0.00     0.000 A 
ATOM      4  C4  BNZ d   1       0.642  -1.130   1.106  0.00  0.00     0.000 A 
ATOM      5  C5  BNZ d   1      -0.538  -1.772   1.428  0.00  0.00     0.000 A 
ATOM      6  C6  BNZ d   1      -1.721  -1.360   0.858  0.00  0.00     0.000 A 
ENDROOT
TORSDOF 0
ENDMDL
