MODEL 1
REMARK minimizedAffinity -3.95599794
REMARK minimizedRMSD -1
REMARK  0 active torsions:
REMARK  status: ('A' for Active; 'I' for Inactive)
ROOT
ATOM      1  C1  BNZ d   1      -2.155  -0.019  -1.664  0.00  0.00     0.000 A 
ATOM      2  C2  BNZ d   1      -1.031   0.761  -1.613  0.00  0.00     0.000 A 
ATOM      3  C3  BNZ d   1      -0.077   0.552  -0.657  0.00  0.00     0.000 A 
ATOM      4  C4  BNZ d   1      -0.267  -0.408   0.271  0.00  0.00     0.000 A 
ATOM      5  C5  BNZ d   1      -1.401  -1.196   0.239  0.00  0.00     0.000 A 
ATOM      6  C6  BNZ d   1      -2.340  -1.009  -0.749  0.00  0.00     0.000 A 
ENDROOT
TORSDOF 0
ENDMDL
