MODEL 1
REMARK minimizedAffinity -4.50406694
REMARK minimizedRMSD -1
REMARK  0 active torsions:
REMARK  status: ('A' for Active; 'I' for Inactive)
ROOT
ATOM      1  C1  BNZ d   1      -3.056  -2.366   0.363  0.00  0.00     0.000 A 
ATOM      2  C2  BNZ d   1      -2.976  -1.166  -0.291  0.00  0.00     0.000 A 
ATOM      3  C3  BNZ d   1      -1.848  -0.398  -0.210  0.00  0.00     0.000 A 
ATOM      4  C4  BNZ d   1      -0.818  -0.812   0.556  0.00  0.00     0.000 A 
ATOM      5  C5  BNZ d   1      -0.887  -2.016   1.229  0.00  0.00     0.000 A 
ATOM      6  C6  BNZ d   1      -2.009  -2.804   1.114  0.00  0.00     0.000 A 
ENDROOT
TORSDOF 0
ENDMDL
