MODEL 1
REMARK minimizedAffinity -4.91266489
REMARK minimizedRMSD -1
REMARK  0 active torsions:
REMARK  status: ('A' for Active; 'I' for Inactive)
ROOT
ATOM      1  C1  BNZ d   1      -3.356  -1.768   0.394  0.00  0.00     0.000 A 
ATOM      2  C2  BNZ d   1      -2.876  -0.544   0.009  0.00  0.00     0.000 A 
ATOM      3  C3  BNZ d   1      -1.609  -0.153   0.342  0.00  0.00     0.000 A 
ATOM      4  C4  BNZ d   1      -0.839  -0.968   1.092  0.00  0.00     0.000 A 
ATOM      5  C5  BNZ d   1      -1.312  -2.201   1.495  0.00  0.00     0.000 A 
ATOM      6  C6  BNZ d   1      -2.574  -2.607   1.125  0.00  0.00     0.000 A 
ENDROOT
TORSDOF 0
ENDMDL
