MODEL 1
REMARK minimizedAffinity 4.4123044
REMARK minimizedRMSD -1
REMARK  0 active torsions:
REMARK  status: ('A' for Active; 'I' for Inactive)
ROOT
ATOM      1  C2' OXE d   1       3.244   1.988   2.866  0.00  0.00     0.078 C 
ATOM      2  C1' OXE d   1       2.233   1.321   0.334  0.00  0.00     0.078 C 
ATOM      3  C1  OXE d   1       2.168   0.272   1.416  0.00  0.00    -0.078 A 
ATOM      4  C2  OXE d   1       2.707   0.592   2.639  0.00  0.00    -0.078 A 
ATOM      5  C3  OXE d   1       2.624  -0.319   3.688  0.00  0.00     0.003 A 
ATOM      6  C4  OXE d   1       2.135  -1.613   3.467  0.00  0.00    -0.002 A 
ATOM      7  C5  OXE d   1       1.617  -1.972   2.218  0.00  0.00    -0.002 A 
ATOM      8  C6  OXE d   1       1.587  -1.029   1.196  0.00  0.00     0.003 A 
ENDROOT
TORSDOF 0
ENDMDL
