MODEL 1
REMARK minimizedAffinity 3.35438871
REMARK minimizedRMSD -1
REMARK  0 active torsions:
REMARK  status: ('A' for Active; 'I' for Inactive)
ROOT
ATOM      1  C2' OXE d   1       1.275  -2.136   1.276  0.00  0.00     0.078 C 
ATOM      2  C1' OXE d   1       1.131  -2.203  -1.526  0.00  0.00     0.078 C 
ATOM      3  C1  OXE d   1       1.670  -3.422  -0.821  0.00  0.00    -0.078 A 
ATOM      4  C2  OXE d   1       1.780  -3.363   0.548  0.00  0.00    -0.078 A 
ATOM      5  C3  OXE d   1       2.219  -4.480   1.253  0.00  0.00     0.003 A 
ATOM      6  C4  OXE d   1       2.694  -5.607   0.571  0.00  0.00    -0.002 A 
ATOM      7  C5  OXE d   1       2.627  -5.673  -0.825  0.00  0.00    -0.002 A 
ATOM      8  C6  OXE d   1       2.079  -4.608  -1.532  0.00  0.00     0.003 A 
ENDROOT
TORSDOF 0
ENDMDL
