MODEL 1
REMARK minimizedAffinity 5.78711367
REMARK minimizedRMSD -1
REMARK  0 active torsions:
REMARK  status: ('A' for Active; 'I' for Inactive)
ROOT
ATOM      1  C2' OXE d   1       0.609  -1.812   1.419  0.00  0.00     0.078 C 
ATOM      2  C1' OXE d   1      -1.760  -1.153   0.065  0.00  0.00     0.078 C 
ATOM      3  C1  OXE d   1      -0.669  -1.838  -0.720  0.00  0.00    -0.078 A 
ATOM      4  C2  OXE d   1       0.505  -2.115  -0.061  0.00  0.00    -0.078 A 
ATOM      5  C3  OXE d   1       1.523  -2.795  -0.723  0.00  0.00     0.003 A 
ATOM      6  C4  OXE d   1       1.423  -3.062  -2.093  0.00  0.00    -0.002 A 
ATOM      7  C5  OXE d   1       0.252  -2.752  -2.793  0.00  0.00    -0.002 A 
ATOM      8  C6  OXE d   1      -0.818  -2.180  -2.113  0.00  0.00     0.003 A 
ENDROOT
TORSDOF 0
ENDMDL
