MODEL 1
REMARK minimizedAffinity 9.97725582
REMARK minimizedRMSD -1
REMARK  0 active torsions:
REMARK  status: ('A' for Active; 'I' for Inactive)
ROOT
ATOM      1  C2' OXE d   1       2.637   2.190   0.556  0.00  0.00     0.078 C 
ATOM      2  C1' OXE d   1       2.598   2.361   3.358  0.00  0.00     0.078 C 
ATOM      3  C1  OXE d   1       2.456   0.995   2.734  0.00  0.00    -0.078 A 
ATOM      4  C2  OXE d   1       2.429   0.926   1.362  0.00  0.00    -0.078 A 
ATOM      5  C3  OXE d   1       2.355  -0.314   0.735  0.00  0.00     0.003 A 
ATOM      6  C4  OXE d   1       2.153  -1.478   1.488  0.00  0.00    -0.002 A 
ATOM      7  C5  OXE d   1       2.137  -1.425   2.886  0.00  0.00    -0.002 A 
ATOM      8  C6  OXE d   1       2.330  -0.205   3.524  0.00  0.00     0.003 A 
ENDROOT
TORSDOF 0
ENDMDL
