MODEL 1
REMARK minimizedAffinity 5.39038944
REMARK minimizedRMSD -1
REMARK  0 active torsions:
REMARK  status: ('A' for Active; 'I' for Inactive)
ROOT
ATOM      1  C2' OXE d   1       2.052   0.772   1.602  0.00  0.00     0.078 C 
ATOM      2  C1' OXE d   1       0.264  -1.053   0.440  0.00  0.00     0.078 C 
ATOM      3  C1  OXE d   1       0.922  -1.443   1.740  0.00  0.00    -0.078 A 
ATOM      4  C2  OXE d   1       1.831  -0.564   2.277  0.00  0.00    -0.078 A 
ATOM      5  C3  OXE d   1       2.425  -0.850   3.503  0.00  0.00     0.003 A 
ATOM      6  C4  OXE d   1       2.223  -2.093   4.116  0.00  0.00    -0.002 A 
ATOM      7  C5  OXE d   1       1.331  -3.019   3.565  0.00  0.00    -0.002 A 
ATOM      8  C6  OXE d   1       0.641  -2.693   2.402  0.00  0.00     0.003 A 
ENDROOT
TORSDOF 0
ENDMDL
