MODEL 1
REMARK minimizedAffinity 3.98463058
REMARK minimizedRMSD -1
REMARK  0 active torsions:
REMARK  status: ('A' for Active; 'I' for Inactive)
ROOT
ATOM      1  C2' OXE d   1       0.970  -1.114   0.798  0.00  0.00     0.078 C 
ATOM      2  C1' OXE d   1       1.392  -2.068  -1.808  0.00  0.00     0.078 C 
ATOM      3  C1  OXE d   1      -0.015  -1.695  -1.415  0.00  0.00    -0.078 A 
ATOM      4  C2  OXE d   1      -0.220  -1.273  -0.123  0.00  0.00    -0.078 A 
ATOM      5  C3  OXE d   1      -1.490  -0.865   0.275  0.00  0.00     0.003 A 
ATOM      6  C4  OXE d   1      -2.587  -1.024  -0.580  0.00  0.00    -0.002 A 
ATOM      7  C5  OXE d   1      -2.406  -1.489  -1.887  0.00  0.00    -0.002 A 
ATOM      8  C6  OXE d   1      -1.123  -1.788  -2.333  0.00  0.00     0.003 A 
ENDROOT
TORSDOF 0
ENDMDL
