MODEL 1
REMARK minimizedAffinity 3.30363607
REMARK minimizedRMSD -1
REMARK  0 active torsions:
REMARK  status: ('A' for Active; 'I' for Inactive)
ROOT
ATOM      1  C2' OXE d   1       2.906   1.132   0.412  0.00  0.00     0.078 C 
ATOM      2  C1' OXE d   1       1.222  -0.827   1.512  0.00  0.00     0.078 C 
ATOM      3  C1  OXE d   1       1.725  -1.040   0.106  0.00  0.00    -0.078 A 
ATOM      4  C2  OXE d   1       2.510  -0.054  -0.441  0.00  0.00    -0.078 A 
ATOM      5  C3  OXE d   1       3.045  -0.225  -1.715  0.00  0.00     0.003 A 
ATOM      6  C4  OXE d   1       2.666  -1.320  -2.501  0.00  0.00    -0.002 A 
ATOM      7  C5  OXE d   1       1.835  -2.316  -1.978  0.00  0.00    -0.002 A 
ATOM      8  C6  OXE d   1       1.391  -2.213  -0.664  0.00  0.00     0.003 A 
ENDROOT
TORSDOF 0
ENDMDL
