MODEL 1
REMARK minimizedAffinity 9.72277451
REMARK minimizedRMSD -1
REMARK  0 active torsions:
REMARK  status: ('A' for Active; 'I' for Inactive)
ROOT
ATOM      1  C2' OXE d   1       2.216  -3.783  -0.467  0.00  0.00     0.078 C 
ATOM      2  C1' OXE d   1       1.232  -2.160   1.602  0.00  0.00     0.078 C 
ATOM      3  C1  OXE d   1       0.501  -2.139   0.283  0.00  0.00    -0.078 A 
ATOM      4  C2  OXE d   1       1.016  -2.901  -0.738  0.00  0.00    -0.078 A 
ATOM      5  C3  OXE d   1       0.350  -2.960  -1.959  0.00  0.00     0.003 A 
ATOM      6  C4  OXE d   1      -0.753  -2.134  -2.205  0.00  0.00    -0.002 A 
ATOM      7  C5  OXE d   1      -1.271  -1.320  -1.191  0.00  0.00    -0.002 A 
ATOM      8  C6  OXE d   1      -0.683  -1.344   0.068  0.00  0.00     0.003 A 
ENDROOT
TORSDOF 0
ENDMDL
