MODEL 1
REMARK minimizedAffinity 4.06979227
REMARK minimizedRMSD -1
REMARK  0 active torsions:
REMARK  status: ('A' for Active; 'I' for Inactive)
ROOT
ATOM      1  C2' OXE d   1       3.124   1.860   3.344  0.00  0.00     0.078 C 
ATOM      2  C1' OXE d   1       2.622   1.532   0.602  0.00  0.00     0.078 C 
ATOM      3  C1  OXE d   1       2.235   0.406   1.528  0.00  0.00    -0.078 A 
ATOM      4  C2  OXE d   1       2.527   0.556   2.862  0.00  0.00    -0.078 A 
ATOM      5  C3  OXE d   1       2.142  -0.429   3.767  0.00  0.00     0.003 A 
ATOM      6  C4  OXE d   1       1.599  -1.637   3.311  0.00  0.00    -0.002 A 
ATOM      7  C5  OXE d   1       1.330  -1.826   1.951  0.00  0.00    -0.002 A 
ATOM      8  C6  OXE d   1       1.602  -0.800   1.054  0.00  0.00     0.003 A 
ENDROOT
TORSDOF 0
ENDMDL
