MODEL 1
REMARK minimizedAffinity 8.26681519
REMARK minimizedRMSD -1
REMARK  0 active torsions:
REMARK  status: ('A' for Active; 'I' for Inactive)
ROOT
ATOM      1  C   UNL d   1      -5.804  -2.462   4.124  0.00  0.00     0.078 C 
ATOM      2  C1  UNL d   1      -5.821  -0.989   4.404  0.00  0.00    -0.077 A 
ATOM      3  C2  UNL d   1      -5.654  -0.056   3.373  0.00  0.00    -0.001 A 
ATOM      4  C3  UNL d   1      -5.663   1.312   3.650  0.00  0.00     0.003 A 
ATOM      5  C4  UNL d   1      -5.836   1.760   4.958  0.00  0.00    -0.005 A 
ATOM      6  C5  UNL d   1      -6.000   0.839   5.991  0.00  0.00     0.003 A 
ATOM      7  C6  UNL d   1      -5.992  -0.529   5.716  0.00  0.00    -0.001 A 
ENDROOT
TORSDOF 0
ENDMDL
