MODEL 1
REMARK minimizedAffinity 8.88293934
REMARK minimizedRMSD -1
REMARK  0 active torsions:
REMARK  status: ('A' for Active; 'I' for Inactive)
ROOT
ATOM      1  C   UNL d   1       0.613   5.439  -1.073  0.00  0.00     0.078 C 
ATOM      2  C1  UNL d   1       0.120   4.537   0.018  0.00  0.00    -0.077 A 
ATOM      3  C2  UNL d   1       0.904   3.476   0.487  0.00  0.00    -0.001 A 
ATOM      4  C3  UNL d   1       0.427   2.639   1.497  0.00  0.00     0.003 A 
ATOM      5  C4  UNL d   1      -0.836   2.852   2.046  0.00  0.00    -0.005 A 
ATOM      6  C5  UNL d   1      -1.624   3.904   1.584  0.00  0.00     0.003 A 
ATOM      7  C6  UNL d   1      -1.149   4.743   0.574  0.00  0.00    -0.001 A 
ENDROOT
TORSDOF 0
ENDMDL
