MODEL 1
REMARK minimizedAffinity 6.30365324
REMARK minimizedRMSD -1
REMARK  0 active torsions:
REMARK  status: ('A' for Active; 'I' for Inactive)
ROOT
ATOM      1  C   UNL d   1      -0.007   2.989   2.479  0.00  0.00     0.078 C 
ATOM      2  C1  UNL d   1       0.081   3.835   1.244  0.00  0.00    -0.077 A 
ATOM      3  C2  UNL d   1      -0.065   5.226   1.311  0.00  0.00    -0.001 A 
ATOM      4  C3  UNL d   1       0.010   6.000   0.152  0.00  0.00     0.003 A 
ATOM      5  C4  UNL d   1       0.230   5.392  -1.083  0.00  0.00    -0.005 A 
ATOM      6  C5  UNL d   1       0.374   4.008  -1.159  0.00  0.00     0.003 A 
ATOM      7  C6  UNL d   1       0.299   3.232  -0.001  0.00  0.00    -0.001 A 
ENDROOT
TORSDOF 0
ENDMDL
