MODEL 1
REMARK minimizedAffinity 7.77996302
REMARK minimizedRMSD -1
REMARK  0 active torsions:
REMARK  status: ('A' for Active; 'I' for Inactive)
ROOT
ATOM      1  C   UNL d   1      -0.048   3.122   0.268  0.00  0.00     0.078 C 
ATOM      2  C1  UNL d   1      -0.548   1.913  -0.466  0.00  0.00    -0.077 A 
ATOM      3  C2  UNL d   1       0.343   1.001  -1.045  0.00  0.00    -0.001 A 
ATOM      4  C3  UNL d   1      -0.137  -0.114  -1.733  0.00  0.00     0.003 A 
ATOM      5  C4  UNL d   1      -1.509  -0.327  -1.851  0.00  0.00    -0.005 A 
ATOM      6  C5  UNL d   1      -2.403   0.576  -1.280  0.00  0.00     0.003 A 
ATOM      7  C6  UNL d   1      -1.925   1.692  -0.591  0.00  0.00    -0.001 A 
ENDROOT
TORSDOF 0
ENDMDL
