MODEL 1
REMARK minimizedAffinity 9.93786907
REMARK minimizedRMSD -1
REMARK  0 active torsions:
REMARK  status: ('A' for Active; 'I' for Inactive)
ROOT
ATOM      1  C   UNL d   1      -0.394   1.833   3.344  0.00  0.00     0.078 C 
ATOM      2  C1  UNL d   1       0.233   2.688   2.283  0.00  0.00    -0.077 A 
ATOM      3  C2  UNL d   1      -0.306   2.746   0.992  0.00  0.00    -0.001 A 
ATOM      4  C3  UNL d   1       0.293   3.538   0.011  0.00  0.00     0.003 A 
ATOM      5  C4  UNL d   1       1.436   4.277   0.311  0.00  0.00    -0.005 A 
ATOM      6  C5  UNL d   1       1.981   4.224   1.592  0.00  0.00     0.003 A 
ATOM      7  C6  UNL d   1       1.383   3.432   2.574  0.00  0.00    -0.001 A 
ENDROOT
TORSDOF 0
ENDMDL
