MODEL 1
REMARK minimizedAffinity -0.934869885
REMARK minimizedRMSD -1
REMARK  0 active torsions:
REMARK  status: ('A' for Active; 'I' for Inactive)
ROOT
ATOM      1  C   UNL d   1      -1.954   5.976   2.445  0.00  0.00     0.078 C 
ATOM      2  C1  UNL d   1      -1.149   5.343   1.351  0.00  0.00    -0.077 A 
ATOM      3  C2  UNL d   1      -0.989   5.977   0.112  0.00  0.00    -0.001 A 
ATOM      4  C3  UNL d   1      -0.244   5.371  -0.901  0.00  0.00     0.003 A 
ATOM      5  C4  UNL d   1       0.346   4.127  -0.686  0.00  0.00    -0.005 A 
ATOM      6  C5  UNL d   1       0.191   3.487   0.542  0.00  0.00     0.003 A 
ATOM      7  C6  UNL d   1      -0.553   4.092   1.556  0.00  0.00    -0.001 A 
ENDROOT
TORSDOF 0
ENDMDL
