MODEL 1
REMARK minimizedAffinity 7.72565126
REMARK minimizedRMSD -1
REMARK  0 active torsions:
REMARK  status: ('A' for Active; 'I' for Inactive)
ROOT
ATOM      1  C   UNL d   1       0.667   5.410  -2.070  0.00  0.00     0.078 C 
ATOM      2  C1  UNL d   1       0.074   5.043  -0.742  0.00  0.00    -0.077 A 
ATOM      3  C2  UNL d   1       0.207   3.747  -0.227  0.00  0.00    -0.001 A 
ATOM      4  C3  UNL d   1      -0.359   3.416   1.005  0.00  0.00     0.003 A 
ATOM      5  C4  UNL d   1      -1.062   4.375   1.732  0.00  0.00    -0.005 A 
ATOM      6  C5  UNL d   1      -1.201   5.666   1.227  0.00  0.00     0.003 A 
ATOM      7  C6  UNL d   1      -0.636   5.999  -0.006  0.00  0.00    -0.001 A 
ENDROOT
TORSDOF 0
ENDMDL
