MODEL 1
REMARK minimizedAffinity 0.89097327
REMARK minimizedRMSD -1
REMARK  0 active torsions:
REMARK  status: ('A' for Active; 'I' for Inactive)
ROOT
ATOM      1  C   UNL d   1      -2.272   6.000   1.997  0.00  0.00     0.078 C 
ATOM      2  C1  UNL d   1      -1.205   5.355   1.163  0.00  0.00    -0.077 A 
ATOM      3  C2  UNL d   1      -0.685   5.999   0.034  0.00  0.00    -0.001 A 
ATOM      4  C3  UNL d   1       0.301   5.384  -0.739  0.00  0.00     0.003 A 
ATOM      5  C4  UNL d   1       0.775   4.120  -0.391  0.00  0.00    -0.005 A 
ATOM      6  C5  UNL d   1       0.262   3.471   0.730  0.00  0.00     0.003 A 
ATOM      7  C6  UNL d   1      -0.725   4.085   1.503  0.00  0.00    -0.001 A 
ENDROOT
TORSDOF 0
ENDMDL
