MODEL 1
REMARK minimizedAffinity 8.63761902
REMARK minimizedRMSD -1
REMARK  0 active torsions:
REMARK  status: ('A' for Active; 'I' for Inactive)
ROOT
ATOM      1  C   UNL d   1      -1.613  -0.672  -1.075  0.00  0.00     0.078 C 
ATOM      2  C1  UNL d   1      -2.609  -0.409   0.015  0.00  0.00    -0.077 A 
ATOM      3  C2  UNL d   1      -3.383   0.758   0.018  0.00  0.00    -0.001 A 
ATOM      4  C3  UNL d   1      -4.300   0.995   1.044  0.00  0.00     0.003 A 
ATOM      5  C4  UNL d   1      -4.450   0.069   2.074  0.00  0.00    -0.005 A 
ATOM      6  C5  UNL d   1      -3.683  -1.094   2.081  0.00  0.00     0.003 A 
ATOM      7  C6  UNL d   1      -2.766  -1.332   1.056  0.00  0.00    -0.001 A 
ENDROOT
TORSDOF 0
ENDMDL
