MODEL 1
REMARK minimizedAffinity 8.56662846
REMARK minimizedRMSD -1
REMARK  0 active torsions:
REMARK  status: ('A' for Active; 'I' for Inactive)
ROOT
ATOM      1  C   UNL d   1      -2.808   1.308  -4.477  0.00  0.00     0.078 C 
ATOM      2  C1  UNL d   1      -2.292   0.566  -3.280  0.00  0.00    -0.077 A 
ATOM      3  C2  UNL d   1      -2.844   0.773  -2.010  0.00  0.00    -0.001 A 
ATOM      4  C3  UNL d   1      -2.347   0.083  -0.903  0.00  0.00     0.003 A 
ATOM      5  C4  UNL d   1      -1.295  -0.818  -1.055  0.00  0.00    -0.005 A 
ATOM      6  C5  UNL d   1      -0.738  -1.029  -2.314  0.00  0.00     0.003 A 
ATOM      7  C6  UNL d   1      -1.233  -0.340  -3.422  0.00  0.00    -0.001 A 
ENDROOT
TORSDOF 0
ENDMDL
