MODEL 1
REMARK minimizedAffinity 3.72050047
REMARK minimizedRMSD -1
REMARK  0 active torsions:
REMARK  status: ('A' for Active; 'I' for Inactive)
ROOT
ATOM      1  C   UNL d   1      -5.999  -2.629   4.764  0.00  0.00     0.078 C 
ATOM      2  C1  UNL d   1      -5.298  -1.500   4.069  0.00  0.00    -0.077 A 
ATOM      3  C2  UNL d   1      -5.998  -0.357   3.663  0.00  0.00    -0.001 A 
ATOM      4  C3  UNL d   1      -5.335   0.682   3.008  0.00  0.00     0.003 A 
ATOM      5  C4  UNL d   1      -3.969   0.588   2.752  0.00  0.00    -0.005 A 
ATOM      6  C5  UNL d   1      -3.264  -0.547   3.150  0.00  0.00     0.003 A 
ATOM      7  C6  UNL d   1      -3.926  -1.586   3.805  0.00  0.00    -0.001 A 
ENDROOT
TORSDOF 0
ENDMDL
