MODEL 1
REMARK minimizedAffinity -2.95716953
REMARK minimizedRMSD -1
REMARK  0 active torsions:
REMARK  status: ('A' for Active; 'I' for Inactive)
ROOT
ATOM      1  C   UNL d   1      -2.250   2.234   2.710  0.00  0.00     0.172 C 
ATOM      2  N   UNL d   1      -1.223   1.511   1.998  0.00  0.00    -0.070 N 
ATOM      3  C1  UNL d   1      -1.150   0.150   1.866  0.00  0.00    -0.004 A 
ATOM      4  C2  UNL d   1      -0.029  -0.142   1.120  0.00  0.00    -0.047 A 
ATOM      5  C3  UNL d   1       0.594   1.085   0.792  0.00  0.00    -0.047 A 
ATOM      6  C4  UNL d   1      -0.166   2.093   1.348  0.00  0.00    -0.004 A 
ENDROOT
TORSDOF 0
ENDMDL
