MODEL 1
REMARK minimizedAffinity 1.53361988
REMARK minimizedRMSD -1
REMARK  0 active torsions:
REMARK  status: ('A' for Active; 'I' for Inactive)
ROOT
ATOM      1  C   UNL d   1      -2.935  -1.945  -2.313  0.00  0.00     0.172 C 
ATOM      2  N   UNL d   1      -3.138  -3.171  -1.576  0.00  0.00    -0.070 N 
ATOM      3  C1  UNL d   1      -2.276  -4.234  -1.543  0.00  0.00    -0.004 A 
ATOM      4  C2  UNL d   1      -2.829  -5.201  -0.732  0.00  0.00    -0.047 A 
ATOM      5  C3  UNL d   1      -4.067  -4.702  -0.262  0.00  0.00    -0.047 A 
ATOM      6  C4  UNL d   1      -4.233  -3.443  -0.800  0.00  0.00    -0.004 A 
ENDROOT
TORSDOF 0
ENDMDL
