MODEL 1
REMARK minimizedAffinity -0.454284787
REMARK minimizedRMSD -1
REMARK  0 active torsions:
REMARK  status: ('A' for Active; 'I' for Inactive)
ROOT
ATOM      1  C   UNL d   1      -2.915   2.005   2.685  0.00  0.00     0.172 C 
ATOM      2  N   UNL d   1      -1.730   1.532   2.009  0.00  0.00    -0.070 N 
ATOM      3  C1  UNL d   1      -0.676   2.308   1.608  0.00  0.00    -0.004 A 
ATOM      4  C2  UNL d   1       0.249   1.484   1.004  0.00  0.00    -0.047 A 
ATOM      5  C3  UNL d   1      -0.267   0.167   1.043  0.00  0.00    -0.047 A 
ATOM      6  C4  UNL d   1      -1.494   0.226   1.670  0.00  0.00    -0.004 A 
ENDROOT
TORSDOF 0
ENDMDL
