MODEL 1
REMARK minimizedAffinity -3.7320497
REMARK minimizedRMSD -1
REMARK  0 active torsions:
REMARK  status: ('A' for Active; 'I' for Inactive)
ROOT
ATOM      1  C   UNL d   1      -1.184  -0.827   1.519  0.00  0.00     0.172 C 
ATOM      2  N   UNL d   1      -0.548   0.460   1.364  0.00  0.00    -0.070 N 
ATOM      3  C1  UNL d   1      -0.951   1.626   1.959  0.00  0.00    -0.004 A 
ATOM      4  C2  UNL d   1      -0.086   2.623   1.560  0.00  0.00    -0.047 A 
ATOM      5  C3  UNL d   1       0.868   2.036   0.696  0.00  0.00    -0.047 A 
ATOM      6  C4  UNL d   1       0.558   0.696   0.592  0.00  0.00    -0.004 A 
ENDROOT
TORSDOF 0
ENDMDL
