MODEL 1
REMARK minimizedAffinity 3.87627482
REMARK minimizedRMSD -1
REMARK  0 active torsions:
REMARK  status: ('A' for Active; 'I' for Inactive)
ROOT
ATOM      1  C   UNL d   1      -3.012   2.499   2.914  0.00  0.00     0.172 C 
ATOM      2  N   UNL d   1      -1.901   1.931   2.188  0.00  0.00    -0.070 N 
ATOM      3  C1  UNL d   1      -0.819   2.624   1.713  0.00  0.00    -0.004 A 
ATOM      4  C2  UNL d   1       0.013   1.726   1.081  0.00  0.00    -0.047 A 
ATOM      5  C3  UNL d   1      -0.589   0.449   1.178  0.00  0.00    -0.047 A 
ATOM      6  C4  UNL d   1      -1.773   0.605   1.868  0.00  0.00    -0.004 A 
ENDROOT
TORSDOF 0
ENDMDL
