MODEL 1
REMARK minimizedAffinity 4.77085733
REMARK minimizedRMSD -1
REMARK  0 active torsions:
REMARK  status: ('A' for Active; 'I' for Inactive)
ROOT
ATOM      1  C   UNL d   1       3.374   3.365  -3.460  0.00  0.00     0.172 C 
ATOM      2  N   UNL d   1       3.544   4.359  -4.493  0.00  0.00    -0.070 N 
ATOM      3  C1  UNL d   1       2.542   5.101  -5.060  0.00  0.00    -0.004 A 
ATOM      4  C2  UNL d   1       3.112   5.932  -6.000  0.00  0.00    -0.047 A 
ATOM      5  C3  UNL d   1       4.504   5.681  -5.999  0.00  0.00    -0.047 A 
ATOM      6  C4  UNL d   1       4.744   4.703  -5.057  0.00  0.00    -0.004 A 
ENDROOT
TORSDOF 0
ENDMDL
