MODEL 1
REMARK minimizedAffinity -0.933290839
REMARK minimizedRMSD -1
REMARK  0 active torsions:
REMARK  status: ('A' for Active; 'I' for Inactive)
ROOT
ATOM      1  C   UNL d   1      -2.105   2.348   2.805  0.00  0.00     0.172 C 
ATOM      2  N   UNL d   1      -1.252   1.568   1.939  0.00  0.00    -0.070 N 
ATOM      3  C1  UNL d   1      -1.034   0.220   2.037  0.00  0.00    -0.004 A 
ATOM      4  C2  UNL d   1      -0.163  -0.141   1.031  0.00  0.00    -0.047 A 
ATOM      5  C3  UNL d   1       0.153   1.032   0.304  0.00  0.00    -0.047 A 
ATOM      6  C4  UNL d   1      -0.535   2.075   0.888  0.00  0.00    -0.004 A 
ENDROOT
TORSDOF 0
ENDMDL
