MODEL 1
REMARK minimizedAffinity -0.496004462
REMARK minimizedRMSD -1
REMARK  0 active torsions:
REMARK  status: ('A' for Active; 'I' for Inactive)
ROOT
ATOM      1  C   UNL d   1      -1.254  -1.212   2.439  0.00  0.00     0.172 C 
ATOM      2  N   UNL d   1      -0.748   0.004   1.848  0.00  0.00    -0.070 N 
ATOM      3  C1  UNL d   1      -1.379   1.220   1.857  0.00  0.00    -0.004 A 
ATOM      4  C2  UNL d   1      -0.574   2.119   1.192  0.00  0.00    -0.047 A 
ATOM      5  C3  UNL d   1       0.580   1.419   0.767  0.00  0.00    -0.047 A 
ATOM      6  C4  UNL d   1       0.446   0.112   1.186  0.00  0.00    -0.004 A 
ENDROOT
TORSDOF 0
ENDMDL
