MODEL 1
REMARK minimizedAffinity -4.01129055
REMARK minimizedRMSD -1
REMARK  0 active torsions:
REMARK  status: ('A' for Active; 'I' for Inactive)
ROOT
ATOM      1  C   UNL d   1       1.494   0.760   0.759  0.00  0.00     0.172 C 
ATOM      2  N   UNL d   1       0.074   0.652   0.998  0.00  0.00    -0.070 N 
ATOM      3  C1  UNL d   1      -0.807   1.698   1.058  0.00  0.00    -0.004 A 
ATOM      4  C2  UNL d   1      -2.061   1.180   1.302  0.00  0.00    -0.047 A 
ATOM      5  C3  UNL d   1      -1.928  -0.226   1.393  0.00  0.00    -0.047 A 
ATOM      6  C4  UNL d   1      -0.596  -0.526   1.201  0.00  0.00    -0.004 A 
ENDROOT
TORSDOF 0
ENDMDL
