MODEL 1
REMARK minimizedAffinity -2.71921611
REMARK minimizedRMSD -1
REMARK  0 active torsions:
REMARK  status: ('A' for Active; 'I' for Inactive)
ROOT
ATOM      1  C   UNL d   1      -1.933   2.330   2.536  0.00  0.00     0.172 C 
ATOM      2  N   UNL d   1      -0.851   1.665   1.849  0.00  0.00    -0.070 N 
ATOM      3  C1  UNL d   1      -0.987   0.664   0.925  0.00  0.00    -0.004 A 
ATOM      4  C2  UNL d   1       0.275   0.301   0.507  0.00  0.00    -0.047 A 
ATOM      5  C3  UNL d   1       1.202   1.112   1.205  0.00  0.00    -0.047 A 
ATOM      6  C4  UNL d   1       0.478   1.947   2.029  0.00  0.00    -0.004 A 
ENDROOT
TORSDOF 0
ENDMDL
