MODEL 1
REMARK minimizedAffinity 3.08230758
REMARK minimizedRMSD -1
REMARK  0 active torsions:
REMARK  status: ('A' for Active; 'I' for Inactive)
ROOT
ATOM      1  C   UNL d   1      -4.084  -4.629  -0.501  0.00  0.00     0.172 C 
ATOM      2  N   UNL d   1      -3.969  -3.456  -1.336  0.00  0.00    -0.070 N 
ATOM      3  C1  UNL d   1      -3.998  -2.159  -0.898  0.00  0.00    -0.004 A 
ATOM      4  C2  UNL d   1      -3.856  -1.339  -1.997  0.00  0.00    -0.047 A 
ATOM      5  C3  UNL d   1      -3.740  -2.172  -3.134  0.00  0.00    -0.047 A 
ATOM      6  C4  UNL d   1      -3.812  -3.478  -2.696  0.00  0.00    -0.004 A 
ENDROOT
TORSDOF 0
ENDMDL
