MODEL 1
REMARK minimizedAffinity -2.7897141
REMARK minimizedRMSD -1
REMARK  0 active torsions:
REMARK  status: ('A' for Active; 'I' for Inactive)
ROOT
ATOM      1  C   UNL d   1       1.384   3.192   0.470  0.00  0.00     0.172 C 
ATOM      2  N   UNL d   1       0.197   2.477   0.876  0.00  0.00    -0.070 N 
ATOM      3  C1  UNL d   1      -1.010   3.045   1.187  0.00  0.00    -0.004 A 
ATOM      4  C2  UNL d   1      -1.880   2.030   1.523  0.00  0.00    -0.047 A 
ATOM      5  C3  UNL d   1      -1.171   0.810   1.411  0.00  0.00    -0.047 A 
ATOM      6  C4  UNL d   1       0.112   1.116   1.009  0.00  0.00    -0.004 A 
ENDROOT
TORSDOF 0
ENDMDL
