MODEL 1
REMARK minimizedAffinity -1.54183614
REMARK minimizedRMSD -1
REMARK  0 active torsions:
REMARK  status: ('A' for Active; 'I' for Inactive)
ROOT
ATOM      1  C   UNL d   1      -0.405  -0.744   0.730  0.00  0.00     0.172 C 
ATOM      2  N   UNL d   1      -0.745   0.551   1.272  0.00  0.00    -0.070 N 
ATOM      3  C1  UNL d   1      -1.918   0.869   1.901  0.00  0.00    -0.004 A 
ATOM      4  C2  UNL d   1      -1.853   2.196   2.270  0.00  0.00    -0.047 A 
ATOM      5  C3  UNL d   1      -0.597   2.692   1.846  0.00  0.00    -0.047 A 
ATOM      6  C4  UNL d   1       0.069   1.652   1.232  0.00  0.00    -0.004 A 
ENDROOT
TORSDOF 0
ENDMDL
