MODEL 1
REMARK minimizedAffinity 0.133465961
REMARK minimizedRMSD -1
REMARK  0 active torsions:
REMARK  status: ('A' for Active; 'I' for Inactive)
ROOT
ATOM      1  C   UNL d   1      -2.068   2.557   1.646  0.00  0.00     0.172 C 
ATOM      2  N   UNL d   1      -1.088   1.540   1.346  0.00  0.00    -0.070 N 
ATOM      3  C1  UNL d   1       0.076   1.732   0.650  0.00  0.00    -0.004 A 
ATOM      4  C2  UNL d   1       0.730   0.521   0.580  0.00  0.00    -0.047 A 
ATOM      5  C3  UNL d   1      -0.068  -0.432   1.255  0.00  0.00    -0.047 A 
ATOM      6  C4  UNL d   1      -1.188   0.225   1.720  0.00  0.00    -0.004 A 
ENDROOT
TORSDOF 0
ENDMDL
