MODEL 1
REMARK minimizedAffinity -0.889040351
REMARK minimizedRMSD -1
REMARK  0 active torsions:
REMARK  status: ('A' for Active; 'I' for Inactive)
ROOT
ATOM      1  C   UNL d   1      -2.960  -2.626  -3.111  0.00  0.00     0.172 C 
ATOM      2  N   UNL d   1      -3.266  -3.588  -2.078  0.00  0.00    -0.070 N 
ATOM      3  C1  UNL d   1      -2.937  -4.917  -2.102  0.00  0.00    -0.004 A 
ATOM      4  C2  UNL d   1      -3.403  -5.488  -0.937  0.00  0.00    -0.047 A 
ATOM      5  C3  UNL d   1      -4.034  -4.467  -0.188  0.00  0.00    -0.047 A 
ATOM      6  C4  UNL d   1      -3.935  -3.301  -0.918  0.00  0.00    -0.004 A 
ENDROOT
TORSDOF 0
ENDMDL
