MODEL 1
REMARK minimizedAffinity -3.23632336
REMARK minimizedRMSD -1
REMARK  0 active torsions:
REMARK  status: ('A' for Active; 'I' for Inactive)
ROOT
ATOM      1  C   UNL d   1      -2.493   2.141   2.038  0.00  0.00     0.172 C 
ATOM      2  N   UNL d   1      -1.462   1.209   1.645  0.00  0.00    -0.070 N 
ATOM      3  C1  UNL d   1      -1.611  -0.148   1.540  0.00  0.00    -0.004 A 
ATOM      4  C2  UNL d   1      -0.403  -0.676   1.139  0.00  0.00    -0.047 A 
ATOM      5  C3  UNL d   1       0.504   0.402   0.999  0.00  0.00    -0.047 A 
ATOM      6  C4  UNL d   1      -0.178   1.557   1.318  0.00  0.00    -0.004 A 
ENDROOT
TORSDOF 0
ENDMDL
