MODEL 1
REMARK minimizedAffinity -2.13847351
REMARK minimizedRMSD -1
REMARK  0 active torsions:
REMARK  status: ('A' for Active; 'I' for Inactive)
ROOT
ATOM      1  C   UNL d   1      -1.882   2.842   1.829  0.00  0.00     0.172 C 
ATOM      2  N   UNL d   1      -0.986   1.729   1.622  0.00  0.00    -0.070 N 
ATOM      3  C1  UNL d   1       0.330   1.821   1.257  0.00  0.00    -0.004 A 
ATOM      4  C2  UNL d   1       0.833   0.541   1.165  0.00  0.00    -0.047 A 
ATOM      5  C3  UNL d   1      -0.218  -0.351   1.485  0.00  0.00    -0.047 A 
ATOM      6  C4  UNL d   1      -1.333   0.411   1.764  0.00  0.00    -0.004 A 
ENDROOT
TORSDOF 0
ENDMDL
