MODEL 1
REMARK minimizedAffinity -3.77493119
REMARK minimizedRMSD -1
REMARK  1 active torsions:
REMARK  status: ('A' for Active; 'I' for Inactive)
REMARK    1  A    between atoms: C1_2  and  C2_3 
ROOT
ATOM      1  C2  UNL d   1      -0.064  -0.023  -0.617  0.00  0.00    -0.076 A 
ATOM      2  C3  UNL d   1       0.255  -1.249  -0.007  0.00  0.00     0.004 A 
ATOM      3  C4  UNL d   1       1.390  -1.964  -0.384  0.00  0.00    -0.003 A 
ATOM      4  C5  UNL d   1       2.226  -1.464  -1.376  0.00  0.00     0.000 A 
ATOM      5  C6  UNL d   1       1.936  -0.241  -1.980  0.00  0.00     0.000 A 
ATOM      6  C7  UNL d   1       0.804   0.500  -1.600  0.00  0.00    -0.073 A 
ATOM      7  C8  UNL d   1       0.535   1.811  -2.288  0.00  0.00     0.078 C 
ENDROOT
BRANCH   1   8
ATOM      8  C1  UNL d   1      -1.323   0.695  -0.187  0.00  0.00     0.053 C 
ATOM      9  C   UNL d   1      -1.708   0.384   1.251  0.00  0.00     0.018 C 
ENDBRANCH   1   8
TORSDOF 1
ENDMDL
