MODEL 1
REMARK minimizedAffinity -2.05288076
REMARK minimizedRMSD -1
REMARK  1 active torsions:
REMARK  status: ('A' for Active; 'I' for Inactive)
REMARK    1  A    between atoms: C1_2  and  C2_3 
ROOT
ATOM      1  C2  UNL d   1      -2.866  -0.008   2.498  0.00  0.00    -0.076 A 
ATOM      2  C3  UNL d   1      -3.869  -0.837   1.968  0.00  0.00     0.004 A 
ATOM      3  C4  UNL d   1      -4.623  -1.670   2.793  0.00  0.00    -0.003 A 
ATOM      4  C5  UNL d   1      -4.385  -1.687   4.163  0.00  0.00     0.000 A 
ATOM      5  C6  UNL d   1      -3.406  -0.857   4.709  0.00  0.00     0.000 A 
ATOM      6  C7  UNL d   1      -2.649   0.000   3.892  0.00  0.00    -0.073 A 
ATOM      7  C8  UNL d   1      -1.601   0.869   4.533  0.00  0.00     0.078 C 
ENDROOT
BRANCH   1   8
ATOM      8  C1  UNL d   1      -2.063   0.854   1.550  0.00  0.00     0.053 C 
ATOM      9  C   UNL d   1      -1.036   0.054   0.763  0.00  0.00     0.018 C 
ENDBRANCH   1   8
TORSDOF 1
ENDMDL
