MODEL 1
REMARK minimizedAffinity -0.819589853
REMARK minimizedRMSD -1
REMARK  1 active torsions:
REMARK  status: ('A' for Active; 'I' for Inactive)
REMARK    1  A    between atoms: C1_2  and  C2_3 
ROOT
ATOM      1  C2  UNL d   1      -1.486   0.580   1.290  0.00  0.00    -0.076 A 
ATOM      2  C3  UNL d   1      -0.827   1.767   1.652  0.00  0.00     0.004 A 
ATOM      3  C4  UNL d   1      -1.138   2.426   2.841  0.00  0.00    -0.003 A 
ATOM      4  C5  UNL d   1      -2.113   1.907   3.686  0.00  0.00     0.000 A 
ATOM      5  C6  UNL d   1      -2.764   0.721   3.351  0.00  0.00     0.000 A 
ATOM      6  C7  UNL d   1      -2.451   0.036   2.164  0.00  0.00    -0.073 A 
ATOM      7  C8  UNL d   1      -3.189  -1.237   1.849  0.00  0.00     0.078 C 
ENDROOT
BRANCH   1   8
ATOM      8  C1  UNL d   1      -1.126  -0.076  -0.025  0.00  0.00     0.053 C 
ATOM      9  C   UNL d   1       0.211  -0.798   0.032  0.00  0.00     0.018 C 
ENDBRANCH   1   8
TORSDOF 1
ENDMDL
