MODEL 1
REMARK minimizedAffinity -4.18742418
REMARK minimizedRMSD -1
REMARK  1 active torsions:
REMARK  status: ('A' for Active; 'I' for Inactive)
REMARK    1  A    between atoms: C1_2  and  C2_3 
ROOT
ATOM      1  C2  UNL d   1      -0.756   0.066   0.164  0.00  0.00    -0.076 A 
ATOM      2  C3  UNL d   1       0.278   1.015   0.089  0.00  0.00     0.004 A 
ATOM      3  C4  UNL d   1       1.573   0.639  -0.266  0.00  0.00    -0.003 A 
ATOM      4  C5  UNL d   1       1.854  -0.692  -0.552  0.00  0.00     0.000 A 
ATOM      5  C6  UNL d   1       0.837  -1.644  -0.499  0.00  0.00     0.000 A 
ATOM      6  C7  UNL d   1      -0.477  -1.279  -0.159  0.00  0.00    -0.073 A 
ATOM      7  C8  UNL d   1      -1.534  -2.349  -0.112  0.00  0.00     0.078 C 
ENDROOT
BRANCH   1   8
ATOM      8  C1  UNL d   1      -2.134   0.528   0.581  0.00  0.00     0.053 C 
ATOM      9  C   UNL d   1      -2.123   1.271   1.908  0.00  0.00     0.018 C 
ENDBRANCH   1   8
TORSDOF 1
ENDMDL
