MODEL 1
REMARK minimizedAffinity -5.17900085
REMARK minimizedRMSD -1
REMARK  1 active torsions:
REMARK  status: ('A' for Active; 'I' for Inactive)
REMARK    1  A    between atoms: C1_2  and  C2_3 
ROOT
ATOM      1  C2  UNL d   1       0.000  -0.105  -0.306  0.00  0.00    -0.076 A 
ATOM      2  C3  UNL d   1       1.133   0.708  -0.486  0.00  0.00     0.004 A 
ATOM      3  C4  UNL d   1       2.365   0.155  -0.832  0.00  0.00    -0.003 A 
ATOM      4  C5  UNL d   1       2.484  -1.219  -1.003  0.00  0.00     0.000 A 
ATOM      5  C6  UNL d   1       1.367  -2.039  -0.845  0.00  0.00     0.000 A 
ATOM      6  C7  UNL d   1       0.114  -1.496  -0.513  0.00  0.00    -0.073 A 
ATOM      7  C8  UNL d   1      -1.056  -2.427  -0.349  0.00  0.00     0.078 C 
ENDROOT
BRANCH   1   8
ATOM      8  C1  UNL d   1      -1.303   0.548   0.095  0.00  0.00     0.053 C 
ATOM      9  C   UNL d   1      -1.349   0.898   1.575  0.00  0.00     0.018 C 
ENDBRANCH   1   8
TORSDOF 1
ENDMDL
