MODEL 1
REMARK minimizedAffinity -4.35525179
REMARK minimizedRMSD -1
REMARK  1 active torsions:
REMARK  status: ('A' for Active; 'I' for Inactive)
REMARK    1  A    between atoms: C1_2  and  C2_3 
ROOT
ATOM      1  C2  UNL d   1       0.682   0.470  -0.777  0.00  0.00    -0.076 A 
ATOM      2  C3  UNL d   1       1.181   1.564  -1.504  0.00  0.00     0.004 A 
ATOM      3  C4  UNL d   1       2.317   1.437  -2.303  0.00  0.00    -0.003 A 
ATOM      4  C5  UNL d   1       2.971   0.213  -2.387  0.00  0.00     0.000 A 
ATOM      5  C6  UNL d   1       2.479  -0.888  -1.686  0.00  0.00     0.000 A 
ATOM      6  C7  UNL d   1       1.326  -0.781  -0.890  0.00  0.00    -0.073 A 
ATOM      7  C8  UNL d   1       0.844  -1.999  -0.150  0.00  0.00     0.078 C 
ENDROOT
BRANCH   1   8
ATOM      8  C1  UNL d   1      -0.537   0.674   0.094  0.00  0.00     0.053 C 
ATOM      9  C   UNL d   1      -1.673   1.364  -0.646  0.00  0.00     0.018 C 
ENDBRANCH   1   8
TORSDOF 1
ENDMDL
