MODEL 1
REMARK minimizedAffinity -5.53993845
REMARK minimizedRMSD -1
REMARK  1 active torsions:
REMARK  status: ('A' for Active; 'I' for Inactive)
REMARK    1  A    between atoms: C1_2  and  C2_3 
ROOT
ATOM      1  C2  UNL d   1       0.056   0.208  -0.469  0.00  0.00    -0.076 A 
ATOM      2  C3  UNL d   1       0.674   1.236  -1.202  0.00  0.00     0.004 A 
ATOM      3  C4  UNL d   1       1.951   1.069  -1.735  0.00  0.00    -0.003 A 
ATOM      4  C5  UNL d   1       2.631  -0.129  -1.543  0.00  0.00     0.000 A 
ATOM      5  C6  UNL d   1       2.026  -1.165  -0.833  0.00  0.00     0.000 A 
ATOM      6  C7  UNL d   1       0.733  -1.019  -0.303  0.00  0.00    -0.073 A 
ATOM      7  C8  UNL d   1       0.131  -2.168   0.460  0.00  0.00     0.078 C 
ENDROOT
BRANCH   1   8
ATOM      8  C1  UNL d   1      -1.319   0.456   0.108  0.00  0.00     0.053 C 
ATOM      9  C   UNL d   1      -1.272   1.233   1.415  0.00  0.00     0.018 C 
ENDBRANCH   1   8
TORSDOF 1
ENDMDL
