MODEL 1
REMARK minimizedAffinity -4.78546667
REMARK minimizedRMSD -1
REMARK  1 active torsions:
REMARK  status: ('A' for Active; 'I' for Inactive)
REMARK    1  A    between atoms: C1_2  and  C2_3 
ROOT
ATOM      1  C2  UNL d   1       1.020   0.053  -0.785  0.00  0.00    -0.076 A 
ATOM      2  C3  UNL d   1       0.256  -1.054  -0.378  0.00  0.00     0.004 A 
ATOM      3  C4  UNL d   1      -1.087  -0.910  -0.031  0.00  0.00    -0.003 A 
ATOM      4  C5  UNL d   1      -1.687   0.342  -0.088  0.00  0.00     0.000 A 
ATOM      5  C6  UNL d   1      -0.949   1.449  -0.507  0.00  0.00     0.000 A 
ATOM      6  C7  UNL d   1       0.401   1.318  -0.875  0.00  0.00    -0.073 A 
ATOM      7  C8  UNL d   1       1.152   2.546  -1.314  0.00  0.00     0.078 C 
ENDROOT
BRANCH   1   8
ATOM      8  C1  UNL d   1       2.479  -0.159  -1.122  0.00  0.00     0.053 C 
ATOM      9  C   UNL d   1       2.676  -1.153  -2.256  0.00  0.00     0.018 C 
ENDBRANCH   1   8
TORSDOF 1
ENDMDL
