MODEL 1
REMARK minimizedAffinity -0.619676471
REMARK minimizedRMSD -1
REMARK  1 active torsions:
REMARK  status: ('A' for Active; 'I' for Inactive)
REMARK    1  A    between atoms: C1_2  and  C2_3 
ROOT
ATOM      1  C2  UNL d   1       1.049   0.505  -0.659  0.00  0.00    -0.076 A 
ATOM      2  C3  UNL d   1       0.177  -0.474  -0.154  0.00  0.00     0.004 A 
ATOM      3  C4  UNL d   1      -1.200  -0.258  -0.116  0.00  0.00    -0.003 A 
ATOM      4  C5  UNL d   1      -1.726   0.941  -0.584  0.00  0.00     0.000 A 
ATOM      5  C6  UNL d   1      -0.877   1.917  -1.105  0.00  0.00     0.000 A 
ATOM      6  C7  UNL d   1       0.512   1.708  -1.165  0.00  0.00    -0.073 A 
ATOM      7  C8  UNL d   1       1.381   2.797  -1.731  0.00  0.00     0.078 C 
ENDROOT
BRANCH   1   8
ATOM      8  C1  UNL d   1       2.535   0.226  -0.649  0.00  0.00     0.053 C 
ATOM      9  C   UNL d   1       2.948  -0.769  -1.723  0.00  0.00     0.018 C 
ENDBRANCH   1   8
TORSDOF 1
ENDMDL
