MODEL 1
REMARK minimizedAffinity -5.53520584
REMARK minimizedRMSD -1
REMARK  1 active torsions:
REMARK  status: ('A' for Active; 'I' for Inactive)
REMARK    1  A    between atoms: C1_2  and  C2_3 
ROOT
ATOM      1  C2  UNL d   1       0.747   0.215  -1.016  0.00  0.00    -0.076 A 
ATOM      2  C3  UNL d   1       0.722   1.368  -1.820  0.00  0.00     0.004 A 
ATOM      3  C4  UNL d   1       1.782   1.672  -2.671  0.00  0.00    -0.003 A 
ATOM      4  C5  UNL d   1       2.885   0.828  -2.733  0.00  0.00     0.000 A 
ATOM      5  C6  UNL d   1       2.919  -0.329  -1.956  0.00  0.00     0.000 A 
ATOM      6  C7  UNL d   1       1.851  -0.659  -1.104  0.00  0.00    -0.073 A 
ATOM      7  C8  UNL d   1       1.943  -1.916  -0.284  0.00  0.00     0.078 C 
ENDROOT
BRANCH   1   8
ATOM      8  C1  UNL d   1      -0.420  -0.048  -0.091  0.00  0.00     0.053 C 
ATOM      9  C   UNL d   1      -1.671   0.714  -0.500  0.00  0.00     0.018 C 
ENDBRANCH   1   8
TORSDOF 1
ENDMDL
