MODEL 1
REMARK minimizedAffinity -4.86457634
REMARK minimizedRMSD -1
REMARK  1 active torsions:
REMARK  status: ('A' for Active; 'I' for Inactive)
REMARK    1  A    between atoms: C1_2  and  C2_3 
ROOT
ATOM      1  C2  UNL d   1      -0.041   0.008  -0.212  0.00  0.00    -0.076 A 
ATOM      2  C3  UNL d   1       0.945   0.994  -0.386  0.00  0.00     0.004 A 
ATOM      3  C4  UNL d   1       2.248   0.650  -0.745  0.00  0.00    -0.003 A 
ATOM      4  C5  UNL d   1       2.584  -0.685  -0.937  0.00  0.00     0.000 A 
ATOM      5  C6  UNL d   1       1.614  -1.675  -0.786  0.00  0.00     0.000 A 
ATOM      6  C7  UNL d   1       0.292  -1.344  -0.440  0.00  0.00    -0.073 A 
ATOM      7  C8  UNL d   1      -0.712  -2.453  -0.284  0.00  0.00     0.078 C 
ENDROOT
BRANCH   1   8
ATOM      8  C1  UNL d   1      -1.430   0.438   0.205  0.00  0.00     0.053 C 
ATOM      9  C   UNL d   1      -1.585   0.522   1.715  0.00  0.00     0.018 C 
ENDBRANCH   1   8
TORSDOF 1
ENDMDL
