MODEL 1
REMARK minimizedAffinity 5.67552662
REMARK minimizedRMSD -1
REMARK  1 active torsions:
REMARK  status: ('A' for Active; 'I' for Inactive)
REMARK    1  A    between atoms: N_2  and  C1_3 
ROOT
ATOM      1  C1  UNL d   1       5.245   3.295   4.120  0.00  0.00     0.143 A 
ATOM      2  C2  UNL d   1       5.997   2.841   5.209  0.00  0.00    -0.057 A 
ATOM      3  C3  UNL d   1       5.999   1.489   5.576  0.00  0.00     0.033 A 
ATOM      4  C4  UNL d   1       5.225   0.571   4.876  0.00  0.00    -0.042 A 
ATOM      5  C5  UNL d   1       4.450   1.004   3.806  0.00  0.00     0.033 A 
ATOM      6  C6  UNL d   1       4.457   2.353   3.440  0.00  0.00    -0.057 A 
ENDROOT
BRANCH   1   7
ATOM      7  N   UNL d   1       5.123   4.641   3.767  0.00  0.00    -0.732 N 
ATOM      8  C   UNL d   1       5.973   5.642   4.374  0.00  0.00     0.284 C 
ATOM      9  H3  UNL d   1       4.979   4.769   2.767  0.00  0.00     0.395 HD
ENDBRANCH   1   7
TORSDOF 1
ENDMDL
