MODEL 1
REMARK minimizedAffinity 2.63035679
REMARK minimizedRMSD -1
REMARK  1 active torsions:
REMARK  status: ('A' for Active; 'I' for Inactive)
REMARK    1  A    between atoms: N_2  and  C1_3 
ROOT
ATOM      1  C1  UNL d   1       4.521   1.837   3.282  0.00  0.00     0.143 A 
ATOM      2  C2  UNL d   1       5.455   1.921   4.320  0.00  0.00    -0.057 A 
ATOM      3  C3  UNL d   1       5.997   0.769   4.904  0.00  0.00     0.033 A 
ATOM      4  C4  UNL d   1       5.589  -0.491   4.479  0.00  0.00    -0.042 A 
ATOM      5  C5  UNL d   1       4.642  -0.598   3.466  0.00  0.00     0.033 A 
ATOM      6  C6  UNL d   1       4.111   0.556   2.882  0.00  0.00    -0.057 A 
ENDROOT
BRANCH   1   7
ATOM      7  N   UNL d   1       3.873   2.944   2.728  0.00  0.00    -0.732 N 
ATOM      8  C   UNL d   1       3.330   2.886   1.388  0.00  0.00     0.284 C 
ATOM      9  H3  UNL d   1       3.273   3.419   3.399  0.00  0.00     0.395 HD
ENDBRANCH   1   7
TORSDOF 1
ENDMDL
