MODEL 1
REMARK minimizedAffinity 3.0687027
REMARK minimizedRMSD -1
REMARK  1 active torsions:
REMARK  status: ('A' for Active; 'I' for Inactive)
REMARK    1  A    between atoms: N_2  and  C1_3 
ROOT
ATOM      1  C1  UNL d   1      -1.749   1.152  -0.474  0.00  0.00     0.143 A 
ATOM      2  C2  UNL d   1      -3.079   1.211  -0.905  0.00  0.00    -0.057 A 
ATOM      3  C3  UNL d   1      -3.863   2.350  -0.686  0.00  0.00     0.033 A 
ATOM      4  C4  UNL d   1      -3.338   3.443  -0.005  0.00  0.00    -0.042 A 
ATOM      5  C5  UNL d   1      -2.027   3.397   0.454  0.00  0.00     0.033 A 
ATOM      6  C6  UNL d   1      -1.246   2.259   0.227  0.00  0.00    -0.057 A 
ENDROOT
BRANCH   1   7
ATOM      7  N   UNL d   1      -0.949   0.011  -0.575  0.00  0.00    -0.732 N 
ATOM      8  C   UNL d   1      -1.414  -1.263  -0.070  0.00  0.00     0.284 C 
ATOM      9  H3  UNL d   1      -0.466  -0.047  -1.468  0.00  0.00     0.395 HD
ENDBRANCH   1   7
TORSDOF 1
ENDMDL
