MODEL 1
REMARK minimizedAffinity -2.15400887
REMARK minimizedRMSD -1
REMARK  1 active torsions:
REMARK  status: ('A' for Active; 'I' for Inactive)
REMARK    1  A    between atoms: N_2  and  C1_3 
ROOT
ATOM      1  C1  UNL d   1      -3.064   3.259   1.217  0.00  0.00     0.143 A 
ATOM      2  C2  UNL d   1      -3.820   2.981   0.073  0.00  0.00    -0.057 A 
ATOM      3  C3  UNL d   1      -4.116   1.664  -0.299  0.00  0.00     0.033 A 
ATOM      4  C4  UNL d   1      -3.636   0.598   0.454  0.00  0.00    -0.042 A 
ATOM      5  C5  UNL d   1      -2.862   0.850   1.581  0.00  0.00     0.033 A 
ATOM      6  C6  UNL d   1      -2.575   2.167   1.951  0.00  0.00    -0.057 A 
ENDROOT
BRANCH   1   7
ATOM      7  N   UNL d   1      -2.653   4.543   1.585  0.00  0.00    -0.732 N 
ATOM      8  C   UNL d   1      -3.398   5.303   2.565  0.00  0.00     0.284 C 
ATOM      9  H3  UNL d   1      -1.643   4.613   1.685  0.00  0.00     0.395 HD
ENDBRANCH   1   7
TORSDOF 1
ENDMDL
