MODEL 1
REMARK minimizedAffinity -0.198301703
REMARK minimizedRMSD -1
REMARK  1 active torsions:
REMARK  status: ('A' for Active; 'I' for Inactive)
REMARK    1  A    between atoms: N_2  and  C1_3 
ROOT
ATOM      1  C1  UNL d   1       3.917  -0.375   2.867  0.00  0.00     0.143 A 
ATOM      2  C2  UNL d   1       3.776   0.937   2.402  0.00  0.00    -0.057 A 
ATOM      3  C3  UNL d   1       4.739   1.914   2.682  0.00  0.00     0.033 A 
ATOM      4  C4  UNL d   1       5.850   1.601   3.459  0.00  0.00    -0.042 A 
ATOM      5  C5  UNL d   1       5.998   0.310   3.952  0.00  0.00     0.033 A 
ATOM      6  C6  UNL d   1       5.036  -0.663   3.663  0.00  0.00    -0.057 A 
ENDROOT
BRANCH   1   7
ATOM      7  N   UNL d   1       2.945  -1.366   2.705  0.00  0.00    -0.732 N 
ATOM      8  C   UNL d   1       2.895  -2.159   1.496  0.00  0.00     0.284 C 
ATOM      9  H3  UNL d   1       2.787  -1.898   3.558  0.00  0.00     0.395 HD
ENDBRANCH   1   7
TORSDOF 1
ENDMDL
