MODEL 1
REMARK minimizedAffinity -2.30283785
REMARK minimizedRMSD -1
REMARK  1 active torsions:
REMARK  status: ('A' for Active; 'I' for Inactive)
REMARK    1  A    between atoms: N_2  and  C1_3 
ROOT
ATOM      1  C1  UNL d   1      -2.535   1.016   0.892  0.00  0.00     0.143 A 
ATOM      2  C2  UNL d   1      -1.874  -0.209   0.749  0.00  0.00    -0.057 A 
ATOM      3  C3  UNL d   1      -1.815  -1.128   1.803  0.00  0.00     0.033 A 
ATOM      4  C4  UNL d   1      -2.392  -0.826   3.032  0.00  0.00    -0.042 A 
ATOM      5  C5  UNL d   1      -3.033   0.396   3.204  0.00  0.00     0.033 A 
ATOM      6  C6  UNL d   1      -3.095   1.308   2.146  0.00  0.00    -0.057 A 
ENDROOT
BRANCH   1   7
ATOM      7  N   UNL d   1      -2.544   2.014  -0.086  0.00  0.00    -0.732 N 
ATOM      8  C   UNL d   1      -3.468   3.124   0.001  0.00  0.00     0.284 C 
ATOM      9  H3  UNL d   1      -1.607   2.275  -0.383  0.00  0.00     0.395 HD
ENDBRANCH   1   7
TORSDOF 1
ENDMDL
