MODEL 1
REMARK minimizedAffinity 9.54911232
REMARK minimizedRMSD -1
REMARK  1 active torsions:
REMARK  status: ('A' for Active; 'I' for Inactive)
REMARK    1  A    between atoms: N_2  and  C1_3 
ROOT
ATOM      1  C1  UNL d   1      -5.416   5.630   3.480  0.00  0.00     0.143 A 
ATOM      2  C2  UNL d   1      -5.999   5.924   2.242  0.00  0.00    -0.057 A 
ATOM      3  C3  UNL d   1      -5.325   5.667   1.042  0.00  0.00     0.033 A 
ATOM      4  C4  UNL d   1      -4.039   5.136   1.060  0.00  0.00    -0.042 A 
ATOM      5  C5  UNL d   1      -3.430   4.860   2.279  0.00  0.00     0.033 A 
ATOM      6  C6  UNL d   1      -4.112   5.112   3.474  0.00  0.00    -0.057 A 
ENDROOT
BRANCH   1   7
ATOM      7  N   UNL d   1      -5.996   5.954   4.709  0.00  0.00    -0.732 N 
ATOM      8  C   UNL d   1      -5.220   5.889   5.929  0.00  0.00     0.284 C 
ATOM      9  H3  UNL d   1      -6.609   6.763   4.648  0.00  0.00     0.395 HD
ENDBRANCH   1   7
TORSDOF 1
ENDMDL
