MODEL 1
REMARK minimizedAffinity 5.25651646
REMARK minimizedRMSD -1
REMARK  1 active torsions:
REMARK  status: ('A' for Active; 'I' for Inactive)
REMARK    1  A    between atoms: N_2  and  C1_3 
ROOT
ATOM      1  C1  UNL d   1       5.521   1.382   3.832  0.00  0.00     0.143 A 
ATOM      2  C2  UNL d   1       5.999   2.665   4.115  0.00  0.00    -0.057 A 
ATOM      3  C3  UNL d   1       5.606   3.772   3.352  0.00  0.00     0.033 A 
ATOM      4  C4  UNL d   1       4.747   3.608   2.270  0.00  0.00    -0.042 A 
ATOM      5  C5  UNL d   1       4.279   2.337   1.955  0.00  0.00     0.033 A 
ATOM      6  C6  UNL d   1       4.670   1.238   2.725  0.00  0.00    -0.057 A 
ENDROOT
BRANCH   1   7
ATOM      7  N   UNL d   1       5.952   0.228   4.492  0.00  0.00    -0.732 N 
ATOM      8  C   UNL d   1       5.999   0.180   5.937  0.00  0.00     0.284 C 
ATOM      9  H3  UNL d   1       5.598  -0.622   4.059  0.00  0.00     0.395 HD
ENDBRANCH   1   7
TORSDOF 1
ENDMDL
