MODEL 1
REMARK minimizedAffinity -2.35774827
REMARK minimizedRMSD -1
REMARK  1 active torsions:
REMARK  status: ('A' for Active; 'I' for Inactive)
REMARK    1  A    between atoms: N_2  and  C1_3 
ROOT
ATOM      1  C1  UNL d   1       2.906  -1.602   1.121  0.00  0.00     0.143 A 
ATOM      2  C2  UNL d   1       2.533  -2.950   1.139  0.00  0.00    -0.057 A 
ATOM      3  C3  UNL d   1       1.292  -3.367   0.641  0.00  0.00     0.033 A 
ATOM      4  C4  UNL d   1       0.388  -2.435   0.141  0.00  0.00    -0.042 A 
ATOM      5  C5  UNL d   1       0.727  -1.087   0.137  0.00  0.00     0.033 A 
ATOM      6  C6  UNL d   1       1.970  -0.678   0.629  0.00  0.00    -0.057 A 
ENDROOT
BRANCH   1   7
ATOM      7  N   UNL d   1       4.083  -1.113   1.692  0.00  0.00    -0.732 N 
ATOM      8  C   UNL d   1       4.048  -0.002   2.618  0.00  0.00     0.284 C 
ATOM      9  H3  UNL d   1       4.723  -1.857   1.960  0.00  0.00     0.395 HD
ENDBRANCH   1   7
TORSDOF 1
ENDMDL
