MODEL 1
REMARK minimizedAffinity 10.8031845
REMARK minimizedRMSD -1
REMARK  1 active torsions:
REMARK  status: ('A' for Active; 'I' for Inactive)
REMARK    1  A    between atoms: N_2  and  C1_3 
ROOT
ATOM      1  C1  UNL d   1       5.044   3.256   3.378  0.00  0.00     0.143 A 
ATOM      2  C2  UNL d   1       4.129   2.520   2.618  0.00  0.00    -0.057 A 
ATOM      3  C3  UNL d   1       4.128   1.120   2.637  0.00  0.00     0.033 A 
ATOM      4  C4  UNL d   1       5.065   0.428   3.398  0.00  0.00    -0.042 A 
ATOM      5  C5  UNL d   1       6.000   1.139   4.142  0.00  0.00     0.033 A 
ATOM      6  C6  UNL d   1       5.991   2.537   4.124  0.00  0.00    -0.057 A 
ENDROOT
BRANCH   1   7
ATOM      7  N   UNL d   1       5.158   4.647   3.325  0.00  0.00    -0.732 N 
ATOM      8  C   UNL d   1       5.220   5.428   4.542  0.00  0.00     0.284 C 
ATOM      9  H3  UNL d   1       5.801   4.956   2.599  0.00  0.00     0.395 HD
ENDBRANCH   1   7
TORSDOF 1
ENDMDL
