MODEL 1
REMARK minimizedAffinity -5.86227751
REMARK minimizedRMSD -1
REMARK  0 active torsions:
REMARK  status: ('A' for Active; 'I' for Inactive)
ROOT
ATOM      1  C   UNL d   1      -0.144  -1.746  -1.263  0.00  0.00     0.078 C 
ATOM      2  C1  UNL d   1       0.919  -0.903  -0.624  0.00  0.00    -0.077 A 
ATOM      3  C2  UNL d   1       2.122  -1.471  -0.185  0.00  0.00    -0.001 A 
ATOM      4  C3  UNL d   1       3.099  -0.677   0.417  0.00  0.00     0.003 A 
ATOM      5  C4  UNL d   1       2.884   0.690   0.586  0.00  0.00    -0.005 A 
ATOM      6  C5  UNL d   1       1.689   1.263   0.155  0.00  0.00     0.003 A 
ATOM      7  C6  UNL d   1       0.711   0.470  -0.447  0.00  0.00    -0.001 A 
ENDROOT
TORSDOF 0
ENDMDL
