MODEL 1
REMARK minimizedAffinity 22.0117226
REMARK minimizedRMSD -1
REMARK  0 active torsions:
REMARK  status: ('A' for Active; 'I' for Inactive)
ROOT
ATOM      1  C   UNL d   1      -0.694  -0.195  -2.535  0.00  0.00    -0.002 A 
ATOM      2  C1  UNL d   1      -2.018  -0.537  -2.303  0.00  0.00     0.010 A 
ATOM      3  C2  UNL d   1      -2.694  -0.044  -1.185  0.00  0.00     0.041 A 
ATOM      4  C3  UNL d   1      -2.009   0.807  -0.295  0.00  0.00    -0.075 A 
ATOM      5  S   UNL d   1      -2.634   1.530   1.140  0.00  0.00     0.015 SA
ATOM      6  C4  UNL d   1      -1.157   2.310   1.479  0.00  0.00     0.022 A 
ATOM      7  C5  UNL d   1      -0.199   2.036   0.531  0.00  0.00     0.026 A 
ATOM      8  C6  UNL d   1      -0.675   1.166  -0.507  0.00  0.00    -0.082 A 
ATOM      9  C7  UNL d   1      -0.018   0.649  -1.650  0.00  0.00     0.045 A 
ENDROOT
TORSDOF 0
ENDMDL
