MODEL 1
REMARK minimizedAffinity 9.51185417
REMARK minimizedRMSD -1
REMARK  0 active torsions:
REMARK  status: ('A' for Active; 'I' for Inactive)
ROOT
ATOM      1  C   UNL d   1       6.000   1.077  -0.845  0.00  0.00    -0.002 A 
ATOM      2  C1  UNL d   1       4.976   2.009  -0.939  0.00  0.00     0.010 A 
ATOM      3  C2  UNL d   1       3.641   1.599  -0.953  0.00  0.00     0.041 A 
ATOM      4  C3  UNL d   1       3.350   0.223  -0.869  0.00  0.00    -0.075 A 
ATOM      5  S   UNL d   1       1.790  -0.511  -0.867  0.00  0.00     0.015 SA
ATOM      6  C4  UNL d   1       2.446  -2.079  -0.742  0.00  0.00     0.022 A 
ATOM      7  C5  UNL d   1       3.820  -2.062  -0.701  0.00  0.00     0.026 A 
ATOM      8  C6  UNL d   1       4.364  -0.735  -0.773  0.00  0.00    -0.082 A 
ATOM      9  C7  UNL d   1       5.707  -0.287  -0.762  0.00  0.00     0.045 A 
ENDROOT
TORSDOF 0
ENDMDL
