MODEL 1
REMARK minimizedAffinity 20.2655048
REMARK minimizedRMSD -1
REMARK  0 active torsions:
REMARK  status: ('A' for Active; 'I' for Inactive)
ROOT
ATOM      1  C   UNL d   1      -5.718   4.246  -3.566  0.00  0.00    -0.002 A 
ATOM      2  C1  UNL d   1      -5.998   3.365  -2.532  0.00  0.00     0.010 A 
ATOM      3  C2  UNL d   1      -5.448   2.082  -2.523  0.00  0.00     0.041 A 
ATOM      4  C3  UNL d   1      -4.600   1.697  -3.580  0.00  0.00    -0.075 A 
ATOM      5  S   UNL d   1      -3.812   0.176  -3.779  0.00  0.00     0.015 SA
ATOM      6  C4  UNL d   1      -3.083   0.662  -5.241  0.00  0.00     0.022 A 
ATOM      7  C5  UNL d   1      -3.422   1.949  -5.584  0.00  0.00     0.026 A 
ATOM      8  C6  UNL d   1      -4.302   2.567  -4.632  0.00  0.00    -0.082 A 
ATOM      9  C7  UNL d   1      -4.877   3.861  -4.613  0.00  0.00     0.045 A 
ENDROOT
TORSDOF 0
ENDMDL
