MODEL 1
REMARK minimizedAffinity 9.94872665
REMARK minimizedRMSD -1
REMARK  0 active torsions:
REMARK  status: ('A' for Active; 'I' for Inactive)
ROOT
ATOM      1  C   UNL d   1       3.931  -1.377   0.250  0.00  0.00    -0.002 A 
ATOM      2  C1  UNL d   1       3.609  -0.418  -0.700  0.00  0.00     0.010 A 
ATOM      3  C2  UNL d   1       2.551  -0.624  -1.587  0.00  0.00     0.041 A 
ATOM      4  C3  UNL d   1       1.813  -1.821  -1.501  0.00  0.00    -0.075 A 
ATOM      5  S   UNL d   1       0.476  -2.291  -2.482  0.00  0.00     0.015 SA
ATOM      6  C4  UNL d   1       0.300  -3.775  -1.663  0.00  0.00     0.022 A 
ATOM      7  C5  UNL d   1       1.231  -3.925  -0.663  0.00  0.00     0.026 A 
ATOM      8  C6  UNL d   1       2.118  -2.802  -0.553  0.00  0.00    -0.082 A 
ATOM      9  C7  UNL d   1       3.197  -2.563   0.332  0.00  0.00     0.045 A 
ENDROOT
TORSDOF 0
ENDMDL
