MODEL 1
REMARK minimizedAffinity -2.52581978
REMARK minimizedRMSD -1
REMARK  0 active torsions:
REMARK  status: ('A' for Active; 'I' for Inactive)
ROOT
ATOM      1  C   UNL d   1       1.035   0.366  -0.358  0.00  0.00     0.124 A 
ATOM      2  C1  UNL d   1       1.210   0.825  -1.656  0.00  0.00     0.062 A 
ATOM      3  C2  UNL d   1       1.480   2.170  -1.893  0.00  0.00     0.162 A 
ATOM      4  C3  UNL d   1       1.579   3.066  -0.828  0.00  0.00    -0.034 A 
ATOM      5  C4  UNL d   1       1.402   2.597   0.475  0.00  0.00     0.162 A 
ATOM      6  C5  UNL d   1       1.131   1.252   0.706  0.00  0.00     0.062 A 
ATOM      7  F   UNL d   1       0.963   0.811   1.961  0.00  0.00    -0.097 F 
ATOM      8  F1  UNL d   1       1.490   3.431   1.521  0.00  0.00    -0.096 F 
ATOM      9  I   UNL d   1       1.984   5.077  -1.178  0.00  0.00    -0.060 I 
ATOM     10  F2  UNL d   1       1.644   2.586  -3.157  0.00  0.00    -0.096 F 
ATOM     11  F3  UNL d   1       1.117  -0.028  -2.686  0.00  0.00    -0.097 F 
ATOM     12  F4  UNL d   1       0.774  -0.928  -0.133  0.00  0.00    -0.092 F 
ENDROOT
TORSDOF 0
ENDMDL
