MODEL 1
REMARK minimizedAffinity -4.22545481
REMARK minimizedRMSD -1
REMARK  0 active torsions:
REMARK  status: ('A' for Active; 'I' for Inactive)
ROOT
ATOM      1  C   UNL d   1       1.213   2.662  -1.213  0.00  0.00     0.124 A 
ATOM      2  C1  UNL d   1       1.252   2.222   0.103  0.00  0.00     0.062 A 
ATOM      3  C2  UNL d   1       1.270   0.860   0.386  0.00  0.00     0.162 A 
ATOM      4  C3  UNL d   1       1.251  -0.074  -0.650  0.00  0.00    -0.034 A 
ATOM      5  C4  UNL d   1       1.211   0.375  -1.971  0.00  0.00     0.162 A 
ATOM      6  C5  UNL d   1       1.193   1.738  -2.249  0.00  0.00     0.062 A 
ATOM      7  F   UNL d   1       1.155   2.161  -3.521  0.00  0.00    -0.097 F 
ATOM      8  F1  UNL d   1       1.191  -0.496  -2.991  0.00  0.00    -0.096 F 
ATOM      9  I   UNL d   1       1.279  -2.113  -0.232  0.00  0.00    -0.060 I 
ATOM     10  F2  UNL d   1       1.308   0.463   1.667  0.00  0.00    -0.096 F 
ATOM     11  F3  UNL d   1       1.271   3.113   1.105  0.00  0.00    -0.097 F 
ATOM     12  F4  UNL d   1       1.194   3.973  -1.482  0.00  0.00    -0.092 F 
ENDROOT
TORSDOF 0
ENDMDL
