MODEL 1
REMARK minimizedAffinity 6.08773518
REMARK minimizedRMSD -1
REMARK  0 active torsions:
REMARK  status: ('A' for Active; 'I' for Inactive)
ROOT
ATOM      1  C   UNL d   1       0.815   2.271  -0.725  0.00  0.00     0.124 A 
ATOM      2  C1  UNL d   1       1.011   1.910   0.601  0.00  0.00     0.062 A 
ATOM      3  C2  UNL d   1       1.837   0.836   0.919  0.00  0.00     0.162 A 
ATOM      4  C3  UNL d   1       2.474   0.115  -0.091  0.00  0.00    -0.034 A 
ATOM      5  C4  UNL d   1       2.272   0.483  -1.422  0.00  0.00     0.162 A 
ATOM      6  C5  UNL d   1       1.445   1.557  -1.735  0.00  0.00     0.062 A 
ATOM      7  F   UNL d   1       1.257   1.905  -3.016  0.00  0.00    -0.097 F 
ATOM      8  F1  UNL d   1       2.869  -0.188  -2.418  0.00  0.00    -0.096 F 
ATOM      9  I   UNL d   1       3.710  -1.492   0.381  0.00  0.00    -0.060 I 
ATOM     10  F2  UNL d   1       2.008   0.509   2.209  0.00  0.00    -0.096 F 
ATOM     11  F3  UNL d   1       0.402   2.597   1.578  0.00  0.00    -0.097 F 
ATOM     12  F4  UNL d   1       0.019   3.304  -1.028  0.00  0.00    -0.092 F 
ENDROOT
TORSDOF 0
ENDMDL
