MODEL 1
REMARK minimizedAffinity 0.135216817
REMARK minimizedRMSD -1
REMARK  0 active torsions:
REMARK  status: ('A' for Active; 'I' for Inactive)
ROOT
ATOM      1  C   UNL d   1       1.013   0.254  -0.260  0.00  0.00     0.124 A 
ATOM      2  C1  UNL d   1       0.939   1.208   0.745  0.00  0.00     0.062 A 
ATOM      3  C2  UNL d   1       1.102   2.557   0.444  0.00  0.00     0.162 A 
ATOM      4  C3  UNL d   1       1.339   2.961  -0.870  0.00  0.00    -0.034 A 
ATOM      5  C4  UNL d   1       1.413   1.996  -1.876  0.00  0.00     0.162 A 
ATOM      6  C5  UNL d   1       1.249   0.649  -1.570  0.00  0.00     0.062 A 
ATOM      7  F   UNL d   1       1.321  -0.271  -2.543  0.00  0.00    -0.097 F 
ATOM      8  F1  UNL d   1       1.639   2.350  -3.149  0.00  0.00    -0.096 F 
ATOM      9  I   UNL d   1       1.583   4.978  -1.324  0.00  0.00    -0.060 I 
ATOM     10  F2  UNL d   1       1.025   3.457   1.436  0.00  0.00    -0.096 F 
ATOM     11  F3  UNL d   1       0.711   0.829   2.011  0.00  0.00    -0.097 F 
ATOM     12  F4  UNL d   1       0.857  -1.043   0.032  0.00  0.00    -0.092 F 
ENDROOT
TORSDOF 0
ENDMDL
