MODEL 1
REMARK minimizedAffinity 4.17864895
REMARK minimizedRMSD -1
REMARK  0 active torsions:
REMARK  status: ('A' for Active; 'I' for Inactive)
ROOT
ATOM      1  C   UNL d   1       1.140   0.463   0.009  0.00  0.00     0.124 A 
ATOM      2  C1  UNL d   1       1.308   1.392   1.027  0.00  0.00     0.062 A 
ATOM      3  C2  UNL d   1       1.630   2.711   0.724  0.00  0.00     0.162 A 
ATOM      4  C3  UNL d   1       1.785   3.111  -0.603  0.00  0.00    -0.034 A 
ATOM      5  C4  UNL d   1       1.616   2.171  -1.621  0.00  0.00     0.162 A 
ATOM      6  C5  UNL d   1       1.294   0.853  -1.313  0.00  0.00     0.062 A 
ATOM      7  F   UNL d   1       1.133  -0.043  -2.298  0.00  0.00    -0.097 F 
ATOM      8  F1  UNL d   1       1.757   2.521  -2.908  0.00  0.00    -0.096 F 
ATOM      9  I   UNL d   1       2.266   5.084  -1.061  0.00  0.00    -0.060 I 
ATOM     10  F2  UNL d   1       1.786   3.588   1.728  0.00  0.00    -0.096 F 
ATOM     11  F3  UNL d   1       1.161   1.017   2.306  0.00  0.00    -0.097 F 
ATOM     12  F4  UNL d   1       0.832  -0.807   0.304  0.00  0.00    -0.092 F 
ENDROOT
TORSDOF 0
ENDMDL
