MODEL 1
REMARK minimizedAffinity 6.35617828
REMARK minimizedRMSD -1
REMARK  0 active torsions:
REMARK  status: ('A' for Active; 'I' for Inactive)
ROOT
ATOM      1  C   UNL d   1       1.210  -0.207  -0.435  0.00  0.00     0.124 A 
ATOM      2  C1  UNL d   1       1.246   0.136  -1.779  0.00  0.00     0.062 A 
ATOM      3  C2  UNL d   1       1.505   1.449  -2.160  0.00  0.00     0.162 A 
ATOM      4  C3  UNL d   1       1.732   2.430  -1.194  0.00  0.00    -0.034 A 
ATOM      5  C4  UNL d   1       1.694   2.077   0.156  0.00  0.00     0.162 A 
ATOM      6  C5  UNL d   1       1.434   0.763   0.531  0.00  0.00     0.062 A 
ATOM      7  F   UNL d   1       1.400   0.434   1.831  0.00  0.00    -0.097 F 
ATOM      8  F1  UNL d   1       1.907   2.995   1.110  0.00  0.00    -0.096 F 
ATOM      9  I   UNL d   1       2.120   4.395  -1.759  0.00  0.00    -0.060 I 
ATOM     10  F2  UNL d   1       1.533   1.752  -3.466  0.00  0.00    -0.096 F 
ATOM     11  F3  UNL d   1       1.029  -0.800  -2.715  0.00  0.00    -0.097 F 
ATOM     12  F4  UNL d   1       0.960  -1.472  -0.071  0.00  0.00    -0.092 F 
ENDROOT
TORSDOF 0
ENDMDL
