MODEL 1
REMARK minimizedAffinity 1.14772618
REMARK minimizedRMSD -1
REMARK  0 active torsions:
REMARK  status: ('A' for Active; 'I' for Inactive)
ROOT
ATOM      1  C   UNL d   1       1.138   0.610  -0.152  0.00  0.00     0.124 A 
ATOM      2  C1  UNL d   1       1.215   0.932  -1.500  0.00  0.00     0.062 A 
ATOM      3  C2  UNL d   1       1.450   2.247  -1.894  0.00  0.00     0.162 A 
ATOM      4  C3  UNL d   1       1.612   3.249  -0.937  0.00  0.00    -0.034 A 
ATOM      5  C4  UNL d   1       1.533   2.917   0.417  0.00  0.00     0.162 A 
ATOM      6  C5  UNL d   1       1.298   1.602   0.804  0.00  0.00     0.062 A 
ATOM      7  F   UNL d   1       1.224   1.293   2.107  0.00  0.00    -0.097 F 
ATOM      8  F1  UNL d   1       1.684   3.856   1.362  0.00  0.00    -0.096 F 
ATOM      9  I   UNL d   1       1.964   5.215  -1.521  0.00  0.00    -0.060 I 
ATOM     10  F2  UNL d   1       1.519   2.529  -3.203  0.00  0.00    -0.096 F 
ATOM     11  F3  UNL d   1       1.060  -0.024  -2.427  0.00  0.00    -0.097 F 
ATOM     12  F4  UNL d   1       0.911  -0.655   0.223  0.00  0.00    -0.092 F 
ENDROOT
TORSDOF 0
ENDMDL
