MODEL 1
REMARK minimizedAffinity 12.2146635
REMARK minimizedRMSD -1
REMARK  0 active torsions:
REMARK  status: ('A' for Active; 'I' for Inactive)
ROOT
ATOM      1  C   UNL d   1       1.474   3.158  -1.870  0.00  0.00     0.124 A 
ATOM      2  C1  UNL d   1       1.347   4.457  -1.398  0.00  0.00     0.062 A 
ATOM      3  C2  UNL d   1       1.550   4.735  -0.050  0.00  0.00     0.162 A 
ATOM      4  C3  UNL d   1       1.883   3.712   0.837  0.00  0.00    -0.034 A 
ATOM      5  C4  UNL d   1       2.008   2.407   0.356  0.00  0.00     0.162 A 
ATOM      6  C5  UNL d   1       1.804   2.135  -0.993  0.00  0.00     0.062 A 
ATOM      7  F   UNL d   1       1.927   0.879  -1.447  0.00  0.00    -0.097 F 
ATOM      8  F1  UNL d   1       2.328   1.400   1.181  0.00  0.00    -0.096 F 
ATOM      9  I   UNL d   1       2.188   4.123   2.855  0.00  0.00    -0.060 I 
ATOM     10  F2  UNL d   1       1.420   6.000   0.378  0.00  0.00    -0.096 F 
ATOM     11  F3  UNL d   1       1.027   5.448  -2.244  0.00  0.00    -0.097 F 
ATOM     12  F4  UNL d   1       1.277   2.893  -3.168  0.00  0.00    -0.092 F 
ENDROOT
TORSDOF 0
ENDMDL
