MODEL 1
REMARK minimizedAffinity 3.13340616
REMARK minimizedRMSD -1
REMARK  0 active torsions:
REMARK  status: ('A' for Active; 'I' for Inactive)
ROOT
ATOM      1  C   UNL d   1       0.956   2.807  -0.656  0.00  0.00     0.124 A 
ATOM      2  C1  UNL d   1       1.116   1.878  -1.675  0.00  0.00     0.062 A 
ATOM      3  C2  UNL d   1       1.823   0.702  -1.444  0.00  0.00     0.162 A 
ATOM      4  C3  UNL d   1       2.375   0.446  -0.189  0.00  0.00    -0.034 A 
ATOM      5  C4  UNL d   1       2.210   1.386   0.831  0.00  0.00     0.162 A 
ATOM      6  C5  UNL d   1       1.503   2.560   0.596  0.00  0.00     0.062 A 
ATOM      7  F   UNL d   1       1.349   3.456   1.581  0.00  0.00    -0.097 F 
ATOM      8  F1  UNL d   1       2.727   1.172   2.050  0.00  0.00    -0.096 F 
ATOM      9  I   UNL d   1       3.432  -1.312   0.160  0.00  0.00    -0.060 I 
ATOM     10  F2  UNL d   1       1.962  -0.178  -2.447  0.00  0.00    -0.096 F 
ATOM     11  F3  UNL d   1       0.590   2.115  -2.885  0.00  0.00    -0.097 F 
ATOM     12  F4  UNL d   1       0.277   3.939  -0.880  0.00  0.00    -0.092 F 
ENDROOT
TORSDOF 0
ENDMDL
