MODEL 1
REMARK minimizedAffinity 0.260456502
REMARK minimizedRMSD -1
REMARK  0 active torsions:
REMARK  status: ('A' for Active; 'I' for Inactive)
ROOT
ATOM      1  C   UNL d   1       1.057   0.216  -0.214  0.00  0.00     0.124 A 
ATOM      2  C1  UNL d   1       1.304   0.636  -1.514  0.00  0.00     0.062 A 
ATOM      3  C2  UNL d   1       1.384   1.994  -1.807  0.00  0.00     0.162 A 
ATOM      4  C3  UNL d   1       1.219   2.943  -0.798  0.00  0.00    -0.034 A 
ATOM      5  C4  UNL d   1       0.970   2.513   0.507  0.00  0.00     0.162 A 
ATOM      6  C5  UNL d   1       0.891   1.154   0.795  0.00  0.00     0.062 A 
ATOM      7  F   UNL d   1       0.652   0.750   2.051  0.00  0.00    -0.097 F 
ATOM      8  F1  UNL d   1       0.807   3.398   1.501  0.00  0.00    -0.096 F 
ATOM      9  I   UNL d   1       1.339   4.975  -1.232  0.00  0.00    -0.060 I 
ATOM     10  F2  UNL d   1       1.624   2.372  -3.072  0.00  0.00    -0.096 F 
ATOM     11  F3  UNL d   1       1.464  -0.268  -2.490  0.00  0.00    -0.097 F 
ATOM     12  F4  UNL d   1       0.979  -1.092   0.065  0.00  0.00    -0.092 F 
ENDROOT
TORSDOF 0
ENDMDL
