MODEL 1
REMARK minimizedAffinity 1.72912431
REMARK minimizedRMSD -1
REMARK  0 active torsions:
REMARK  status: ('A' for Active; 'I' for Inactive)
ROOT
ATOM      1  C   UNL d   1       1.369   3.194  -0.623  0.00  0.00     0.124 A 
ATOM      2  C1  UNL d   1       1.340   2.486  -1.816  0.00  0.00     0.062 A 
ATOM      3  C2  UNL d   1       1.321   1.094  -1.804  0.00  0.00     0.162 A 
ATOM      4  C3  UNL d   1       1.329   0.401  -0.593  0.00  0.00    -0.034 A 
ATOM      5  C4  UNL d   1       1.359   1.121   0.603  0.00  0.00     0.162 A 
ATOM      6  C5  UNL d   1       1.378   2.511   0.585  0.00  0.00     0.062 A 
ATOM      7  F   UNL d   1       1.406   3.194   1.739  0.00  0.00    -0.097 F 
ATOM      8  F1  UNL d   1       1.368   0.486   1.785  0.00  0.00    -0.096 F 
ATOM      9  I   UNL d   1       1.301  -1.680  -0.570  0.00  0.00    -0.060 I 
ATOM     10  F2  UNL d   1       1.293   0.435  -2.972  0.00  0.00    -0.096 F 
ATOM     11  F3  UNL d   1       1.332   3.143  -2.985  0.00  0.00    -0.097 F 
ATOM     12  F4  UNL d   1       1.388   4.533  -0.638  0.00  0.00    -0.092 F 
ENDROOT
TORSDOF 0
ENDMDL
