MODEL 1
REMARK minimizedAffinity 6.99552631
REMARK minimizedRMSD -1
REMARK  0 active torsions:
REMARK  status: ('A' for Active; 'I' for Inactive)
ROOT
ATOM      1  C   UNL d   1       1.198   0.598   0.466  0.00  0.00     0.124 A 
ATOM      2  C1  UNL d   1       1.358   1.541   1.472  0.00  0.00     0.062 A 
ATOM      3  C2  UNL d   1       1.730   2.845   1.156  0.00  0.00     0.162 A 
ATOM      4  C3  UNL d   1       1.943   3.214  -0.172  0.00  0.00    -0.034 A 
ATOM      5  C4  UNL d   1       1.781   2.259  -1.178  0.00  0.00     0.162 A 
ATOM      6  C5  UNL d   1       1.410   0.958  -0.858  0.00  0.00     0.062 A 
ATOM      7  F   UNL d   1       1.256   0.048  -1.831  0.00  0.00    -0.097 F 
ATOM      8  F1  UNL d   1       1.978   2.580  -2.466  0.00  0.00    -0.096 F 
ATOM      9  I   UNL d   1       2.498   5.162  -0.648  0.00  0.00    -0.060 I 
ATOM     10  F2  UNL d   1       1.877   3.735   2.148  0.00  0.00    -0.096 F 
ATOM     11  F3  UNL d   1       1.156   1.195   2.751  0.00  0.00    -0.097 F 
ATOM     12  F4  UNL d   1       0.842  -0.656   0.772  0.00  0.00    -0.092 F 
ENDROOT
TORSDOF 0
ENDMDL
