MODEL 1
REMARK minimizedAffinity 10.7068882
REMARK minimizedRMSD -1
REMARK  0 active torsions:
REMARK  status: ('A' for Active; 'I' for Inactive)
ROOT
ATOM      1  C   UNL d   1      -3.150   4.118   1.971  0.00  0.00     0.124 A 
ATOM      2  C1  UNL d   1      -3.527   2.783   2.014  0.00  0.00     0.062 A 
ATOM      3  C2  UNL d   1      -3.304   2.029   3.163  0.00  0.00     0.162 A 
ATOM      4  C3  UNL d   1      -2.702   2.609   4.280  0.00  0.00    -0.034 A 
ATOM      5  C4  UNL d   1      -2.325   3.953   4.229  0.00  0.00     0.162 A 
ATOM      6  C5  UNL d   1      -2.550   4.701   3.078  0.00  0.00     0.062 A 
ATOM      7  F   UNL d   1      -2.185   5.991   3.039  0.00  0.00    -0.097 F 
ATOM      8  F1  UNL d   1      -1.745   4.542   5.284  0.00  0.00    -0.096 F 
ATOM      9  I   UNL d   1      -2.368   1.486   6.000  0.00  0.00    -0.060 I 
ATOM     10  F2  UNL d   1      -3.678   0.741   3.176  0.00  0.00    -0.096 F 
ATOM     11  F3  UNL d   1      -4.106   2.216   0.946  0.00  0.00    -0.097 F 
ATOM     12  F4  UNL d   1      -3.364   4.840   0.864  0.00  0.00    -0.092 F 
ENDROOT
TORSDOF 0
ENDMDL
