MODEL 1
REMARK minimizedAffinity 10.7469168
REMARK minimizedRMSD -1
REMARK  0 active torsions:
REMARK  status: ('A' for Active; 'I' for Inactive)
ROOT
ATOM      1  C   UNL d   1       1.035   4.385  -1.691  0.00  0.00     0.124 A 
ATOM      2  C1  UNL d   1       1.208   4.287  -0.318  0.00  0.00     0.062 A 
ATOM      3  C2  UNL d   1       1.578   3.075   0.257  0.00  0.00     0.162 A 
ATOM      4  C3  UNL d   1       1.779   1.950  -0.542  0.00  0.00    -0.034 A 
ATOM      5  C4  UNL d   1       1.602   2.055  -1.923  0.00  0.00     0.162 A 
ATOM      6  C5  UNL d   1       1.232   3.269  -2.492  0.00  0.00     0.062 A 
ATOM      7  F   UNL d   1       1.066   3.361  -3.820  0.00  0.00    -0.097 F 
ATOM      8  F1  UNL d   1       1.788   0.993  -2.720  0.00  0.00    -0.096 F 
ATOM      9  I   UNL d   1       2.333   0.135   0.314  0.00  0.00    -0.060 I 
ATOM     10  F2  UNL d   1       1.738   3.010   1.587  0.00  0.00    -0.096 F 
ATOM     11  F3  UNL d   1       1.017   5.364   0.459  0.00  0.00    -0.097 F 
ATOM     12  F4  UNL d   1       0.678   5.552  -2.242  0.00  0.00    -0.092 F 
ENDROOT
TORSDOF 0
ENDMDL
