MODEL 1
REMARK minimizedAffinity 8.96427536
REMARK minimizedRMSD -1
REMARK  0 active torsions:
REMARK  status: ('A' for Active; 'I' for Inactive)
ROOT
ATOM      1  C   UNL d   1       1.376  -0.560  -2.393  0.00  0.00     0.124 A 
ATOM      2  C1  UNL d   1       1.314  -1.286  -1.212  0.00  0.00     0.062 A 
ATOM      3  C2  UNL d   1       1.304  -0.628   0.015  0.00  0.00     0.162 A 
ATOM      4  C3  UNL d   1       1.354   0.765   0.066  0.00  0.00    -0.034 A 
ATOM      5  C4  UNL d   1       1.417   1.489  -1.126  0.00  0.00     0.162 A 
ATOM      6  C5  UNL d   1       1.427   0.826  -2.349  0.00  0.00     0.062 A 
ATOM      7  F   UNL d   1       1.486   1.530  -3.489  0.00  0.00    -0.097 F 
ATOM      8  F1  UNL d   1       1.466   2.829  -1.112  0.00  0.00    -0.096 F 
ATOM      9  I   UNL d   1       1.339   1.752   1.898  0.00  0.00    -0.060 I 
ATOM     10  F2  UNL d   1       1.244  -1.355   1.140  0.00  0.00    -0.096 F 
ATOM     11  F3  UNL d   1       1.266  -2.625  -1.252  0.00  0.00    -0.097 F 
ATOM     12  F4  UNL d   1       1.387  -1.195  -3.572  0.00  0.00    -0.092 F 
ENDROOT
TORSDOF 0
ENDMDL
