MODEL 1
REMARK minimizedAffinity 2.17038059
REMARK minimizedRMSD -1
REMARK  0 active torsions:
REMARK  status: ('A' for Active; 'I' for Inactive)
ROOT
ATOM      1  C   UNL d   1       1.421   3.375  -0.479  0.00  0.00     0.124 A 
ATOM      2  C1  UNL d   1       1.266   2.634  -1.643  0.00  0.00     0.062 A 
ATOM      3  C2  UNL d   1       1.259   1.244  -1.592  0.00  0.00     0.162 A 
ATOM      4  C3  UNL d   1       1.407   0.583  -0.372  0.00  0.00    -0.034 A 
ATOM      5  C4  UNL d   1       1.564   1.335   0.794  0.00  0.00     0.162 A 
ATOM      6  C5  UNL d   1       1.570   2.725   0.738  0.00  0.00     0.062 A 
ATOM      7  F   UNL d   1       1.721   3.438   1.863  0.00  0.00    -0.097 F 
ATOM      8  F1  UNL d   1       1.709   0.732   1.983  0.00  0.00    -0.096 F 
ATOM      9  I   UNL d   1       1.398  -1.496  -0.292  0.00  0.00    -0.060 I 
ATOM     10  F2  UNL d   1       1.107   0.554  -2.732  0.00  0.00    -0.096 F 
ATOM     11  F3  UNL d   1       1.123   3.260  -2.820  0.00  0.00    -0.097 F 
ATOM     12  F4  UNL d   1       1.428   4.713  -0.531  0.00  0.00    -0.092 F 
ENDROOT
TORSDOF 0
ENDMDL
