MODEL 1
REMARK minimizedAffinity -0.944884419
REMARK minimizedRMSD -1
REMARK  0 active torsions:
REMARK  status: ('A' for Active; 'I' for Inactive)
ROOT
ATOM      1  C   UNL d   1       1.083   0.593   0.003  0.00  0.00     0.124 A 
ATOM      2  C1  UNL d   1       1.233   1.541   1.006  0.00  0.00     0.062 A 
ATOM      3  C2  UNL d   1       1.413   2.882   0.680  0.00  0.00     0.162 A 
ATOM      4  C3  UNL d   1       1.443   3.284  -0.655  0.00  0.00    -0.034 A 
ATOM      5  C4  UNL d   1       1.293   2.325  -1.658  0.00  0.00     0.162 A 
ATOM      6  C5  UNL d   1       1.113   0.985  -1.327  0.00  0.00     0.062 A 
ATOM      7  F   UNL d   1       0.969   0.071  -2.297  0.00  0.00    -0.097 F 
ATOM      8  F1  UNL d   1       1.317   2.676  -2.952  0.00  0.00    -0.096 F 
ATOM      9  I   UNL d   1       1.712   5.288  -1.146  0.00  0.00    -0.060 I 
ATOM     10  F2  UNL d   1       1.554   3.776   1.670  0.00  0.00    -0.096 F 
ATOM     11  F3  UNL d   1       1.205   1.164   2.293  0.00  0.00    -0.097 F 
ATOM     12  F4  UNL d   1       0.911  -0.697   0.320  0.00  0.00    -0.092 F 
ENDROOT
TORSDOF 0
ENDMDL
