MODEL 1
REMARK minimizedAffinity -1.83476746
REMARK minimizedRMSD -1
REMARK  0 active torsions:
REMARK  status: ('A' for Active; 'I' for Inactive)
ROOT
ATOM      1  C1  BNZ d   1       0.590   0.816   0.894  0.00  0.00     0.000 A 
ATOM      2  C2  BNZ d   1       1.205  -0.382   0.642  0.00  0.00     0.000 A 
ATOM      3  C3  BNZ d   1       0.783  -1.182  -0.383  0.00  0.00     0.000 A 
ATOM      4  C4  BNZ d   1      -0.276  -0.804  -1.127  0.00  0.00     0.000 A 
ATOM      5  C5  BNZ d   1      -0.912   0.396  -0.879  0.00  0.00     0.000 A 
ATOM      6  C6  BNZ d   1      -0.460   1.218   0.128  0.00  0.00     0.000 A 
ENDROOT
TORSDOF 0
ENDMDL
