MODEL 1
REMARK minimizedAffinity -4.94906664
REMARK minimizedRMSD -1
REMARK  0 active torsions:
REMARK  status: ('A' for Active; 'I' for Inactive)
ROOT
ATOM      1  C1  BNZ d   1       1.657  -1.776  -0.639  0.00  0.00     0.000 A 
ATOM      2  C2  BNZ d   1       2.238  -1.484   0.566  0.00  0.00     0.000 A 
ATOM      3  C3  BNZ d   1       1.532  -0.844   1.546  0.00  0.00     0.000 A 
ATOM      4  C4  BNZ d   1       0.262  -0.460   1.305  0.00  0.00     0.000 A 
ATOM      5  C5  BNZ d   1      -0.335  -0.739   0.092  0.00  0.00     0.000 A 
ATOM      6  C6  BNZ d   1       0.366  -1.418  -0.878  0.00  0.00     0.000 A 
ENDROOT
TORSDOF 0
ENDMDL
