MODEL 1
REMARK minimizedAffinity -2.77821302
REMARK minimizedRMSD -1
REMARK  0 active torsions:
REMARK  status: ('A' for Active; 'I' for Inactive)
ROOT
ATOM      1  C1  BNZ d   1       1.851   0.532   1.156  0.00  0.00     0.000 A 
ATOM      2  C2  BNZ d   1       0.754   1.257   0.775  0.00  0.00     0.000 A 
ATOM      3  C3  BNZ d   1      -0.250   0.678   0.051  0.00  0.00     0.000 A 
ATOM      4  C4  BNZ d   1      -0.138  -0.612  -0.324  0.00  0.00     0.000 A 
ATOM      5  C5  BNZ d   1       0.966  -1.354   0.044  0.00  0.00     0.000 A 
ATOM      6  C6  BNZ d   1       1.957  -0.779   0.806  0.00  0.00     0.000 A 
ENDROOT
TORSDOF 0
ENDMDL
