MODEL 1
REMARK minimizedAffinity -4.39630127
REMARK minimizedRMSD -1
REMARK  0 active torsions:
REMARK  status: ('A' for Active; 'I' for Inactive)
ROOT
ATOM      1  C1  BNZ d   1       2.987   1.264   0.329  0.00  0.00     0.000 A 
ATOM      2  C2  BNZ d   1       3.496  -0.005   0.258  0.00  0.00     0.000 A 
ATOM      3  C3  BNZ d   1       2.668  -1.087   0.160  0.00  0.00     0.000 A 
ATOM      4  C4  BNZ d   1       1.332  -0.903   0.173  0.00  0.00     0.000 A 
ATOM      5  C5  BNZ d   1       0.802   0.369   0.253  0.00  0.00     0.000 A 
ATOM      6  C6  BNZ d   1       1.640   1.460   0.313  0.00  0.00     0.000 A 
ENDROOT
TORSDOF 0
ENDMDL
