MODEL 1
REMARK minimizedAffinity -5.14660025
REMARK minimizedRMSD -1
REMARK  0 active torsions:
REMARK  status: ('A' for Active; 'I' for Inactive)
ROOT
ATOM      1  C1  BNZ d   1       2.447  -1.097   1.144  0.00  0.00     0.000 A 
ATOM      2  C2  BNZ d   1       3.392  -0.136   0.902  0.00  0.00     0.000 A 
ATOM      3  C3  BNZ d   1       3.032   1.096   0.433  0.00  0.00     0.000 A 
ATOM      4  C4  BNZ d   1       1.735   1.352   0.169  0.00  0.00     0.000 A 
ATOM      5  C5  BNZ d   1       0.772   0.390   0.399  0.00  0.00     0.000 A 
ATOM      6  C6  BNZ d   1       1.133  -0.836   0.908  0.00  0.00     0.000 A 
ENDROOT
TORSDOF 0
ENDMDL
