MODEL 1
REMARK minimizedAffinity -0.55008328
REMARK minimizedRMSD -1
REMARK  0 active torsions:
REMARK  status: ('A' for Active; 'I' for Inactive)
ROOT
ATOM      1  C1  BNZ d   1       2.364  -0.683  -0.052  0.00  0.00     0.000 A 
ATOM      2  C2  BNZ d   1       0.997  -0.633   0.020  0.00  0.00     0.000 A 
ATOM      3  C3  BNZ d   1       0.341   0.566   0.035  0.00  0.00     0.000 A 
ATOM      4  C4  BNZ d   1       1.052   1.712   0.018  0.00  0.00     0.000 A 
ATOM      5  C5  BNZ d   1       2.431   1.678  -0.045  0.00  0.00     0.000 A 
ATOM      6  C6  BNZ d   1       3.087   0.469  -0.099  0.00  0.00     0.000 A 
ENDROOT
TORSDOF 0
ENDMDL
