MODEL 1
REMARK minimizedAffinity -4.80853081
REMARK minimizedRMSD -1
REMARK  0 active torsions:
REMARK  status: ('A' for Active; 'I' for Inactive)
ROOT
ATOM      1  C1  BNZ d   1      -0.127  -0.594   0.275  0.00  0.00     0.000 A 
ATOM      2  C2  BNZ d   1       0.427  -1.837   0.126  0.00  0.00     0.000 A 
ATOM      3  C3  BNZ d   1       1.745  -2.056   0.412  0.00  0.00     0.000 A 
ATOM      4  C4  BNZ d   1       2.517  -1.023   0.809  0.00  0.00     0.000 A 
ATOM      5  C5  BNZ d   1       1.976   0.238   0.956  0.00  0.00     0.000 A 
ATOM      6  C6  BNZ d   1       0.639   0.446   0.704  0.00  0.00     0.000 A 
ENDROOT
TORSDOF 0
ENDMDL
