MODEL 1
REMARK minimizedAffinity -3.61695576
REMARK minimizedRMSD -1
REMARK  0 active torsions:
REMARK  status: ('A' for Active; 'I' for Inactive)
ROOT
ATOM      1  C1  BNZ d   1       0.409  -1.281  -0.372  0.00  0.00     0.000 A 
ATOM      2  C2  BNZ d   1       1.615  -1.702   0.122  0.00  0.00     0.000 A 
ATOM      3  C3  BNZ d   1       2.385  -0.873   0.889  0.00  0.00     0.000 A 
ATOM      4  C4  BNZ d   1       1.969   0.387   1.127  0.00  0.00     0.000 A 
ATOM      5  C5  BNZ d   1       0.760   0.830   0.628  0.00  0.00     0.000 A 
ATOM      6  C6  BNZ d   1      -0.031  -0.020  -0.111  0.00  0.00     0.000 A 
ENDROOT
TORSDOF 0
ENDMDL
