MODEL 1
REMARK minimizedAffinity 2.60405207
REMARK minimizedRMSD -1
REMARK  1 active torsions:
REMARK  status: ('A' for Active; 'I' for Inactive)
REMARK    1  A    between atoms: C1_2  and  C2_3 
ROOT
ATOM      1  C2  UNL d   1       2.596  -0.513   0.880  0.00  0.00    -0.081 A 
ATOM      2  C3  UNL d   1       1.390  -1.212   0.740  0.00  0.00     0.006 A 
ATOM      3  C4  UNL d   1       1.111  -2.313   1.553  0.00  0.00     0.002 A 
ATOM      4  C5  UNL d   1       2.028  -2.728   2.525  0.00  0.00    -0.080 A 
ATOM      5  C6  UNL d   1       1.728  -3.890   3.425  0.00  0.00     0.076 C 
ATOM      6  C7  UNL d   1       3.240  -2.041   2.653  0.00  0.00     0.002 A 
ATOM      7  C8  UNL d   1       3.520  -0.941   1.839  0.00  0.00     0.006 A 
ENDROOT
BRANCH   1   8
ATOM      8  C1  UNL d   1       2.872   0.713   0.048  0.00  0.00     0.054 C 
ATOM      9  C   UNL d   1       2.200   1.944   0.639  0.00  0.00     0.018 C 
ENDBRANCH   1   8
TORSDOF 1
ENDMDL
