MODEL 1
REMARK minimizedAffinity 9.56045151
REMARK minimizedRMSD -1
REMARK  1 active torsions:
REMARK  status: ('A' for Active; 'I' for Inactive)
REMARK    1  A    between atoms: C1_2  and  C2_3 
ROOT
ATOM      1  C2  UNL d   1       2.357   0.036   1.847  0.00  0.00    -0.081 A 
ATOM      2  C3  UNL d   1       1.359   0.912   1.402  0.00  0.00     0.006 A 
ATOM      3  C4  UNL d   1       0.127   0.420   0.967  0.00  0.00     0.002 A 
ATOM      4  C5  UNL d   1      -0.132  -0.955   0.976  0.00  0.00    -0.080 A 
ATOM      5  C6  UNL d   1      -1.461  -1.495   0.540  0.00  0.00     0.076 C 
ATOM      6  C7  UNL d   1       0.871  -1.832   1.404  0.00  0.00     0.002 A 
ATOM      7  C8  UNL d   1       2.104  -1.340   1.839  0.00  0.00     0.006 A 
ENDROOT
BRANCH   1   8
ATOM      8  C1  UNL d   1       3.663   0.569   2.378  0.00  0.00     0.054 C 
ATOM      9  C   UNL d   1       3.447   1.443   3.604  0.00  0.00     0.018 C 
ENDBRANCH   1   8
TORSDOF 1
ENDMDL
