MODEL 1
REMARK minimizedAffinity 13.6881437
REMARK minimizedRMSD -1
REMARK  1 active torsions:
REMARK  status: ('A' for Active; 'I' for Inactive)
REMARK    1  A    between atoms: C1_2  and  C2_3 
ROOT
ATOM      1  C2  UNL d   1       0.359  -1.788   0.159  0.00  0.00    -0.081 A 
ATOM      2  C3  UNL d   1      -0.483  -0.827   0.732  0.00  0.00     0.006 A 
ATOM      3  C4  UNL d   1       0.047   0.208   1.505  0.00  0.00     0.002 A 
ATOM      4  C5  UNL d   1       1.427   0.305   1.712  0.00  0.00    -0.080 A 
ATOM      5  C6  UNL d   1       2.011   1.429   2.515  0.00  0.00     0.076 C 
ATOM      6  C7  UNL d   1       2.267  -0.665   1.155  0.00  0.00     0.002 A 
ATOM      7  C8  UNL d   1       1.738  -1.701   0.382  0.00  0.00     0.006 A 
ENDROOT
BRANCH   1   8
ATOM      8  C1  UNL d   1      -0.203  -2.869  -0.728  0.00  0.00     0.054 C 
ATOM      9  C   UNL d   1       0.360  -2.774  -2.139  0.00  0.00     0.018 C 
ENDBRANCH   1   8
TORSDOF 1
ENDMDL
