MODEL 1
REMARK minimizedAffinity 4.17106724
REMARK minimizedRMSD -1
REMARK  1 active torsions:
REMARK  status: ('A' for Active; 'I' for Inactive)
REMARK    1  A    between atoms: C1_2  and  C2_3 
ROOT
ATOM      1  C2  UNL d   1       2.996  -0.723   1.022  0.00  0.00    -0.081 A 
ATOM      2  C3  UNL d   1       1.927  -1.564   0.692  0.00  0.00     0.006 A 
ATOM      3  C4  UNL d   1       0.610  -1.157   0.918  0.00  0.00     0.002 A 
ATOM      4  C5  UNL d   1       0.341   0.100   1.471  0.00  0.00    -0.080 A 
ATOM      5  C6  UNL d   1      -1.069   0.561   1.692  0.00  0.00     0.076 C 
ATOM      6  C7  UNL d   1       1.410   0.933   1.817  0.00  0.00     0.002 A 
ATOM      7  C8  UNL d   1       2.727   0.526   1.591  0.00  0.00     0.006 A 
ENDROOT
BRANCH   1   8
ATOM      8  C1  UNL d   1       4.415  -1.133   0.719  0.00  0.00     0.054 C 
ATOM      9  C   UNL d   1       4.890  -2.225   1.666  0.00  0.00     0.018 C 
ENDBRANCH   1   8
TORSDOF 1
ENDMDL
