MODEL 1
REMARK minimizedAffinity 11.6092634
REMARK minimizedRMSD -1
REMARK  1 active torsions:
REMARK  status: ('A' for Active; 'I' for Inactive)
REMARK    1  A    between atoms: C1_2  and  C2_3 
ROOT
ATOM      1  C2  UNL d   1       1.256  -1.459  -0.326  0.00  0.00    -0.081 A 
ATOM      2  C3  UNL d   1       0.274  -1.023   0.572  0.00  0.00     0.006 A 
ATOM      3  C4  UNL d   1       0.636  -0.451   1.794  0.00  0.00     0.002 A 
ATOM      4  C5  UNL d   1       1.984  -0.298   2.135  0.00  0.00    -0.080 A 
ATOM      5  C6  UNL d   1       2.385   0.343   3.431  0.00  0.00     0.076 C 
ATOM      6  C7  UNL d   1       2.965  -0.749   1.246  0.00  0.00     0.002 A 
ATOM      7  C8  UNL d   1       2.604  -1.322   0.024  0.00  0.00     0.006 A 
ENDROOT
BRANCH   1   8
ATOM      8  C1  UNL d   1       0.871  -2.017  -1.672  0.00  0.00     0.054 C 
ATOM      9  C   UNL d   1      -0.575  -1.687  -2.014  0.00  0.00     0.018 C 
ENDBRANCH   1   8
TORSDOF 1
ENDMDL
