MODEL 1
REMARK minimizedAffinity 17.7543373
REMARK minimizedRMSD -1
REMARK  1 active torsions:
REMARK  status: ('A' for Active; 'I' for Inactive)
REMARK    1  A    between atoms: C1_2  and  C2_3 
ROOT
ATOM      1  C2  UNL d   1       3.799  -0.123  -0.395  0.00  0.00    -0.081 A 
ATOM      2  C3  UNL d   1       3.672  -1.022   0.671  0.00  0.00     0.006 A 
ATOM      3  C4  UNL d   1       3.167  -0.594   1.901  0.00  0.00     0.002 A 
ATOM      4  C5  UNL d   1       2.774   0.736   2.084  0.00  0.00    -0.080 A 
ATOM      5  C6  UNL d   1       2.202   1.201   3.390  0.00  0.00     0.076 C 
ATOM      6  C7  UNL d   1       2.918   1.638   1.024  0.00  0.00     0.002 A 
ATOM      7  C8  UNL d   1       3.423   1.212  -0.206  0.00  0.00     0.006 A 
ENDROOT
BRANCH   1   8
ATOM      8  C1  UNL d   1       4.283  -0.595  -1.742  0.00  0.00     0.054 C 
ATOM      9  C   UNL d   1       3.117  -0.931  -2.662  0.00  0.00     0.018 C 
ENDBRANCH   1   8
TORSDOF 1
ENDMDL
