MODEL 1
REMARK minimizedAffinity -4.04918194
REMARK minimizedRMSD -1
REMARK  1 active torsions:
REMARK  status: ('A' for Active; 'I' for Inactive)
REMARK    1  A    between atoms: C1_2  and  C2_3 
ROOT
ATOM      1  C2  UNL d   1      -0.272  -0.281  -0.139  0.00  0.00    -0.081 A 
ATOM      2  C3  UNL d   1       0.745   0.670   0.010  0.00  0.00     0.006 A 
ATOM      3  C4  UNL d   1       1.942   0.333   0.647  0.00  0.00     0.002 A 
ATOM      4  C5  UNL d   1       2.145  -0.961   1.138  0.00  0.00    -0.080 A 
ATOM      5  C6  UNL d   1       3.437  -1.345   1.796  0.00  0.00     0.076 C 
ATOM      6  C7  UNL d   1       1.122  -1.906   1.004  0.00  0.00     0.002 A 
ATOM      7  C8  UNL d   1      -0.075  -1.570   0.369  0.00  0.00     0.006 A 
ENDROOT
BRANCH   1   8
ATOM      8  C1  UNL d   1      -1.538   0.062  -0.882  0.00  0.00     0.054 C 
ATOM      9  C   UNL d   1      -1.577  -0.611  -2.247  0.00  0.00     0.018 C 
ENDBRANCH   1   8
TORSDOF 1
ENDMDL
