MODEL 1
REMARK minimizedAffinity -0.0628504604
REMARK minimizedRMSD -1
REMARK  0 active torsions:
REMARK  status: ('A' for Active; 'I' for Inactive)
ROOT
ATOM      1  N1  IND d   1       5.565  -5.989  -4.869  0.00  0.00    -0.196 N 
ATOM      2  C2  IND d   1       5.997  -5.790  -3.588  0.00  0.00     0.054 A 
ATOM      3  C3  IND d   1       4.949  -5.542  -2.771  0.00  0.00    -0.031 A 
ATOM      4  C4  IND d   1       2.430  -5.517  -3.305  0.00  0.00     0.051 A 
ATOM      5  C5  IND d   1       1.549  -5.608  -4.345  0.00  0.00    -0.031 A 
ATOM      6  C6  IND d   1       1.969  -5.839  -5.639  0.00  0.00     0.015 A 
ATOM      7  C7  IND d   1       3.292  -5.998  -5.940  0.00  0.00    -0.016 A 
ATOM      8  C8  IND d   1       4.191  -5.899  -4.888  0.00  0.00    -0.047 A 
ATOM      9  C9  IND d   1       3.773  -5.623  -3.579  0.00  0.00    -0.096 A 
ATOM     10  HN1 IND d   1       6.068  -6.145  -5.550  0.00  0.00     0.298 HD
ENDROOT
TORSDOF 0
ENDMDL
