MODEL 1
REMARK minimizedAffinity 5.63689613
REMARK minimizedRMSD -1
REMARK  0 active torsions:
REMARK  status: ('A' for Active; 'I' for Inactive)
ROOT
ATOM      1  N1  IND d   1       4.647  -2.535  -3.807  0.00  0.00    -0.196 N 
ATOM      2  C2  IND d   1       3.353  -2.556  -3.364  0.00  0.00     0.054 A 
ATOM      3  C3  IND d   1       2.713  -3.650  -3.833  0.00  0.00    -0.031 A 
ATOM      4  C4  IND d   1       3.622  -5.592  -5.259  0.00  0.00     0.051 A 
ATOM      5  C5  IND d   1       4.735  -6.000  -5.938  0.00  0.00    -0.031 A 
ATOM      6  C6  IND d   1       5.900  -5.261  -5.939  0.00  0.00     0.015 A 
ATOM      7  C7  IND d   1       6.000  -4.086  -5.249  0.00  0.00    -0.016 A 
ATOM      8  C8  IND d   1       4.869  -3.665  -4.564  0.00  0.00    -0.047 A 
ATOM      9  C9  IND d   1       3.670  -4.389  -4.594  0.00  0.00    -0.096 A 
ATOM     10  HN1 IND d   1       5.224  -1.920  -3.640  0.00  0.00     0.298 HD
ENDROOT
TORSDOF 0
ENDMDL
