MODEL 1
REMARK minimizedAffinity 15.0304298
REMARK minimizedRMSD -1
REMARK  0 active torsions:
REMARK  status: ('A' for Active; 'I' for Inactive)
ROOT
ATOM      1  N1  IND d   1      -1.539   3.060   4.511  0.00  0.00    -0.196 N 
ATOM      2  C2  IND d   1      -0.416   3.820   4.688  0.00  0.00     0.054 A 
ATOM      3  C3  IND d   1       0.487   3.557   3.717  0.00  0.00    -0.031 A 
ATOM      4  C4  IND d   1       0.291   1.993   1.681  0.00  0.00     0.051 A 
ATOM      5  C5  IND d   1      -0.533   1.061   1.114  0.00  0.00    -0.031 A 
ATOM      6  C6  IND d   1      -1.760   0.744   1.659  0.00  0.00     0.015 A 
ATOM      7  C7  IND d   1      -2.216   1.358   2.791  0.00  0.00    -0.016 A 
ATOM      8  C8  IND d   1      -1.379   2.299   3.374  0.00  0.00    -0.047 A 
ATOM      9  C9  IND d   1      -0.115   2.594   2.849  0.00  0.00    -0.096 A 
ATOM     10  HN1 IND d   1      -2.230   3.058   5.024  0.00  0.00     0.298 HD
ENDROOT
TORSDOF 0
ENDMDL
