MODEL 1
REMARK minimizedAffinity 3.92127752
REMARK minimizedRMSD -1
REMARK  0 active torsions:
REMARK  status: ('A' for Active; 'I' for Inactive)
ROOT
ATOM      1  N1  IND d   1      -2.665   1.384   2.675  0.00  0.00    -0.196 N 
ATOM      2  C2  IND d   1      -2.791   0.683   1.509  0.00  0.00     0.054 A 
ATOM      3  C3  IND d   1      -1.747   0.940   0.690  0.00  0.00    -0.031 A 
ATOM      4  C4  IND d   1       0.333   2.400   1.101  0.00  0.00     0.051 A 
ATOM      5  C5  IND d   1       0.878   3.269   2.005  0.00  0.00    -0.031 A 
ATOM      6  C6  IND d   1       0.259   3.557   3.204  0.00  0.00     0.015 A 
ATOM      7  C7  IND d   1      -0.928   2.976   3.550  0.00  0.00    -0.016 A 
ATOM      8  C8  IND d   1      -1.488   2.099   2.631  0.00  0.00    -0.047 A 
ATOM      9  C9  IND d   1      -0.885   1.835   1.395  0.00  0.00    -0.096 A 
ATOM     10  HN1 IND d   1      -3.226   1.379   3.327  0.00  0.00     0.298 HD
ENDROOT
TORSDOF 0
ENDMDL
