MODEL 1
REMARK minimizedAffinity 19.7658195
REMARK minimizedRMSD -1
REMARK  0 active torsions:
REMARK  status: ('A' for Active; 'I' for Inactive)
ROOT
ATOM      1  N1  IND d   1       0.172  -3.752  -3.417  0.00  0.00    -0.196 N 
ATOM      2  C2  IND d   1       1.001  -3.230  -2.464  0.00  0.00     0.054 A 
ATOM      3  C3  IND d   1       2.265  -3.675  -2.645  0.00  0.00    -0.031 A 
ATOM      4  C4  IND d   1       3.218  -5.184  -4.501  0.00  0.00     0.051 A 
ATOM      5  C5  IND d   1       2.840  -5.937  -5.577  0.00  0.00    -0.031 A 
ATOM      6  C6  IND d   1       1.528  -6.000  -5.998  0.00  0.00     0.015 A 
ATOM      7  C7  IND d   1       0.541  -5.299  -5.363  0.00  0.00    -0.016 A 
ATOM      8  C8  IND d   1       0.920  -4.539  -4.266  0.00  0.00    -0.047 A 
ATOM      9  C9  IND d   1       2.244  -4.505  -3.808  0.00  0.00    -0.096 A 
ATOM     10  HN1 IND d   1      -0.674  -3.613  -3.477  0.00  0.00     0.298 HD
ENDROOT
TORSDOF 0
ENDMDL
