MODEL 1
REMARK minimizedAffinity 5.86715651
REMARK minimizedRMSD -1
REMARK  0 active torsions:
REMARK  status: ('A' for Active; 'I' for Inactive)
ROOT
ATOM      1  N1  IND d   1      -0.012   2.060   0.212  0.00  0.00    -0.196 N 
ATOM      2  C2  IND d   1      -0.897   1.066   0.521  0.00  0.00     0.054 A 
ATOM      3  C3  IND d   1      -1.156   1.062   1.848  0.00  0.00    -0.031 A 
ATOM      4  C4  IND d   1      -0.317   2.661   3.682  0.00  0.00     0.051 A 
ATOM      5  C5  IND d   1       0.539   3.706   3.892  0.00  0.00    -0.031 A 
ATOM      6  C6  IND d   1       1.268   4.268   2.864  0.00  0.00     0.015 A 
ATOM      7  C7  IND d   1       1.159   3.812   1.581  0.00  0.00    -0.016 A 
ATOM      8  C8  IND d   1       0.296   2.747   1.366  0.00  0.00    -0.047 A 
ATOM      9  C9  IND d   1      -0.415   2.145   2.412  0.00  0.00    -0.096 A 
ATOM     10  HN1 IND d   1       0.301   2.228  -0.571  0.00  0.00     0.298 HD
ENDROOT
TORSDOF 0
ENDMDL
