MODEL 1
REMARK minimizedAffinity 9.91207409
REMARK minimizedRMSD -1
REMARK  0 active torsions:
REMARK  status: ('A' for Active; 'I' for Inactive)
ROOT
ATOM      1  N1  IND d   1      -2.370  -2.895  -1.731  0.00  0.00    -0.196 N 
ATOM      2  C2  IND d   1      -3.098  -3.971  -1.302  0.00  0.00     0.054 A 
ATOM      3  C3  IND d   1      -2.926  -4.156   0.026  0.00  0.00    -0.031 A 
ATOM      4  C4  IND d   1      -1.576  -2.754   1.712  0.00  0.00     0.051 A 
ATOM      5  C5  IND d   1      -0.714  -1.697   1.787  0.00  0.00    -0.031 A 
ATOM      6  C6  IND d   1      -0.355  -0.968   0.671  0.00  0.00     0.015 A 
ATOM      7  C7  IND d   1      -0.855  -1.264  -0.565  0.00  0.00    -0.016 A 
ATOM      8  C8  IND d   1      -1.726  -2.342  -0.646  0.00  0.00    -0.047 A 
ATOM      9  C9  IND d   1      -2.061  -3.112   0.476  0.00  0.00    -0.096 A 
ATOM     10  HN1 IND d   1      -2.323  -2.612  -2.541  0.00  0.00     0.298 HD
ENDROOT
TORSDOF 0
ENDMDL
