MODEL 1
REMARK minimizedAffinity 7.26914978
REMARK minimizedRMSD -1
REMARK  0 active torsions:
REMARK  status: ('A' for Active; 'I' for Inactive)
ROOT
ATOM      1  N1  IND d   1      -0.563   0.584   1.526  0.00  0.00    -0.196 N 
ATOM      2  C2  IND d   1       0.130   0.601   0.347  0.00  0.00     0.054 A 
ATOM      3  C3  IND d   1       0.609   1.841   0.102  0.00  0.00    -0.031 A 
ATOM      4  C4  IND d   1       0.462   3.967   1.546  0.00  0.00     0.051 A 
ATOM      5  C5  IND d   1      -0.102   4.454   2.692  0.00  0.00    -0.031 A 
ATOM      6  C6  IND d   1      -0.862   3.659   3.526  0.00  0.00     0.015 A 
ATOM      7  C7  IND d   1      -1.077   2.339   3.249  0.00  0.00    -0.016 A 
ATOM      8  C8  IND d   1      -0.512   1.843   2.083  0.00  0.00    -0.047 A 
ATOM      9  C9  IND d   1       0.225   2.655   1.211  0.00  0.00    -0.096 A 
ATOM     10  HN1 IND d   1      -0.964  -0.098   1.862  0.00  0.00     0.298 HD
ENDROOT
TORSDOF 0
ENDMDL
