MODEL 1
REMARK minimizedAffinity 1.12148869
REMARK minimizedRMSD -1
REMARK  0 active torsions:
REMARK  status: ('A' for Active; 'I' for Inactive)
ROOT
ATOM      1  N1  IND d   1      -3.447  -0.359   2.791  0.00  0.00    -0.196 N 
ATOM      2  C2  IND d   1      -2.985  -1.489   3.406  0.00  0.00     0.054 A 
ATOM      3  C3  IND d   1      -1.755  -1.807   2.943  0.00  0.00    -0.031 A 
ATOM      4  C4  IND d   1      -0.271  -0.557   1.251  0.00  0.00     0.051 A 
ATOM      5  C5  IND d   1      -0.276   0.507   0.393  0.00  0.00    -0.031 A 
ATOM      6  C6  IND d   1      -1.360   1.355   0.291  0.00  0.00     0.015 A 
ATOM      7  C7  IND d   1      -2.479   1.177   1.054  0.00  0.00    -0.016 A 
ATOM      8  C8  IND d   1      -2.480   0.094   1.921  0.00  0.00    -0.047 A 
ATOM      9  C9  IND d   1      -1.400  -0.795   1.999  0.00  0.00    -0.096 A 
ATOM     10  HN1 IND d   1      -4.213   0.008   2.925  0.00  0.00     0.298 HD
ENDROOT
TORSDOF 0
ENDMDL
