MODEL 1
REMARK minimizedAffinity 10.9622087
REMARK minimizedRMSD -1
REMARK  0 active torsions:
REMARK  status: ('A' for Active; 'I' for Inactive)
ROOT
ATOM      1  N1  IND d   1       2.489   2.151  -4.744  0.00  0.00    -0.196 N 
ATOM      2  C2  IND d   1       2.954   1.874  -6.000  0.00  0.00     0.054 A 
ATOM      3  C3  IND d   1       4.305   1.810  -5.997  0.00  0.00    -0.031 A 
ATOM      4  C4  IND d   1       5.949   2.027  -4.028  0.00  0.00     0.051 A 
ATOM      5  C5  IND d   1       5.999   2.319  -2.694  0.00  0.00    -0.031 A 
ATOM      6  C6  IND d   1       4.859   2.572  -1.960  0.00  0.00     0.015 A 
ATOM      7  C7  IND d   1       3.619   2.532  -2.532  0.00  0.00    -0.016 A 
ATOM      8  C8  IND d   1       3.565   2.243  -3.889  0.00  0.00    -0.047 A 
ATOM      9  C9  IND d   1       4.722   2.027  -4.648  0.00  0.00    -0.096 A 
ATOM     10  HN1 IND d   1       1.663   2.252  -4.526  0.00  0.00     0.298 HD
ENDROOT
TORSDOF 0
ENDMDL
