MODEL 1
REMARK minimizedAffinity 0.769835949
REMARK minimizedRMSD -1
REMARK  0 active torsions:
REMARK  status: ('A' for Active; 'I' for Inactive)
ROOT
ATOM      1  N1  IND d   1       5.816   2.235  -4.414  0.00  0.00    -0.196 N 
ATOM      2  C2  IND d   1       6.000   2.599  -3.109  0.00  0.00     0.054 A 
ATOM      3  C3  IND d   1       4.857   3.110  -2.598  0.00  0.00    -0.031 A 
ATOM      4  C4  IND d   1       2.539   3.347  -3.692  0.00  0.00     0.051 A 
ATOM      5  C5  IND d   1       1.888   3.185  -4.883  0.00  0.00    -0.031 A 
ATOM      6  C6  IND d   1       2.525   2.685  -6.000  0.00  0.00     0.015 A 
ATOM      7  C7  IND d   1       3.840   2.317  -5.965  0.00  0.00    -0.016 A 
ATOM      8  C8  IND d   1       4.506   2.487  -4.759  0.00  0.00    -0.047 A 
ATOM      9  C9  IND d   1       3.876   3.033  -3.634  0.00  0.00    -0.096 A 
ATOM     10  HN1 IND d   1       6.418   1.904  -4.932  0.00  0.00     0.298 HD
ENDROOT
TORSDOF 0
ENDMDL
