MODEL 1
REMARK minimizedAffinity -1.66547179
REMARK minimizedRMSD -1
REMARK  0 active torsions:
REMARK  status: ('A' for Active; 'I' for Inactive)
ROOT
ATOM      1  N1  IND d   1       4.722   3.236  -5.999  0.00  0.00    -0.196 N 
ATOM      2  C2  IND d   1       5.997   2.998  -5.566  0.00  0.00     0.054 A 
ATOM      3  C3  IND d   1       5.997   2.699  -4.247  0.00  0.00    -0.031 A 
ATOM      4  C4  IND d   1       4.013   2.442  -2.627  0.00  0.00     0.051 A 
ATOM      5  C5  IND d   1       2.657   2.596  -2.552  0.00  0.00    -0.031 A 
ATOM      6  C6  IND d   1       1.905   2.976  -3.644  0.00  0.00     0.015 A 
ATOM      7  C7  IND d   1       2.482   3.206  -4.861  0.00  0.00    -0.016 A 
ATOM      8  C8  IND d   1       3.859   3.058  -4.940  0.00  0.00    -0.047 A 
ATOM      9  C9  IND d   1       4.633   2.714  -3.824  0.00  0.00    -0.096 A 
ATOM     10  HN1 IND d   1       4.497   3.459  -6.798  0.00  0.00     0.298 HD
ENDROOT
TORSDOF 0
ENDMDL
