MODEL 1
REMARK minimizedAffinity 2.60866117
REMARK minimizedRMSD -1
REMARK  0 active torsions:
REMARK  status: ('A' for Active; 'I' for Inactive)
ROOT
ATOM      1  N1  IND d   1       5.838   2.650  -3.689  0.00  0.00    -0.196 N 
ATOM      2  C2  IND d   1       5.610   2.349  -2.375  0.00  0.00     0.054 A 
ATOM      3  C3  IND d   1       4.283   2.255  -2.137  0.00  0.00    -0.031 A 
ATOM      4  C4  IND d   1       2.309   2.456  -3.778  0.00  0.00     0.051 A 
ATOM      5  C5  IND d   1       2.015   2.760  -5.077  0.00  0.00    -0.031 A 
ATOM      6  C6  IND d   1       3.001   3.046  -6.000  0.00  0.00     0.015 A 
ATOM      7  C7  IND d   1       4.324   3.027  -5.658  0.00  0.00    -0.016 A 
ATOM      8  C8  IND d   1       4.625   2.726  -4.338  0.00  0.00    -0.047 A 
ATOM      9  C9  IND d   1       3.627   2.477  -3.387  0.00  0.00    -0.096 A 
ATOM     10  HN1 IND d   1       6.609   2.771  -4.049  0.00  0.00     0.298 HD
ENDROOT
TORSDOF 0
ENDMDL
