MODEL 1
REMARK minimizedAffinity 5.09049273
REMARK minimizedRMSD -1
REMARK  0 active torsions:
REMARK  status: ('A' for Active; 'I' for Inactive)
ROOT
ATOM      1  N1  IND d   1       1.551   4.137   4.436  0.00  0.00    -0.196 N 
ATOM      2  C2  IND d   1       2.532   3.899   3.513  0.00  0.00     0.054 A 
ATOM      3  C3  IND d   1       1.986   3.574   2.320  0.00  0.00    -0.031 A 
ATOM      4  C4  IND d   1      -0.492   3.470   1.629  0.00  0.00     0.051 A 
ATOM      5  C5  IND d   1      -1.757   3.570   2.136  0.00  0.00    -0.031 A 
ATOM      6  C6  IND d   1      -1.988   3.874   3.462  0.00  0.00     0.015 A 
ATOM      7  C7  IND d   1      -0.959   4.100   4.331  0.00  0.00    -0.016 A 
ATOM      8  C8  IND d   1       0.327   3.992   3.821  0.00  0.00    -0.047 A 
ATOM      9  C9  IND d   1       0.569   3.642   2.487  0.00  0.00    -0.096 A 
ATOM     10  HN1 IND d   1       1.678   4.342   5.261  0.00  0.00     0.298 HD
ENDROOT
TORSDOF 0
ENDMDL
