MODEL 1
REMARK minimizedAffinity 2.19010782
REMARK minimizedRMSD -1
REMARK  0 active torsions:
REMARK  status: ('A' for Active; 'I' for Inactive)
ROOT
ATOM      1  N1  IND d   1       1.538   2.894   2.688  0.00  0.00    -0.196 N 
ATOM      2  C2  IND d   1       0.741   3.721   3.430  0.00  0.00     0.054 A 
ATOM      3  C3  IND d   1      -0.543   3.634   3.014  0.00  0.00    -0.031 A 
ATOM      4  C4  IND d   1      -1.577   2.126   1.202  0.00  0.00     0.051 A 
ATOM      5  C5  IND d   1      -1.242   1.226   0.230  0.00  0.00    -0.031 A 
ATOM      6  C6  IND d   1       0.063   0.827   0.024  0.00  0.00     0.015 A 
ATOM      7  C7  IND d   1       1.084   1.305   0.795  0.00  0.00    -0.016 A 
ATOM      8  C8  IND d   1       0.749   2.224   1.779  0.00  0.00    -0.047 A 
ATOM      9  C9  IND d   1      -0.568   2.666   1.964  0.00  0.00    -0.096 A 
ATOM     10  HN1 IND d   1       2.389   2.808   2.774  0.00  0.00     0.298 HD
ENDROOT
TORSDOF 0
ENDMDL
