MODEL 1
REMARK minimizedAffinity -3.8557539
REMARK minimizedRMSD -1
REMARK  0 active torsions:
REMARK  status: ('A' for Active; 'I' for Inactive)
ROOT
ATOM      1  N1  IND d   1       3.174   4.884  -6.000  0.00  0.00    -0.196 N 
ATOM      2  C2  IND d   1       1.890   4.514  -5.709  0.00  0.00     0.054 A 
ATOM      3  C3  IND d   1       1.880   3.586  -4.725  0.00  0.00    -0.031 A 
ATOM      4  C4  IND d   1       3.844   2.606  -3.381  0.00  0.00     0.051 A 
ATOM      5  C5  IND d   1       5.208   2.609  -3.309  0.00  0.00    -0.031 A 
ATOM      6  C6  IND d   1       5.980   3.389  -4.146  0.00  0.00     0.015 A 
ATOM      7  C7  IND d   1       5.413   4.207  -5.082  0.00  0.00    -0.016 A 
ATOM      8  C8  IND d   1       4.028   4.200  -5.162  0.00  0.00    -0.047 A 
ATOM      9  C9  IND d   1       3.241   3.379  -4.344  0.00  0.00    -0.096 A 
ATOM     10  HN1 IND d   1       3.408   5.448  -6.604  0.00  0.00     0.298 HD
ENDROOT
TORSDOF 0
ENDMDL
