MODEL 1
REMARK minimizedAffinity -2.54834843
REMARK minimizedRMSD -1
REMARK  0 active torsions:
REMARK  status: ('A' for Active; 'I' for Inactive)
ROOT
ATOM      1  O1  BZF d   1       3.520  -2.834   3.415  0.00  0.00    -0.204 OA
ATOM      2  C2  BZF d   1       2.642  -3.669   4.079  0.00  0.00     0.174 A 
ATOM      3  C3  BZF d   1       1.377  -3.467   3.656  0.00  0.00    -0.012 A 
ATOM      4  C3A BZF d   1       1.482  -2.507   2.601  0.00  0.00    -0.107 A 
ATOM      5  C4  BZF d   1       0.569  -1.915   1.775  0.00  0.00     0.055 A 
ATOM      6  C5  BZF d   1       0.989  -0.965   0.899  0.00  0.00    -0.016 A 
ATOM      7  C6  BZF d   1       2.311  -0.579   0.825  0.00  0.00     0.022 A 
ATOM      8  C7  BZF d   1       3.254  -1.141   1.620  0.00  0.00     0.029 A 
ATOM      9  C7A BZF d   1       2.839  -2.125   2.483  0.00  0.00     0.058 A 
ENDROOT
TORSDOF 0
ENDMDL
