MODEL 1
REMARK minimizedAffinity 2.49785662
REMARK minimizedRMSD -1
REMARK  0 active torsions:
REMARK  status: ('A' for Active; 'I' for Inactive)
ROOT
ATOM      1  O1  BZF d   1       3.563   0.686   1.265  0.00  0.00    -0.204 OA
ATOM      2  C2  BZF d   1       2.748   1.664   0.729  0.00  0.00     0.174 A 
ATOM      3  C3  BZF d   1       1.480   1.219   0.612  0.00  0.00    -0.012 A 
ATOM      4  C3A BZF d   1       1.486  -0.090   1.191  0.00  0.00    -0.107 A 
ATOM      5  C4  BZF d   1       0.520  -1.035   1.385  0.00  0.00     0.055 A 
ATOM      6  C5  BZF d   1       0.868  -2.237   1.913  0.00  0.00    -0.016 A 
ATOM      7  C6  BZF d   1       2.173  -2.530   2.253  0.00  0.00     0.022 A 
ATOM      8  C7  BZF d   1       3.165  -1.623   2.083  0.00  0.00     0.029 A 
ATOM      9  C7A BZF d   1       2.811  -0.395   1.581  0.00  0.00     0.058 A 
ENDROOT
TORSDOF 0
ENDMDL
