MODEL 1
REMARK minimizedAffinity -1.7263875
REMARK minimizedRMSD -1
REMARK  0 active torsions:
REMARK  status: ('A' for Active; 'I' for Inactive)
ROOT
ATOM      1  O1  BZF d   1       1.846  -0.404   1.273  0.00  0.00    -0.204 OA
ATOM      2  C2  BZF d   1       2.996  -0.864   1.884  0.00  0.00     0.174 A 
ATOM      3  C3  BZF d   1       2.759  -2.015   2.547  0.00  0.00    -0.012 A 
ATOM      4  C3A BZF d   1       1.395  -2.340   2.260  0.00  0.00    -0.107 A 
ATOM      5  C4  BZF d   1       0.582  -3.376   2.619  0.00  0.00     0.055 A 
ATOM      6  C5  BZF d   1      -0.720  -3.359   2.230  0.00  0.00    -0.016 A 
ATOM      7  C6  BZF d   1      -1.243  -2.320   1.488  0.00  0.00     0.022 A 
ATOM      8  C7  BZF d   1      -0.473  -1.272   1.104  0.00  0.00     0.029 A 
ATOM      9  C7A BZF d   1       0.851  -1.303   1.467  0.00  0.00     0.058 A 
ENDROOT
TORSDOF 0
ENDMDL
