MODEL 1
REMARK minimizedAffinity 0.591906011
REMARK minimizedRMSD -1
REMARK  0 active torsions:
REMARK  status: ('A' for Active; 'I' for Inactive)
ROOT
ATOM      1  O1  BZF d   1      -0.067  -1.876   1.214  0.00  0.00    -0.204 OA
ATOM      2  C2  BZF d   1       1.125  -2.159   1.852  0.00  0.00     0.174 A 
ATOM      3  C3  BZF d   1       2.064  -2.543   0.963  0.00  0.00    -0.012 A 
ATOM      4  C3A BZF d   1       1.444  -2.409  -0.320  0.00  0.00    -0.107 A 
ATOM      5  C4  BZF d   1       1.875  -2.625  -1.598  0.00  0.00     0.055 A 
ATOM      6  C5  BZF d   1       0.999  -2.470  -2.625  0.00  0.00    -0.016 A 
ATOM      7  C6  BZF d   1      -0.314  -2.105  -2.411  0.00  0.00     0.022 A 
ATOM      8  C7  BZF d   1      -0.786  -1.875  -1.162  0.00  0.00     0.029 A 
ATOM      9  C7A BZF d   1       0.105  -1.999  -0.124  0.00  0.00     0.058 A 
ENDROOT
TORSDOF 0
ENDMDL
