MODEL 1
REMARK minimizedAffinity 4.60466003
REMARK minimizedRMSD -1
REMARK  0 active torsions:
REMARK  status: ('A' for Active; 'I' for Inactive)
ROOT
ATOM      1  O1  BZF d   1       4.111  -2.757  -3.872  0.00  0.00    -0.204 OA
ATOM      2  C2  BZF d   1       2.864  -2.440  -3.369  0.00  0.00     0.174 A 
ATOM      3  C3  BZF d   1       2.499  -1.196  -3.743  0.00  0.00    -0.012 A 
ATOM      4  C3A BZF d   1       3.546  -0.740  -4.605  0.00  0.00    -0.107 A 
ATOM      5  C4  BZF d   1       3.750   0.414  -5.305  0.00  0.00     0.055 A 
ATOM      6  C5  BZF d   1       4.911   0.573  -5.993  0.00  0.00    -0.016 A 
ATOM      7  C6  BZF d   1       5.890  -0.398  -6.000  0.00  0.00     0.022 A 
ATOM      8  C7  BZF d   1       5.731  -1.563  -5.325  0.00  0.00     0.029 A 
ATOM      9  C7A BZF d   1       4.545  -1.740  -4.655  0.00  0.00     0.058 A 
ENDROOT
TORSDOF 0
ENDMDL
