MODEL 1
REMARK minimizedAffinity -2.87942863
REMARK minimizedRMSD -1
REMARK  1 active torsions:
REMARK  status: ('A' for Active; 'I' for Inactive)
REMARK    1  A    between atoms: C1_2  and  C2_3 
ROOT
ATOM      1  C2  UNL d   1       0.269  -0.138  -0.710  0.00  0.00    -0.073 A 
ATOM      2  C3  UNL d   1      -0.925  -0.765  -1.084  0.00  0.00    -0.002 A 
ATOM      3  C4  UNL d   1      -2.050  -0.686  -0.261  0.00  0.00     0.004 A 
ATOM      4  C5  UNL d   1      -1.994   0.025   0.938  0.00  0.00    -0.004 A 
ATOM      5  C6  UNL d   1      -0.814   0.668   1.322  0.00  0.00    -0.075 A 
ATOM      6  C7  UNL d   1      -0.737   1.436   2.609  0.00  0.00     0.076 C 
ATOM      7  C8  UNL d   1       0.312   0.582   0.492  0.00  0.00     0.001 A 
ENDROOT
BRANCH   1   8
ATOM      8  C1  UNL d   1       1.484  -0.215  -1.598  0.00  0.00     0.053 C 
ATOM      9  C   UNL d   1       1.134  -0.004  -3.063  0.00  0.00     0.018 C 
ENDBRANCH   1   8
TORSDOF 1
ENDMDL
