MODEL 1
REMARK minimizedAffinity -3.18860102
REMARK minimizedRMSD -1
REMARK  1 active torsions:
REMARK  status: ('A' for Active; 'I' for Inactive)
REMARK    1  A    between atoms: C1_2  and  C2_3 
ROOT
ATOM      1  C2  UNL d   1       0.028  -0.149  -0.498  0.00  0.00    -0.073 A 
ATOM      2  C3  UNL d   1      -1.327  -0.409  -0.736  0.00  0.00    -0.002 A 
ATOM      3  C4  UNL d   1      -2.294  -0.006   0.184  0.00  0.00     0.004 A 
ATOM      4  C5  UNL d   1      -1.920   0.667   1.347  0.00  0.00    -0.004 A 
ATOM      5  C6  UNL d   1      -0.573   0.946   1.598  0.00  0.00    -0.075 A 
ATOM      6  C7  UNL d   1      -0.153   1.667   2.845  0.00  0.00     0.076 C 
ATOM      7  C8  UNL d   1       0.394   0.536   0.670  0.00  0.00     0.001 A 
ENDROOT
BRANCH   1   8
ATOM      8  C1  UNL d   1       1.076  -0.577  -1.492  0.00  0.00     0.053 C 
ATOM      9  C   UNL d   1       0.770  -0.075  -2.894  0.00  0.00     0.018 C 
ENDBRANCH   1   8
TORSDOF 1
ENDMDL
