MODEL 1
REMARK minimizedAffinity 6.81035423
REMARK minimizedRMSD -1
REMARK  1 active torsions:
REMARK  status: ('A' for Active; 'I' for Inactive)
REMARK    1  A    between atoms: C1_2  and  C2_3 
ROOT
ATOM      1  C2  UNL d   1       4.784   2.261   3.759  0.00  0.00    -0.077 A 
ATOM      2  C3  UNL d   1       4.788   0.951   3.260  0.00  0.00     0.002 A 
ATOM      3  C4  UNL d   1       5.395  -0.078   3.983  0.00  0.00     0.002 A 
ATOM      4  C5  UNL d   1       5.997   0.191   5.210  0.00  0.00    -0.004 A 
ATOM      5  C6  UNL d   1       6.000   1.491   5.714  0.00  0.00     0.002 A 
ATOM      6  C7  UNL d   1       5.395   2.521   4.992  0.00  0.00     0.002 A 
ENDROOT
BRANCH   1   7
ATOM      7  C1  UNL d   1       4.087   3.363   3.004  0.00  0.00     0.055 C 
ATOM      8  C   UNL d   1       4.871   4.665   3.078  0.00  0.00     0.019 C 
ENDBRANCH   1   7
TORSDOF 1
ENDMDL
