MODEL 1
REMARK minimizedAffinity -4.01694965
REMARK minimizedRMSD -1
REMARK  1 active torsions:
REMARK  status: ('A' for Active; 'I' for Inactive)
REMARK    1  A    between atoms: C1_2  and  C2_3 
ROOT
ATOM      1  C2  UNL d   1      -2.428   1.494   1.015  0.00  0.00    -0.077 A 
ATOM      2  C3  UNL d   1      -2.938   0.534   0.130  0.00  0.00     0.002 A 
ATOM      3  C4  UNL d   1      -3.310  -0.729   0.596  0.00  0.00     0.002 A 
ATOM      4  C5  UNL d   1      -3.180  -1.040   1.947  0.00  0.00    -0.004 A 
ATOM      5  C6  UNL d   1      -2.673  -0.093   2.835  0.00  0.00     0.002 A 
ATOM      6  C7  UNL d   1      -2.299   1.169   2.371  0.00  0.00     0.002 A 
ENDROOT
BRANCH   1   7
ATOM      7  C1  UNL d   1      -2.072   2.873   0.523  0.00  0.00     0.055 C 
ATOM      8  C   UNL d   1      -3.299   3.610   0.006  0.00  0.00     0.019 C 
ENDBRANCH   1   7
TORSDOF 1
ENDMDL
