MODEL 1
REMARK minimizedAffinity -0.428528517
REMARK minimizedRMSD -1
REMARK  1 active torsions:
REMARK  status: ('A' for Active; 'I' for Inactive)
REMARK    1  A    between atoms: C1_2  and  C2_3 
ROOT
ATOM      1  C2  UNL d   1       3.876  -0.310   2.995  0.00  0.00    -0.077 A 
ATOM      2  C3  UNL d   1       5.003  -0.624   3.768  0.00  0.00     0.002 A 
ATOM      3  C4  UNL d   1       6.000   0.330   3.982  0.00  0.00     0.002 A 
ATOM      4  C5  UNL d   1       5.879   1.603   3.430  0.00  0.00    -0.004 A 
ATOM      5  C6  UNL d   1       4.763   1.924   2.658  0.00  0.00     0.002 A 
ATOM      6  C7  UNL d   1       3.766   0.972   2.442  0.00  0.00     0.002 A 
ENDROOT
BRANCH   1   7
ATOM      7  C1  UNL d   1       2.776  -1.321   2.804  0.00  0.00     0.055 C 
ATOM      8  C   UNL d   1       2.943  -2.081   1.496  0.00  0.00     0.019 C 
ENDBRANCH   1   7
TORSDOF 1
ENDMDL
