MODEL 1
REMARK minimizedAffinity -2.68853617
REMARK minimizedRMSD -1
REMARK  1 active torsions:
REMARK  status: ('A' for Active; 'I' for Inactive)
REMARK    1  A    between atoms: C1_2  and  C2_3 
ROOT
ATOM      1  C2  UNL d   1      -2.911   1.230   1.726  0.00  0.00    -0.077 A 
ATOM      2  C3  UNL d   1      -2.781   2.601   1.988  0.00  0.00     0.002 A 
ATOM      3  C4  UNL d   1      -3.243   3.543   1.066  0.00  0.00     0.002 A 
ATOM      4  C5  UNL d   1      -3.841   3.124  -0.120  0.00  0.00    -0.004 A 
ATOM      5  C6  UNL d   1      -3.974   1.763  -0.391  0.00  0.00     0.002 A 
ATOM      6  C7  UNL d   1      -3.512   0.820   0.528  0.00  0.00     0.002 A 
ENDROOT
BRANCH   1   7
ATOM      7  C1  UNL d   1      -2.458   0.212   2.740  0.00  0.00     0.055 C 
ATOM      8  C   UNL d   1      -3.620  -0.270   3.597  0.00  0.00     0.019 C 
ENDBRANCH   1   7
TORSDOF 1
ENDMDL
