MODEL 1
REMARK minimizedAffinity 2.44058681
REMARK minimizedRMSD -1
REMARK  1 active torsions:
REMARK  status: ('A' for Active; 'I' for Inactive)
REMARK    1  A    between atoms: C1_2  and  C2_3 
ROOT
ATOM      1  C2  UNL d   1       4.575   1.681   2.375  0.00  0.00    -0.077 A 
ATOM      2  C3  UNL d   1       4.922   0.498   3.043  0.00  0.00     0.002 A 
ATOM      3  C4  UNL d   1       5.633   0.547   4.243  0.00  0.00     0.002 A 
ATOM      4  C5  UNL d   1       5.999   1.776   4.789  0.00  0.00    -0.004 A 
ATOM      5  C6  UNL d   1       5.660   2.958   4.131  0.00  0.00     0.002 A 
ATOM      6  C7  UNL d   1       4.950   2.910   2.931  0.00  0.00     0.002 A 
ENDROOT
BRANCH   1   7
ATOM      7  C1  UNL d   1       3.765   1.631   1.106  0.00  0.00     0.055 C 
ATOM      8  C   UNL d   1       2.740   2.755   1.059  0.00  0.00     0.019 C 
ENDBRANCH   1   7
TORSDOF 1
ENDMDL
