MODEL 1
REMARK minimizedAffinity 8.67181015
REMARK minimizedRMSD -1
REMARK  1 active torsions:
REMARK  status: ('A' for Active; 'I' for Inactive)
REMARK    1  A    between atoms: C1_2  and  C2_3 
ROOT
ATOM      1  C2  UNL d   1      -4.587   5.751   3.843  0.00  0.00    -0.077 A 
ATOM      2  C3  UNL d   1      -5.828   5.713   3.192  0.00  0.00     0.002 A 
ATOM      3  C4  UNL d   1      -5.895   5.504   1.813  0.00  0.00     0.002 A 
ATOM      4  C5  UNL d   1      -4.727   5.328   1.075  0.00  0.00    -0.004 A 
ATOM      5  C6  UNL d   1      -3.488   5.367   1.714  0.00  0.00     0.002 A 
ATOM      6  C7  UNL d   1      -3.418   5.576   3.092  0.00  0.00     0.002 A 
ENDROOT
BRANCH   1   7
ATOM      7  C1  UNL d   1      -4.515   5.927   5.338  0.00  0.00     0.055 C 
ATOM      8  C   UNL d   1      -5.904   5.999   5.955  0.00  0.00     0.019 C 
ENDBRANCH   1   7
TORSDOF 1
ENDMDL
