MODEL 1
REMARK minimizedAffinity 2.21518254
REMARK minimizedRMSD -1
REMARK  1 active torsions:
REMARK  status: ('A' for Active; 'I' for Inactive)
REMARK    1  A    between atoms: C1_2  and  C2_3 
ROOT
ATOM      1  C2  UNL d   1       5.414   3.410   3.383  0.00  0.00    -0.077 A 
ATOM      2  C3  UNL d   1       5.999   2.573   4.344  0.00  0.00     0.002 A 
ATOM      3  C4  UNL d   1       5.795   1.193   4.295  0.00  0.00     0.002 A 
ATOM      4  C5  UNL d   1       5.010   0.638   3.287  0.00  0.00    -0.004 A 
ATOM      5  C6  UNL d   1       4.423   1.462   2.328  0.00  0.00     0.002 A 
ATOM      6  C7  UNL d   1       4.624   2.842   2.376  0.00  0.00     0.002 A 
ENDROOT
BRANCH   1   7
ATOM      7  C1  UNL d   1       5.674   4.894   3.405  0.00  0.00     0.055 C 
ATOM      8  C   UNL d   1       5.567   5.454   4.816  0.00  0.00     0.019 C 
ENDBRANCH   1   7
TORSDOF 1
ENDMDL
