MODEL 1
REMARK minimizedAffinity 0.313583702
REMARK minimizedRMSD -1
REMARK  1 active torsions:
REMARK  status: ('A' for Active; 'I' for Inactive)
REMARK    1  A    between atoms: C1_2  and  C2_3 
ROOT
ATOM      1  C2  UNL d   1       4.024  -0.732   3.663  0.00  0.00    -0.077 A 
ATOM      2  C3  UNL d   1       3.746   0.404   2.891  0.00  0.00     0.002 A 
ATOM      3  C4  UNL d   1       4.588   1.517   2.943  0.00  0.00     0.002 A 
ATOM      4  C5  UNL d   1       5.715   1.502   3.763  0.00  0.00    -0.004 A 
ATOM      5  C6  UNL d   1       5.999   0.377   4.536  0.00  0.00     0.002 A 
ATOM      6  C7  UNL d   1       5.158  -0.735   4.486  0.00  0.00     0.002 A 
ENDROOT
BRANCH   1   7
ATOM      7  C1  UNL d   1       3.145  -1.952   3.570  0.00  0.00     0.055 C 
ATOM      8  C   UNL d   1       1.956  -1.850   4.515  0.00  0.00     0.019 C 
ENDBRANCH   1   7
TORSDOF 1
ENDMDL
