MODEL 1
REMARK minimizedAffinity -2.83127069
REMARK minimizedRMSD -1
REMARK  1 active torsions:
REMARK  status: ('A' for Active; 'I' for Inactive)
REMARK    1  A    between atoms: C1_2  and  C2_3 
ROOT
ATOM      1  C2  UNL d   1       3.530  -0.769   1.872  0.00  0.00    -0.077 A 
ATOM      2  C3  UNL d   1       3.125   0.568   1.758  0.00  0.00     0.002 A 
ATOM      3  C4  UNL d   1       3.775   1.568   2.485  0.00  0.00     0.002 A 
ATOM      4  C5  UNL d   1       4.837   1.241   3.326  0.00  0.00    -0.004 A 
ATOM      5  C6  UNL d   1       5.246  -0.086   3.447  0.00  0.00     0.002 A 
ATOM      6  C7  UNL d   1       4.597  -1.086   2.723  0.00  0.00     0.002 A 
ENDROOT
BRANCH   1   7
ATOM      7  C1  UNL d   1       2.862  -1.842   1.052  0.00  0.00     0.055 C 
ATOM      8  C   UNL d   1       1.439  -1.450   0.682  0.00  0.00     0.019 C 
ENDBRANCH   1   7
TORSDOF 1
ENDMDL
