MODEL 1
REMARK minimizedAffinity -1.42994332
REMARK minimizedRMSD -1
REMARK  1 active torsions:
REMARK  status: ('A' for Active; 'I' for Inactive)
REMARK    1  A    between atoms: C1_2  and  C2_3 
ROOT
ATOM      1  C2  UNL d   1       5.642   3.928   4.124  0.00  0.00    -0.077 A 
ATOM      2  C3  UNL d   1       5.998   3.172   5.250  0.00  0.00     0.002 A 
ATOM      3  C4  UNL d   1       5.784   1.793   5.271  0.00  0.00     0.002 A 
ATOM      4  C5  UNL d   1       5.218   1.157   4.167  0.00  0.00    -0.004 A 
ATOM      5  C6  UNL d   1       4.860   1.900   3.044  0.00  0.00     0.002 A 
ATOM      6  C7  UNL d   1       5.072   3.280   3.022  0.00  0.00     0.002 A 
ENDROOT
BRANCH   1   7
ATOM      7  C1  UNL d   1       5.918   5.409   4.081  0.00  0.00     0.055 C 
ATOM      8  C   UNL d   1       5.994   5.999   5.481  0.00  0.00     0.019 C 
ENDBRANCH   1   7
TORSDOF 1
ENDMDL
