MODEL 1
REMARK minimizedAffinity -2.35690093
REMARK minimizedRMSD -1
REMARK  0 active torsions:
REMARK  status: ('A' for Active; 'I' for Inactive)
ROOT
ATOM      1  O1  BZF d   1      -1.526   0.405  -0.446  0.00  0.00    -0.204 OA
ATOM      2  C2  BZF d   1      -1.411   1.580  -1.164  0.00  0.00     0.174 A 
ATOM      3  C3  BZF d   1      -0.145   1.754  -1.595  0.00  0.00    -0.012 A 
ATOM      4  C3A BZF d   1       0.555   0.572  -1.195  0.00  0.00    -0.107 A 
ATOM      5  C4  BZF d   1       1.844   0.147  -1.349  0.00  0.00     0.055 A 
ATOM      6  C5  BZF d   1       2.225  -1.025  -0.776  0.00  0.00    -0.016 A 
ATOM      7  C6  BZF d   1       1.348  -1.792  -0.039  0.00  0.00     0.022 A 
ATOM      8  C7  BZF d   1       0.058  -1.414   0.138  0.00  0.00     0.029 A 
ATOM      9  C7A BZF d   1      -0.339  -0.247  -0.468  0.00  0.00     0.058 A 
ENDROOT
TORSDOF 0
ENDMDL
