MODEL 1
REMARK minimizedAffinity -4.90927792
REMARK minimizedRMSD -1
REMARK  0 active torsions:
REMARK  status: ('A' for Active; 'I' for Inactive)
ROOT
ATOM      1  O1  BZF d   1       2.704  -1.519  -1.424  0.00  0.00    -0.204 OA
ATOM      2  C2  BZF d   1       3.325  -0.415  -1.974  0.00  0.00     0.174 A 
ATOM      3  C3  BZF d   1       2.543   0.679  -1.864  0.00  0.00    -0.012 A 
ATOM      4  C3A BZF d   1       1.398   0.249  -1.121  0.00  0.00    -0.107 A 
ATOM      5  C4  BZF d   1       0.274   0.885  -0.677  0.00  0.00     0.055 A 
ATOM      6  C5  BZF d   1      -0.686   0.163  -0.042  0.00  0.00    -0.016 A 
ATOM      7  C6  BZF d   1      -0.558  -1.196   0.160  0.00  0.00     0.022 A 
ATOM      8  C7  BZF d   1       0.541  -1.869  -0.258  0.00  0.00     0.029 A 
ATOM      9  C7A BZF d   1       1.528  -1.137  -0.870  0.00  0.00     0.058 A 
ENDROOT
TORSDOF 0
ENDMDL
