MODEL 1
REMARK minimizedAffinity -3.10990119
REMARK minimizedRMSD -1
REMARK  0 active torsions:
REMARK  status: ('A' for Active; 'I' for Inactive)
ROOT
ATOM      1  O1  BZF d   1      -0.816   0.926  -0.196  0.00  0.00    -0.204 OA
ATOM      2  C2  BZF d   1      -0.945  -0.091   0.731  0.00  0.00     0.174 A 
ATOM      3  C3  BZF d   1       0.001  -1.033   0.542  0.00  0.00    -0.012 A 
ATOM      4  C3A BZF d   1       0.826  -0.532  -0.515  0.00  0.00    -0.107 A 
ATOM      5  C4  BZF d   1       1.941  -1.010  -1.143  0.00  0.00     0.055 A 
ATOM      6  C5  BZF d   1       2.461  -0.311  -2.186  0.00  0.00    -0.016 A 
ATOM      7  C6  BZF d   1       1.891   0.863  -2.630  0.00  0.00     0.022 A 
ATOM      8  C7  BZF d   1       0.787   1.379  -2.036  0.00  0.00     0.029 A 
ATOM      9  C7A BZF d   1       0.278   0.693  -0.960  0.00  0.00     0.058 A 
ENDROOT
TORSDOF 0
ENDMDL
