MODEL 1
REMARK minimizedAffinity -4.93425322
REMARK minimizedRMSD -1
REMARK  0 active torsions:
REMARK  status: ('A' for Active; 'I' for Inactive)
ROOT
ATOM      1  O1  BZF d   1      -0.548   1.667  -1.276  0.00  0.00    -0.204 OA
ATOM      2  C2  BZF d   1       0.127   2.487  -2.159  0.00  0.00     0.174 A 
ATOM      3  C3  BZF d   1       1.378   2.031  -2.374  0.00  0.00    -0.012 A 
ATOM      4  C3A BZF d   1       1.461   0.802  -1.647  0.00  0.00    -0.107 A 
ATOM      5  C4  BZF d   1       2.448  -0.127  -1.483  0.00  0.00     0.055 A 
ATOM      6  C5  BZF d   1       2.234  -1.179  -0.649  0.00  0.00    -0.016 A 
ATOM      7  C6  BZF d   1       1.048  -1.329   0.039  0.00  0.00     0.022 A 
ATOM      8  C7  BZF d   1       0.038  -0.436  -0.095  0.00  0.00     0.029 A 
ATOM      9  C7A BZF d   1       0.239   0.610  -0.962  0.00  0.00     0.058 A 
ENDROOT
TORSDOF 0
ENDMDL
