MODEL 1
REMARK minimizedAffinity -4.24636173
REMARK minimizedRMSD -1
REMARK  0 active torsions:
REMARK  status: ('A' for Active; 'I' for Inactive)
ROOT
ATOM      1  O1  BZF d   1       2.130  -1.747  -1.511  0.00  0.00    -0.204 OA
ATOM      2  C2  BZF d   1       1.160  -2.729  -1.566  0.00  0.00     0.174 A 
ATOM      3  C3  BZF d   1       0.012  -2.299  -1.003  0.00  0.00    -0.012 A 
ATOM      4  C3A BZF d   1       0.254  -0.933  -0.653  0.00  0.00    -0.107 A 
ATOM      5  C4  BZF d   1      -0.513   0.038  -0.074  0.00  0.00     0.055 A 
ATOM      6  C5  BZF d   1       0.046   1.246   0.198  0.00  0.00    -0.016 A 
ATOM      7  C6  BZF d   1       1.367   1.517  -0.091  0.00  0.00     0.022 A 
ATOM      8  C7  BZF d   1       2.166   0.588  -0.670  0.00  0.00     0.029 A 
ATOM      9  C7A BZF d   1       1.595  -0.624  -0.976  0.00  0.00     0.058 A 
ENDROOT
TORSDOF 0
ENDMDL
