MODEL 1
REMARK minimizedAffinity -5.80720806
REMARK minimizedRMSD -1
REMARK  0 active torsions:
REMARK  status: ('A' for Active; 'I' for Inactive)
ROOT
ATOM      1  O1  BZF d   1       1.120   1.748  -1.623  0.00  0.00    -0.204 OA
ATOM      2  C2  BZF d   1       2.183   1.508  -2.472  0.00  0.00     0.174 A 
ATOM      3  C3  BZF d   1       2.620   0.239  -2.344  0.00  0.00    -0.012 A 
ATOM      4  C3A BZF d   1       1.720  -0.379  -1.420  0.00  0.00    -0.107 A 
ATOM      5  C4  BZF d   1       1.624  -1.638  -0.901  0.00  0.00     0.055 A 
ATOM      6  C5  BZF d   1       0.673  -1.897   0.035  0.00  0.00    -0.016 A 
ATOM      7  C6  BZF d   1      -0.193  -0.919   0.479  0.00  0.00     0.022 A 
ATOM      8  C7  BZF d   1      -0.140   0.344  -0.010  0.00  0.00     0.029 A 
ATOM      9  C7A BZF d   1       0.798   0.600  -0.980  0.00  0.00     0.058 A 
ENDROOT
TORSDOF 0
ENDMDL
