MODEL 1
REMARK minimizedAffinity -5.30376339
REMARK minimizedRMSD -1
REMARK  0 active torsions:
REMARK  status: ('A' for Active; 'I' for Inactive)
ROOT
ATOM      1  O1  BZF d   1      -0.935   1.003  -0.581  0.00  0.00    -0.204 OA
ATOM      2  C2  BZF d   1      -0.697   2.034  -1.470  0.00  0.00     0.174 A 
ATOM      3  C3  BZF d   1       0.436   1.812  -2.167  0.00  0.00    -0.012 A 
ATOM      4  C3A BZF d   1       0.888   0.520  -1.750  0.00  0.00    -0.107 A 
ATOM      5  C4  BZF d   1       1.955  -0.258  -2.096  0.00  0.00     0.055 A 
ATOM      6  C5  BZF d   1       2.151  -1.437  -1.449  0.00  0.00    -0.016 A 
ATOM      7  C6  BZF d   1       1.304  -1.864  -0.447  0.00  0.00     0.022 A 
ATOM      8  C7  BZF d   1       0.230  -1.128  -0.072  0.00  0.00     0.029 A 
ATOM      9  C7A BZF d   1       0.010   0.047  -0.747  0.00  0.00     0.058 A 
ENDROOT
TORSDOF 0
ENDMDL
