MODEL 1
REMARK minimizedAffinity -1.70699871
REMARK minimizedRMSD -1
REMARK  0 active torsions:
REMARK  status: ('A' for Active; 'I' for Inactive)
ROOT
ATOM      1  O1  BZF d   1       0.357   1.639  -1.881  0.00  0.00    -0.204 OA
ATOM      2  C2  BZF d   1       1.178   1.699  -2.990  0.00  0.00     0.174 A 
ATOM      3  C3  BZF d   1       1.908   0.572  -3.107  0.00  0.00    -0.012 A 
ATOM      4  C3A BZF d   1       1.452  -0.283  -2.054  0.00  0.00    -0.107 A 
ATOM      5  C4  BZF d   1       1.786  -1.547  -1.660  0.00  0.00     0.055 A 
ATOM      6  C5  BZF d   1       1.205  -2.067  -0.547  0.00  0.00    -0.016 A 
ATOM      7  C6  BZF d   1       0.293  -1.350   0.198  0.00  0.00     0.022 A 
ATOM      8  C7  BZF d   1      -0.073  -0.093  -0.156  0.00  0.00     0.029 A 
ATOM      9  C7A BZF d   1       0.487   0.422  -1.299  0.00  0.00     0.058 A 
ENDROOT
TORSDOF 0
ENDMDL
