MODEL 1
REMARK minimizedAffinity -6.32391024
REMARK minimizedRMSD -1
REMARK  0 active torsions:
REMARK  status: ('A' for Active; 'I' for Inactive)
ROOT
ATOM      1  O1  BZF d   1      -0.712   0.616  -0.019  0.00  0.00    -0.204 OA
ATOM      2  C2  BZF d   1      -0.583  -0.587   0.648  0.00  0.00     0.174 A 
ATOM      3  C3  BZF d   1       0.366  -1.354   0.072  0.00  0.00    -0.012 A 
ATOM      4  C3A BZF d   1       0.925  -0.544  -0.966  0.00  0.00    -0.107 A 
ATOM      5  C4  BZF d   1       1.919  -0.745  -1.881  0.00  0.00     0.055 A 
ATOM      6  C5  BZF d   1       2.171   0.220  -2.805  0.00  0.00    -0.016 A 
ATOM      7  C6  BZF d   1       1.445   1.392  -2.847  0.00  0.00     0.022 A 
ATOM      8  C7  BZF d   1       0.453   1.639  -1.957  0.00  0.00     0.029 A 
ATOM      9  C7A BZF d   1       0.218   0.680  -1.001  0.00  0.00     0.058 A 
ENDROOT
TORSDOF 0
ENDMDL
