MODEL 1
REMARK minimizedAffinity -3.18961573
REMARK minimizedRMSD -1
REMARK  0 active torsions:
REMARK  status: ('A' for Active; 'I' for Inactive)
ROOT
ATOM      1  O1  BZF d   1       0.204   1.163  -1.446  0.00  0.00    -0.204 OA
ATOM      2  C2  BZF d   1       1.027   1.658  -2.439  0.00  0.00     0.174 A 
ATOM      3  C3  BZF d   1       1.995   0.771  -2.745  0.00  0.00    -0.012 A 
ATOM      4  C3A BZF d   1       1.708  -0.387  -1.954  0.00  0.00    -0.107 A 
ATOM      5  C4  BZF d   1       2.303  -1.609  -1.828  0.00  0.00     0.055 A 
ATOM      6  C5  BZF d   1       1.818  -2.489  -0.914  0.00  0.00    -0.016 A 
ATOM      7  C6  BZF d   1       0.743  -2.179  -0.107  0.00  0.00     0.022 A 
ATOM      8  C7  BZF d   1       0.117  -0.981  -0.198  0.00  0.00     0.029 A 
ATOM      9  C7A BZF d   1       0.584  -0.101  -1.144  0.00  0.00     0.058 A 
ENDROOT
TORSDOF 0
ENDMDL
