MODEL 1
REMARK minimizedAffinity -4.92328739
REMARK minimizedRMSD -1
REMARK  0 active torsions:
REMARK  status: ('A' for Active; 'I' for Inactive)
ROOT
ATOM      1  O1  BZF d   1      -2.877  -1.113   4.905  0.00  0.00    -0.204 OA
ATOM      2  C2  BZF d   1      -3.252  -2.299   4.305  0.00  0.00     0.174 A 
ATOM      3  C3  BZF d   1      -3.263  -2.174   2.962  0.00  0.00    -0.012 A 
ATOM      4  C3A BZF d   1      -2.781  -0.851   2.704  0.00  0.00    -0.107 A 
ATOM      5  C4  BZF d   1      -2.550  -0.143   1.559  0.00  0.00     0.055 A 
ATOM      6  C5  BZF d   1      -2.149   1.152   1.654  0.00  0.00    -0.016 A 
ATOM      7  C6  BZF d   1      -1.973   1.770   2.874  0.00  0.00     0.022 A 
ATOM      8  C7  BZF d   1      -2.184   1.107   4.037  0.00  0.00     0.029 A 
ATOM      9  C7A BZF d   1      -2.559  -0.211   3.945  0.00  0.00     0.058 A 
ENDROOT
TORSDOF 0
ENDMDL
