MODEL 1
REMARK minimizedAffinity -4.04009247
REMARK minimizedRMSD -1
REMARK  0 active torsions:
REMARK  status: ('A' for Active; 'I' for Inactive)
ROOT
ATOM      1  O1  BZF d   1       1.279   1.253  -1.530  0.00  0.00    -0.204 OA
ATOM      2  C2  BZF d   1       2.434   0.969  -2.233  0.00  0.00     0.174 A 
ATOM      3  C3  BZF d   1       2.860  -0.283  -1.967  0.00  0.00    -0.012 A 
ATOM      4  C3A BZF d   1       1.861  -0.846  -1.111  0.00  0.00    -0.107 A 
ATOM      5  C4  BZF d   1       1.712  -2.068  -0.520  0.00  0.00     0.055 A 
ATOM      6  C5  BZF d   1       0.660  -2.274   0.317  0.00  0.00    -0.016 A 
ATOM      7  C6  BZF d   1      -0.256  -1.279   0.588  0.00  0.00     0.022 A 
ATOM      8  C7  BZF d   1      -0.153  -0.052   0.022  0.00  0.00     0.029 A 
ATOM      9  C7A BZF d   1       0.890   0.148  -0.850  0.00  0.00     0.058 A 
ENDROOT
TORSDOF 0
ENDMDL
