MODEL 1
REMARK minimizedAffinity -4.93658733
REMARK minimizedRMSD -1
REMARK  0 active torsions:
REMARK  status: ('A' for Active; 'I' for Inactive)
ROOT
ATOM      1  O1  BZF d   1      -0.528  -1.482  -0.930  0.00  0.00    -0.204 OA
ATOM      2  C2  BZF d   1      -1.287  -0.474  -0.367  0.00  0.00     0.174 A 
ATOM      3  C3  BZF d   1      -0.530   0.616  -0.126  0.00  0.00    -0.012 A 
ATOM      4  C3A BZF d   1       0.763   0.300  -0.650  0.00  0.00    -0.107 A 
ATOM      5  C4  BZF d   1       1.940   0.989  -0.725  0.00  0.00     0.055 A 
ATOM      6  C5  BZF d   1       3.037   0.369  -1.232  0.00  0.00    -0.016 A 
ATOM      7  C6  BZF d   1       2.995  -0.939  -1.669  0.00  0.00     0.022 A 
ATOM      8  C7  BZF d   1       1.849  -1.661  -1.620  0.00  0.00     0.029 A 
ATOM      9  C7A BZF d   1       0.731  -1.027  -1.138  0.00  0.00     0.058 A 
ENDROOT
TORSDOF 0
ENDMDL
