MODEL 1
REMARK minimizedAffinity 0.389723063
REMARK minimizedRMSD -1
REMARK  0 active torsions:
REMARK  status: ('A' for Active; 'I' for Inactive)
ROOT
ATOM      1  O1  BZF d   1      -2.745   1.759   3.866  0.00  0.00    -0.204 OA
ATOM      2  C2  BZF d   1      -3.686   0.759   4.025  0.00  0.00     0.174 A 
ATOM      3  C3  BZF d   1      -3.475  -0.240   3.144  0.00  0.00    -0.012 A 
ATOM      4  C3A BZF d   1      -2.277   0.117   2.449  0.00  0.00    -0.107 A 
ATOM      5  C4  BZF d   1      -1.549  -0.485   1.463  0.00  0.00     0.055 A 
ATOM      6  C5  BZF d   1      -0.468   0.162   0.952  0.00  0.00    -0.016 A 
ATOM      7  C6  BZF d   1      -0.091   1.411   1.399  0.00  0.00     0.022 A 
ATOM      8  C7  BZF d   1      -0.779   2.046   2.379  0.00  0.00     0.029 A 
ATOM      9  C7A BZF d   1      -1.852   1.381   2.920  0.00  0.00     0.058 A 
ENDROOT
TORSDOF 0
ENDMDL
