MODEL 1
REMARK minimizedAffinity 0.446308464
REMARK minimizedRMSD -1
REMARK  0 active torsions:
REMARK  status: ('A' for Active; 'I' for Inactive)
ROOT
ATOM      1  O1  BZF d   1      -0.987  -0.612   1.395  0.00  0.00    -0.204 OA
ATOM      2  C2  BZF d   1      -1.294   0.674   0.995  0.00  0.00     0.174 A 
ATOM      3  C3  BZF d   1      -0.563   1.026  -0.083  0.00  0.00    -0.012 A 
ATOM      4  C3A BZF d   1       0.184  -0.143  -0.429  0.00  0.00    -0.107 A 
ATOM      5  C4  BZF d   1       1.080  -0.425  -1.421  0.00  0.00     0.055 A 
ATOM      6  C5  BZF d   1       1.686  -1.642  -1.438  0.00  0.00    -0.016 A 
ATOM      7  C6  BZF d   1       1.425  -2.596  -0.476  0.00  0.00     0.022 A 
ATOM      8  C7  BZF d   1       0.541  -2.364   0.524  0.00  0.00     0.029 A 
ATOM      9  C7A BZF d   1      -0.098  -1.148   0.525  0.00  0.00     0.058 A 
ENDROOT
TORSDOF 0
ENDMDL
