MODEL 1
REMARK minimizedAffinity -3.55126357
REMARK minimizedRMSD -1
REMARK  0 active torsions:
REMARK  status: ('A' for Active; 'I' for Inactive)
ROOT
ATOM      1  O1  BZF d   1       1.599  -2.750  -1.280  0.00  0.00    -0.204 OA
ATOM      2  C2  BZF d   1       0.650  -3.470  -0.580  0.00  0.00     0.174 A 
ATOM      3  C3  BZF d   1      -0.075  -2.659   0.217  0.00  0.00    -0.012 A 
ATOM      4  C3A BZF d   1       0.392  -1.337  -0.067  0.00  0.00    -0.107 A 
ATOM      5  C4  BZF d   1       0.048  -0.100   0.397  0.00  0.00     0.055 A 
ATOM      6  C5  BZF d   1       0.748   0.984  -0.029  0.00  0.00    -0.016 A 
ATOM      7  C6  BZF d   1       1.800   0.867  -0.914  0.00  0.00     0.022 A 
ATOM      8  C7  BZF d   1       2.176  -0.339  -1.406  0.00  0.00     0.029 A 
ATOM      9  C7A BZF d   1       1.449  -1.432  -1.002  0.00  0.00     0.058 A 
ENDROOT
TORSDOF 0
ENDMDL
