MODEL 1
REMARK minimizedAffinity 10.7103119
REMARK minimizedRMSD -1
REMARK  0 active torsions:
REMARK  status: ('A' for Active; 'I' for Inactive)
ROOT
ATOM      1  O1  BZF d   1       2.268  -2.479  -1.069  0.00  0.00    -0.204 OA
ATOM      2  C2  BZF d   1       1.815  -2.581  -2.370  0.00  0.00     0.174 A 
ATOM      3  C3  BZF d   1       0.509  -2.254  -2.449  0.00  0.00    -0.012 A 
ATOM      4  C3A BZF d   1       0.145  -1.838  -1.129  0.00  0.00    -0.107 A 
ATOM      5  C4  BZF d   1      -1.017  -1.381  -0.576  0.00  0.00     0.055 A 
ATOM      6  C5  BZF d   1      -1.060  -1.131   0.759  0.00  0.00    -0.016 A 
ATOM      7  C6  BZF d   1       0.038  -1.332   1.571  0.00  0.00     0.022 A 
ATOM      8  C7  BZF d   1       1.214  -1.780   1.067  0.00  0.00     0.029 A 
ATOM      9  C7A BZF d   1       1.269  -2.002  -0.288  0.00  0.00     0.058 A 
ENDROOT
TORSDOF 0
ENDMDL
