MODEL 1
REMARK minimizedAffinity 4.97466993
REMARK minimizedRMSD -1
REMARK  0 active torsions:
REMARK  status: ('A' for Active; 'I' for Inactive)
ROOT
ATOM      1  O1  BZF d   1       0.679   1.875  -3.057  0.00  0.00    -0.204 OA
ATOM      2  C2  BZF d   1      -0.264   2.524  -2.283  0.00  0.00     0.174 A 
ATOM      3  C3  BZF d   1      -0.774   1.691  -1.353  0.00  0.00    -0.012 A 
ATOM      4  C3A BZF d   1      -0.041   0.471  -1.498  0.00  0.00    -0.107 A 
ATOM      5  C4  BZF d   1      -0.078  -0.729  -0.846  0.00  0.00     0.055 A 
ATOM      6  C5  BZF d   1       0.719  -1.740  -1.280  0.00  0.00    -0.016 A 
ATOM      7  C6  BZF d   1       1.560  -1.589  -2.364  0.00  0.00     0.022 A 
ATOM      8  C7  BZF d   1       1.635  -0.416  -3.038  0.00  0.00     0.029 A 
ATOM      9  C7A BZF d   1       0.854   0.619  -2.582  0.00  0.00     0.058 A 
ENDROOT
TORSDOF 0
ENDMDL
