MODEL 1
REMARK minimizedAffinity -2.3048346
REMARK minimizedRMSD -1
REMARK  0 active torsions:
REMARK  status: ('A' for Active; 'I' for Inactive)
ROOT
ATOM      1  C2' OXE d   1      -0.046  -0.656  -0.918  0.00  0.00     0.078 C 
ATOM      2  C1' OXE d   1      -1.583  -2.625  -2.198  0.00  0.00     0.078 C 
ATOM      3  C1  OXE d   1      -2.167  -1.961  -0.976  0.00  0.00    -0.078 A 
ATOM      4  C2  OXE d   1      -1.388  -1.032  -0.329  0.00  0.00    -0.078 A 
ATOM      5  C3  OXE d   1      -1.900  -0.349   0.771  0.00  0.00     0.003 A 
ATOM      6  C4  OXE d   1      -3.138  -0.710   1.316  0.00  0.00    -0.002 A 
ATOM      7  C5  OXE d   1      -3.930  -1.682   0.695  0.00  0.00    -0.002 A 
ATOM      8  C6  OXE d   1      -3.479  -2.285  -0.473  0.00  0.00     0.003 A 
ENDROOT
TORSDOF 0
ENDMDL
