MODEL 1
REMARK minimizedAffinity 2.86388803
REMARK minimizedRMSD -1
REMARK  0 active torsions:
REMARK  status: ('A' for Active; 'I' for Inactive)
ROOT
ATOM      1  C2' OXE d   1      -2.024  -3.595  -1.831  0.00  0.00     0.078 C 
ATOM      2  C1' OXE d   1      -3.743  -2.769   0.229  0.00  0.00     0.078 C 
ATOM      3  C1  OXE d   1      -2.536  -1.914  -0.065  0.00  0.00    -0.078 A 
ATOM      4  C2  OXE d   1      -1.675  -2.351  -1.043  0.00  0.00    -0.078 A 
ATOM      5  C3  OXE d   1      -0.575  -1.572  -1.391  0.00  0.00     0.003 A 
ATOM      6  C4  OXE d   1      -0.254  -0.428  -0.651  0.00  0.00    -0.002 A 
ATOM      7  C5  OXE d   1      -1.096   0.013   0.376  0.00  0.00    -0.002 A 
ATOM      8  C6  OXE d   1      -2.261  -0.694   0.653  0.00  0.00     0.003 A 
ENDROOT
TORSDOF 0
ENDMDL
