MODEL 1
REMARK minimizedAffinity -2.59142709
REMARK minimizedRMSD -1
REMARK  0 active torsions:
REMARK  status: ('A' for Active; 'I' for Inactive)
ROOT
ATOM      1  C2' OXE d   1       0.018  -0.817  -0.928  0.00  0.00     0.078 C 
ATOM      2  C1' OXE d   1      -1.571  -2.031  -2.898  0.00  0.00     0.078 C 
ATOM      3  C1  OXE d   1      -2.124  -1.956  -1.496  0.00  0.00    -0.078 A 
ATOM      4  C2  OXE d   1      -1.320  -1.402  -0.529  0.00  0.00    -0.078 A 
ATOM      5  C3  OXE d   1      -1.802  -1.258   0.769  0.00  0.00     0.003 A 
ATOM      6  C4  OXE d   1      -3.037  -1.811   1.131  0.00  0.00    -0.002 A 
ATOM      7  C5  OXE d   1      -3.854  -2.414   0.170  0.00  0.00    -0.002 A 
ATOM      8  C6  OXE d   1      -3.432  -2.457  -1.154  0.00  0.00     0.003 A 
ENDROOT
TORSDOF 0
ENDMDL
