MODEL 1
REMARK minimizedAffinity 0.858754158
REMARK minimizedRMSD -1
REMARK  0 active torsions:
REMARK  status: ('A' for Active; 'I' for Inactive)
ROOT
ATOM      1  C2' OXE d   1      -0.230   0.507  -0.828  0.00  0.00     0.078 C 
ATOM      2  C1' OXE d   1      -1.162  -0.420  -3.308  0.00  0.00     0.078 C 
ATOM      3  C1  OXE d   1      -1.328  -1.324  -2.112  0.00  0.00    -0.078 A 
ATOM      4  C2  OXE d   1      -0.827  -0.881  -0.911  0.00  0.00    -0.078 A 
ATOM      5  C3  OXE d   1      -1.003  -1.652   0.235  0.00  0.00     0.003 A 
ATOM      6  C4  OXE d   1      -1.547  -2.939   0.147  0.00  0.00    -0.002 A 
ATOM      7  C5  OXE d   1      -2.028  -3.425  -1.073  0.00  0.00    -0.002 A 
ATOM      8  C6  OXE d   1      -1.964  -2.615  -2.202  0.00  0.00     0.003 A 
ENDROOT
TORSDOF 0
ENDMDL
