MODEL 1
REMARK minimizedAffinity -4.53839731
REMARK minimizedRMSD -1
REMARK  0 active torsions:
REMARK  status: ('A' for Active; 'I' for Inactive)
ROOT
ATOM      1  C2' OXE d   1      -5.251   4.832   2.309  0.00  0.00     0.078 C 
ATOM      2  C1' OXE d   1      -5.999   5.998   4.751  0.00  0.00     0.078 C 
ATOM      3  C1  OXE d   1      -5.495   4.576   4.775  0.00  0.00    -0.078 A 
ATOM      4  C2  OXE d   1      -5.175   3.998   3.570  0.00  0.00    -0.078 A 
ATOM      5  C3  OXE d   1      -4.653   2.708   3.541  0.00  0.00     0.003 A 
ATOM      6  C4  OXE d   1      -4.596   1.941   4.711  0.00  0.00    -0.002 A 
ATOM      7  C5  OXE d   1      -4.954   2.497   5.943  0.00  0.00    -0.002 A 
ATOM      8  C6  OXE d   1      -5.364   3.824   5.999  0.00  0.00     0.003 A 
ENDROOT
TORSDOF 0
ENDMDL
