MODEL 1
REMARK minimizedAffinity -3.75795102
REMARK minimizedRMSD -1
REMARK  0 active torsions:
REMARK  status: ('A' for Active; 'I' for Inactive)
ROOT
ATOM      1  C2' OXE d   1      -5.624   1.908   5.062  0.00  0.00     0.078 C 
ATOM      2  C1' OXE d   1      -3.722   3.748   6.000  0.00  0.00     0.078 C 
ATOM      3  C1  OXE d   1      -4.405   4.049   4.690  0.00  0.00    -0.078 A 
ATOM      4  C2  OXE d   1      -5.301   3.121   4.216  0.00  0.00    -0.078 A 
ATOM      5  C3  OXE d   1      -6.000   3.375   3.039  0.00  0.00     0.003 A 
ATOM      6  C4  OXE d   1      -5.688   4.494   2.257  0.00  0.00    -0.002 A 
ATOM      7  C5  OXE d   1      -4.750   5.432   2.702  0.00  0.00    -0.002 A 
ATOM      8  C6  OXE d   1      -4.133   5.247   3.934  0.00  0.00     0.003 A 
ENDROOT
TORSDOF 0
ENDMDL
