MODEL 1
REMARK minimizedAffinity 4.57987404
REMARK minimizedRMSD -1
REMARK  0 active torsions:
REMARK  status: ('A' for Active; 'I' for Inactive)
ROOT
ATOM      1  C2' OXE d   1      -1.449  -2.279  -2.726  0.00  0.00     0.078 C 
ATOM      2  C1' OXE d   1       0.088  -0.459  -1.242  0.00  0.00     0.078 C 
ATOM      3  C1  OXE d   1      -1.221  -0.918  -0.652  0.00  0.00    -0.078 A 
ATOM      4  C2  OXE d   1      -1.989  -1.773  -1.406  0.00  0.00    -0.078 A 
ATOM      5  C3  OXE d   1      -3.180  -2.271  -0.886  0.00  0.00     0.003 A 
ATOM      6  C4  OXE d   1      -3.677  -1.790   0.332  0.00  0.00    -0.002 A 
ATOM      7  C5  OXE d   1      -2.930  -0.889   1.098  0.00  0.00    -0.002 A 
ATOM      8  C6  OXE d   1      -1.683  -0.477   0.641  0.00  0.00     0.003 A 
ENDROOT
TORSDOF 0
ENDMDL
