MODEL 1
REMARK minimizedAffinity -2.66372728
REMARK minimizedRMSD -1
REMARK  0 active torsions:
REMARK  status: ('A' for Active; 'I' for Inactive)
ROOT
ATOM      1  C2' OXE d   1      -4.328   2.951   5.261  0.00  0.00     0.078 C 
ATOM      2  C1' OXE d   1      -5.625   5.329   5.999  0.00  0.00     0.078 C 
ATOM      3  C1  OXE d   1      -5.396   5.080   4.530  0.00  0.00    -0.078 A 
ATOM      4  C2  OXE d   1      -4.719   3.936   4.180  0.00  0.00    -0.078 A 
ATOM      5  C3  OXE d   1      -4.530   3.630   2.836  0.00  0.00     0.003 A 
ATOM      6  C4  OXE d   1      -4.886   4.551   1.843  0.00  0.00    -0.002 A 
ATOM      7  C5  OXE d   1      -5.540   5.741   2.179  0.00  0.00    -0.002 A 
ATOM      8  C6  OXE d   1      -5.840   6.000   3.512  0.00  0.00     0.003 A 
ENDROOT
TORSDOF 0
ENDMDL
