MODEL 1
REMARK minimizedAffinity -0.126484066
REMARK minimizedRMSD -1
REMARK  0 active torsions:
REMARK  status: ('A' for Active; 'I' for Inactive)
ROOT
ATOM      1  C2' OXE d   1      -4.706   2.456   4.988  0.00  0.00     0.078 C 
ATOM      2  C1' OXE d   1      -5.994   4.741   5.988  0.00  0.00     0.078 C 
ATOM      3  C1  OXE d   1      -5.659   4.709   4.518  0.00  0.00    -0.078 A 
ATOM      4  C2  OXE d   1      -4.987   3.607   4.046  0.00  0.00    -0.078 A 
ATOM      5  C3  OXE d   1      -4.702   3.503   2.688  0.00  0.00     0.003 A 
ATOM      6  C4  OXE d   1      -4.956   4.576   1.826  0.00  0.00    -0.002 A 
ATOM      7  C5  OXE d   1      -5.604   5.724   2.293  0.00  0.00    -0.002 A 
ATOM      8  C6  OXE d   1      -6.000   5.789   3.625  0.00  0.00     0.003 A 
ENDROOT
TORSDOF 0
ENDMDL
