MODEL 1
REMARK minimizedAffinity -2.94393086
REMARK minimizedRMSD -1
REMARK  0 active torsions:
REMARK  status: ('A' for Active; 'I' for Inactive)
ROOT
ATOM      1  C2' OXE d   1      -5.871   5.106   5.576  0.00  0.00     0.078 C 
ATOM      2  C1' OXE d   1      -3.733   3.460   4.802  0.00  0.00     0.078 C 
ATOM      3  C1  OXE d   1      -4.350   4.351   3.753  0.00  0.00    -0.078 A 
ATOM      4  C2  OXE d   1      -5.426   5.119   4.129  0.00  0.00    -0.078 A 
ATOM      5  C3  OXE d   1      -5.997   6.000   3.215  0.00  0.00     0.003 A 
ATOM      6  C4  OXE d   1      -5.585   5.999   1.877  0.00  0.00    -0.002 A 
ATOM      7  C5  OXE d   1      -4.517   5.195   1.464  0.00  0.00    -0.002 A 
ATOM      8  C6  OXE d   1      -3.862   4.399   2.397  0.00  0.00     0.003 A 
ENDROOT
TORSDOF 0
ENDMDL
