MODEL 1
REMARK minimizedAffinity -0.214347243
REMARK minimizedRMSD -1
REMARK  0 active torsions:
REMARK  status: ('A' for Active; 'I' for Inactive)
ROOT
ATOM      1  C2' OXE d   1      -6.000   5.169   4.528  0.00  0.00     0.078 C 
ATOM      2  C1' OXE d   1      -4.536   2.919   3.709  0.00  0.00     0.078 C 
ATOM      3  C1  OXE d   1      -4.914   3.933   2.659  0.00  0.00    -0.078 A 
ATOM      4  C2  OXE d   1      -5.670   5.007   3.060  0.00  0.00    -0.078 A 
ATOM      5  C3  OXE d   1      -5.999   6.000   2.142  0.00  0.00     0.003 A 
ATOM      6  C4  OXE d   1      -5.699   5.837   0.784  0.00  0.00    -0.002 A 
ATOM      7  C5  OXE d   1      -4.964   4.730   0.347  0.00  0.00    -0.002 A 
ATOM      8  C6  OXE d   1      -4.527   3.792   1.276  0.00  0.00     0.003 A 
ENDROOT
TORSDOF 0
ENDMDL
