MODEL 1
REMARK minimizedAffinity -1.09222341
REMARK minimizedRMSD -1
REMARK  0 active torsions:
REMARK  status: ('A' for Active; 'I' for Inactive)
ROOT
ATOM      1  C2' OXE d   1      -4.884   2.995   2.238  0.00  0.00     0.078 C 
ATOM      2  C1' OXE d   1      -5.697   5.647   1.803  0.00  0.00     0.078 C 
ATOM      3  C1  OXE d   1      -5.657   5.147   3.226  0.00  0.00    -0.078 A 
ATOM      4  C2  OXE d   1      -5.303   3.835   3.425  0.00  0.00    -0.078 A 
ATOM      5  C3  OXE d   1      -5.197   3.339   4.722  0.00  0.00     0.003 A 
ATOM      6  C4  OXE d   1      -5.596   4.119   5.814  0.00  0.00    -0.002 A 
ATOM      7  C5  OXE d   1      -5.997   5.446   5.629  0.00  0.00    -0.002 A 
ATOM      8  C6  OXE d   1      -5.993   5.987   4.349  0.00  0.00     0.003 A 
ENDROOT
TORSDOF 0
ENDMDL
