MODEL 1
REMARK minimizedAffinity 1.52726555
REMARK minimizedRMSD -1
REMARK  0 active torsions:
REMARK  status: ('A' for Active; 'I' for Inactive)
ROOT
ATOM      1  C2' OXE d   1      -5.639   4.871  -0.960  0.00  0.00     0.078 C 
ATOM      2  C1' OXE d   1      -4.893   2.512   0.366  0.00  0.00     0.078 C 
ATOM      3  C1  OXE d   1      -5.240   3.714   1.209  0.00  0.00    -0.078 A 
ATOM      4  C2  OXE d   1      -5.559   4.877   0.551  0.00  0.00    -0.078 A 
ATOM      5  C3  OXE d   1      -5.940   6.000   1.281  0.00  0.00     0.003 A 
ATOM      6  C4  OXE d   1      -5.854   6.000   2.678  0.00  0.00    -0.002 A 
ATOM      7  C5  OXE d   1      -5.493   4.837   3.367  0.00  0.00    -0.002 A 
ATOM      8  C6  OXE d   1      -5.225   3.676   2.651  0.00  0.00     0.003 A 
ENDROOT
TORSDOF 0
ENDMDL
