MODEL 1
REMARK minimizedAffinity -3.5099628
REMARK minimizedRMSD -1
REMARK  0 active torsions:
REMARK  status: ('A' for Active; 'I' for Inactive)
ROOT
ATOM      1  C2' OXE d   1      -5.702   2.637   5.312  0.00  0.00     0.078 C 
ATOM      2  C1' OXE d   1      -5.932   5.351   5.994  0.00  0.00     0.078 C 
ATOM      3  C1  OXE d   1      -5.819   5.000   4.532  0.00  0.00    -0.078 A 
ATOM      4  C2  OXE d   1      -5.660   3.673   4.210  0.00  0.00    -0.078 A 
ATOM      5  C3  OXE d   1      -5.606   3.290   2.873  0.00  0.00     0.003 A 
ATOM      6  C4  OXE d   1      -5.557   4.255   1.860  0.00  0.00    -0.002 A 
ATOM      7  C5  OXE d   1      -5.677   5.615   2.169  0.00  0.00    -0.002 A 
ATOM      8  C6  OXE d   1      -5.852   6.000   3.493  0.00  0.00     0.003 A 
ENDROOT
TORSDOF 0
ENDMDL
