MODEL 1
REMARK minimizedAffinity -1.84693623
REMARK minimizedRMSD -1
REMARK  0 active torsions:
REMARK  status: ('A' for Active; 'I' for Inactive)
ROOT
ATOM      1  C2' OXE d   1      -5.469   5.119   2.469  0.00  0.00     0.078 C 
ATOM      2  C1' OXE d   1      -4.704   2.455   2.026  0.00  0.00     0.078 C 
ATOM      3  C1  OXE d   1      -5.170   2.832   3.410  0.00  0.00    -0.078 A 
ATOM      4  C2  OXE d   1      -5.498   4.148   3.630  0.00  0.00    -0.078 A 
ATOM      5  C3  OXE d   1      -5.986   4.539   4.874  0.00  0.00     0.003 A 
ATOM      6  C4  OXE d   1      -6.000   3.637   5.945  0.00  0.00    -0.002 A 
ATOM      7  C5  OXE d   1      -5.633   2.301   5.752  0.00  0.00    -0.002 A 
ATOM      8  C6  OXE d   1      -5.257   1.873   4.484  0.00  0.00     0.003 A 
ENDROOT
TORSDOF 0
ENDMDL
