MODEL 1
REMARK minimizedAffinity -2.44252276
REMARK minimizedRMSD -1
REMARK  0 active torsions:
REMARK  status: ('A' for Active; 'I' for Inactive)
ROOT
ATOM      1  C2' OXE d   1      -4.866   3.219   1.778  0.00  0.00     0.078 C 
ATOM      2  C1' OXE d   1      -5.268   5.996   1.707  0.00  0.00     0.078 C 
ATOM      3  C1  OXE d   1      -5.447   5.293   3.029  0.00  0.00    -0.078 A 
ATOM      4  C2  OXE d   1      -5.294   3.928   3.045  0.00  0.00    -0.078 A 
ATOM      5  C3  OXE d   1      -5.394   3.237   4.249  0.00  0.00     0.003 A 
ATOM      6  C4  OXE d   1      -5.800   3.898   5.415  0.00  0.00    -0.002 A 
ATOM      7  C5  OXE d   1      -6.000   5.283   5.412  0.00  0.00    -0.002 A 
ATOM      8  C6  OXE d   1      -5.786   6.000   4.240  0.00  0.00     0.003 A 
ENDROOT
TORSDOF 0
ENDMDL
