MODEL 1
REMARK minimizedAffinity -3.32257199
REMARK minimizedRMSD -1
REMARK  0 active torsions:
REMARK  status: ('A' for Active; 'I' for Inactive)
ROOT
ATOM      1  C2' OXE d   1      -5.983   3.156   5.979  0.00  0.00     0.078 C 
ATOM      2  C1' OXE d   1      -5.999   5.961   5.857  0.00  0.00     0.078 C 
ATOM      3  C1  OXE d   1      -5.804   5.202   4.569  0.00  0.00    -0.078 A 
ATOM      4  C2  OXE d   1      -5.751   3.831   4.644  0.00  0.00    -0.078 A 
ATOM      5  C3  OXE d   1      -5.627   3.080   3.478  0.00  0.00     0.003 A 
ATOM      6  C4  OXE d   1      -5.403   3.712   2.249  0.00  0.00    -0.002 A 
ATOM      7  C5  OXE d   1      -5.413   5.108   2.156  0.00  0.00    -0.002 A 
ATOM      8  C6  OXE d   1      -5.654   5.865   3.297  0.00  0.00     0.003 A 
ENDROOT
TORSDOF 0
ENDMDL
