MODEL 1
REMARK minimizedAffinity 4.955091
REMARK minimizedRMSD -1
REMARK  0 active torsions:
REMARK  status: ('A' for Active; 'I' for Inactive)
ROOT
ATOM      1  N1  IND d   1      -0.264   0.790   3.804  0.00  0.00    -0.196 N 
ATOM      2  C2  IND d   1       0.796  -0.071   3.861  0.00  0.00     0.054 A 
ATOM      3  C3  IND d   1       1.567   0.059   2.759  0.00  0.00    -0.031 A 
ATOM      4  C4  IND d   1       1.335   1.692   0.783  0.00  0.00     0.051 A 
ATOM      5  C5  IND d   1       0.505   2.647   0.267  0.00  0.00    -0.031 A 
ATOM      6  C6  IND d   1      -0.646   3.042   0.918  0.00  0.00     0.015 A 
ATOM      7  C7  IND d   1      -1.005   2.502   2.120  0.00  0.00    -0.016 A 
ATOM      8  C8  IND d   1      -0.168   1.527   2.644  0.00  0.00    -0.047 A 
ATOM      9  C9  IND d   1       0.979   1.092   1.967  0.00  0.00    -0.096 A 
ATOM     10  HN1 IND d   1      -0.887   0.860   4.393  0.00  0.00     0.298 HD
ENDROOT
TORSDOF 0
ENDMDL
