MODEL 1
REMARK minimizedAffinity 11.9354725
REMARK minimizedRMSD -1
REMARK  0 active torsions:
REMARK  status: ('A' for Active; 'I' for Inactive)
ROOT
ATOM      1  N1  IND d   1       0.319   1.530  -1.310  0.00  0.00    -0.196 N 
ATOM      2  C2  IND d   1       0.703   2.438  -0.362  0.00  0.00     0.054 A 
ATOM      3  C3  IND d   1       1.498   1.848   0.559  0.00  0.00    -0.031 A 
ATOM      4  C4  IND d   1       2.380  -0.570   0.650  0.00  0.00     0.051 A 
ATOM      5  C5  IND d   1       2.273  -1.780   0.024  0.00  0.00    -0.031 A 
ATOM      6  C6  IND d   1       1.495  -1.951  -1.103  0.00  0.00     0.015 A 
ATOM      7  C7  IND d   1       0.802  -0.911  -1.655  0.00  0.00    -0.016 A 
ATOM      8  C8  IND d   1       0.903   0.317  -1.018  0.00  0.00    -0.047 A 
ATOM      9  C9  IND d   1       1.656   0.487   0.151  0.00  0.00    -0.096 A 
ATOM     10  HN1 IND d   1      -0.201   1.690  -1.976  0.00  0.00     0.298 HD
ENDROOT
TORSDOF 0
ENDMDL
