MODEL 1
REMARK minimizedAffinity 0.461586833
REMARK minimizedRMSD -1
REMARK  0 active torsions:
REMARK  status: ('A' for Active; 'I' for Inactive)
ROOT
ATOM      1  N1  IND d   1      -3.859   1.696  -1.545  0.00  0.00    -0.196 N 
ATOM      2  C2  IND d   1      -5.101   2.265  -1.506  0.00  0.00     0.054 A 
ATOM      3  C3  IND d   1      -5.558   2.483  -2.760  0.00  0.00    -0.031 A 
ATOM      4  C4  IND d   1      -4.478   1.890  -5.020  0.00  0.00     0.051 A 
ATOM      5  C5  IND d   1      -3.329   1.391  -5.567  0.00  0.00    -0.031 A 
ATOM      6  C6  IND d   1      -2.277   0.958  -4.786  0.00  0.00     0.015 A 
ATOM      7  C7  IND d   1      -2.341   0.996  -3.421  0.00  0.00    -0.016 A 
ATOM      8  C8  IND d   1      -3.503   1.508  -2.863  0.00  0.00    -0.047 A 
ATOM      9  C9  IND d   1      -4.556   1.989  -3.651  0.00  0.00    -0.096 A 
ATOM     10  HN1 IND d   1      -3.380   1.491  -0.861  0.00  0.00     0.298 HD
ENDROOT
TORSDOF 0
ENDMDL
