MODEL 1
REMARK minimizedAffinity 7.43257666
REMARK minimizedRMSD -1
REMARK  0 active torsions:
REMARK  status: ('A' for Active; 'I' for Inactive)
ROOT
ATOM      1  N1  IND d   1       1.243   0.736  -0.684  0.00  0.00    -0.196 N 
ATOM      2  C2  IND d   1       1.070   1.842   0.100  0.00  0.00     0.054 A 
ATOM      3  C3  IND d   1       1.667   1.666   1.301  0.00  0.00    -0.031 A 
ATOM      4  C4  IND d   1       3.068  -0.317   2.156  0.00  0.00     0.051 A 
ATOM      5  C5  IND d   1       3.474  -1.576   1.813  0.00  0.00    -0.031 A 
ATOM      6  C6  IND d   1       3.153  -2.139   0.594  0.00  0.00     0.015 A 
ATOM      7  C7  IND d   1       2.421  -1.456  -0.335  0.00  0.00    -0.016 A 
ATOM      8  C8  IND d   1       2.000  -0.181   0.013  0.00  0.00    -0.047 A 
ATOM      9  C9  IND d   1       2.287   0.380   1.264  0.00  0.00    -0.096 A 
ATOM     10  HN1 IND d   1       0.932   0.630  -1.478  0.00  0.00     0.298 HD
ENDROOT
TORSDOF 0
ENDMDL
