MODEL 1
REMARK minimizedAffinity 2.57613659
REMARK minimizedRMSD -1
REMARK  0 active torsions:
REMARK  status: ('A' for Active; 'I' for Inactive)
ROOT
ATOM      1  N1  IND d   1       1.211  -0.812  -0.432  0.00  0.00    -0.196 N 
ATOM      2  C2  IND d   1       2.430  -1.291  -0.041  0.00  0.00     0.054 A 
ATOM      3  C3  IND d   1       3.205  -0.285   0.421  0.00  0.00    -0.031 A 
ATOM      4  C4  IND d   1       2.640   2.209   0.722  0.00  0.00     0.051 A 
ATOM      5  C5  IND d   1       1.662   3.129   0.473  0.00  0.00    -0.031 A 
ATOM      6  C6  IND d   1       0.457   2.776  -0.100  0.00  0.00     0.015 A 
ATOM      7  C7  IND d   1       0.181   1.481  -0.436  0.00  0.00    -0.016 A 
ATOM      8  C8  IND d   1       1.175   0.544  -0.190  0.00  0.00    -0.047 A 
ATOM      9  C9  IND d   1       2.416   0.904   0.352  0.00  0.00    -0.096 A 
ATOM     10  HN1 IND d   1       0.573  -1.278  -0.771  0.00  0.00     0.298 HD
ENDROOT
TORSDOF 0
ENDMDL
