MODEL 1
REMARK minimizedAffinity 6.27782011
REMARK minimizedRMSD -1
REMARK  0 active torsions:
REMARK  status: ('A' for Active; 'I' for Inactive)
ROOT
ATOM      1  N1  IND d   1      -1.526   1.228   2.808  0.00  0.00    -0.196 N 
ATOM      2  C2  IND d   1      -0.866   0.409   3.680  0.00  0.00     0.054 A 
ATOM      3  C3  IND d   1       0.382   0.149   3.229  0.00  0.00    -0.031 A 
ATOM      4  C4  IND d   1       1.584   1.045   1.137  0.00  0.00     0.051 A 
ATOM      5  C5  IND d   1       1.376   1.796   0.014  0.00  0.00    -0.031 A 
ATOM      6  C6  IND d   1       0.167   2.411  -0.239  0.00  0.00     0.015 A 
ATOM      7  C7  IND d   1      -0.881   2.306   0.631  0.00  0.00    -0.016 A 
ATOM      8  C8  IND d   1      -0.676   1.539   1.769  0.00  0.00    -0.047 A 
ATOM      9  C9  IND d   1       0.536   0.878   2.010  0.00  0.00    -0.096 A 
ATOM     10  HN1 IND d   1      -2.336   1.503   2.893  0.00  0.00     0.298 HD
ENDROOT
TORSDOF 0
ENDMDL
