MODEL 1
REMARK minimizedAffinity 6.49363661
REMARK minimizedRMSD -1
REMARK  0 active torsions:
REMARK  status: ('A' for Active; 'I' for Inactive)
ROOT
ATOM      1  N1  IND d   1      -5.116   2.427  -3.588  0.00  0.00    -0.196 N 
ATOM      2  C2  IND d   1      -5.999   3.222  -2.911  0.00  0.00     0.054 A 
ATOM      3  C3  IND d   1      -6.000   2.910  -1.596  0.00  0.00    -0.031 A 
ATOM      4  C4  IND d   1      -4.558   1.200  -0.320  0.00  0.00     0.051 A 
ATOM      5  C5  IND d   1      -3.634   0.213  -0.514  0.00  0.00    -0.031 A 
ATOM      6  C6  IND d   1      -3.144  -0.091  -1.768  0.00  0.00     0.015 A 
ATOM      7  C7  IND d   1      -3.554   0.592  -2.878  0.00  0.00    -0.016 A 
ATOM      8  C8  IND d   1      -4.499   1.590  -2.685  0.00  0.00    -0.047 A 
ATOM      9  C9  IND d   1      -5.031   1.875  -1.421  0.00  0.00    -0.096 A 
ATOM     10  HN1 IND d   1      -4.972   2.447  -4.436  0.00  0.00     0.298 HD
ENDROOT
TORSDOF 0
ENDMDL
