MODEL 1
REMARK minimizedAffinity 1.8911097
REMARK minimizedRMSD -1
REMARK  0 active torsions:
REMARK  status: ('A' for Active; 'I' for Inactive)
ROOT
ATOM      1  N1  IND d   1      -1.013   1.399  -1.922  0.00  0.00    -0.196 N 
ATOM      2  C2  IND d   1      -1.124   0.511  -2.955  0.00  0.00     0.054 A 
ATOM      3  C3  IND d   1      -0.171  -0.444  -2.858  0.00  0.00    -0.031 A 
ATOM      4  C4  IND d   1       1.607  -0.801  -1.032  0.00  0.00     0.051 A 
ATOM      5  C5  IND d   1       2.123  -0.226   0.096  0.00  0.00    -0.031 A 
ATOM      6  C6  IND d   1       1.608   0.941   0.621  0.00  0.00     0.015 A 
ATOM      7  C7  IND d   1       0.546   1.575   0.041  0.00  0.00    -0.016 A 
ATOM      8  C8  IND d   1       0.024   0.998  -1.108  0.00  0.00    -0.047 A 
ATOM      9  C9  IND d   1       0.570  -0.163  -1.669  0.00  0.00    -0.096 A 
ATOM     10  HN1 IND d   1      -1.507   2.092  -1.802  0.00  0.00     0.298 HD
ENDROOT
TORSDOF 0
ENDMDL
