MODEL 1
REMARK minimizedAffinity 2.89677143
REMARK minimizedRMSD -1
REMARK  0 active torsions:
REMARK  status: ('A' for Active; 'I' for Inactive)
ROOT
ATOM      1  N1  IND d   1       1.402  -1.103   0.311  0.00  0.00    -0.196 N 
ATOM      2  C2  IND d   1       2.380  -2.057   0.349  0.00  0.00     0.054 A 
ATOM      3  C3  IND d   1       3.601  -1.482   0.286  0.00  0.00    -0.031 A 
ATOM      4  C4  IND d   1       4.232   1.013   0.219  0.00  0.00     0.051 A 
ATOM      5  C5  IND d   1       3.682   2.262   0.130  0.00  0.00    -0.031 A 
ATOM      6  C6  IND d   1       2.316   2.456   0.100  0.00  0.00     0.015 A 
ATOM      7  C7  IND d   1       1.446   1.406   0.168  0.00  0.00    -0.016 A 
ATOM      8  C8  IND d   1       2.000   0.136   0.251  0.00  0.00    -0.047 A 
ATOM      9  C9  IND d   1       3.386  -0.070   0.239  0.00  0.00    -0.096 A 
ATOM     10  HN1 IND d   1       0.555  -1.252   0.322  0.00  0.00     0.298 HD
ENDROOT
TORSDOF 0
ENDMDL
