MODEL 1
REMARK minimizedAffinity 10.9550343
REMARK minimizedRMSD -1
REMARK  1 active torsions:
REMARK  status: ('A' for Active; 'I' for Inactive)
REMARK    1  A    between atoms: C3_4  and  O_7 
ROOT
ATOM      1  C   UNL d   1      -2.167   0.256  -0.820  0.00  0.00    -0.033 A 
ATOM      2  C1  UNL d   1      -0.953  -0.085  -0.220  0.00  0.00     0.039 A 
ATOM      3  C2  UNL d   1      -0.836  -0.085   1.171  0.00  0.00    -0.080 A 
ATOM      4  C3  UNL d   1      -1.938   0.257   1.950  0.00  0.00     0.150 A 
ATOM      5  C4  UNL d   1      -3.151   0.594   1.359  0.00  0.00    -0.007 A 
ATOM      6  C5  UNL d   1      -3.266   0.594  -0.031  0.00  0.00     0.039 A 
ENDROOT
BRANCH   4   7
ATOM      7  O   UNL d   1      -1.871   0.276   3.311  0.00  0.00    -0.526 OA
ATOM      8  H5  UNL d   1      -0.964   0.050   3.578  0.00  0.00     0.418 HD
ENDBRANCH   4   7
TORSDOF 1
ENDMDL
