MODEL 1
REMARK minimizedAffinity -1.86978245
REMARK minimizedRMSD -1
REMARK  1 active torsions:
REMARK  status: ('A' for Active; 'I' for Inactive)
REMARK    1  A    between atoms: C3_4  and  O_7 
ROOT
ATOM      1  C   UNL d   1       1.447  -0.881  -0.604  0.00  0.00    -0.033 A 
ATOM      2  C1  UNL d   1       0.338  -1.353  -1.309  0.00  0.00     0.039 A 
ATOM      3  C2  UNL d   1       0.107  -0.926  -2.618  0.00  0.00    -0.080 A 
ATOM      4  C3  UNL d   1       0.992  -0.029  -3.210  0.00  0.00     0.150 A 
ATOM      5  C4  UNL d   1       2.101   0.442  -2.516  0.00  0.00    -0.007 A 
ATOM      6  C5  UNL d   1       2.329   0.016  -1.208  0.00  0.00     0.039 A 
ENDROOT
BRANCH   4   7
ATOM      7  O   UNL d   1       0.805   0.420  -4.484  0.00  0.00    -0.526 OA
ATOM      8  H5  UNL d   1      -0.016   0.032  -4.830  0.00  0.00     0.418 HD
ENDBRANCH   4   7
TORSDOF 1
ENDMDL
