MODEL 1
REMARK minimizedAffinity -0.461301565
REMARK minimizedRMSD -1
REMARK  1 active torsions:
REMARK  status: ('A' for Active; 'I' for Inactive)
REMARK    1  A    between atoms: C3_4  and  O_7 
ROOT
ATOM      1  C   UNL d   1      -0.587  -0.705  -0.778  0.00  0.00    -0.033 A 
ATOM      2  C1  UNL d   1       0.352  -0.246   0.148  0.00  0.00     0.039 A 
ATOM      3  C2  UNL d   1      -0.055   0.541   1.227  0.00  0.00    -0.080 A 
ATOM      4  C3  UNL d   1      -1.403   0.861   1.369  0.00  0.00     0.150 A 
ATOM      5  C4  UNL d   1      -2.344   0.404   0.452  0.00  0.00    -0.007 A 
ATOM      6  C5  UNL d   1      -1.936  -0.381  -0.625  0.00  0.00     0.039 A 
ENDROOT
BRANCH   4   7
ATOM      7  O   UNL d   1      -1.847   1.630   2.403  0.00  0.00    -0.526 OA
ATOM      8  H5  UNL d   1      -1.082   1.897   2.939  0.00  0.00     0.418 HD
ENDBRANCH   4   7
TORSDOF 1
ENDMDL
