MODEL 1
REMARK minimizedAffinity -0.958882093
REMARK minimizedRMSD -1
REMARK  1 active torsions:
REMARK  status: ('A' for Active; 'I' for Inactive)
REMARK    1  A    between atoms: C3_4  and  O_7 
ROOT
ATOM      1  C   UNL d   1      -1.027  -0.447  -0.795  0.00  0.00    -0.033 A 
ATOM      2  C1  UNL d   1      -0.249  -0.065   0.300  0.00  0.00     0.039 A 
ATOM      3  C2  UNL d   1      -0.828   0.043   1.566  0.00  0.00    -0.080 A 
ATOM      4  C3  UNL d   1      -2.184  -0.233   1.724  0.00  0.00     0.150 A 
ATOM      5  C4  UNL d   1      -2.964  -0.617   0.638  0.00  0.00    -0.007 A 
ATOM      6  C5  UNL d   1      -2.384  -0.724  -0.626  0.00  0.00     0.039 A 
ENDROOT
BRANCH   4   7
ATOM      7  O   UNL d   1      -2.794  -0.136   2.939  0.00  0.00    -0.526 OA
ATOM      8  H5  UNL d   1      -2.139   0.167   3.589  0.00  0.00     0.418 HD
ENDBRANCH   4   7
TORSDOF 1
ENDMDL
