MODEL 1
REMARK minimizedAffinity 1.04414952
REMARK minimizedRMSD -1
REMARK  1 active torsions:
REMARK  status: ('A' for Active; 'I' for Inactive)
REMARK    1  A    between atoms: C3_4  and  O_7 
ROOT
ATOM      1  C   UNL d   1      -1.685  -0.347   0.550  0.00  0.00    -0.033 A 
ATOM      2  C1  UNL d   1      -2.384  -0.400   1.758  0.00  0.00     0.039 A 
ATOM      3  C2  UNL d   1      -1.732  -0.800   2.926  0.00  0.00    -0.080 A 
ATOM      4  C3  UNL d   1      -0.383  -1.142   2.873  0.00  0.00     0.150 A 
ATOM      5  C4  UNL d   1       0.320  -1.087   1.674  0.00  0.00    -0.007 A 
ATOM      6  C5  UNL d   1      -0.333  -0.689   0.508  0.00  0.00     0.039 A 
ENDROOT
BRANCH   4   7
ATOM      7  O   UNL d   1       0.294  -1.542   3.986  0.00  0.00    -0.526 OA
ATOM      8  H5  UNL d   1      -0.326  -1.560   4.734  0.00  0.00     0.418 HD
ENDBRANCH   4   7
TORSDOF 1
ENDMDL
