MODEL 1
REMARK minimizedAffinity -0.684367418
REMARK minimizedRMSD -1
REMARK  1 active torsions:
REMARK  status: ('A' for Active; 'I' for Inactive)
REMARK    1  A    between atoms: C3_4  and  O_7 
ROOT
ATOM      1  C   UNL d   1      -1.172  -0.835   2.169  0.00  0.00    -0.033 A 
ATOM      2  C1  UNL d   1      -2.259  -0.091   1.705  0.00  0.00     0.039 A 
ATOM      3  C2  UNL d   1      -2.159   0.625   0.510  0.00  0.00    -0.080 A 
ATOM      4  C3  UNL d   1      -0.969   0.587  -0.211  0.00  0.00     0.150 A 
ATOM      5  C4  UNL d   1       0.116  -0.155   0.242  0.00  0.00    -0.007 A 
ATOM      6  C5  UNL d   1       0.015  -0.868   1.436  0.00  0.00     0.039 A 
ENDROOT
BRANCH   4   7
ATOM      7  O   UNL d   1      -0.823   1.272  -1.380  0.00  0.00    -0.526 OA
ATOM      8  H5  UNL d   1      -1.644   1.763  -1.554  0.00  0.00     0.418 HD
ENDBRANCH   4   7
TORSDOF 1
ENDMDL
