MODEL 1
REMARK minimizedAffinity -0.159091741
REMARK minimizedRMSD -1
REMARK  1 active torsions:
REMARK  status: ('A' for Active; 'I' for Inactive)
REMARK    1  A    between atoms: C3_4  and  O_7 
ROOT
ATOM      1  C   UNL d   1      -1.866  -0.076   0.437  0.00  0.00    -0.033 A 
ATOM      2  C1  UNL d   1      -2.649  -0.344   1.562  0.00  0.00     0.039 A 
ATOM      3  C2  UNL d   1      -2.042  -0.568   2.799  0.00  0.00    -0.080 A 
ATOM      4  C3  UNL d   1      -0.655  -0.521   2.899  0.00  0.00     0.150 A 
ATOM      5  C4  UNL d   1       0.131  -0.252   1.783  0.00  0.00    -0.007 A 
ATOM      6  C5  UNL d   1      -0.476  -0.029   0.548  0.00  0.00     0.039 A 
ENDROOT
BRANCH   4   7
ATOM      7  O   UNL d   1      -0.017  -0.739   4.084  0.00  0.00    -0.526 OA
ATOM      8  H5  UNL d   1      -0.686  -0.941   4.760  0.00  0.00     0.418 HD
ENDBRANCH   4   7
TORSDOF 1
ENDMDL
