MODEL 1
REMARK minimizedAffinity -1.36137414
REMARK minimizedRMSD -1
REMARK  1 active torsions:
REMARK  status: ('A' for Active; 'I' for Inactive)
REMARK    1  A    between atoms: C3_4  and  O_7 
ROOT
ATOM      1  C   UNL d   1       2.985   4.798   2.292  0.00  0.00    -0.033 A 
ATOM      2  C1  UNL d   1       3.358   3.603   2.909  0.00  0.00     0.039 A 
ATOM      3  C2  UNL d   1       4.352   3.602   3.890  0.00  0.00    -0.080 A 
ATOM      4  C3  UNL d   1       4.962   4.802   4.246  0.00  0.00     0.150 A 
ATOM      5  C4  UNL d   1       4.592   5.997   3.638  0.00  0.00    -0.007 A 
ATOM      6  C5  UNL d   1       3.601   5.996   2.658  0.00  0.00     0.039 A 
ENDROOT
BRANCH   4   7
ATOM      7  O   UNL d   1       5.940   4.850   5.195  0.00  0.00    -0.526 OA
ATOM      8  H5  UNL d   1       6.111   3.946   5.507  0.00  0.00     0.418 HD
ENDBRANCH   4   7
TORSDOF 1
ENDMDL
