MODEL 1
REMARK minimizedAffinity 3.77271605
REMARK minimizedRMSD -1
REMARK  0 active torsions:
REMARK  status: ('A' for Active; 'I' for Inactive)
ROOT
ATOM      1  C   UNL d   1      -0.401   5.930  -4.215  0.00  0.00     0.020 A 
ATOM      2  C1  UNL d   1      -0.699   5.874  -5.576  0.00  0.00     0.020 A 
ATOM      3  C2  UNL d   1      -2.029   5.856  -6.000  0.00  0.00     0.034 A 
ATOM      4  C3  UNL d   1      -3.067   5.894  -5.062  0.00  0.00     0.017 A 
ATOM      5  C4  UNL d   1      -2.768   5.949  -3.696  0.00  0.00     0.017 A 
ATOM      6  C5  UNL d   1      -1.434   5.967  -3.277  0.00  0.00     0.034 A 
ATOM      7 Cl   UNL d   1      -3.994   5.999  -2.479  0.00  0.00    -0.070 Cl
ATOM      8 Cl1  UNL d   1      -4.689   5.869  -5.657  0.00  0.00    -0.070 Cl
ENDROOT
TORSDOF 0
ENDMDL
