MODEL 1
REMARK minimizedAffinity 2.94532537
REMARK minimizedRMSD -1
REMARK  0 active torsions:
REMARK  status: ('A' for Active; 'I' for Inactive)
ROOT
ATOM      1  C   UNL d   1      -4.958  -0.846   2.219  0.00  0.00     0.020 A 
ATOM      2  C1  UNL d   1      -5.517  -0.387   3.411  0.00  0.00     0.020 A 
ATOM      3  C2  UNL d   1      -4.704   0.201   4.382  0.00  0.00     0.034 A 
ATOM      4  C3  UNL d   1      -3.328   0.332   4.163  0.00  0.00     0.017 A 
ATOM      5  C4  UNL d   1      -2.768  -0.129   2.966  0.00  0.00     0.017 A 
ATOM      6  C5  UNL d   1      -3.587  -0.718   1.997  0.00  0.00     0.034 A 
ATOM      7 Cl   UNL d   1      -1.078  -0.003   2.624  0.00  0.00    -0.070 Cl
ATOM      8 Cl1  UNL d   1      -2.382   1.070   5.407  0.00  0.00    -0.070 Cl
ENDROOT
TORSDOF 0
ENDMDL
