MODEL 1
REMARK minimizedAffinity 4.43025827
REMARK minimizedRMSD -1
REMARK  0 active torsions:
REMARK  status: ('A' for Active; 'I' for Inactive)
ROOT
ATOM      1  C   UNL d   1       2.302   2.812  -3.410  0.00  0.00     0.020 A 
ATOM      2  C1  UNL d   1       2.076   3.458  -2.195  0.00  0.00     0.020 A 
ATOM      3  C2  UNL d   1       3.068   4.269  -1.641  0.00  0.00     0.034 A 
ATOM      4  C3  UNL d   1       4.291   4.437  -2.301  0.00  0.00     0.017 A 
ATOM      5  C4  UNL d   1       4.517   3.788  -3.520  0.00  0.00     0.017 A 
ATOM      6  C5  UNL d   1       3.519   2.977  -4.071  0.00  0.00     0.034 A 
ATOM      7 Cl   UNL d   1       6.000   3.945  -4.394  0.00  0.00    -0.070 Cl
ATOM      8 Cl1  UNL d   1       5.473   5.454  -1.558  0.00  0.00    -0.070 Cl
ENDROOT
TORSDOF 0
ENDMDL
