MODEL 1
REMARK minimizedAffinity 5.99919176
REMARK minimizedRMSD -1
REMARK  0 active torsions:
REMARK  status: ('A' for Active; 'I' for Inactive)
ROOT
ATOM      1  C   UNL d   1      -4.036   5.392  -4.186  0.00  0.00     0.020 A 
ATOM      2  C1  UNL d   1      -5.414   5.567  -4.064  0.00  0.00     0.020 A 
ATOM      3  C2  UNL d   1      -6.000   5.630  -2.798  0.00  0.00     0.034 A 
ATOM      4  C3  UNL d   1      -5.208   5.518  -1.649  0.00  0.00     0.017 A 
ATOM      5  C4  UNL d   1      -3.825   5.343  -1.773  0.00  0.00     0.017 A 
ATOM      6  C5  UNL d   1      -3.243   5.280  -3.043  0.00  0.00     0.034 A 
ATOM      7 Cl   UNL d   1      -2.783   5.196  -0.402  0.00  0.00    -0.070 Cl
ATOM      8 Cl1  UNL d   1      -6.000   5.605  -0.116  0.00  0.00    -0.070 Cl
ENDROOT
TORSDOF 0
ENDMDL
