MODEL 1
REMARK minimizedAffinity 14.7579002
REMARK minimizedRMSD -1
REMARK  0 active torsions:
REMARK  status: ('A' for Active; 'I' for Inactive)
ROOT
ATOM      1  C   UNL d   1       5.961   5.464  -3.824  0.00  0.00     0.020 A 
ATOM      2  C1  UNL d   1       5.388   5.394  -2.555  0.00  0.00     0.020 A 
ATOM      3  C2  UNL d   1       4.303   4.546  -2.325  0.00  0.00     0.034 A 
ATOM      4  C3  UNL d   1       3.787   3.765  -3.366  0.00  0.00     0.017 A 
ATOM      5  C4  UNL d   1       4.363   3.836  -4.639  0.00  0.00     0.017 A 
ATOM      6  C5  UNL d   1       5.449   4.686  -4.864  0.00  0.00     0.034 A 
ATOM      7 Cl   UNL d   1       3.782   2.902  -5.973  0.00  0.00    -0.070 Cl
ATOM      8 Cl1  UNL d   1       2.443   2.738  -3.010  0.00  0.00    -0.070 Cl
ENDROOT
TORSDOF 0
ENDMDL
