MODEL 1
REMARK minimizedAffinity 22.939518
REMARK minimizedRMSD -1
REMARK  0 active torsions:
REMARK  status: ('A' for Active; 'I' for Inactive)
ROOT
ATOM      1  C   UNL d   1       5.021   5.961  -2.743  0.00  0.00     0.020 A 
ATOM      2  C1  UNL d   1       5.792   5.792  -3.893  0.00  0.00     0.020 A 
ATOM      3  C2  UNL d   1       5.530   4.729  -4.759  0.00  0.00     0.034 A 
ATOM      4  C3  UNL d   1       4.494   3.830  -4.478  0.00  0.00     0.017 A 
ATOM      5  C4  UNL d   1       3.721   4.001  -3.324  0.00  0.00     0.017 A 
ATOM      6  C5  UNL d   1       3.987   5.067  -2.460  0.00  0.00     0.034 A 
ATOM      7 Cl   UNL d   1       2.426   2.933  -2.910  0.00  0.00    -0.070 Cl
ATOM      8 Cl1  UNL d   1       4.226   2.538  -5.593  0.00  0.00    -0.070 Cl
ENDROOT
TORSDOF 0
ENDMDL
