MODEL 1
REMARK minimizedAffinity 15.8641958
REMARK minimizedRMSD -1
REMARK  0 active torsions:
REMARK  status: ('A' for Active; 'I' for Inactive)
ROOT
ATOM      1  C   UNL d   1       2.983   2.438  -3.207  0.00  0.00     0.020 A 
ATOM      2  C1  UNL d   1       3.527   2.422  -4.491  0.00  0.00     0.020 A 
ATOM      3  C2  UNL d   1       4.457   3.394  -4.867  0.00  0.00     0.034 A 
ATOM      4  C3  UNL d   1       4.845   4.385  -3.958  0.00  0.00     0.017 A 
ATOM      5  C4  UNL d   1       4.299   4.400  -2.670  0.00  0.00     0.017 A 
ATOM      6  C5  UNL d   1       3.368   3.424  -2.299  0.00  0.00     0.034 A 
ATOM      7 Cl   UNL d   1       4.729   5.591  -1.494  0.00  0.00    -0.070 Cl
ATOM      8 Cl1  UNL d   1       6.000   5.555  -4.491  0.00  0.00    -0.070 Cl
ENDROOT
TORSDOF 0
ENDMDL
