MODEL 1
REMARK minimizedAffinity 21.0521622
REMARK minimizedRMSD -1
REMARK  0 active torsions:
REMARK  status: ('A' for Active; 'I' for Inactive)
ROOT
ATOM      1  C   UNL d   1       3.415  -5.110  -0.795  0.00  0.00     0.020 A 
ATOM      2  C1  UNL d   1       4.310  -4.047  -0.686  0.00  0.00     0.020 A 
ATOM      3  C2  UNL d   1       4.048  -3.002   0.202  0.00  0.00     0.034 A 
ATOM      4  C3  UNL d   1       2.888  -3.017   0.985  0.00  0.00     0.017 A 
ATOM      5  C4  UNL d   1       1.989  -4.085   0.875  0.00  0.00     0.017 A 
ATOM      6  C5  UNL d   1       2.257  -5.129  -0.016  0.00  0.00     0.034 A 
ATOM      7 Cl   UNL d   1       0.537  -4.174   1.807  0.00  0.00    -0.070 Cl
ATOM      8 Cl1  UNL d   1       2.627  -1.692   2.062  0.00  0.00    -0.070 Cl
ENDROOT
TORSDOF 0
ENDMDL
