MODEL 1
REMARK minimizedAffinity 15.2261276
REMARK minimizedRMSD -1
REMARK  0 active torsions:
REMARK  status: ('A' for Active; 'I' for Inactive)
ROOT
ATOM      1  C   UNL d   1       1.313  -2.826   3.214  0.00  0.00     0.020 A 
ATOM      2  C1  UNL d   1       1.374  -1.692   4.023  0.00  0.00     0.020 A 
ATOM      3  C2  UNL d   1       0.506  -0.623   3.793  0.00  0.00     0.034 A 
ATOM      4  C3  UNL d   1      -0.427  -0.685   2.751  0.00  0.00     0.017 A 
ATOM      5  C4  UNL d   1      -0.487  -1.824   1.939  0.00  0.00     0.017 A 
ATOM      6  C5  UNL d   1       0.385  -2.891   2.174  0.00  0.00     0.034 A 
ATOM      7 Cl   UNL d   1      -1.611  -1.973   0.635  0.00  0.00    -0.070 Cl
ATOM      8 Cl1  UNL d   1      -1.470   0.674   2.525  0.00  0.00    -0.070 Cl
ENDROOT
TORSDOF 0
ENDMDL
