MODEL 1
REMARK minimizedAffinity 16.7157574
REMARK minimizedRMSD -1
REMARK  0 active torsions:
REMARK  status: ('A' for Active; 'I' for Inactive)
ROOT
ATOM      1  C   UNL d   1       1.788  -2.487   3.747  0.00  0.00     0.020 A 
ATOM      2  C1  UNL d   1       3.015  -1.883   3.474  0.00  0.00     0.020 A 
ATOM      3  C2  UNL d   1       3.104  -0.902   2.484  0.00  0.00     0.034 A 
ATOM      4  C3  UNL d   1       1.966  -0.522   1.764  0.00  0.00     0.017 A 
ATOM      5  C4  UNL d   1       0.735  -1.129   2.039  0.00  0.00     0.017 A 
ATOM      6  C5  UNL d   1       0.651  -2.110   3.032  0.00  0.00     0.034 A 
ATOM      7 Cl   UNL d   1      -0.714  -0.713   1.193  0.00  0.00    -0.070 Cl
ATOM      8 Cl1  UNL d   1       2.150   0.698   0.554  0.00  0.00    -0.070 Cl
ENDROOT
TORSDOF 0
ENDMDL
