MODEL 1
REMARK minimizedAffinity 14.8270521
REMARK minimizedRMSD -1
REMARK  0 active torsions:
REMARK  status: ('A' for Active; 'I' for Inactive)
ROOT
ATOM      1  C   UNL d   1       6.000   4.499  -3.462  0.00  0.00     0.020 A 
ATOM      2  C1  UNL d   1       5.316   4.626  -2.253  0.00  0.00     0.020 A 
ATOM      3  C2  UNL d   1       4.016   4.132  -2.131  0.00  0.00     0.034 A 
ATOM      4  C3  UNL d   1       3.395   3.508  -3.220  0.00  0.00     0.017 A 
ATOM      5  C4  UNL d   1       4.082   3.382  -4.433  0.00  0.00     0.017 A 
ATOM      6  C5  UNL d   1       5.384   3.878  -4.549  0.00  0.00     0.034 A 
ATOM      7 Cl   UNL d   1       3.382   2.625  -5.820  0.00  0.00    -0.070 Cl
ATOM      8 Cl1  UNL d   1       1.785   2.921  -2.998  0.00  0.00    -0.070 Cl
ENDROOT
TORSDOF 0
ENDMDL
