MODEL 1
REMARK minimizedAffinity 11.6326914
REMARK minimizedRMSD -1
REMARK  0 active torsions:
REMARK  status: ('A' for Active; 'I' for Inactive)
ROOT
ATOM      1  C   UNL d   1       3.585   3.004  -3.864  0.00  0.00     0.020 A 
ATOM      2  C1  UNL d   1       2.622   2.120  -3.380  0.00  0.00     0.020 A 
ATOM      3  C2  UNL d   1       2.692   1.665  -2.061  0.00  0.00     0.034 A 
ATOM      4  C3  UNL d   1       3.727   2.094  -1.222  0.00  0.00     0.017 A 
ATOM      5  C4  UNL d   1       4.693   2.982  -1.710  0.00  0.00     0.017 A 
ATOM      6  C5  UNL d   1       4.619   3.434  -3.031  0.00  0.00     0.034 A 
ATOM      7 Cl   UNL d   1       6.000   3.556  -0.735  0.00  0.00    -0.070 Cl
ATOM      8 Cl1  UNL d   1       3.751   1.492   0.397  0.00  0.00    -0.070 Cl
ENDROOT
TORSDOF 0
ENDMDL
