MODEL 1
REMARK minimizedAffinity 10.6391878
REMARK minimizedRMSD -1
REMARK  0 active torsions:
REMARK  status: ('A' for Active; 'I' for Inactive)
ROOT
ATOM      1  C   UNL d   1      -2.034   0.720   3.059  0.00  0.00     0.020 A 
ATOM      2  C1  UNL d   1      -2.888   0.272   2.053  0.00  0.00     0.020 A 
ATOM      3  C2  UNL d   1      -2.626  -0.935   1.400  0.00  0.00     0.034 A 
ATOM      4  C3  UNL d   1      -1.507  -1.697   1.753  0.00  0.00     0.017 A 
ATOM      5  C4  UNL d   1      -0.650  -1.246   2.764  0.00  0.00     0.017 A 
ATOM      6  C5  UNL d   1      -0.917  -0.038   3.414  0.00  0.00     0.034 A 
ATOM      7 Cl   UNL d   1       0.751  -2.132   3.255  0.00  0.00    -0.070 Cl
ATOM      8 Cl1  UNL d   1      -1.244  -3.179   0.905  0.00  0.00    -0.070 Cl
ENDROOT
TORSDOF 0
ENDMDL
