MODEL 1
REMARK minimizedAffinity 14.997714
REMARK minimizedRMSD -1
REMARK  0 active torsions:
REMARK  status: ('A' for Active; 'I' for Inactive)
ROOT
ATOM      1  C   UNL d   1      -2.149   0.987   3.197  0.00  0.00     0.020 A 
ATOM      2  C1  UNL d   1      -3.201   0.315   2.575  0.00  0.00     0.020 A 
ATOM      3  C2  UNL d   1      -2.937  -0.772   1.739  0.00  0.00     0.034 A 
ATOM      4  C3  UNL d   1      -1.619  -1.189   1.521  0.00  0.00     0.017 A 
ATOM      5  C4  UNL d   1      -0.564  -0.514   2.145  0.00  0.00     0.017 A 
ATOM      6  C5  UNL d   1      -0.834   0.574   2.982  0.00  0.00     0.034 A 
ATOM      7 Cl   UNL d   1       1.088  -0.970   1.925  0.00  0.00    -0.070 Cl
ATOM      8 Cl1  UNL d   1      -1.366  -2.541   0.475  0.00  0.00    -0.070 Cl
ENDROOT
TORSDOF 0
ENDMDL
