MODEL 1
REMARK minimizedAffinity 18.3309822
REMARK minimizedRMSD -1
REMARK  0 active torsions:
REMARK  status: ('A' for Active; 'I' for Inactive)
ROOT
ATOM      1  C   UNL d   1       6.000   3.683  -1.153  0.00  0.00     0.020 A 
ATOM      2  C1  UNL d   1       5.620   4.477  -2.234  0.00  0.00     0.020 A 
ATOM      3  C2  UNL d   1       4.419   4.224  -2.899  0.00  0.00     0.034 A 
ATOM      4  C3  UNL d   1       3.592   3.174  -2.483  0.00  0.00     0.017 A 
ATOM      5  C4  UNL d   1       3.974   2.378  -1.397  0.00  0.00     0.017 A 
ATOM      6  C5  UNL d   1       5.178   2.636  -0.735  0.00  0.00     0.034 A 
ATOM      7 Cl   UNL d   1       3.006   1.064  -0.825  0.00  0.00    -0.070 Cl
ATOM      8 Cl1  UNL d   1       2.120   2.918  -3.351  0.00  0.00    -0.070 Cl
ENDROOT
TORSDOF 0
ENDMDL
