MODEL 1
REMARK minimizedAffinity 14.4866257
REMARK minimizedRMSD -1
REMARK  0 active torsions:
REMARK  status: ('A' for Active; 'I' for Inactive)
ROOT
ATOM      1  C   UNL d   1       0.104  -1.560   2.328  0.00  0.00     0.020 A 
ATOM      2  C1  UNL d   1       0.190  -1.431   3.714  0.00  0.00     0.020 A 
ATOM      3  C2  UNL d   1      -0.701  -0.598   4.394  0.00  0.00     0.034 A 
ATOM      4  C3  UNL d   1      -1.681   0.110   3.689  0.00  0.00     0.017 A 
ATOM      5  C4  UNL d   1      -1.766  -0.020   2.298  0.00  0.00     0.017 A 
ATOM      6  C5  UNL d   1      -0.872  -0.856   1.622  0.00  0.00     0.034 A 
ATOM      7 Cl   UNL d   1      -2.949   0.821   1.360  0.00  0.00    -0.070 Cl
ATOM      8 Cl1  UNL d   1      -2.749   1.122   4.595  0.00  0.00    -0.070 Cl
ENDROOT
TORSDOF 0
ENDMDL
