MODEL 1
REMARK minimizedAffinity 10.0676222
REMARK minimizedRMSD -1
REMARK  0 active torsions:
REMARK  status: ('A' for Active; 'I' for Inactive)
ROOT
ATOM      1  C   UNL d   1      -2.465   0.970   2.416  0.00  0.00     0.020 A 
ATOM      2  C1  UNL d   1      -3.577   0.396   1.802  0.00  0.00     0.020 A 
ATOM      3  C2  UNL d   1      -3.471  -0.859   1.197  0.00  0.00     0.034 A 
ATOM      4  C3  UNL d   1      -2.250  -1.543   1.206  0.00  0.00     0.017 A 
ATOM      5  C4  UNL d   1      -1.134  -0.966   1.823  0.00  0.00     0.017 A 
ATOM      6  C5  UNL d   1      -1.246   0.291   2.427  0.00  0.00     0.034 A 
ATOM      7 Cl   UNL d   1       0.406  -1.750   1.875  0.00  0.00    -0.070 Cl
ATOM      8 Cl1  UNL d   1      -2.191  -3.091   0.441  0.00  0.00    -0.070 Cl
ENDROOT
TORSDOF 0
ENDMDL
