MODEL 1
REMARK minimizedAffinity 9.37307167
REMARK minimizedRMSD -1
REMARK  0 active torsions:
REMARK  status: ('A' for Active; 'I' for Inactive)
ROOT
ATOM      1  C   UNL d   1       6.000   6.000  -3.870  0.00  0.00     0.020 A 
ATOM      2  C1  UNL d   1       5.415   5.966  -2.605  0.00  0.00     0.020 A 
ATOM      3  C2  UNL d   1       4.440   5.009  -2.312  0.00  0.00     0.034 A 
ATOM      4  C3  UNL d   1       4.048   4.083  -3.285  0.00  0.00     0.017 A 
ATOM      5  C4  UNL d   1       4.636   4.118  -4.554  0.00  0.00     0.017 A 
ATOM      6  C5  UNL d   1       5.611   5.078  -4.843  0.00  0.00     0.034 A 
ATOM      7 Cl   UNL d   1       4.203   3.008  -5.807  0.00  0.00    -0.070 Cl
ATOM      8 Cl1  UNL d   1       2.838   2.928  -2.853  0.00  0.00    -0.070 Cl
ENDROOT
TORSDOF 0
ENDMDL
