MODEL 1
REMARK minimizedAffinity 10.6110392
REMARK minimizedRMSD -1
REMARK  0 active torsions:
REMARK  status: ('A' for Active; 'I' for Inactive)
ROOT
ATOM      1  C   UNL d   1       2.166   4.887  -2.281  0.00  0.00     0.020 A 
ATOM      2  C1  UNL d   1       1.524   3.952  -3.092  0.00  0.00     0.020 A 
ATOM      3  C2  UNL d   1       2.264   3.193  -4.001  0.00  0.00     0.034 A 
ATOM      4  C3  UNL d   1       3.649   3.367  -4.102  0.00  0.00     0.017 A 
ATOM      5  C4  UNL d   1       4.292   4.305  -3.287  0.00  0.00     0.017 A 
ATOM      6  C5  UNL d   1       3.547   5.063  -2.378  0.00  0.00     0.034 A 
ATOM      7 Cl   UNL d   1       5.998   4.576  -3.353  0.00  0.00    -0.070 Cl
ATOM      8 Cl1  UNL d   1       4.500   2.393  -5.248  0.00  0.00    -0.070 Cl
ENDROOT
TORSDOF 0
ENDMDL
