MODEL 1
REMARK minimizedAffinity -0.440906852
REMARK minimizedRMSD -1
REMARK  2 active torsions:
REMARK  status: ('A' for Active; 'I' for Inactive)
REMARK    1  A    between atoms: C1_2  and  C2_3 
REMARK    2  A    between atoms: C2_3  and  C3_4 
ROOT
ATOM      1  C3  UNL d   1       5.001   0.750   3.799  0.00  0.00    -0.075 A 
ATOM      2  C4  UNL d   1       4.095  -0.316   3.901  0.00  0.00     0.002 A 
ATOM      3  C5  UNL d   1       4.134  -1.177   4.998  0.00  0.00     0.002 A 
ATOM      4  C6  UNL d   1       5.084  -0.990   6.000  0.00  0.00    -0.004 A 
ATOM      5  C7  UNL d   1       6.000   0.055   5.901  0.00  0.00     0.002 A 
ATOM      6  C8  UNL d   1       5.960   0.921   4.806  0.00  0.00     0.002 A 
ENDROOT
BRANCH   1   7
ATOM      7  C2  UNL d   1       4.944   1.703   2.629  0.00  0.00     0.056 C 
BRANCH   7   8
ATOM      8  C1  UNL d   1       4.523   3.128   3.005  0.00  0.00     0.007 C 
ATOM      9  C   UNL d   1       5.648   3.940   3.633  0.00  0.00     0.009 C 
ENDBRANCH   7   8
ENDBRANCH   1   7
TORSDOF 2
ENDMDL
