MODEL 1
REMARK minimizedAffinity 7.47235394
REMARK minimizedRMSD -1
REMARK  2 active torsions:
REMARK  status: ('A' for Active; 'I' for Inactive)
REMARK    1  A    between atoms: C1_2  and  C2_3 
REMARK    2  A    between atoms: C2_3  and  C3_4 
ROOT
ATOM      1  C3  UNL d   1       4.818   2.071   3.380  0.00  0.00    -0.075 A 
ATOM      2  C4  UNL d   1       4.838   0.811   2.764  0.00  0.00     0.002 A 
ATOM      3  C5  UNL d   1       5.422  -0.282   3.405  0.00  0.00     0.002 A 
ATOM      4  C6  UNL d   1       6.000  -0.128   4.663  0.00  0.00    -0.004 A 
ATOM      5  C7  UNL d   1       5.999   1.123   5.278  0.00  0.00     0.002 A 
ATOM      6  C8  UNL d   1       5.412   2.217   4.640  0.00  0.00     0.002 A 
ENDROOT
BRANCH   1   7
ATOM      7  C2  UNL d   1       4.161   3.251   2.704  0.00  0.00     0.056 C 
BRANCH   7   8
ATOM      8  C1  UNL d   1       3.725   2.979   1.260  0.00  0.00     0.007 C 
ATOM      9  C   UNL d   1       2.287   3.396   0.980  0.00  0.00     0.009 C 
ENDBRANCH   7   8
ENDBRANCH   1   7
TORSDOF 2
ENDMDL
