MODEL 1
REMARK minimizedAffinity 1.91935515
REMARK minimizedRMSD -1
REMARK  2 active torsions:
REMARK  status: ('A' for Active; 'I' for Inactive)
REMARK    1  A    between atoms: C1_2  and  C2_3 
REMARK    2  A    between atoms: C2_3  and  C3_4 
ROOT
ATOM      1  C3  UNL d   1       5.240   2.223   4.023  0.00  0.00    -0.075 A 
ATOM      2  C4  UNL d   1       4.929   1.136   4.854  0.00  0.00     0.002 A 
ATOM      3  C5  UNL d   1       4.250   0.028   4.347  0.00  0.00     0.002 A 
ATOM      4  C6  UNL d   1       3.866  -0.005   3.008  0.00  0.00    -0.004 A 
ATOM      5  C7  UNL d   1       4.155   1.076   2.178  0.00  0.00     0.002 A 
ATOM      6  C8  UNL d   1       4.838   2.185   2.682  0.00  0.00     0.002 A 
ENDROOT
BRANCH   1   7
ATOM      7  C2  UNL d   1       6.000   3.412   4.559  0.00  0.00     0.056 C 
BRANCH   7   8
ATOM      8  C1  UNL d   1       5.884   4.669   3.690  0.00  0.00     0.007 C 
ATOM      9  C   UNL d   1       5.999   5.962   4.487  0.00  0.00     0.009 C 
ENDBRANCH   7   8
ENDBRANCH   1   7
TORSDOF 2
ENDMDL
