MODEL 1
REMARK minimizedAffinity 5.0904088
REMARK minimizedRMSD -1
REMARK  2 active torsions:
REMARK  status: ('A' for Active; 'I' for Inactive)
REMARK    1  A    between atoms: C1_2  and  C2_3 
REMARK    2  A    between atoms: C2_3  and  C3_4 
ROOT
ATOM      1  C3  UNL d   1       3.567  -0.593   4.875  0.00  0.00    -0.075 A 
ATOM      2  C4  UNL d   1       4.595  -0.709   5.822  0.00  0.00     0.002 A 
ATOM      3  C5  UNL d   1       5.801  -0.030   5.645  0.00  0.00     0.002 A 
ATOM      4  C6  UNL d   1       5.998   0.763   4.516  0.00  0.00    -0.004 A 
ATOM      5  C7  UNL d   1       4.990   0.872   3.561  0.00  0.00     0.002 A 
ATOM      6  C8  UNL d   1       3.780   0.198   3.738  0.00  0.00     0.002 A 
ENDROOT
BRANCH   1   7
ATOM      7  C2  UNL d   1       2.248  -1.301   5.076  0.00  0.00     0.056 C 
BRANCH   7   8
ATOM      8  C1  UNL d   1       1.755  -2.064   3.842  0.00  0.00     0.007 C 
ATOM      9  C   UNL d   1       0.289  -1.806   3.523  0.00  0.00     0.009 C 
ENDBRANCH   7   8
ENDBRANCH   1   7
TORSDOF 2
ENDMDL
