MODEL 1
REMARK minimizedAffinity 4.46117783
REMARK minimizedRMSD -1
REMARK  2 active torsions:
REMARK  status: ('A' for Active; 'I' for Inactive)
REMARK    1  A    between atoms: C1_2  and  C2_3 
REMARK    2  A    between atoms: C2_3  and  C3_4 
ROOT
ATOM      1  C3  UNL d   1      -2.529  -1.622   1.953  0.00  0.00    -0.075 A 
ATOM      2  C4  UNL d   1      -1.841  -0.684   2.735  0.00  0.00     0.002 A 
ATOM      3  C5  UNL d   1      -2.477  -0.048   3.802  0.00  0.00     0.002 A 
ATOM      4  C6  UNL d   1      -3.809  -0.333   4.093  0.00  0.00    -0.004 A 
ATOM      5  C7  UNL d   1      -4.508  -1.252   3.313  0.00  0.00     0.002 A 
ATOM      6  C8  UNL d   1      -3.872  -1.893   2.248  0.00  0.00     0.002 A 
ENDROOT
BRANCH   1   7
ATOM      7  C2  UNL d   1      -1.838  -2.336   0.816  0.00  0.00     0.056 C 
BRANCH   7   8
ATOM      8  C1  UNL d   1      -1.483  -3.795   1.120  0.00  0.00     0.007 C 
ATOM      9  C   UNL d   1      -0.035  -3.983   1.553  0.00  0.00     0.009 C 
ENDBRANCH   7   8
ENDBRANCH   1   7
TORSDOF 2
ENDMDL
