MODEL 1
REMARK minimizedAffinity 6.8069334
REMARK minimizedRMSD -1
REMARK  2 active torsions:
REMARK  status: ('A' for Active; 'I' for Inactive)
REMARK    1  A    between atoms: C1_2  and  C2_3 
REMARK    2  A    between atoms: C2_3  and  C3_4 
ROOT
ATOM      1  C3  UNL d   1      -3.200   1.538   1.513  0.00  0.00    -0.075 A 
ATOM      2  C4  UNL d   1      -3.269   2.717   2.269  0.00  0.00     0.002 A 
ATOM      3  C5  UNL d   1      -3.347   3.960   1.639  0.00  0.00     0.002 A 
ATOM      4  C6  UNL d   1      -3.348   4.040   0.248  0.00  0.00    -0.004 A 
ATOM      5  C7  UNL d   1      -3.264   2.876  -0.513  0.00  0.00     0.002 A 
ATOM      6  C8  UNL d   1      -3.189   1.632   0.115  0.00  0.00     0.002 A 
ENDROOT
BRANCH   1   7
ATOM      7  C2  UNL d   1      -3.145   0.189   2.188  0.00  0.00     0.056 C 
BRANCH   7   8
ATOM      8  C1  UNL d   1      -2.721   0.245   3.660  0.00  0.00     0.007 C 
ATOM      9  C   UNL d   1      -3.255  -0.920   4.483  0.00  0.00     0.009 C 
ENDBRANCH   7   8
ENDBRANCH   1   7
TORSDOF 2
ENDMDL
