MODEL 1
REMARK minimizedAffinity -4.43998671
REMARK minimizedRMSD -1
REMARK  2 active torsions:
REMARK  status: ('A' for Active; 'I' for Inactive)
REMARK    1  A    between atoms: C1_2  and  C2_3 
REMARK    2  A    between atoms: C2_3  and  C3_4 
ROOT
ATOM      1  C3  UNL d   1      -2.839   0.089   1.008  0.00  0.00    -0.075 A 
ATOM      2  C4  UNL d   1      -2.135   0.743   2.029  0.00  0.00     0.002 A 
ATOM      3  C5  UNL d   1      -2.334   2.104   2.267  0.00  0.00     0.002 A 
ATOM      4  C6  UNL d   1      -3.230   2.827   1.482  0.00  0.00    -0.004 A 
ATOM      5  C7  UNL d   1      -3.922   2.191   0.454  0.00  0.00     0.002 A 
ATOM      6  C8  UNL d   1      -3.728   0.829   0.217  0.00  0.00     0.002 A 
ENDROOT
BRANCH   1   7
ATOM      7  C2  UNL d   1      -2.650  -1.390   0.764  0.00  0.00     0.056 C 
BRANCH   7   8
ATOM      8  C1  UNL d   1      -1.225  -1.777   0.356  0.00  0.00     0.007 C 
ATOM      9  C   UNL d   1      -1.052  -3.273   0.125  0.00  0.00     0.009 C 
ENDBRANCH   7   8
ENDBRANCH   1   7
TORSDOF 2
ENDMDL
