MODEL 1
REMARK minimizedAffinity 4.69949722
REMARK minimizedRMSD -1
REMARK  2 active torsions:
REMARK  status: ('A' for Active; 'I' for Inactive)
REMARK    1  A    between atoms: C1_2  and  C2_3 
REMARK    2  A    between atoms: C2_3  and  C3_4 
ROOT
ATOM      1  C3  UNL d   1       3.991  -0.156   3.225  0.00  0.00    -0.075 A 
ATOM      2  C4  UNL d   1       3.656   1.081   2.656  0.00  0.00     0.002 A 
ATOM      3  C5  UNL d   1       4.331   2.242   3.035  0.00  0.00     0.002 A 
ATOM      4  C6  UNL d   1       5.340   2.183   3.993  0.00  0.00    -0.004 A 
ATOM      5  C7  UNL d   1       5.671   0.962   4.577  0.00  0.00     0.002 A 
ATOM      6  C8  UNL d   1       5.000  -0.202   4.196  0.00  0.00     0.002 A 
ENDROOT
BRANCH   1   7
ATOM      7  C2  UNL d   1       3.285  -1.420   2.797  0.00  0.00     0.056 C 
BRANCH   7   8
ATOM      8  C1  UNL d   1       3.213  -1.612   1.279  0.00  0.00     0.007 C 
ATOM      9  C   UNL d   1       2.138  -2.601   0.848  0.00  0.00     0.009 C 
ENDBRANCH   7   8
ENDBRANCH   1   7
TORSDOF 2
ENDMDL
