MODEL 1
REMARK minimizedAffinity 2.87102365
REMARK minimizedRMSD -1
REMARK  2 active torsions:
REMARK  status: ('A' for Active; 'I' for Inactive)
REMARK    1  A    between atoms: C1_2  and  C2_3 
REMARK    2  A    between atoms: C2_3  and  C3_4 
ROOT
ATOM      1  C3  UNL d   1      -4.815  -0.846   2.951  0.00  0.00    -0.075 A 
ATOM      2  C4  UNL d   1      -4.453  -0.472   4.253  0.00  0.00     0.002 A 
ATOM      3  C5  UNL d   1      -3.374   0.386   4.470  0.00  0.00     0.002 A 
ATOM      4  C6  UNL d   1      -2.639   0.871   3.390  0.00  0.00    -0.004 A 
ATOM      5  C7  UNL d   1      -2.979   0.493   2.094  0.00  0.00     0.002 A 
ATOM      6  C8  UNL d   1      -4.061  -0.362   1.874  0.00  0.00     0.002 A 
ENDROOT
BRANCH   1   7
ATOM      7  C2  UNL d   1      -6.000  -1.750   2.709  0.00  0.00     0.056 C 
BRANCH   7   8
ATOM      8  C1  UNL d   1      -5.999  -3.022   3.563  0.00  0.00     0.007 C 
ATOM      9  C   UNL d   1      -5.943  -4.300   2.736  0.00  0.00     0.009 C 
ENDBRANCH   7   8
ENDBRANCH   1   7
TORSDOF 2
ENDMDL
