MODEL 1
REMARK minimizedAffinity 5.02002764
REMARK minimizedRMSD -1
REMARK  2 active torsions:
REMARK  status: ('A' for Active; 'I' for Inactive)
REMARK    1  A    between atoms: C1_2  and  C2_3 
REMARK    2  A    between atoms: C2_3  and  C3_4 
ROOT
ATOM      1  C3  UNL d   1       4.383   2.975  -5.564  0.00  0.00    -0.075 A 
ATOM      2  C4  UNL d   1       3.176   2.403  -5.991  0.00  0.00     0.002 A 
ATOM      3  C5  UNL d   1       1.956   2.989  -5.654  0.00  0.00     0.002 A 
ATOM      4  C6  UNL d   1       1.926   4.146  -4.879  0.00  0.00    -0.004 A 
ATOM      5  C7  UNL d   1       3.118   4.714  -4.435  0.00  0.00     0.002 A 
ATOM      6  C8  UNL d   1       4.341   4.132  -4.774  0.00  0.00     0.002 A 
ENDROOT
BRANCH   1   7
ATOM      7  C2  UNL d   1       5.708   2.362  -5.950  0.00  0.00     0.056 C 
BRANCH   7   8
ATOM      8  C1  UNL d   1       5.990   1.013  -5.281  0.00  0.00     0.007 C 
ATOM      9  C   UNL d   1       5.999   1.087  -3.760  0.00  0.00     0.009 C 
ENDBRANCH   7   8
ENDBRANCH   1   7
TORSDOF 2
ENDMDL
