MODEL 1
REMARK minimizedAffinity -1.38294613
REMARK minimizedRMSD -1
REMARK  2 active torsions:
REMARK  status: ('A' for Active; 'I' for Inactive)
REMARK    1  A    between atoms: C1_2  and  C2_3 
REMARK    2  A    between atoms: C2_3  and  C3_4 
ROOT
ATOM      1  C3  UNL d   1       3.300  -0.395   2.372  0.00  0.00    -0.075 A 
ATOM      2  C4  UNL d   1       3.686   0.926   2.099  0.00  0.00     0.002 A 
ATOM      3  C5  UNL d   1       4.436   1.650   3.025  0.00  0.00     0.002 A 
ATOM      4  C6  UNL d   1       4.801   1.069   4.238  0.00  0.00    -0.004 A 
ATOM      5  C7  UNL d   1       4.410  -0.236   4.526  0.00  0.00     0.002 A 
ATOM      6  C8  UNL d   1       3.663  -0.965   3.599  0.00  0.00     0.002 A 
ENDROOT
BRANCH   1   7
ATOM      7  C2  UNL d   1       2.513  -1.195   1.361  0.00  0.00     0.056 C 
BRANCH   7   8
ATOM      8  C1  UNL d   1       2.237  -2.640   1.788  0.00  0.00     0.007 C 
ATOM      9  C   UNL d   1       1.207  -3.339   0.910  0.00  0.00     0.009 C 
ENDBRANCH   7   8
ENDBRANCH   1   7
TORSDOF 2
ENDMDL
