MODEL 1
REMARK minimizedAffinity 0.351790786
REMARK minimizedRMSD -1
REMARK  2 active torsions:
REMARK  status: ('A' for Active; 'I' for Inactive)
REMARK    1  A    between atoms: C1_2  and  C2_3 
REMARK    2  A    between atoms: C2_3  and  C3_4 
ROOT
ATOM      1  C3  UNL d   1      -3.252   1.065   1.361  0.00  0.00    -0.075 A 
ATOM      2  C4  UNL d   1      -3.752  -0.226   1.137  0.00  0.00     0.002 A 
ATOM      3  C5  UNL d   1      -3.779  -1.164   2.169  0.00  0.00     0.002 A 
ATOM      4  C6  UNL d   1      -3.299  -0.828   3.433  0.00  0.00    -0.004 A 
ATOM      5  C7  UNL d   1      -2.784   0.446   3.663  0.00  0.00     0.002 A 
ATOM      6  C8  UNL d   1      -2.760   1.388   2.633  0.00  0.00     0.002 A 
ENDROOT
BRANCH   1   7
ATOM      7  C2  UNL d   1      -3.247   2.094   0.256  0.00  0.00     0.056 C 
BRANCH   7   8
ATOM      8  C1  UNL d   1      -2.566   3.413   0.636  0.00  0.00     0.007 C 
ATOM      9  C   UNL d   1      -3.504   4.611   0.580  0.00  0.00     0.009 C 
ENDBRANCH   7   8
ENDBRANCH   1   7
TORSDOF 2
ENDMDL
