MODEL 1
REMARK minimizedAffinity -0.498676389
REMARK minimizedRMSD -1
REMARK  2 active torsions:
REMARK  status: ('A' for Active; 'I' for Inactive)
REMARK    1  A    between atoms: C1_2  and  C2_3 
REMARK    2  A    between atoms: C2_3  and  C3_4 
ROOT
ATOM      1  C3  UNL d   1       3.738  -0.387   3.485  0.00  0.00    -0.075 A 
ATOM      2  C4  UNL d   1       4.715  -0.479   4.487  0.00  0.00     0.002 A 
ATOM      3  C5  UNL d   1       5.544   0.606   4.771  0.00  0.00     0.002 A 
ATOM      4  C6  UNL d   1       5.414   1.793   4.052  0.00  0.00    -0.004 A 
ATOM      5  C7  UNL d   1       4.458   1.890   3.043  0.00  0.00     0.002 A 
ATOM      6  C8  UNL d   1       3.624   0.807   2.760  0.00  0.00     0.002 A 
ENDROOT
BRANCH   1   7
ATOM      7  C2  UNL d   1       2.819  -1.548   3.193  0.00  0.00     0.056 C 
BRANCH   7   8
ATOM      8  C1  UNL d   1       2.553  -1.774   1.700  0.00  0.00     0.007 C 
ATOM      9  C   UNL d   1       1.727  -3.022   1.419  0.00  0.00     0.009 C 
ENDBRANCH   7   8
ENDBRANCH   1   7
TORSDOF 2
ENDMDL
