MODEL 1
REMARK minimizedAffinity 3.29043746
REMARK minimizedRMSD -1
REMARK  2 active torsions:
REMARK  status: ('A' for Active; 'I' for Inactive)
REMARK    1  A    between atoms: C1_2  and  C2_3 
REMARK    2  A    between atoms: C2_3  and  C3_4 
ROOT
ATOM      1  C3  UNL d   1       4.292   1.611   3.179  0.00  0.00    -0.075 A 
ATOM      2  C4  UNL d   1       5.109   2.656   3.635  0.00  0.00     0.002 A 
ATOM      3  C5  UNL d   1       5.961   2.465   4.724  0.00  0.00     0.002 A 
ATOM      4  C6  UNL d   1       5.999   1.235   5.375  0.00  0.00    -0.004 A 
ATOM      5  C7  UNL d   1       5.179   0.195   4.941  0.00  0.00     0.002 A 
ATOM      6  C8  UNL d   1       4.330   0.381   3.849  0.00  0.00     0.002 A 
ENDROOT
BRANCH   1   7
ATOM      7  C2  UNL d   1       3.390   1.802   1.983  0.00  0.00     0.056 C 
BRANCH   7   8
ATOM      8  C1  UNL d   1       3.385   3.230   1.427  0.00  0.00     0.007 C 
ATOM      9  C   UNL d   1       2.183   3.523   0.539  0.00  0.00     0.009 C 
ENDBRANCH   7   8
ENDBRANCH   1   7
TORSDOF 2
ENDMDL
