MODEL 1
REMARK minimizedAffinity -3.73910284
REMARK minimizedRMSD -1
REMARK  2 active torsions:
REMARK  status: ('A' for Active; 'I' for Inactive)
REMARK    1  A    between atoms: C1_2  and  C2_3 
REMARK    2  A    between atoms: C2_3  and  C3_4 
ROOT
ATOM      1  C3  UNL d   1       3.532  -0.448   2.634  0.00  0.00    -0.075 A 
ATOM      2  C4  UNL d   1       3.995   0.876   2.649  0.00  0.00     0.002 A 
ATOM      3  C5  UNL d   1       4.674   1.376   3.761  0.00  0.00     0.002 A 
ATOM      4  C6  UNL d   1       4.889   0.565   4.872  0.00  0.00    -0.004 A 
ATOM      5  C7  UNL d   1       4.420  -0.747   4.875  0.00  0.00     0.002 A 
ATOM      6  C8  UNL d   1       3.744  -1.251   3.762  0.00  0.00     0.002 A 
ENDROOT
BRANCH   1   7
ATOM      7  C2  UNL d   1       2.822  -1.004   1.423  0.00  0.00     0.056 C 
BRANCH   7   8
ATOM      8  C1  UNL d   1       2.939  -2.525   1.275  0.00  0.00     0.007 C 
ATOM      9  C   UNL d   1       1.703  -3.165   0.657  0.00  0.00     0.009 C 
ENDBRANCH   7   8
ENDBRANCH   1   7
TORSDOF 2
ENDMDL
