MODEL 1
REMARK minimizedAffinity 0.539824963
REMARK minimizedRMSD -1
REMARK  0 active torsions:
REMARK  status: ('A' for Active; 'I' for Inactive)
ROOT
ATOM      1  C   UNL d   1       1.636  -2.353  -0.388  0.00  0.00     0.077 C 
ATOM      2  C1  UNL d   1       0.970  -1.032  -0.145  0.00  0.00    -0.074 A 
ATOM      3  C2  UNL d   1       1.650   0.009   0.496  0.00  0.00    -0.005 A 
ATOM      4  C3  UNL d   1       1.021   1.236   0.707  0.00  0.00     0.006 A 
ATOM      5  C4  UNL d   1      -0.293   1.434   0.280  0.00  0.00    -0.005 A 
ATOM      6  C5  UNL d   1      -0.989   0.405  -0.363  0.00  0.00    -0.074 A 
ATOM      7  C6  UNL d   1      -2.398   0.605  -0.836  0.00  0.00     0.077 C 
ATOM      8  C7  UNL d   1      -0.347  -0.822  -0.577  0.00  0.00    -0.001 A 
ENDROOT
TORSDOF 0
ENDMDL
