MODEL 1
REMARK minimizedAffinity -4.84319973
REMARK minimizedRMSD -1
REMARK  0 active torsions:
REMARK  status: ('A' for Active; 'I' for Inactive)
ROOT
ATOM      1  C   UNL d   1      -0.968   0.387  -0.757  0.00  0.00     0.077 C 
ATOM      2  C1  UNL d   1       0.365  -0.261  -0.528  0.00  0.00    -0.074 A 
ATOM      3  C2  UNL d   1       0.600  -1.581  -0.924  0.00  0.00    -0.005 A 
ATOM      4  C3  UNL d   1       1.848  -2.167  -0.712  0.00  0.00     0.006 A 
ATOM      5  C4  UNL d   1       2.872  -1.440  -0.103  0.00  0.00    -0.005 A 
ATOM      6  C5  UNL d   1       2.655  -0.118   0.299  0.00  0.00    -0.074 A 
ATOM      7  C6  UNL d   1       3.747   0.681   0.946  0.00  0.00     0.077 C 
ATOM      8  C7  UNL d   1       1.401   0.466   0.076  0.00  0.00    -0.001 A 
ENDROOT
TORSDOF 0
ENDMDL
