MODEL 1
REMARK minimizedAffinity -3.90949869
REMARK minimizedRMSD -1
REMARK  0 active torsions:
REMARK  status: ('A' for Active; 'I' for Inactive)
ROOT
ATOM      1  C   UNL d   1       0.387   1.491  -0.131  0.00  0.00     0.077 C 
ATOM      2  C1  UNL d   1       1.191   0.309   0.322  0.00  0.00    -0.074 A 
ATOM      3  C2  UNL d   1       1.879   0.331   1.540  0.00  0.00    -0.005 A 
ATOM      4  C3  UNL d   1       2.614  -0.780   1.953  0.00  0.00     0.006 A 
ATOM      5  C4  UNL d   1       2.669  -1.922   1.154  0.00  0.00    -0.005 A 
ATOM      6  C5  UNL d   1       1.987  -1.964  -0.066  0.00  0.00    -0.074 A 
ATOM      7  C6  UNL d   1       2.028  -3.188  -0.932  0.00  0.00     0.077 C 
ATOM      8  C7  UNL d   1       1.245  -0.846  -0.471  0.00  0.00    -0.001 A 
ENDROOT
TORSDOF 0
ENDMDL
