MODEL 1
REMARK minimizedAffinity -3.9410429
REMARK minimizedRMSD -1
REMARK  0 active torsions:
REMARK  status: ('A' for Active; 'I' for Inactive)
ROOT
ATOM      1  C   UNL d   1       3.165  -1.616   1.184  0.00  0.00     0.077 C 
ATOM      2  C1  UNL d   1       1.867  -1.214   0.550  0.00  0.00    -0.074 A 
ATOM      3  C2  UNL d   1       1.295   0.036   0.812  0.00  0.00    -0.005 A 
ATOM      4  C3  UNL d   1       0.092   0.399   0.208  0.00  0.00     0.006 A 
ATOM      5  C4  UNL d   1      -0.551  -0.481  -0.664  0.00  0.00    -0.005 A 
ATOM      6  C5  UNL d   1       0.006  -1.734  -0.939  0.00  0.00    -0.074 A 
ATOM      7  C6  UNL d   1      -0.667  -2.688  -1.880  0.00  0.00     0.077 C 
ATOM      8  C7  UNL d   1       1.219  -2.089  -0.333  0.00  0.00    -0.001 A 
ENDROOT
TORSDOF 0
ENDMDL
