MODEL 1
REMARK minimizedAffinity -4.16179085
REMARK minimizedRMSD -1
REMARK  0 active torsions:
REMARK  status: ('A' for Active; 'I' for Inactive)
ROOT
ATOM      1  C   UNL d   1       3.125  -1.113   1.708  0.00  0.00     0.077 C 
ATOM      2  C1  UNL d   1       2.036  -1.147   0.677  0.00  0.00    -0.074 A 
ATOM      3  C2  UNL d   1       1.980  -2.171  -0.274  0.00  0.00    -0.005 A 
ATOM      4  C3  UNL d   1       0.956  -2.195  -1.221  0.00  0.00     0.006 A 
ATOM      5  C4  UNL d   1      -0.020  -1.198  -1.226  0.00  0.00    -0.005 A 
ATOM      6  C5  UNL d   1       0.020  -0.167  -0.282  0.00  0.00    -0.074 A 
ATOM      7  C6  UNL d   1      -1.027   0.908  -0.268  0.00  0.00     0.077 C 
ATOM      8  C7  UNL d   1       1.048  -0.153   0.670  0.00  0.00    -0.001 A 
ENDROOT
TORSDOF 0
ENDMDL
