MODEL 1
REMARK minimizedAffinity -3.93348646
REMARK minimizedRMSD -1
REMARK  0 active torsions:
REMARK  status: ('A' for Active; 'I' for Inactive)
ROOT
ATOM      1  C   UNL d   1      -1.227   0.752  -0.271  0.00  0.00     0.077 C 
ATOM      2  C1  UNL d   1       0.002  -0.067  -0.008  0.00  0.00    -0.074 A 
ATOM      3  C2  UNL d   1       0.689   0.038   1.206  0.00  0.00    -0.005 A 
ATOM      4  C3  UNL d   1       1.825  -0.737   1.440  0.00  0.00     0.006 A 
ATOM      5  C4  UNL d   1       2.285  -1.623   0.464  0.00  0.00    -0.005 A 
ATOM      6  C5  UNL d   1       1.610  -1.741  -0.755  0.00  0.00    -0.074 A 
ATOM      7  C6  UNL d   1       2.084  -2.696  -1.810  0.00  0.00     0.077 C 
ATOM      8  C7  UNL d   1       0.465  -0.964  -0.980  0.00  0.00    -0.001 A 
ENDROOT
TORSDOF 0
ENDMDL
