MODEL 1
REMARK minimizedAffinity -2.91158819
REMARK minimizedRMSD -1
REMARK  0 active torsions:
REMARK  status: ('A' for Active; 'I' for Inactive)
ROOT
ATOM      1  C   UNL d   1       3.085  -1.575   0.655  0.00  0.00     0.077 C 
ATOM      2  C1  UNL d   1       1.695  -1.317   0.154  0.00  0.00    -0.074 A 
ATOM      3  C2  UNL d   1       1.080  -2.196  -0.744  0.00  0.00    -0.005 A 
ATOM      4  C3  UNL d   1      -0.216  -1.947  -1.195  0.00  0.00     0.006 A 
ATOM      5  C4  UNL d   1      -0.910  -0.820  -0.752  0.00  0.00    -0.005 A 
ATOM      6  C5  UNL d   1      -0.312   0.069   0.146  0.00  0.00    -0.074 A 
ATOM      7  C6  UNL d   1      -1.047   1.279   0.639  0.00  0.00     0.077 C 
ATOM      8  C7  UNL d   1       0.989  -0.191   0.600  0.00  0.00    -0.001 A 
ENDROOT
TORSDOF 0
ENDMDL
