MODEL 1
REMARK minimizedAffinity -2.15677071
REMARK minimizedRMSD -1
REMARK  0 active torsions:
REMARK  status: ('A' for Active; 'I' for Inactive)
ROOT
ATOM      1  C   UNL d   1      -1.062   1.439   0.391  0.00  0.00     0.020 A 
ATOM      2  C1  UNL d   1      -0.008   2.103  -0.236  0.00  0.00     0.020 A 
ATOM      3  C2  UNL d   1       1.002   1.373  -0.865  0.00  0.00     0.034 A 
ATOM      4  C3  UNL d   1       0.961  -0.027  -0.869  0.00  0.00     0.017 A 
ATOM      5  C4  UNL d   1      -0.097  -0.692  -0.240  0.00  0.00     0.017 A 
ATOM      6  C5  UNL d   1      -1.106   0.044   0.389  0.00  0.00     0.034 A 
ATOM      7 Cl   UNL d   1      -0.217  -2.416  -0.203  0.00  0.00    -0.070 Cl
ATOM      8 Cl1  UNL d   1       2.244  -0.866  -1.666  0.00  0.00    -0.070 Cl
ENDROOT
TORSDOF 0
ENDMDL
