MODEL 1
REMARK minimizedAffinity -5.65146303
REMARK minimizedRMSD -1
REMARK  0 active torsions:
REMARK  status: ('A' for Active; 'I' for Inactive)
ROOT
ATOM      1  C   UNL d   1       1.832   1.203  -2.659  0.00  0.00     0.020 A 
ATOM      2  C1  UNL d   1       2.575   0.042  -2.453  0.00  0.00     0.020 A 
ATOM      3  C2  UNL d   1       2.147  -0.905  -1.520  0.00  0.00     0.034 A 
ATOM      4  C3  UNL d   1       0.972  -0.691  -0.789  0.00  0.00     0.017 A 
ATOM      5  C4  UNL d   1       0.227   0.475  -0.997  0.00  0.00     0.017 A 
ATOM      6  C5  UNL d   1       0.660   1.419  -1.933  0.00  0.00     0.034 A 
ATOM      7 Cl   UNL d   1      -1.233   0.807  -0.134  0.00  0.00    -0.070 Cl
ATOM      8 Cl1  UNL d   1       0.502  -1.904   0.348  0.00  0.00    -0.070 Cl
ENDROOT
TORSDOF 0
ENDMDL
