MODEL 1
REMARK minimizedAffinity -3.62755251
REMARK minimizedRMSD -1
REMARK  0 active torsions:
REMARK  status: ('A' for Active; 'I' for Inactive)
ROOT
ATOM      1  C   UNL d   1       0.330   2.092  -0.883  0.00  0.00     0.020 A 
ATOM      2  C1  UNL d   1      -0.762   1.342  -0.447  0.00  0.00     0.020 A 
ATOM      3  C2  UNL d   1      -0.619  -0.027  -0.211  0.00  0.00     0.034 A 
ATOM      4  C3  UNL d   1       0.618  -0.651  -0.412  0.00  0.00     0.017 A 
ATOM      5  C4  UNL d   1       1.713   0.103  -0.850  0.00  0.00     0.017 A 
ATOM      6  C5  UNL d   1       1.564   1.473  -1.084  0.00  0.00     0.034 A 
ATOM      7 Cl   UNL d   1       3.270  -0.596  -1.120  0.00  0.00    -0.070 Cl
ATOM      8 Cl1  UNL d   1       0.722  -2.347  -0.102  0.00  0.00    -0.070 Cl
ENDROOT
TORSDOF 0
ENDMDL
