MODEL 1
REMARK minimizedAffinity -2.03939557
REMARK minimizedRMSD -1
REMARK  0 active torsions:
REMARK  status: ('A' for Active; 'I' for Inactive)
ROOT
ATOM      1  C   UNL d   1       1.155  -2.181  -0.455  0.00  0.00     0.020 A 
ATOM      2  C1  UNL d   1       1.908  -1.553  -1.446  0.00  0.00     0.020 A 
ATOM      3  C2  UNL d   1       1.777  -0.179  -1.659  0.00  0.00     0.034 A 
ATOM      4  C3  UNL d   1       0.890   0.572  -0.879  0.00  0.00     0.017 A 
ATOM      5  C4  UNL d   1       0.134  -0.059   0.116  0.00  0.00     0.017 A 
ATOM      6  C5  UNL d   1       0.269  -1.435   0.324  0.00  0.00     0.034 A 
ATOM      7 Cl   UNL d   1      -0.982   0.801   1.117  0.00  0.00    -0.070 Cl
ATOM      8 Cl1  UNL d   1       0.778   2.266  -1.197  0.00  0.00    -0.070 Cl
ENDROOT
TORSDOF 0
ENDMDL
