MODEL 1
REMARK minimizedAffinity -3.25121355
REMARK minimizedRMSD -1
REMARK  0 active torsions:
REMARK  status: ('A' for Active; 'I' for Inactive)
ROOT
ATOM      1  C   UNL d   1       0.667  -1.603   1.443  0.00  0.00     0.020 A 
ATOM      2  C1  UNL d   1       0.577  -1.477   0.057  0.00  0.00     0.020 A 
ATOM      3  C2  UNL d   1      -0.289  -0.536  -0.503  0.00  0.00     0.034 A 
ATOM      4  C3  UNL d   1      -1.070   0.281   0.322  0.00  0.00     0.017 A 
ATOM      5  C4  UNL d   1      -0.979   0.154   1.713  0.00  0.00     0.017 A 
ATOM      6  C5  UNL d   1      -0.110  -0.789   2.269  0.00  0.00     0.034 A 
ATOM      7 Cl   UNL d   1      -1.910   1.128   2.795  0.00  0.00    -0.070 Cl
ATOM      8 Cl1  UNL d   1      -2.120   1.423  -0.440  0.00  0.00    -0.070 Cl
ENDROOT
TORSDOF 0
ENDMDL
