MODEL 1
REMARK minimizedAffinity -5.44484615
REMARK minimizedRMSD -1
REMARK  0 active torsions:
REMARK  status: ('A' for Active; 'I' for Inactive)
ROOT
ATOM      1  C   UNL d   1      -0.148  -1.574   0.239  0.00  0.00     0.020 A 
ATOM      2  C1  UNL d   1      -0.949  -0.433   0.254  0.00  0.00     0.020 A 
ATOM      3  C2  UNL d   1      -0.499   0.745  -0.347  0.00  0.00     0.034 A 
ATOM      4  C3  UNL d   1       0.756   0.783  -0.966  0.00  0.00     0.017 A 
ATOM      5  C4  UNL d   1       1.559  -0.363  -0.981  0.00  0.00     0.017 A 
ATOM      6  C5  UNL d   1       1.103  -1.539  -0.378  0.00  0.00     0.034 A 
ATOM      7 Cl   UNL d   1       3.119  -0.392  -1.726  0.00  0.00    -0.070 Cl
ATOM      8 Cl1  UNL d   1       1.249   2.273  -1.690  0.00  0.00    -0.070 Cl
ENDROOT
TORSDOF 0
ENDMDL
