MODEL 1
REMARK minimizedAffinity -5.08108234
REMARK minimizedRMSD -1
REMARK  0 active torsions:
REMARK  status: ('A' for Active; 'I' for Inactive)
ROOT
ATOM      1  C   UNL d   1       2.798  -0.966  -1.126  0.00  0.00     0.020 A 
ATOM      2  C1  UNL d   1       2.539   0.360  -0.781  0.00  0.00     0.020 A 
ATOM      3  C2  UNL d   1       1.287   0.719  -0.278  0.00  0.00     0.034 A 
ATOM      4  C3  UNL d   1       0.288  -0.249  -0.119  0.00  0.00     0.017 A 
ATOM      5  C4  UNL d   1       0.549  -1.580  -0.466  0.00  0.00     0.017 A 
ATOM      6  C5  UNL d   1       1.805  -1.934  -0.969  0.00  0.00     0.034 A 
ATOM      7 Cl   UNL d   1      -0.632  -2.830  -0.297  0.00  0.00    -0.070 Cl
ATOM      8 Cl1  UNL d   1      -1.237   0.265   0.509  0.00  0.00    -0.070 Cl
ENDROOT
TORSDOF 0
ENDMDL
