MODEL 1
REMARK minimizedAffinity -3.69107985
REMARK minimizedRMSD -1
REMARK  0 active torsions:
REMARK  status: ('A' for Active; 'I' for Inactive)
ROOT
ATOM      1  C   UNL d   1       2.400   0.434  -0.835  0.00  0.00     0.020 A 
ATOM      2  C1  UNL d   1       2.592  -0.844  -1.359  0.00  0.00     0.020 A 
ATOM      3  C2  UNL d   1       1.624  -1.832  -1.162  0.00  0.00     0.034 A 
ATOM      4  C3  UNL d   1       0.461  -1.544  -0.439  0.00  0.00     0.017 A 
ATOM      5  C4  UNL d   1       0.269  -0.261   0.086  0.00  0.00     0.017 A 
ATOM      6  C5  UNL d   1       1.241   0.725  -0.114  0.00  0.00     0.034 A 
ATOM      7 Cl   UNL d   1      -1.140   0.170   0.989  0.00  0.00    -0.070 Cl
ATOM      8 Cl1  UNL d   1      -0.693  -2.813  -0.235  0.00  0.00    -0.070 Cl
ENDROOT
TORSDOF 0
ENDMDL
