MODEL 1
REMARK minimizedAffinity -3.59655643
REMARK minimizedRMSD -1
REMARK  0 active torsions:
REMARK  status: ('A' for Active; 'I' for Inactive)
ROOT
ATOM      1  C   UNL d   1       1.192  -2.150  -0.367  0.00  0.00     0.020 A 
ATOM      2  C1  UNL d   1       2.102  -1.529  -1.221  0.00  0.00     0.020 A 
ATOM      3  C2  UNL d   1       2.002  -0.158  -1.471  0.00  0.00     0.034 A 
ATOM      4  C3  UNL d   1       0.990   0.595  -0.866  0.00  0.00     0.017 A 
ATOM      5  C4  UNL d   1       0.077  -0.029  -0.008  0.00  0.00     0.017 A 
ATOM      6  C5  UNL d   1       0.182  -1.401   0.238  0.00  0.00     0.034 A 
ATOM      7 Cl   UNL d   1      -1.199   0.835   0.775  0.00  0.00    -0.070 Cl
ATOM      8 Cl1  UNL d   1       0.926   2.285  -1.219  0.00  0.00    -0.070 Cl
ENDROOT
TORSDOF 0
ENDMDL
