MODEL 1
REMARK minimizedAffinity -3.01687288
REMARK minimizedRMSD -1
REMARK  0 active torsions:
REMARK  status: ('A' for Active; 'I' for Inactive)
ROOT
ATOM      1  C   UNL d   1       2.032  -2.193  -1.123  0.00  0.00     0.020 A 
ATOM      2  C1  UNL d   1       1.090  -2.437  -0.124  0.00  0.00     0.020 A 
ATOM      3  C2  UNL d   1       0.133  -1.468   0.185  0.00  0.00     0.034 A 
ATOM      4  C3  UNL d   1       0.115  -0.251  -0.506  0.00  0.00     0.017 A 
ATOM      5  C4  UNL d   1       1.061  -0.007  -1.508  0.00  0.00     0.017 A 
ATOM      6  C5  UNL d   1       2.017  -0.981  -1.813  0.00  0.00     0.034 A 
ATOM      7 Cl   UNL d   1       1.103   1.470  -2.404  0.00  0.00    -0.070 Cl
ATOM      8 Cl1  UNL d   1      -1.097   0.902  -0.072  0.00  0.00    -0.070 Cl
ENDROOT
TORSDOF 0
ENDMDL
