MODEL 1
REMARK minimizedAffinity -1.57809591
REMARK minimizedRMSD -1
REMARK  0 active torsions:
REMARK  status: ('A' for Active; 'I' for Inactive)
ROOT
ATOM      1  C   UNL d   1       1.759   0.435  -2.727  0.00  0.00     0.020 A 
ATOM      2  C1  UNL d   1       2.228  -0.878  -2.708  0.00  0.00     0.020 A 
ATOM      3  C2  UNL d   1       1.780  -1.764  -1.726  0.00  0.00     0.034 A 
ATOM      4  C3  UNL d   1       0.862  -1.339  -0.759  0.00  0.00     0.017 A 
ATOM      5  C4  UNL d   1       0.392  -0.021  -0.780  0.00  0.00     0.017 A 
ATOM      6  C5  UNL d   1       0.843   0.862  -1.766  0.00  0.00     0.034 A 
ATOM      7 Cl   UNL d   1      -0.743   0.577   0.379  0.00  0.00    -0.070 Cl
ATOM      8 Cl1  UNL d   1       0.351  -2.489   0.425  0.00  0.00    -0.070 Cl
ENDROOT
TORSDOF 0
ENDMDL
