MODEL 1
REMARK minimizedAffinity -4.26099205
REMARK minimizedRMSD -1
REMARK  0 active torsions:
REMARK  status: ('A' for Active; 'I' for Inactive)
ROOT
ATOM      1  C   UNL d   1       1.749  -2.280  -0.524  0.00  0.00     0.020 A 
ATOM      2  C1  UNL d   1       2.556  -1.331  -1.149  0.00  0.00     0.020 A 
ATOM      3  C2  UNL d   1       2.106  -0.016  -1.291  0.00  0.00     0.034 A 
ATOM      4  C3  UNL d   1       0.845   0.352  -0.807  0.00  0.00     0.017 A 
ATOM      5  C4  UNL d   1       0.035  -0.602  -0.180  0.00  0.00     0.017 A 
ATOM      6  C5  UNL d   1       0.491  -1.917  -0.041  0.00  0.00     0.034 A 
ATOM      7 Cl   UNL d   1      -1.532  -0.223   0.442  0.00  0.00    -0.070 Cl
ATOM      8 Cl1  UNL d   1       0.353   1.995  -1.017  0.00  0.00    -0.070 Cl
ENDROOT
TORSDOF 0
ENDMDL
