MODEL 1
REMARK minimizedAffinity -2.38922906
REMARK minimizedRMSD -1
REMARK  0 active torsions:
REMARK  status: ('A' for Active; 'I' for Inactive)
ROOT
ATOM      1  C   UNL d   1      -2.038   1.037   2.911  0.00  0.00     0.020 A 
ATOM      2  C1  UNL d   1      -1.483   2.259   2.533  0.00  0.00     0.020 A 
ATOM      3  C2  UNL d   1      -0.479   2.300   1.563  0.00  0.00     0.034 A 
ATOM      4  C3  UNL d   1      -0.027   1.116   0.968  0.00  0.00     0.017 A 
ATOM      5  C4  UNL d   1      -0.585  -0.110   1.348  0.00  0.00     0.017 A 
ATOM      6  C5  UNL d   1      -1.589  -0.145   2.320  0.00  0.00     0.034 A 
ATOM      7 Cl   UNL d   1      -0.079  -1.612   0.658  0.00  0.00    -0.070 Cl
ATOM      8 Cl1  UNL d   1       1.217   1.241  -0.225  0.00  0.00    -0.070 Cl
ENDROOT
TORSDOF 0
ENDMDL
