MODEL 1
REMARK minimizedAffinity -2.68106818
REMARK minimizedRMSD -1
REMARK  0 active torsions:
REMARK  status: ('A' for Active; 'I' for Inactive)
ROOT
ATOM      1  C   UNL d   1      -1.489   0.255   0.562  0.00  0.00     0.020 A 
ATOM      2  C1  UNL d   1      -1.084  -1.052   0.826  0.00  0.00     0.020 A 
ATOM      3  C2  UNL d   1       0.036  -1.581   0.180  0.00  0.00     0.034 A 
ATOM      4  C3  UNL d   1       0.754  -0.801  -0.734  0.00  0.00     0.017 A 
ATOM      5  C4  UNL d   1       0.347   0.512  -0.999  0.00  0.00     0.017 A 
ATOM      6  C5  UNL d   1      -0.775   1.035  -0.349  0.00  0.00     0.034 A 
ATOM      7 Cl   UNL d   1       1.182   1.534  -2.113  0.00  0.00    -0.070 Cl
ATOM      8 Cl1  UNL d   1       2.129  -1.518  -1.496  0.00  0.00    -0.070 Cl
ENDROOT
TORSDOF 0
ENDMDL
