MODEL 1
REMARK minimizedAffinity -3.3285594
REMARK minimizedRMSD -1
REMARK  0 active torsions:
REMARK  status: ('A' for Active; 'I' for Inactive)
ROOT
ATOM      1  C   UNL d   1       2.156  -1.795  -1.484  0.00  0.00     0.020 A 
ATOM      2  C1  UNL d   1       2.610  -0.992  -2.529  0.00  0.00     0.020 A 
ATOM      3  C2  UNL d   1       2.026   0.256  -2.755  0.00  0.00     0.034 A 
ATOM      4  C3  UNL d   1       0.984   0.705  -1.935  0.00  0.00     0.017 A 
ATOM      5  C4  UNL d   1       0.529  -0.102  -0.886  0.00  0.00     0.017 A 
ATOM      6  C5  UNL d   1       1.117  -1.351  -0.664  0.00  0.00     0.034 A 
ATOM      7 Cl   UNL d   1      -0.752   0.383   0.168  0.00  0.00    -0.070 Cl
ATOM      8 Cl1  UNL d   1       0.309   2.259  -2.271  0.00  0.00    -0.070 Cl
ENDROOT
TORSDOF 0
ENDMDL
