MODEL 1
REMARK minimizedAffinity -5.98406887
REMARK minimizedRMSD -1
REMARK  0 active torsions:
REMARK  status: ('A' for Active; 'I' for Inactive)
ROOT
ATOM      1  C   UNL d   1       2.974   0.217  -2.324  0.00  0.00     0.020 A 
ATOM      2  C1  UNL d   1       2.872  -0.806  -1.382  0.00  0.00     0.020 A 
ATOM      3  C2  UNL d   1       1.753  -0.879  -0.549  0.00  0.00     0.034 A 
ATOM      4  C3  UNL d   1       0.733   0.073  -0.656  0.00  0.00     0.017 A 
ATOM      5  C4  UNL d   1       0.837   1.100  -1.602  0.00  0.00     0.017 A 
ATOM      6  C5  UNL d   1       1.959   1.167  -2.434  0.00  0.00     0.034 A 
ATOM      7 Cl   UNL d   1      -0.382   2.310  -1.793  0.00  0.00    -0.070 Cl
ATOM      8 Cl1  UNL d   1      -0.622  -0.078   0.406  0.00  0.00    -0.070 Cl
ENDROOT
TORSDOF 0
ENDMDL
