MODEL 1
REMARK minimizedAffinity 9.09564209
REMARK minimizedRMSD -1
REMARK  0 active torsions:
REMARK  status: ('A' for Active; 'I' for Inactive)
ROOT
ATOM      1  C   UNL d   1       3.969   0.379  -0.047  0.00  0.00    -0.002 A 
ATOM      2  C1  UNL d   1       3.035  -0.643  -0.147  0.00  0.00     0.010 A 
ATOM      3  C2  UNL d   1       1.675  -0.381   0.025  0.00  0.00     0.041 A 
ATOM      4  C3  UNL d   1       1.264   0.939   0.300  0.00  0.00    -0.075 A 
ATOM      5  S   UNL d   1      -0.349   1.495   0.546  0.00  0.00     0.015 SA
ATOM      6  C4  UNL d   1       0.163   3.103   0.789  0.00  0.00     0.022 A 
ATOM      7  C5  UNL d   1       1.528   3.229   0.688  0.00  0.00     0.026 A 
ATOM      8  C6  UNL d   1       2.185   1.985   0.404  0.00  0.00    -0.082 A 
ATOM      9  C7  UNL d   1       3.558   1.687   0.226  0.00  0.00     0.045 A 
ENDROOT
TORSDOF 0
ENDMDL
