MODEL 1
REMARK minimizedAffinity 6.33433533
REMARK minimizedRMSD -1
REMARK  0 active torsions:
REMARK  status: ('A' for Active; 'I' for Inactive)
ROOT
ATOM      1  C   UNL d   1       0.206   1.612  -0.935  0.00  0.00    -0.002 A 
ATOM      2  C1  UNL d   1      -0.943   1.121  -1.539  0.00  0.00     0.010 A 
ATOM      3  C2  UNL d   1      -1.152  -0.254  -1.654  0.00  0.00     0.041 A 
ATOM      4  C3  UNL d   1      -0.178  -1.137  -1.147  0.00  0.00    -0.075 A 
ATOM      5  S   UNL d   1      -0.221  -2.860  -1.176  0.00  0.00     0.015 SA
ATOM      6  C4  UNL d   1       1.285  -2.985  -0.386  0.00  0.00     0.022 A 
ATOM      7  C5  UNL d   1       1.821  -1.752  -0.101  0.00  0.00     0.026 A 
ATOM      8  C6  UNL d   1       0.987  -0.666  -0.534  0.00  0.00    -0.082 A 
ATOM      9  C7  UNL d   1       1.170   0.734  -0.432  0.00  0.00     0.045 A 
ENDROOT
TORSDOF 0
ENDMDL
