MODEL 1
REMARK minimizedAffinity 0.249148354
REMARK minimizedRMSD -1
REMARK  0 active torsions:
REMARK  status: ('A' for Active; 'I' for Inactive)
ROOT
ATOM      1  C   UNL d   1      -2.461  -2.228   0.367  0.00  0.00     0.020 A 
ATOM      2  C1  UNL d   1      -1.966  -1.370  -0.614  0.00  0.00     0.020 A 
ATOM      3  C2  UNL d   1      -0.667  -0.868  -0.512  0.00  0.00     0.034 A 
ATOM      4  C3  UNL d   1       0.141  -1.224   0.574  0.00  0.00     0.017 A 
ATOM      5  C4  UNL d   1      -0.357  -2.085   1.558  0.00  0.00     0.017 A 
ATOM      6  C5  UNL d   1      -1.658  -2.585   1.451  0.00  0.00     0.034 A 
ATOM      7 Cl   UNL d   1       0.581  -2.570   2.927  0.00  0.00    -0.070 Cl
ATOM      8 Cl1  UNL d   1       1.738  -0.566   0.636  0.00  0.00    -0.070 Cl
ENDROOT
TORSDOF 0
ENDMDL
