MODEL 1
REMARK minimizedAffinity -5.37856865
REMARK minimizedRMSD -1
REMARK  0 active torsions:
REMARK  status: ('A' for Active; 'I' for Inactive)
ROOT
ATOM      1  C   UNL d   1      -0.717  -2.724   0.698  0.00  0.00     0.020 A 
ATOM      2  C1  UNL d   1      -1.896  -2.653   1.438  0.00  0.00     0.020 A 
ATOM      3  C2  UNL d   1      -2.456  -1.410   1.741  0.00  0.00     0.034 A 
ATOM      4  C3  UNL d   1      -1.837  -0.234   1.304  0.00  0.00     0.017 A 
ATOM      5  C4  UNL d   1      -0.653  -0.306   0.560  0.00  0.00     0.017 A 
ATOM      6  C5  UNL d   1      -0.097  -1.554   0.260  0.00  0.00     0.034 A 
ATOM      7 Cl   UNL d   1       0.169   1.101  -0.014  0.00  0.00    -0.070 Cl
ATOM      8 Cl1  UNL d   1      -2.585   1.269   1.714  0.00  0.00    -0.070 Cl
ENDROOT
TORSDOF 0
ENDMDL
