MODEL 1
REMARK minimizedAffinity -4.43645477
REMARK minimizedRMSD -1
REMARK  0 active torsions:
REMARK  status: ('A' for Active; 'I' for Inactive)
ROOT
ATOM      1  C   UNL d   1      -1.856  -2.242   1.595  0.00  0.00     0.020 A 
ATOM      2  C1  UNL d   1      -2.290  -0.938   1.359  0.00  0.00     0.020 A 
ATOM      3  C2  UNL d   1      -1.436  -0.017   0.750  0.00  0.00     0.034 A 
ATOM      4  C3  UNL d   1      -0.142  -0.398   0.375  0.00  0.00     0.017 A 
ATOM      5  C4  UNL d   1       0.293  -1.706   0.612  0.00  0.00     0.017 A 
ATOM      6  C5  UNL d   1      -0.567  -2.625   1.222  0.00  0.00     0.034 A 
ATOM      7 Cl   UNL d   1       1.875  -2.250   0.177  0.00  0.00    -0.070 Cl
ATOM      8 Cl1  UNL d   1       0.861   0.794  -0.374  0.00  0.00    -0.070 Cl
ENDROOT
TORSDOF 0
ENDMDL
