MODEL 1
REMARK minimizedAffinity -3.21588635
REMARK minimizedRMSD -1
REMARK  0 active torsions:
REMARK  status: ('A' for Active; 'I' for Inactive)
ROOT
ATOM      1  C   UNL d   1       0.703  -2.287   0.155  0.00  0.00     0.020 A 
ATOM      2  C1  UNL d   1      -0.514  -2.623   0.745  0.00  0.00     0.020 A 
ATOM      3  C2  UNL d   1      -1.454  -1.627   1.023  0.00  0.00     0.034 A 
ATOM      4  C3  UNL d   1      -1.177  -0.291   0.709  0.00  0.00     0.017 A 
ATOM      5  C4  UNL d   1       0.045   0.044   0.116  0.00  0.00     0.017 A 
ATOM      6  C5  UNL d   1       0.982  -0.956  -0.159  0.00  0.00     0.034 A 
ATOM      7 Cl   UNL d   1       0.458   1.671  -0.300  0.00  0.00    -0.070 Cl
ATOM      8 Cl1  UNL d   1      -2.385   0.887   1.080  0.00  0.00    -0.070 Cl
ENDROOT
TORSDOF 0
ENDMDL
