MODEL 1
REMARK minimizedAffinity -0.56472832
REMARK minimizedRMSD -1
REMARK  0 active torsions:
REMARK  status: ('A' for Active; 'I' for Inactive)
ROOT
ATOM      1  C   UNL d   1      -3.055  -1.206   1.086  0.00  0.00     0.020 A 
ATOM      2  C1  UNL d   1      -2.143  -2.054   0.460  0.00  0.00     0.020 A 
ATOM      3  C2  UNL d   1      -0.949  -1.541  -0.051  0.00  0.00     0.034 A 
ATOM      4  C3  UNL d   1      -0.663  -0.176   0.064  0.00  0.00     0.017 A 
ATOM      5  C4  UNL d   1      -1.580   0.675   0.692  0.00  0.00     0.017 A 
ATOM      6  C5  UNL d   1      -2.774   0.156   1.202  0.00  0.00     0.034 A 
ATOM      7 Cl   UNL d   1      -1.298   2.371   0.871  0.00  0.00    -0.070 Cl
ATOM      8 Cl1  UNL d   1       0.832   0.390  -0.590  0.00  0.00    -0.070 Cl
ENDROOT
TORSDOF 0
ENDMDL
