MODEL 1
REMARK minimizedAffinity -1.73844767
REMARK minimizedRMSD -1
REMARK  0 active torsions:
REMARK  status: ('A' for Active; 'I' for Inactive)
ROOT
ATOM      1  C   UNL d   1       0.020   1.648  -0.010  0.00  0.00     0.020 A 
ATOM      2  C1  UNL d   1      -1.295   1.296   0.293  0.00  0.00     0.020 A 
ATOM      3  C2  UNL d   1      -1.595  -0.010   0.687  0.00  0.00     0.034 A 
ATOM      4  C3  UNL d   1      -0.579  -0.968   0.778  0.00  0.00     0.017 A 
ATOM      5  C4  UNL d   1       0.740  -0.614   0.473  0.00  0.00     0.017 A 
ATOM      6  C5  UNL d   1       1.035   0.695   0.080  0.00  0.00     0.034 A 
ATOM      7 Cl   UNL d   1       2.047  -1.742   0.562  0.00  0.00    -0.070 Cl
ATOM      8 Cl1  UNL d   1      -1.022  -2.564   1.271  0.00  0.00    -0.070 Cl
ENDROOT
TORSDOF 0
ENDMDL
