MODEL 1
REMARK minimizedAffinity -0.940822065
REMARK minimizedRMSD -1
REMARK  0 active torsions:
REMARK  status: ('A' for Active; 'I' for Inactive)
ROOT
ATOM      1  C   UNL d   1       0.814   0.808   0.381  0.00  0.00     0.020 A 
ATOM      2  C1  UNL d   1       1.296  -0.474   0.644  0.00  0.00     0.020 A 
ATOM      3  C2  UNL d   1       0.404  -1.513   0.918  0.00  0.00     0.034 A 
ATOM      4  C3  UNL d   1      -0.975  -1.272   0.930  0.00  0.00     0.017 A 
ATOM      5  C4  UNL d   1      -1.458   0.015   0.666  0.00  0.00     0.017 A 
ATOM      6  C5  UNL d   1      -0.560   1.051   0.392  0.00  0.00     0.034 A 
ATOM      7 Cl   UNL d   1      -3.145   0.389   0.662  0.00  0.00    -0.070 Cl
ATOM      8 Cl1  UNL d   1      -2.020  -2.604   1.276  0.00  0.00    -0.070 Cl
ENDROOT
TORSDOF 0
ENDMDL
