MODEL 1
REMARK minimizedAffinity -4.28751802
REMARK minimizedRMSD -1
REMARK  0 active torsions:
REMARK  status: ('A' for Active; 'I' for Inactive)
ROOT
ATOM      1  C   UNL d   1      -0.069  -2.795   0.801  0.00  0.00     0.020 A 
ATOM      2  C1  UNL d   1       1.204  -2.405   0.386  0.00  0.00     0.020 A 
ATOM      3  C2  UNL d   1       1.463  -1.065   0.092  0.00  0.00     0.034 A 
ATOM      4  C3  UNL d   1       0.448  -0.109   0.211  0.00  0.00     0.017 A 
ATOM      5  C4  UNL d   1      -0.830  -0.501   0.628  0.00  0.00     0.017 A 
ATOM      6  C5  UNL d   1      -1.084  -1.844   0.921  0.00  0.00     0.034 A 
ATOM      7 Cl   UNL d   1      -2.133   0.621   0.799  0.00  0.00    -0.070 Cl
ATOM      8 Cl1  UNL d   1       0.839   1.530  -0.169  0.00  0.00    -0.070 Cl
ENDROOT
TORSDOF 0
ENDMDL
