MODEL 1
REMARK minimizedAffinity -5.15834188
REMARK minimizedRMSD -1
REMARK  0 active torsions:
REMARK  status: ('A' for Active; 'I' for Inactive)
ROOT
ATOM      1  C   UNL d   1      -0.356  -2.307   0.484  0.00  0.00     0.020 A 
ATOM      2  C1  UNL d   1      -1.579  -2.471   1.132  0.00  0.00     0.020 A 
ATOM      3  C2  UNL d   1      -2.275  -1.355   1.603  0.00  0.00     0.034 A 
ATOM      4  C3  UNL d   1      -1.747  -0.071   1.427  0.00  0.00     0.017 A 
ATOM      5  C4  UNL d   1      -0.519   0.092   0.777  0.00  0.00     0.017 A 
ATOM      6  C5  UNL d   1       0.173  -1.028   0.307  0.00  0.00     0.034 A 
ATOM      7 Cl   UNL d   1       0.196   1.645   0.523  0.00  0.00    -0.070 Cl
ATOM      8 Cl1  UNL d   1      -2.661   1.263   2.035  0.00  0.00    -0.070 Cl
ENDROOT
TORSDOF 0
ENDMDL
