MODEL 1
REMARK minimizedAffinity -3.45808601
REMARK minimizedRMSD -1
REMARK  0 active torsions:
REMARK  status: ('A' for Active; 'I' for Inactive)
ROOT
ATOM      1  C   UNL d   1       0.875   0.466  -0.817  0.00  0.00     0.020 A 
ATOM      2  C1  UNL d   1       0.271   1.702  -0.591  0.00  0.00     0.020 A 
ATOM      3  C2  UNL d   1      -0.970   1.767   0.048  0.00  0.00     0.034 A 
ATOM      4  C3  UNL d   1      -1.610   0.593   0.463  0.00  0.00     0.017 A 
ATOM      5  C4  UNL d   1      -1.003  -0.647   0.235  0.00  0.00     0.017 A 
ATOM      6  C5  UNL d   1       0.239  -0.706  -0.405  0.00  0.00     0.034 A 
ATOM      7 Cl   UNL d   1      -1.731  -2.138   0.718  0.00  0.00    -0.070 Cl
ATOM      8 Cl1  UNL d   1      -3.142   0.747   1.247  0.00  0.00    -0.070 Cl
ENDROOT
TORSDOF 0
ENDMDL
