MODEL 1
REMARK minimizedAffinity -0.806280017
REMARK minimizedRMSD -1
REMARK  0 active torsions:
REMARK  status: ('A' for Active; 'I' for Inactive)
ROOT
ATOM      1  C   UNL d   1      -0.472   0.017  -0.350  0.00  0.00     0.020 A 
ATOM      2  C1  UNL d   1       0.845  -0.028   0.106  0.00  0.00     0.020 A 
ATOM      3  C2  UNL d   1       1.243  -1.028   0.995  0.00  0.00     0.034 A 
ATOM      4  C3  UNL d   1       0.322  -1.988   1.432  0.00  0.00     0.017 A 
ATOM      5  C4  UNL d   1      -0.999  -1.942   0.974  0.00  0.00     0.017 A 
ATOM      6  C5  UNL d   1      -1.392  -0.939   0.083  0.00  0.00     0.034 A 
ATOM      7 Cl   UNL d   1      -2.192  -3.092   1.468  0.00  0.00    -0.070 Cl
ATOM      8 Cl1  UNL d   1       0.883  -3.197   2.532  0.00  0.00    -0.070 Cl
ENDROOT
TORSDOF 0
ENDMDL
