MODEL 1
REMARK minimizedAffinity -3.05002522
REMARK minimizedRMSD -1
REMARK  0 active torsions:
REMARK  status: ('A' for Active; 'I' for Inactive)
ROOT
ATOM      1  C   UNL d   1       1.006   1.897  -0.230  0.00  0.00     0.020 A 
ATOM      2  C1  UNL d   1       1.548   0.613  -0.176  0.00  0.00     0.020 A 
ATOM      3  C2  UNL d   1       0.742  -0.470   0.182  0.00  0.00     0.034 A 
ATOM      4  C3  UNL d   1      -0.609  -0.271   0.488  0.00  0.00     0.017 A 
ATOM      5  C4  UNL d   1      -1.152   1.018   0.434  0.00  0.00     0.017 A 
ATOM      6  C5  UNL d   1      -0.340   2.098   0.075  0.00  0.00     0.034 A 
ATOM      7 Cl   UNL d   1      -2.810   1.341   0.797  0.00  0.00    -0.070 Cl
ATOM      8 Cl1  UNL d   1      -1.547  -1.656   0.923  0.00  0.00    -0.070 Cl
ENDROOT
TORSDOF 0
ENDMDL
