MODEL 1
REMARK minimizedAffinity -3.46470594
REMARK minimizedRMSD -1
REMARK  0 active torsions:
REMARK  status: ('A' for Active; 'I' for Inactive)
ROOT
ATOM      1  C   UNL d   1       1.121  -1.817  -0.049  0.00  0.00     0.020 A 
ATOM      2  C1  UNL d   1      -0.035  -2.318   0.548  0.00  0.00     0.020 A 
ATOM      3  C2  UNL d   1      -1.077  -1.453   0.887  0.00  0.00     0.034 A 
ATOM      4  C3  UNL d   1      -0.966  -0.082   0.629  0.00  0.00     0.017 A 
ATOM      5  C4  UNL d   1       0.195   0.420   0.030  0.00  0.00     0.017 A 
ATOM      6  C5  UNL d   1       1.236  -0.450  -0.307  0.00  0.00     0.034 A 
ATOM      7 Cl   UNL d   1       0.405   2.100  -0.319  0.00  0.00    -0.070 Cl
ATOM      8 Cl1  UNL d   1      -2.294   0.930   1.074  0.00  0.00    -0.070 Cl
ENDROOT
TORSDOF 0
ENDMDL
