MODEL 1
REMARK minimizedAffinity -3.80235839
REMARK minimizedRMSD -1
REMARK  0 active torsions:
REMARK  status: ('A' for Active; 'I' for Inactive)
ROOT
ATOM      1  C   UNL d   1       1.070  -1.499   0.468  0.00  0.00     0.020 A 
ATOM      2  C1  UNL d   1       1.302  -0.247  -0.100  0.00  0.00     0.020 A 
ATOM      3  C2  UNL d   1       0.434   0.813   0.167  0.00  0.00     0.034 A 
ATOM      4  C3  UNL d   1      -0.672   0.623   1.004  0.00  0.00     0.017 A 
ATOM      5  C4  UNL d   1      -0.905  -0.634   1.574  0.00  0.00     0.017 A 
ATOM      6  C5  UNL d   1      -0.032  -1.692   1.303  0.00  0.00     0.034 A 
ATOM      7 Cl   UNL d   1      -2.248  -0.945   2.616  0.00  0.00    -0.070 Cl
ATOM      8 Cl1  UNL d   1      -1.704   1.979   1.292  0.00  0.00    -0.070 Cl
ENDROOT
TORSDOF 0
ENDMDL
