MODEL 1
REMARK minimizedAffinity 0.0652548075
REMARK minimizedRMSD -1
REMARK  0 active torsions:
REMARK  status: ('A' for Active; 'I' for Inactive)
ROOT
ATOM      1  C   UNL d   1       0.391  -2.551   1.057  0.00  0.00     0.020 A 
ATOM      2  C1  UNL d   1       1.488  -2.184   0.279  0.00  0.00     0.020 A 
ATOM      3  C2  UNL d   1       1.572  -0.892  -0.243  0.00  0.00     0.034 A 
ATOM      4  C3  UNL d   1       0.558   0.039   0.013  0.00  0.00     0.017 A 
ATOM      5  C4  UNL d   1      -0.542  -0.331   0.794  0.00  0.00     0.017 A 
ATOM      6  C5  UNL d   1      -0.622  -1.626   1.315  0.00  0.00     0.034 A 
ATOM      7 Cl   UNL d   1      -1.832   0.762   1.153  0.00  0.00    -0.070 Cl
ATOM      8 Cl1  UNL d   1       0.728   1.619  -0.664  0.00  0.00    -0.070 Cl
ENDROOT
TORSDOF 0
ENDMDL
