MODEL 1
REMARK minimizedAffinity -3.51331353
REMARK minimizedRMSD -1
REMARK  0 active torsions:
REMARK  status: ('A' for Active; 'I' for Inactive)
ROOT
ATOM      1  C   UNL d   1       0.295  -2.862   1.408  0.00  0.00     0.020 A 
ATOM      2  C1  UNL d   1      -0.758  -2.944   2.318  0.00  0.00     0.020 A 
ATOM      3  C2  UNL d   1      -1.700  -1.916   2.390  0.00  0.00     0.034 A 
ATOM      4  C3  UNL d   1      -1.591  -0.801   1.550  0.00  0.00     0.017 A 
ATOM      5  C4  UNL d   1      -0.534  -0.720   0.637  0.00  0.00     0.017 A 
ATOM      6  C5  UNL d   1       0.407  -1.752   0.569  0.00  0.00     0.034 A 
ATOM      7 Cl   UNL d   1      -0.333   0.624  -0.432  0.00  0.00    -0.070 Cl
ATOM      8 Cl1  UNL d   1      -2.792   0.433   1.693  0.00  0.00    -0.070 Cl
ENDROOT
TORSDOF 0
ENDMDL
