MODEL 1
REMARK minimizedAffinity -3.88035488
REMARK minimizedRMSD -1
REMARK  0 active torsions:
REMARK  status: ('A' for Active; 'I' for Inactive)
ROOT
ATOM      1  C   UNL d   1       1.059  -2.192   0.496  0.00  0.00     0.020 A 
ATOM      2  C1  UNL d   1       0.018  -2.808   1.189  0.00  0.00     0.020 A 
ATOM      3  C2  UNL d   1      -1.070  -2.052   1.631  0.00  0.00     0.034 A 
ATOM      4  C3  UNL d   1      -1.120  -0.676   1.381  0.00  0.00     0.017 A 
ATOM      5  C4  UNL d   1      -0.074  -0.059   0.685  0.00  0.00     0.017 A 
ATOM      6  C5  UNL d   1       1.013  -0.820   0.245  0.00  0.00     0.034 A 
ATOM      7 Cl   UNL d   1      -0.064   1.635   0.339  0.00  0.00    -0.070 Cl
ATOM      8 Cl1  UNL d   1      -2.496   0.196   1.956  0.00  0.00    -0.070 Cl
ENDROOT
TORSDOF 0
ENDMDL
