MODEL 1
REMARK minimizedAffinity -2.29027295
REMARK minimizedRMSD -1
REMARK  0 active torsions:
REMARK  status: ('A' for Active; 'I' for Inactive)
ROOT
ATOM      1  C   UNL d   1       1.046   0.252  -1.490  0.00  0.00     0.020 A 
ATOM      2  C1  UNL d   1       0.494   1.530  -1.408  0.00  0.00     0.020 A 
ATOM      3  C2  UNL d   1      -0.566   1.778  -0.533  0.00  0.00     0.034 A 
ATOM      4  C3  UNL d   1      -1.077   0.747   0.263  0.00  0.00     0.017 A 
ATOM      5  C4  UNL d   1      -0.523  -0.535   0.180  0.00  0.00     0.017 A 
ATOM      6  C5  UNL d   1       0.538  -0.778  -0.698  0.00  0.00     0.034 A 
ATOM      7 Cl   UNL d   1      -1.100  -1.858   1.131  0.00  0.00    -0.070 Cl
ATOM      8 Cl1  UNL d   1      -2.389   1.125   1.323  0.00  0.00    -0.070 Cl
ENDROOT
TORSDOF 0
ENDMDL
