MODEL 1
REMARK minimizedAffinity -3.67438936
REMARK minimizedRMSD -1
REMARK  0 active torsions:
REMARK  status: ('A' for Active; 'I' for Inactive)
ROOT
ATOM      1  C   UNL d   1      -1.774  -1.665   0.369  0.00  0.00     0.020 A 
ATOM      2  C1  UNL d   1      -1.048  -2.686   0.982  0.00  0.00     0.020 A 
ATOM      3  C2  UNL d   1       0.309  -2.508   1.260  0.00  0.00     0.034 A 
ATOM      4  C3  UNL d   1       0.944  -1.307   0.924  0.00  0.00     0.017 A 
ATOM      5  C4  UNL d   1       0.215  -0.283   0.309  0.00  0.00     0.017 A 
ATOM      6  C5  UNL d   1      -1.144  -0.466   0.034  0.00  0.00     0.034 A 
ATOM      7 Cl   UNL d   1       0.930   1.226  -0.134  0.00  0.00    -0.070 Cl
ATOM      8 Cl1  UNL d   1       2.625  -1.156   1.297  0.00  0.00    -0.070 Cl
ENDROOT
TORSDOF 0
ENDMDL
