MODEL 1
REMARK minimizedAffinity 6.6014967
REMARK minimizedRMSD -1
REMARK  2 active torsions:
REMARK  status: ('A' for Active; 'I' for Inactive)
REMARK    1  A    between atoms: C2'_3  and  C1'_4 
REMARK    2  A    between atoms: C1'_4  and  C1_5 
ROOT
ATOM      1  C1  I4B d   1      -1.738   2.709   2.945  0.00  0.00    -0.075 A 
ATOM      2  C2  I4B d   1      -1.124   3.175   4.081  0.00  0.00     0.003 A 
ATOM      3  C3  I4B d   1      -0.134   4.184   3.993  0.00  0.00     0.002 A 
ATOM      4  C4  I4B d   1       0.245   4.658   2.754  0.00  0.00    -0.004 A 
ATOM      5  C5  I4B d   1      -0.394   4.201   1.606  0.00  0.00     0.002 A 
ATOM      6  C6  I4B d   1      -1.400   3.229   1.702  0.00  0.00     0.003 A 
ENDROOT
BRANCH   1   7
ATOM      7  C1' I4B d   1      -2.755   1.620   3.070  0.00  0.00     0.060 C 
BRANCH   7   8
ATOM      8  C2' I4B d   1      -2.073   0.410   3.676  0.00  0.00    -0.013 C 
ATOM      9  C4' I4B d   1      -3.078  -0.626   4.105  0.00  0.00     0.013 C 
ATOM     10  C3' I4B d   1      -1.124  -0.145   2.655  0.00  0.00     0.013 C 
ENDBRANCH   7   8
ENDBRANCH   1   7
TORSDOF 2
ENDMDL
