MODEL 1
REMARK minimizedAffinity 2.47124171
REMARK minimizedRMSD -1
REMARK  2 active torsions:
REMARK  status: ('A' for Active; 'I' for Inactive)
REMARK    1  A    between atoms: C2'_3  and  C1'_4 
REMARK    2  A    between atoms: C1'_4  and  C1_5 
ROOT
ATOM      1  C1  I4B d   1       5.875   1.363   4.469  0.00  0.00    -0.075 A 
ATOM      2  C2  I4B d   1       5.900   1.009   3.143  0.00  0.00     0.003 A 
ATOM      3  C3  I4B d   1       5.986   2.005   2.141  0.00  0.00     0.002 A 
ATOM      4  C4  I4B d   1       5.995   3.336   2.504  0.00  0.00    -0.004 A 
ATOM      5  C5  I4B d   1       5.994   3.693   3.850  0.00  0.00     0.002 A 
ATOM      6  C6  I4B d   1       5.946   2.700   4.839  0.00  0.00     0.003 A 
ENDROOT
BRANCH   1   7
ATOM      7  C1' I4B d   1       5.750   0.287   5.500  0.00  0.00     0.060 C 
BRANCH   7   8
ATOM      8  C2' I4B d   1       5.866  -1.050   4.797  0.00  0.00    -0.013 C 
ATOM      9  C4' I4B d   1       5.999  -2.177   5.786  0.00  0.00     0.013 C 
ATOM     10  C3' I4B d   1       4.651  -1.226   3.936  0.00  0.00     0.013 C 
ENDBRANCH   7   8
ENDBRANCH   1   7
TORSDOF 2
ENDMDL
