MODEL 1
REMARK minimizedAffinity -3.28340673
REMARK minimizedRMSD -1
REMARK  2 active torsions:
REMARK  status: ('A' for Active; 'I' for Inactive)
REMARK    1  A    between atoms: C2'_3  and  C1'_4 
REMARK    2  A    between atoms: C1'_4  and  C1_5 
ROOT
ATOM      1  C1  I4B d   1       5.075   1.865   4.246  0.00  0.00    -0.075 A 
ATOM      2  C2  I4B d   1       5.606   1.023   3.302  0.00  0.00     0.003 A 
ATOM      3  C3  I4B d   1       5.999  -0.290   3.658  0.00  0.00     0.002 A 
ATOM      4  C4  I4B d   1       5.889  -0.700   4.971  0.00  0.00    -0.004 A 
ATOM      5  C5  I4B d   1       5.329   0.148   5.923  0.00  0.00     0.002 A 
ATOM      6  C6  I4B d   1       4.908   1.434   5.556  0.00  0.00     0.003 A 
ENDROOT
BRANCH   1   7
ATOM      7  C1' I4B d   1       4.702   3.257   3.843  0.00  0.00     0.060 C 
BRANCH   7   8
ATOM      8  C2' I4B d   1       5.960   3.961   3.377  0.00  0.00    -0.013 C 
ATOM      9  C4' I4B d   1       6.000   4.071   1.876  0.00  0.00     0.013 C 
ATOM     10  C3' I4B d   1       5.998   5.315   4.021  0.00  0.00     0.013 C 
ENDBRANCH   7   8
ENDBRANCH   1   7
TORSDOF 2
ENDMDL
