MODEL 1
REMARK minimizedAffinity 1.07412148
REMARK minimizedRMSD -1
REMARK  2 active torsions:
REMARK  status: ('A' for Active; 'I' for Inactive)
REMARK    1  A    between atoms: C2'_3  and  C1'_4 
REMARK    2  A    between atoms: C1'_4  and  C1_5 
ROOT
ATOM      1  C1  I4B d   1       5.790   1.338   4.782  0.00  0.00    -0.075 A 
ATOM      2  C2  I4B d   1       5.808   1.184   3.418  0.00  0.00     0.003 A 
ATOM      3  C3  I4B d   1       5.938   2.314   2.575  0.00  0.00     0.002 A 
ATOM      4  C4  I4B d   1       5.995   3.575   3.132  0.00  0.00    -0.004 A 
ATOM      5  C5  I4B d   1       6.000   3.728   4.516  0.00  0.00     0.002 A 
ATOM      6  C6  I4B d   1       5.909   2.602   5.347  0.00  0.00     0.003 A 
ENDROOT
BRANCH   1   7
ATOM      7  C1' I4B d   1       5.618   0.127   5.642  0.00  0.00     0.060 C 
BRANCH   7   8
ATOM      8  C2' I4B d   1       5.857  -1.096   4.780  0.00  0.00    -0.013 C 
ATOM      9  C4' I4B d   1       6.000  -2.337   5.621  0.00  0.00     0.013 C 
ATOM     10  C3' I4B d   1       4.709  -1.219   3.823  0.00  0.00     0.013 C 
ENDBRANCH   7   8
ENDBRANCH   1   7
TORSDOF 2
ENDMDL
