MODEL 1
REMARK minimizedAffinity -1.21057332
REMARK minimizedRMSD -1
REMARK  2 active torsions:
REMARK  status: ('A' for Active; 'I' for Inactive)
REMARK    1  A    between atoms: C2'_3  and  C1'_4 
REMARK    2  A    between atoms: C1'_4  and  C1_5 
ROOT
ATOM      1  C1  I4B d   1       5.990   1.843   4.693  0.00  0.00    -0.075 A 
ATOM      2  C2  I4B d   1       5.988   1.204   5.908  0.00  0.00     0.003 A 
ATOM      3  C3  I4B d   1       5.949  -0.210   5.970  0.00  0.00     0.002 A 
ATOM      4  C4  I4B d   1       5.861  -0.939   4.802  0.00  0.00    -0.004 A 
ATOM      5  C5  I4B d   1       5.886  -0.291   3.571  0.00  0.00     0.002 A 
ATOM      6  C6  I4B d   1       5.963   1.108   3.515  0.00  0.00     0.003 A 
ENDROOT
BRANCH   1   7
ATOM      7  C1' I4B d   1       5.998   3.338   4.665  0.00  0.00     0.060 C 
BRANCH   7   8
ATOM      8  C2' I4B d   1       5.359   3.784   3.365  0.00  0.00    -0.013 C 
ATOM      9  C4' I4B d   1       3.868   3.932   3.514  0.00  0.00     0.013 C 
ATOM     10  C3' I4B d   1       5.993   5.081   2.959  0.00  0.00     0.013 C 
ENDBRANCH   7   8
ENDBRANCH   1   7
TORSDOF 2
ENDMDL
