MODEL 1
REMARK minimizedAffinity 6.63857269
REMARK minimizedRMSD -1
REMARK  2 active torsions:
REMARK  status: ('A' for Active; 'I' for Inactive)
REMARK    1  A    between atoms: C2'_3  and  C1'_4 
REMARK    2  A    between atoms: C1'_4  and  C1_5 
ROOT
ATOM      1  C1  I4B d   1      -5.337  -2.242   3.878  0.00  0.00    -0.075 A 
ATOM      2  C2  I4B d   1      -6.000  -3.340   3.388  0.00  0.00     0.003 A 
ATOM      3  C3  I4B d   1      -5.404  -4.623   3.460  0.00  0.00     0.002 A 
ATOM      4  C4  I4B d   1      -4.133  -4.754   3.980  0.00  0.00    -0.004 A 
ATOM      5  C5  I4B d   1      -3.472  -3.643   4.497  0.00  0.00     0.002 A 
ATOM      6  C6  I4B d   1      -4.083  -2.381   4.458  0.00  0.00     0.003 A 
ENDROOT
BRANCH   1   7
ATOM      7  C1' I4B d   1      -5.982  -0.898   3.756  0.00  0.00     0.060 C 
BRANCH   7   8
ATOM      8  C2' I4B d   1      -5.748  -0.395   2.346  0.00  0.00    -0.013 C 
ATOM      9  C4' I4B d   1      -6.000   1.087   2.248  0.00  0.00     0.013 C 
ATOM     10  C3' I4B d   1      -4.339  -0.732   1.962  0.00  0.00     0.013 C 
ENDBRANCH   7   8
ENDBRANCH   1   7
TORSDOF 2
ENDMDL
