MODEL 1
REMARK minimizedAffinity 6.75842762
REMARK minimizedRMSD -1
REMARK  2 active torsions:
REMARK  status: ('A' for Active; 'I' for Inactive)
REMARK    1  A    between atoms: C2'_3  and  C1'_4 
REMARK    2  A    between atoms: C1'_4  and  C1_5 
ROOT
ATOM      1  C1  I4B d   1       5.894   1.107   4.472  0.00  0.00    -0.075 A 
ATOM      2  C2  I4B d   1       5.736   0.239   3.421  0.00  0.00     0.003 A 
ATOM      3  C3  I4B d   1       5.689  -1.158   3.651  0.00  0.00     0.002 A 
ATOM      4  C4  I4B d   1       5.853  -1.641   4.933  0.00  0.00    -0.004 A 
ATOM      5  C5  I4B d   1       5.990  -0.758   6.000  0.00  0.00     0.002 A 
ATOM      6  C6  I4B d   1       5.998   0.626   5.770  0.00  0.00     0.003 A 
ENDROOT
BRANCH   1   7
ATOM      7  C1' I4B d   1       5.973   2.574   4.189  0.00  0.00     0.060 C 
BRANCH   7   8
ATOM      8  C2' I4B d   1       4.926   2.905   3.144  0.00  0.00    -0.013 C 
ATOM      9  C4' I4B d   1       3.557   3.017   3.761  0.00  0.00     0.013 C 
ATOM     10  C3' I4B d   1       5.326   4.188   2.478  0.00  0.00     0.013 C 
ENDBRANCH   7   8
ENDBRANCH   1   7
TORSDOF 2
ENDMDL
