MODEL 1
REMARK minimizedAffinity -1.12690067
REMARK minimizedRMSD -1
REMARK  2 active torsions:
REMARK  status: ('A' for Active; 'I' for Inactive)
REMARK    1  A    between atoms: C2'_3  and  C1'_4 
REMARK    2  A    between atoms: C1'_4  and  C1_5 
ROOT
ATOM      1  C1  I4B d   1       5.149   1.717   4.231  0.00  0.00    -0.075 A 
ATOM      2  C2  I4B d   1       5.634   1.563   5.506  0.00  0.00     0.003 A 
ATOM      3  C3  I4B d   1       5.999   0.280   5.980  0.00  0.00     0.002 A 
ATOM      4  C4  I4B d   1       5.817  -0.822   5.169  0.00  0.00    -0.004 A 
ATOM      5  C5  I4B d   1       5.347  -0.661   3.869  0.00  0.00     0.002 A 
ATOM      6  C6  I4B d   1       5.022   0.617   3.392  0.00  0.00     0.003 A 
ENDROOT
BRANCH   1   7
ATOM      7  C1' I4B d   1       4.742   3.082   3.774  0.00  0.00     0.060 C 
BRANCH   7   8
ATOM      8  C2' I4B d   1       5.979   3.956   3.755  0.00  0.00    -0.013 C 
ATOM      9  C4' I4B d   1       5.998   4.848   2.542  0.00  0.00     0.013 C 
ATOM     10  C3' I4B d   1       5.996   4.762   5.020  0.00  0.00     0.013 C 
ENDBRANCH   7   8
ENDBRANCH   1   7
TORSDOF 2
ENDMDL
