MODEL 1
REMARK minimizedAffinity 7.98305941
REMARK minimizedRMSD -1
REMARK  2 active torsions:
REMARK  status: ('A' for Active; 'I' for Inactive)
REMARK    1  A    between atoms: C2'_3  and  C1'_4 
REMARK    2  A    between atoms: C1'_4  and  C1_5 
ROOT
ATOM      1  C1  I4B d   1      -2.694   0.673   3.987  0.00  0.00    -0.075 A 
ATOM      2  C2  I4B d   1      -3.656   0.139   4.808  0.00  0.00     0.003 A 
ATOM      3  C3  I4B d   1      -4.224  -1.124   4.513  0.00  0.00     0.002 A 
ATOM      4  C4  I4B d   1      -3.839  -1.791   3.368  0.00  0.00    -0.004 A 
ATOM      5  C5  I4B d   1      -2.847  -1.259   2.549  0.00  0.00     0.002 A 
ATOM      6  C6  I4B d   1      -2.262  -0.025   2.867  0.00  0.00     0.003 A 
ENDROOT
BRANCH   1   7
ATOM      7  C1' I4B d   1      -2.140   2.024   4.310  0.00  0.00     0.060 C 
BRANCH   7   8
ATOM      8  C2' I4B d   1      -1.793   2.711   3.005  0.00  0.00    -0.013 C 
ATOM      9  C4' I4B d   1      -3.034   3.047   2.220  0.00  0.00     0.013 C 
ATOM     10  C3' I4B d   1      -1.005   3.946   3.326  0.00  0.00     0.013 C 
ENDBRANCH   7   8
ENDBRANCH   1   7
TORSDOF 2
ENDMDL
