MODEL 1
REMARK minimizedAffinity 2.75307631
REMARK minimizedRMSD -1
REMARK  2 active torsions:
REMARK  status: ('A' for Active; 'I' for Inactive)
REMARK    1  A    between atoms: C2'_3  and  C1'_4 
REMARK    2  A    between atoms: C1'_4  and  C1_5 
ROOT
ATOM      1  C1  I4B d   1       4.799   1.838   4.876  0.00  0.00    -0.075 A 
ATOM      2  C2  I4B d   1       5.931   2.613   4.914  0.00  0.00     0.003 A 
ATOM      3  C3  I4B d   1       5.875   3.975   4.532  0.00  0.00     0.002 A 
ATOM      4  C4  I4B d   1       4.686   4.504   4.072  0.00  0.00    -0.004 A 
ATOM      5  C5  I4B d   1       3.534   3.723   4.056  0.00  0.00     0.002 A 
ATOM      6  C6  I4B d   1       3.588   2.384   4.472  0.00  0.00     0.003 A 
ENDROOT
BRANCH   1   7
ATOM      7  C1' I4B d   1       4.901   0.395   5.256  0.00  0.00     0.060 C 
BRANCH   7   8
ATOM      8  C2' I4B d   1       5.999  -0.231   4.422  0.00  0.00    -0.013 C 
ATOM      9  C4' I4B d   1       5.990  -1.732   4.544  0.00  0.00     0.013 C 
ATOM     10  C3' I4B d   1       5.801   0.197   2.998  0.00  0.00     0.013 C 
ENDBRANCH   7   8
ENDBRANCH   1   7
TORSDOF 2
ENDMDL
