MODEL 1
REMARK minimizedAffinity -3.21677804
REMARK minimizedRMSD -1
REMARK  2 active torsions:
REMARK  status: ('A' for Active; 'I' for Inactive)
REMARK    1  A    between atoms: C2'_3  and  C1'_4 
REMARK    2  A    between atoms: C1'_4  and  C1_5 
ROOT
ATOM      1  C1  I4B d   1       5.940  -0.708   4.820  0.00  0.00    -0.075 A 
ATOM      2  C2  I4B d   1       5.928   0.430   5.588  0.00  0.00     0.003 A 
ATOM      3  C3  I4B d   1       5.932   1.705   4.973  0.00  0.00     0.002 A 
ATOM      4  C4  I4B d   1       6.000   1.796   3.598  0.00  0.00    -0.004 A 
ATOM      5  C5  I4B d   1       5.989   0.642   2.820  0.00  0.00     0.002 A 
ATOM      6  C6  I4B d   1       5.946  -0.618   3.434  0.00  0.00     0.003 A 
ENDROOT
BRANCH   1   7
ATOM      7  C1' I4B d   1       5.968  -2.038   5.503  0.00  0.00     0.060 C 
BRANCH   7   8
ATOM      8  C2' I4B d   1       5.767  -3.108   4.450  0.00  0.00    -0.013 C 
ATOM      9  C4' I4B d   1       6.000  -4.483   5.018  0.00  0.00     0.013 C 
ATOM     10  C3' I4B d   1       4.374  -2.973   3.911  0.00  0.00     0.013 C 
ENDBRANCH   7   8
ENDBRANCH   1   7
TORSDOF 2
ENDMDL
