MODEL 1
REMARK minimizedAffinity 3.59611011
REMARK minimizedRMSD -1
REMARK  2 active torsions:
REMARK  status: ('A' for Active; 'I' for Inactive)
REMARK    1  A    between atoms: C2'_3  and  C1'_4 
REMARK    2  A    between atoms: C1'_4  and  C1_5 
ROOT
ATOM      1  C1  I4B d   1       5.942   1.620   4.474  0.00  0.00    -0.075 A 
ATOM      2  C2  I4B d   1       6.000   1.092   3.208  0.00  0.00     0.003 A 
ATOM      3  C3  I4B d   1       5.980  -0.311   3.020  0.00  0.00     0.002 A 
ATOM      4  C4  I4B d   1       5.954  -1.144   4.119  0.00  0.00    -0.004 A 
ATOM      5  C5  I4B d   1       5.872  -0.607   5.401  0.00  0.00     0.002 A 
ATOM      6  C6  I4B d   1       5.854   0.784   5.579  0.00  0.00     0.003 A 
ENDROOT
BRANCH   1   7
ATOM      7  C1' I4B d   1       5.998   3.106   4.639  0.00  0.00     0.060 C 
BRANCH   7   8
ATOM      8  C2' I4B d   1       5.421   3.736   3.387  0.00  0.00    -0.013 C 
ATOM      9  C4' I4B d   1       3.917   3.779   3.443  0.00  0.00     0.013 C 
ATOM     10  C3' I4B d   1       5.997   5.114   3.255  0.00  0.00     0.013 C 
ENDBRANCH   7   8
ENDBRANCH   1   7
TORSDOF 2
ENDMDL
