MODEL 1
REMARK minimizedAffinity 8.881073
REMARK minimizedRMSD -1
REMARK  2 active torsions:
REMARK  status: ('A' for Active; 'I' for Inactive)
REMARK    1  A    between atoms: C2'_3  and  C1'_4 
REMARK    2  A    between atoms: C1'_4  and  C1_5 
ROOT
ATOM      1  C1  I4B d   1       4.291   0.843   1.658  0.00  0.00    -0.075 A 
ATOM      2  C2  I4B d   1       4.656  -0.359   2.210  0.00  0.00     0.003 A 
ATOM      3  C3  I4B d   1       5.503  -0.395   3.344  0.00  0.00     0.002 A 
ATOM      4  C4  I4B d   1       6.000   0.785   3.859  0.00  0.00    -0.004 A 
ATOM      5  C5  I4B d   1       5.610   2.004   3.312  0.00  0.00     0.002 A 
ATOM      6  C6  I4B d   1       4.741   2.035   2.212  0.00  0.00     0.003 A 
ENDROOT
BRANCH   1   7
ATOM      7  C1' I4B d   1       3.422   0.844   0.441  0.00  0.00     0.060 C 
BRANCH   7   8
ATOM      8  C2' I4B d   1       2.198   1.685   0.741  0.00  0.00    -0.013 C 
ATOM      9  C4' I4B d   1       2.242   2.995  -0.001  0.00  0.00     0.013 C 
ATOM     10  C3' I4B d   1       0.985   0.889   0.363  0.00  0.00     0.013 C 
ENDBRANCH   7   8
ENDBRANCH   1   7
TORSDOF 2
ENDMDL
