MODEL 1
REMARK minimizedAffinity 7.24511194
REMARK minimizedRMSD -1
REMARK  2 active torsions:
REMARK  status: ('A' for Active; 'I' for Inactive)
REMARK    1  A    between atoms: C2'_3  and  C1'_4 
REMARK    2  A    between atoms: C1'_4  and  C1_5 
ROOT
ATOM      1  C1  I4B d   1       5.957   2.443   2.788  0.00  0.00    -0.075 A 
ATOM      2  C2  I4B d   1       5.960   1.200   2.206  0.00  0.00     0.003 A 
ATOM      3  C3  I4B d   1       5.955   0.036   3.012  0.00  0.00     0.002 A 
ATOM      4  C4  I4B d   1       5.999   0.160   4.386  0.00  0.00    -0.004 A 
ATOM      5  C5  I4B d   1       5.973   1.421   4.974  0.00  0.00     0.002 A 
ATOM      6  C6  I4B d   1       5.940   2.570   4.171  0.00  0.00     0.003 A 
ENDROOT
BRANCH   1   7
ATOM      7  C1' I4B d   1       5.996   3.651   1.907  0.00  0.00     0.060 C 
BRANCH   7   8
ATOM      8  C2' I4B d   1       5.313   4.787   2.642  0.00  0.00    -0.013 C 
ATOM      9  C4' I4B d   1       5.995   5.076   3.953  0.00  0.00     0.013 C 
ATOM     10  C3' I4B d   1       5.326   5.991   1.748  0.00  0.00     0.013 C 
ENDBRANCH   7   8
ENDBRANCH   1   7
TORSDOF 2
ENDMDL
