MODEL 1
REMARK minimizedAffinity 0.167856708
REMARK minimizedRMSD -1
REMARK  2 active torsions:
REMARK  status: ('A' for Active; 'I' for Inactive)
REMARK    1  A    between atoms: C2'_3  and  C1'_4 
REMARK    2  A    between atoms: C1'_4  and  C1_5 
ROOT
ATOM      1  C1  I4B d   1       5.250   2.428   3.346  0.00  0.00    -0.075 A 
ATOM      2  C2  I4B d   1       5.463   1.881   4.586  0.00  0.00     0.003 A 
ATOM      3  C3  I4B d   1       5.867   0.529   4.709  0.00  0.00     0.002 A 
ATOM      4  C4  I4B d   1       5.997  -0.247   3.576  0.00  0.00    -0.004 A 
ATOM      5  C5  I4B d   1       5.803   0.316   2.318  0.00  0.00     0.002 A 
ATOM      6  C6  I4B d   1       5.439   1.666   2.201  0.00  0.00     0.003 A 
ENDROOT
BRANCH   1   7
ATOM      7  C1' I4B d   1       4.792   3.849   3.254  0.00  0.00     0.060 C 
BRANCH   7   8
ATOM      8  C2' I4B d   1       5.976   4.696   2.834  0.00  0.00    -0.013 C 
ATOM      9  C4' I4B d   1       5.895   5.060   1.375  0.00  0.00     0.013 C 
ATOM     10  C3' I4B d   1       5.999   5.921   3.697  0.00  0.00     0.013 C 
ENDBRANCH   7   8
ENDBRANCH   1   7
TORSDOF 2
ENDMDL
