MODEL 1
REMARK minimizedAffinity 10.186101
REMARK minimizedRMSD -1
REMARK  1 active torsions:
REMARK  status: ('A' for Active; 'I' for Inactive)
REMARK    1  A    between atoms: N_2  and  C1_3 
ROOT
ATOM      1  C1  UNL d   1       1.769  -4.111  -2.689  0.00  0.00     0.143 A 
ATOM      2  C2  UNL d   1       1.209  -2.856  -2.949  0.00  0.00    -0.057 A 
ATOM      3  C3  UNL d   1       1.523  -1.743  -2.161  0.00  0.00     0.033 A 
ATOM      4  C4  UNL d   1       2.384  -1.872  -1.075  0.00  0.00    -0.042 A 
ATOM      5  C5  UNL d   1       2.933  -3.115  -0.782  0.00  0.00     0.033 A 
ATOM      6  C6  UNL d   1       2.620  -4.222  -1.578  0.00  0.00    -0.057 A 
ENDROOT
BRANCH   1   7
ATOM      7  N   UNL d   1       1.420  -5.276  -3.376  0.00  0.00    -0.732 N 
ATOM      8  C   UNL d   1       0.087  -5.445  -3.911  0.00  0.00     0.284 C 
ATOM      9  H3  UNL d   1       2.161  -5.599  -3.995  0.00  0.00     0.395 HD
ENDBRANCH   1   7
TORSDOF 1
ENDMDL
