MODEL 1
REMARK minimizedAffinity 10.8278942
REMARK minimizedRMSD -1
REMARK  1 active torsions:
REMARK  status: ('A' for Active; 'I' for Inactive)
REMARK    1  A    between atoms: N_2  and  C1_3 
ROOT
ATOM      1  C1  UNL d   1       2.649  -3.642  -0.688  0.00  0.00     0.143 A 
ATOM      2  C2  UNL d   1       1.615  -3.936  -1.584  0.00  0.00    -0.057 A 
ATOM      3  C3  UNL d   1       0.924  -2.919  -2.254  0.00  0.00     0.033 A 
ATOM      4  C4  UNL d   1       1.236  -1.585  -2.017  0.00  0.00    -0.042 A 
ATOM      5  C5  UNL d   1       2.243  -1.268  -1.112  0.00  0.00     0.033 A 
ATOM      6  C6  UNL d   1       2.934  -2.288  -0.451  0.00  0.00    -0.057 A 
ENDROOT
BRANCH   1   7
ATOM      7  N   UNL d   1       3.307  -4.604   0.083  0.00  0.00    -0.732 N 
ATOM      8  C   UNL d   1       3.290  -5.998  -0.305  0.00  0.00     0.284 C 
ATOM      9  H3  UNL d   1       4.209  -4.278   0.423  0.00  0.00     0.395 HD
ENDBRANCH   1   7
TORSDOF 1
ENDMDL
