MODEL 1
REMARK minimizedAffinity 15.9587431
REMARK minimizedRMSD -1
REMARK  1 active torsions:
REMARK  status: ('A' for Active; 'I' for Inactive)
REMARK    1  A    between atoms: N_2  and  C1_3 
ROOT
ATOM      1  C1  UNL d   1       2.020   3.348  -0.086  0.00  0.00     0.143 A 
ATOM      2  C2  UNL d   1       3.044   2.830  -0.886  0.00  0.00    -0.057 A 
ATOM      3  C3  UNL d   1       3.885   1.812  -0.421  0.00  0.00     0.033 A 
ATOM      4  C4  UNL d   1       3.736   1.314   0.869  0.00  0.00    -0.042 A 
ATOM      5  C5  UNL d   1       2.741   1.831   1.691  0.00  0.00     0.033 A 
ATOM      6  C6  UNL d   1       1.900   2.843   1.218  0.00  0.00    -0.057 A 
ENDROOT
BRANCH   1   7
ATOM      7  N   UNL d   1       1.214   4.428  -0.455  0.00  0.00    -0.732 N 
ATOM      8  C   UNL d   1       0.738   5.366   0.538  0.00  0.00     0.284 C 
ATOM      9  H3  UNL d   1       1.520   4.862  -1.323  0.00  0.00     0.395 HD
ENDBRANCH   1   7
TORSDOF 1
ENDMDL
