MODEL 1
REMARK minimizedAffinity 7.89078712
REMARK minimizedRMSD -1
REMARK  1 active torsions:
REMARK  status: ('A' for Active; 'I' for Inactive)
REMARK    1  A    between atoms: N_2  and  C1_3 
ROOT
ATOM      1  C1  UNL d   1       2.298  -1.597  -0.814  0.00  0.00     0.143 A 
ATOM      2  C2  UNL d   1       2.954  -0.526  -0.198  0.00  0.00    -0.057 A 
ATOM      3  C3  UNL d   1       2.907   0.764  -0.740  0.00  0.00     0.033 A 
ATOM      4  C4  UNL d   1       2.225   1.000  -1.929  0.00  0.00    -0.042 A 
ATOM      5  C5  UNL d   1       1.587  -0.054  -2.573  0.00  0.00     0.033 A 
ATOM      6  C6  UNL d   1       1.631  -1.338  -2.022  0.00  0.00    -0.057 A 
ENDROOT
BRANCH   1   7
ATOM      7  N   UNL d   1       2.388  -2.921  -0.377  0.00  0.00    -0.732 N 
ATOM      8  C   UNL d   1       3.669  -3.592  -0.321  0.00  0.00     0.284 C 
ATOM      9  H3  UNL d   1       1.785  -3.109   0.420  0.00  0.00     0.395 HD
ENDBRANCH   1   7
TORSDOF 1
ENDMDL
