MODEL 1
REMARK minimizedAffinity 11.9682589
REMARK minimizedRMSD -1
REMARK  1 active torsions:
REMARK  status: ('A' for Active; 'I' for Inactive)
REMARK    1  A    between atoms: N_2  and  C1_3 
ROOT
ATOM      1  C1  UNL d   1      -3.020  -3.963  -4.112  0.00  0.00     0.143 A 
ATOM      2  C2  UNL d   1      -3.055  -4.867  -3.045  0.00  0.00    -0.057 A 
ATOM      3  C3  UNL d   1      -1.920  -5.111  -2.263  0.00  0.00     0.033 A 
ATOM      4  C4  UNL d   1      -0.718  -4.475  -2.553  0.00  0.00    -0.042 A 
ATOM      5  C5  UNL d   1      -0.653  -3.591  -3.624  0.00  0.00     0.033 A 
ATOM      6  C6  UNL d   1      -1.791  -3.347  -4.398  0.00  0.00    -0.057 A 
ENDROOT
BRANCH   1   7
ATOM      7  N   UNL d   1      -4.087  -3.751  -4.988  0.00  0.00    -0.732 N 
ATOM      8  C   UNL d   1      -4.017  -2.719  -6.000  0.00  0.00     0.284 C 
ATOM      9  H3  UNL d   1      -4.504  -4.622  -5.311  0.00  0.00     0.395 HD
ENDBRANCH   1   7
TORSDOF 1
ENDMDL
