MODEL 1
REMARK minimizedAffinity 9.50447083
REMARK minimizedRMSD -1
REMARK  1 active torsions:
REMARK  status: ('A' for Active; 'I' for Inactive)
REMARK    1  A    between atoms: N_2  and  C1_3 
ROOT
ATOM      1  C1  UNL d   1       2.850  -1.275  -0.393  0.00  0.00     0.143 A 
ATOM      2  C2  UNL d   1       3.506  -0.137   0.088  0.00  0.00    -0.057 A 
ATOM      3  C3  UNL d   1       3.410   1.092  -0.575  0.00  0.00     0.033 A 
ATOM      4  C4  UNL d   1       2.676   1.199  -1.752  0.00  0.00    -0.042 A 
ATOM      5  C5  UNL d   1       2.036   0.075  -2.263  0.00  0.00     0.033 A 
ATOM      6  C6  UNL d   1       2.131  -1.148  -1.592  0.00  0.00    -0.057 A 
ENDROOT
BRANCH   1   7
ATOM      7  N   UNL d   1       2.988  -2.547   0.166  0.00  0.00    -0.732 N 
ATOM      8  C   UNL d   1       4.298  -3.133   0.353  0.00  0.00     0.284 C 
ATOM      9  H3  UNL d   1       2.349  -2.701   0.943  0.00  0.00     0.395 HD
ENDBRANCH   1   7
TORSDOF 1
ENDMDL
