MODEL 1
REMARK minimizedAffinity 7.5245471
REMARK minimizedRMSD -1
REMARK  1 active torsions:
REMARK  status: ('A' for Active; 'I' for Inactive)
REMARK    1  A    between atoms: N_2  and  C1_3 
ROOT
ATOM      1  C1  UNL d   1       2.283  -3.388  -1.213  0.00  0.00     0.143 A 
ATOM      2  C2  UNL d   1       2.297  -1.991  -1.283  0.00  0.00    -0.057 A 
ATOM      3  C3  UNL d   1       1.574  -1.307  -2.269  0.00  0.00     0.033 A 
ATOM      4  C4  UNL d   1       0.847  -2.012  -3.222  0.00  0.00    -0.042 A 
ATOM      5  C5  UNL d   1       0.840  -3.402  -3.187  0.00  0.00     0.033 A 
ATOM      6  C6  UNL d   1       1.558  -4.079  -2.196  0.00  0.00    -0.057 A 
ENDROOT
BRANCH   1   7
ATOM      7  N   UNL d   1       3.059  -4.130  -0.318  0.00  0.00    -0.732 N 
ATOM      8  C   UNL d   1       3.575  -5.429  -0.691  0.00  0.00     0.284 C 
ATOM      9  H3  UNL d   1       3.721  -3.551   0.194  0.00  0.00     0.395 HD
ENDBRANCH   1   7
TORSDOF 1
ENDMDL
