MODEL 1
REMARK minimizedAffinity 14.3059864
REMARK minimizedRMSD -1
REMARK  1 active torsions:
REMARK  status: ('A' for Active; 'I' for Inactive)
REMARK    1  A    between atoms: N_2  and  C1_3 
ROOT
ATOM      1  C1  UNL d   1       1.747   3.625  -1.205  0.00  0.00     0.143 A 
ATOM      2  C2  UNL d   1       1.494   3.653   0.171  0.00  0.00    -0.057 A 
ATOM      3  C3  UNL d   1       1.059   4.822   0.806  0.00  0.00     0.033 A 
ATOM      4  C4  UNL d   1       0.897   5.997   0.078  0.00  0.00    -0.042 A 
ATOM      5  C5  UNL d   1       1.166   5.999  -1.286  0.00  0.00     0.033 A 
ATOM      6  C6  UNL d   1       1.594   4.826  -1.915  0.00  0.00    -0.057 A 
ENDROOT
BRANCH   1   7
ATOM      7  N   UNL d   1       2.275   2.520  -1.877  0.00  0.00    -0.732 N 
ATOM      8  C   UNL d   1       1.493   1.819  -2.872  0.00  0.00     0.284 C 
ATOM      9  H3  UNL d   1       3.252   2.651  -2.132  0.00  0.00     0.395 HD
ENDBRANCH   1   7
TORSDOF 1
ENDMDL
