MODEL 1
REMARK minimizedAffinity 12.5809164
REMARK minimizedRMSD -1
REMARK  1 active torsions:
REMARK  status: ('A' for Active; 'I' for Inactive)
REMARK    1  A    between atoms: N_2  and  C1_3 
ROOT
ATOM      1  C1  UNL d   1      -5.070  -3.707  -5.534  0.00  0.00     0.143 A 
ATOM      2  C2  UNL d   1      -5.140  -5.025  -5.998  0.00  0.00    -0.057 A 
ATOM      3  C3  UNL d   1      -4.226  -5.996  -5.570  0.00  0.00     0.033 A 
ATOM      4  C4  UNL d   1      -3.205  -5.657  -4.688  0.00  0.00    -0.042 A 
ATOM      5  C5  UNL d   1      -3.100  -4.347  -4.233  0.00  0.00     0.033 A 
ATOM      6  C6  UNL d   1      -4.020  -3.384  -4.659  0.00  0.00    -0.057 A 
ENDROOT
BRANCH   1   7
ATOM      7  N   UNL d   1      -5.888  -2.674  -5.998  0.00  0.00    -0.732 N 
ATOM      8  C   UNL d   1      -6.000  -1.434  -5.260  0.00  0.00     0.284 C 
ATOM      9  H3  UNL d   1      -5.827  -2.554  -7.006  0.00  0.00     0.395 HD
ENDBRANCH   1   7
TORSDOF 1
ENDMDL
