MODEL 1
REMARK minimizedAffinity 9.38214111
REMARK minimizedRMSD -1
REMARK  1 active torsions:
REMARK  status: ('A' for Active; 'I' for Inactive)
REMARK    1  A    between atoms: N_2  and  C1_3 
ROOT
ATOM      1  C1  UNL d   1       2.556  -2.996  -0.699  0.00  0.00     0.143 A 
ATOM      2  C2  UNL d   1       2.345  -1.636  -0.450  0.00  0.00    -0.057 A 
ATOM      3  C3  UNL d   1       1.649  -0.831  -1.360  0.00  0.00     0.033 A 
ATOM      4  C4  UNL d   1       1.175  -1.368  -2.553  0.00  0.00    -0.042 A 
ATOM      5  C5  UNL d   1       1.395  -2.712  -2.832  0.00  0.00     0.033 A 
ATOM      6  C6  UNL d   1       2.086  -3.512  -1.917  0.00  0.00    -0.057 A 
ENDROOT
BRANCH   1   7
ATOM      7  N   UNL d   1       3.326  -3.826   0.120  0.00  0.00    -0.732 N 
ATOM      8  C   UNL d   1       3.277  -5.264  -0.035  0.00  0.00     0.284 C 
ATOM      9  H3  UNL d   1       4.260  -3.456   0.279  0.00  0.00     0.395 HD
ENDBRANCH   1   7
TORSDOF 1
ENDMDL
