MODEL 1
REMARK minimizedAffinity 11.8242388
REMARK minimizedRMSD -1
REMARK  1 active torsions:
REMARK  status: ('A' for Active; 'I' for Inactive)
REMARK    1  A    between atoms: N_2  and  C1_3 
ROOT
ATOM      1  C1  UNL d   1       3.637   2.356   0.790  0.00  0.00     0.143 A 
ATOM      2  C2  UNL d   1       4.962   2.105   0.415  0.00  0.00    -0.057 A 
ATOM      3  C3  UNL d   1       5.317   1.939  -0.930  0.00  0.00     0.033 A 
ATOM      4  C4  UNL d   1       4.345   1.992  -1.924  0.00  0.00    -0.042 A 
ATOM      5  C5  UNL d   1       3.019   2.215  -1.572  0.00  0.00     0.033 A 
ATOM      6  C6  UNL d   1       2.671   2.387  -0.228  0.00  0.00    -0.057 A 
ENDROOT
BRANCH   1   7
ATOM      7  N   UNL d   1       3.206   2.432   2.116  0.00  0.00    -0.732 N 
ATOM      8  C   UNL d   1       2.083   1.641   2.572  0.00  0.00     0.284 C 
ATOM      9  H3  UNL d   1       3.980   2.473   2.775  0.00  0.00     0.395 HD
ENDBRANCH   1   7
TORSDOF 1
ENDMDL
