MODEL 1
REMARK minimizedAffinity 12.4284697
REMARK minimizedRMSD -1
REMARK  0 active torsions:
REMARK  status: ('A' for Active; 'I' for Inactive)
ROOT
ATOM      1  O1  BZF d   1      -0.099  -3.031   3.793  0.00  0.00    -0.204 OA
ATOM      2  C2  BZF d   1       1.043  -3.596   4.328  0.00  0.00     0.174 A 
ATOM      3  C3  BZF d   1       2.129  -2.857   4.024  0.00  0.00    -0.012 A 
ATOM      4  C3A BZF d   1       1.624  -1.712   3.330  0.00  0.00    -0.107 A 
ATOM      5  C4  BZF d   1       2.215  -0.607   2.788  0.00  0.00     0.055 A 
ATOM      6  C5  BZF d   1       1.447   0.289   2.115  0.00  0.00    -0.016 A 
ATOM      7  C6  BZF d   1       0.088   0.109   1.961  0.00  0.00     0.022 A 
ATOM      8  C7  BZF d   1      -0.544  -0.969   2.486  0.00  0.00     0.029 A 
ATOM      9  C7A BZF d   1       0.224  -1.859   3.195  0.00  0.00     0.058 A 
ENDROOT
TORSDOF 0
ENDMDL
