MODEL 1
REMARK minimizedAffinity 8.19829082
REMARK minimizedRMSD -1
REMARK  0 active torsions:
REMARK  status: ('A' for Active; 'I' for Inactive)
ROOT
ATOM      1  O1  BZF d   1      -0.517   2.110   4.251  0.00  0.00    -0.204 OA
ATOM      2  C2  BZF d   1       0.056   2.115   5.508  0.00  0.00     0.174 A 
ATOM      3  C3  BZF d   1       0.788   0.999   5.704  0.00  0.00    -0.012 A 
ATOM      4  C3A BZF d   1       0.739   0.294   4.460  0.00  0.00    -0.107 A 
ATOM      5  C4  BZF d   1       1.286  -0.879   4.024  0.00  0.00     0.055 A 
ATOM      6  C5  BZF d   1       0.985  -1.324   2.775  0.00  0.00    -0.016 A 
ATOM      7  C6  BZF d   1       0.139  -0.626   1.940  0.00  0.00     0.022 A 
ATOM      8  C7  BZF d   1      -0.424   0.545   2.326  0.00  0.00     0.029 A 
ATOM      9  C7A BZF d   1      -0.096   1.014   3.575  0.00  0.00     0.058 A 
ENDROOT
TORSDOF 0
ENDMDL
