MODEL 1
REMARK minimizedAffinity 9.45024395
REMARK minimizedRMSD -1
REMARK  0 active torsions:
REMARK  status: ('A' for Active; 'I' for Inactive)
ROOT
ATOM      1  O1  BZF d   1      -1.883  -3.748  -4.191  0.00  0.00    -0.204 OA
ATOM      2  C2  BZF d   1      -1.496  -4.135  -5.460  0.00  0.00     0.174 A 
ATOM      3  C3  BZF d   1      -0.654  -3.231  -6.000  0.00  0.00    -0.012 A 
ATOM      4  C3A BZF d   1      -0.432  -2.262  -4.971  0.00  0.00    -0.107 A 
ATOM      5  C4  BZF d   1       0.326  -1.128  -4.897  0.00  0.00     0.055 A 
ATOM      6  C5  BZF d   1       0.265  -0.366  -3.774  0.00  0.00    -0.016 A 
ATOM      7  C6  BZF d   1      -0.544  -0.704  -2.709  0.00  0.00     0.022 A 
ATOM      8  C7  BZF d   1      -1.310  -1.822  -2.734  0.00  0.00     0.029 A 
ATOM      9  C7A BZF d   1      -1.226  -2.612  -3.855  0.00  0.00     0.058 A 
ENDROOT
TORSDOF 0
ENDMDL
