MODEL 1
REMARK minimizedAffinity 7.71816349
REMARK minimizedRMSD -1
REMARK  0 active torsions:
REMARK  status: ('A' for Active; 'I' for Inactive)
ROOT
ATOM      1  O1  BZF d   1       1.012  -3.353   3.961  0.00  0.00    -0.204 OA
ATOM      2  C2  BZF d   1       1.831  -3.362   5.074  0.00  0.00     0.174 A 
ATOM      3  C3  BZF d   1       2.159  -2.105   5.436  0.00  0.00    -0.012 A 
ATOM      4  C3A BZF d   1       1.429  -1.254   4.547  0.00  0.00    -0.107 A 
ATOM      5  C4  BZF d   1       1.327   0.101   4.417  0.00  0.00     0.055 A 
ATOM      6  C5  BZF d   1       0.586   0.613   3.398  0.00  0.00    -0.016 A 
ATOM      7  C6  BZF d   1      -0.059  -0.200   2.490  0.00  0.00     0.022 A 
ATOM      8  C7  BZF d   1       0.009  -1.550   2.581  0.00  0.00     0.029 A 
ATOM      9  C7A BZF d   1       0.729  -2.071   3.629  0.00  0.00     0.058 A 
ENDROOT
TORSDOF 0
ENDMDL
