MODEL 1
REMARK minimizedAffinity 18.2535915
REMARK minimizedRMSD -1
REMARK  0 active torsions:
REMARK  status: ('A' for Active; 'I' for Inactive)
ROOT
ATOM      1  O1  BZF d   1      -0.545  -3.741  -5.996  0.00  0.00    -0.204 OA
ATOM      2  C2  BZF d   1      -1.578  -4.658  -5.940  0.00  0.00     0.174 A 
ATOM      3  C3  BZF d   1      -2.221  -4.581  -4.757  0.00  0.00    -0.012 A 
ATOM      4  C3A BZF d   1      -1.607  -3.490  -4.064  0.00  0.00    -0.107 A 
ATOM      5  C4  BZF d   1      -1.820  -2.913  -2.845  0.00  0.00     0.055 A 
ATOM      6  C5  BZF d   1      -0.999  -1.910  -2.436  0.00  0.00    -0.016 A 
ATOM      7  C6  BZF d   1       0.047  -1.464  -3.218  0.00  0.00     0.022 A 
ATOM      8  C7  BZF d   1       0.294  -2.002  -4.437  0.00  0.00     0.029 A 
ATOM      9  C7A BZF d   1      -0.554  -2.993  -4.866  0.00  0.00     0.058 A 
ENDROOT
TORSDOF 0
ENDMDL
