MODEL 1
REMARK minimizedAffinity 7.27059412
REMARK minimizedRMSD -1
REMARK  0 active torsions:
REMARK  status: ('A' for Active; 'I' for Inactive)
ROOT
ATOM      1  O1  BZF d   1       0.639  -2.584   3.550  0.00  0.00    -0.204 OA
ATOM      2  C2  BZF d   1       1.807  -2.259   4.213  0.00  0.00     0.174 A 
ATOM      3  C3  BZF d   1       2.017  -0.927   4.187  0.00  0.00    -0.012 A 
ATOM      4  C3A BZF d   1       0.864  -0.377   3.543  0.00  0.00    -0.107 A 
ATOM      5  C4  BZF d   1       0.479   0.897   3.236  0.00  0.00     0.055 A 
ATOM      6  C5  BZF d   1      -0.672   1.089   2.539  0.00  0.00    -0.016 A 
ATOM      7  C6  BZF d   1      -1.457   0.031   2.129  0.00  0.00     0.022 A 
ATOM      8  C7  BZF d   1      -1.119  -1.249   2.415  0.00  0.00     0.029 A 
ATOM      9  C7A BZF d   1       0.026  -1.445   3.148  0.00  0.00     0.058 A 
ENDROOT
TORSDOF 0
ENDMDL
