MODEL 1
REMARK minimizedAffinity -3.79522634
REMARK minimizedRMSD -1
REMARK  0 active torsions:
REMARK  status: ('A' for Active; 'I' for Inactive)
ROOT
ATOM      1  O1  BZF d   1       1.159  -1.289  -1.178  0.00  0.00    -0.204 OA
ATOM      2  C2  BZF d   1       2.279  -2.005  -0.802  0.00  0.00     0.174 A 
ATOM      3  C3  BZF d   1       2.369  -2.082   0.542  0.00  0.00    -0.012 A 
ATOM      4  C3A BZF d   1       1.184  -1.448   1.035  0.00  0.00    -0.107 A 
ATOM      5  C4  BZF d   1       0.692  -1.224   2.289  0.00  0.00     0.055 A 
ATOM      6  C5  BZF d   1      -0.456  -0.511   2.430  0.00  0.00    -0.016 A 
ATOM      7  C6  BZF d   1      -1.135  -0.005   1.341  0.00  0.00     0.022 A 
ATOM      8  C7  BZF d   1      -0.688  -0.206   0.077  0.00  0.00     0.029 A 
ATOM      9  C7A BZF d   1       0.454  -0.954  -0.071  0.00  0.00     0.058 A 
ENDROOT
TORSDOF 0
ENDMDL
