MODEL 1
REMARK minimizedAffinity -4.79848671
REMARK minimizedRMSD -1
REMARK  0 active torsions:
REMARK  status: ('A' for Active; 'I' for Inactive)
ROOT
ATOM      1  O1  BZF d   1      -0.001  -0.816   2.851  0.00  0.00    -0.204 OA
ATOM      2  C2  BZF d   1       1.368  -0.647   2.925  0.00  0.00     0.174 A 
ATOM      3  C3  BZF d   1       1.873  -0.298   1.724  0.00  0.00    -0.012 A 
ATOM      4  C3A BZF d   1       0.738  -0.157   0.865  0.00  0.00    -0.107 A 
ATOM      5  C4  BZF d   1       0.591   0.189  -0.448  0.00  0.00     0.055 A 
ATOM      6  C5  BZF d   1      -0.648   0.162  -1.004  0.00  0.00    -0.016 A 
ATOM      7  C6  BZF d   1      -1.761  -0.211  -0.278  0.00  0.00     0.022 A 
ATOM      8  C7  BZF d   1      -1.666  -0.557   1.029  0.00  0.00     0.029 A 
ATOM      9  C7A BZF d   1      -0.420  -0.499   1.602  0.00  0.00     0.058 A 
ENDROOT
TORSDOF 0
ENDMDL
