MODEL 1
REMARK minimizedAffinity -5.82102394
REMARK minimizedRMSD -1
REMARK  0 active torsions:
REMARK  status: ('A' for Active; 'I' for Inactive)
ROOT
ATOM      1  O1  BZF d   1       0.682  -0.397  -1.139  0.00  0.00    -0.204 OA
ATOM      2  C2  BZF d   1      -0.371   0.455  -0.870  0.00  0.00     0.174 A 
ATOM      3  C3  BZF d   1      -0.568   0.567   0.460  0.00  0.00    -0.012 A 
ATOM      4  C3A BZF d   1       0.482  -0.196   1.061  0.00  0.00    -0.107 A 
ATOM      5  C4  BZF d   1       0.831  -0.456   2.356  0.00  0.00     0.055 A 
ATOM      6  C5  BZF d   1       1.867  -1.299   2.604  0.00  0.00    -0.016 A 
ATOM      7  C6  BZF d   1       2.572  -1.903   1.584  0.00  0.00     0.022 A 
ATOM      8  C7  BZF d   1       2.267  -1.672   0.284  0.00  0.00     0.029 A 
ATOM      9  C7A BZF d   1       1.241  -0.795   0.029  0.00  0.00     0.058 A 
ENDROOT
TORSDOF 0
ENDMDL
