MODEL 1
REMARK minimizedAffinity -5.3621769
REMARK minimizedRMSD -1
REMARK  0 active torsions:
REMARK  status: ('A' for Active; 'I' for Inactive)
ROOT
ATOM      1  O1  BZF d   1       0.736  -0.378  -0.896  0.00  0.00    -0.204 OA
ATOM      2  C2  BZF d   1      -0.395   0.358  -0.600  0.00  0.00     0.174 A 
ATOM      3  C3  BZF d   1      -0.650   0.331   0.724  0.00  0.00    -0.012 A 
ATOM      4  C3A BZF d   1       0.439  -0.395   1.302  0.00  0.00    -0.107 A 
ATOM      5  C4  BZF d   1       0.761  -0.743   2.583  0.00  0.00     0.055 A 
ATOM      6  C5  BZF d   1       1.856  -1.517   2.802  0.00  0.00    -0.016 A 
ATOM      7  C6  BZF d   1       2.647  -1.966   1.765  0.00  0.00     0.022 A 
ATOM      8  C7  BZF d   1       2.370  -1.643   0.478  0.00  0.00     0.029 A 
ATOM      9  C7A BZF d   1       1.283  -0.833   0.256  0.00  0.00     0.058 A 
ENDROOT
TORSDOF 0
ENDMDL
