MODEL 1
REMARK minimizedAffinity 0.24709177
REMARK minimizedRMSD -1
REMARK  0 active torsions:
REMARK  status: ('A' for Active; 'I' for Inactive)
ROOT
ATOM      1  O1  BZF d   1      -1.222   3.419  -1.183  0.00  0.00    -0.204 OA
ATOM      2  C2  BZF d   1      -0.890   3.537  -2.518  0.00  0.00     0.174 A 
ATOM      3  C3  BZF d   1      -0.269   2.423  -2.957  0.00  0.00    -0.012 A 
ATOM      4  C3A BZF d   1      -0.292   1.518  -1.849  0.00  0.00    -0.107 A 
ATOM      5  C4  BZF d   1       0.158   0.241  -1.670  0.00  0.00     0.055 A 
ATOM      6  C5  BZF d   1       0.046  -0.333  -0.444  0.00  0.00    -0.016 A 
ATOM      7  C6  BZF d   1      -0.505   0.342   0.626  0.00  0.00     0.022 A 
ATOM      8  C7  BZF d   1      -0.969   1.608   0.496  0.00  0.00     0.029 A 
ATOM      9  C7A BZF d   1      -0.888   2.179  -0.750  0.00  0.00     0.058 A 
ENDROOT
TORSDOF 0
ENDMDL
