MODEL 1
REMARK minimizedAffinity -3.84591222
REMARK minimizedRMSD -1
REMARK  0 active torsions:
REMARK  status: ('A' for Active; 'I' for Inactive)
ROOT
ATOM      1  O1  BZF d   1       1.158  -1.411   0.980  0.00  0.00    -0.204 OA
ATOM      2  C2  BZF d   1       0.780  -1.515   2.305  0.00  0.00     0.174 A 
ATOM      3  C3  BZF d   1      -0.309  -0.759   2.552  0.00  0.00    -0.012 A 
ATOM      4  C3A BZF d   1      -0.687  -0.216   1.284  0.00  0.00    -0.107 A 
ATOM      5  C4  BZF d   1      -1.702   0.602   0.877  0.00  0.00     0.055 A 
ATOM      6  C5  BZF d   1      -1.746   1.004  -0.420  0.00  0.00    -0.016 A 
ATOM      7  C6  BZF d   1      -0.791   0.613  -1.335  0.00  0.00     0.022 A 
ATOM      8  C7  BZF d   1       0.232  -0.203  -0.980  0.00  0.00     0.029 A 
ATOM      9  C7A BZF d   1       0.261  -0.638   0.322  0.00  0.00     0.058 A 
ENDROOT
TORSDOF 0
ENDMDL
