MODEL 1
REMARK minimizedAffinity -3.59543204
REMARK minimizedRMSD -1
REMARK  0 active torsions:
REMARK  status: ('A' for Active; 'I' for Inactive)
ROOT
ATOM      1  O1  BZF d   1       0.332   0.377  -1.081  0.00  0.00    -0.204 OA
ATOM      2  C2  BZF d   1      -0.272  -0.271  -0.021  0.00  0.00     0.174 A 
ATOM      3  C3  BZF d   1      -1.403   0.364   0.347  0.00  0.00    -0.012 A 
ATOM      4  C3A BZF d   1      -1.563   1.426  -0.599  0.00  0.00    -0.107 A 
ATOM      5  C4  BZF d   1      -2.507   2.398  -0.769  0.00  0.00     0.055 A 
ATOM      6  C5  BZF d   1      -2.331   3.327  -1.745  0.00  0.00    -0.016 A 
ATOM      7  C6  BZF d   1      -1.221   3.317  -2.565  0.00  0.00     0.022 A 
ATOM      8  C7  BZF d   1      -0.260   2.370  -2.437  0.00  0.00     0.029 A 
ATOM      9  C7A BZF d   1      -0.451   1.411  -1.473  0.00  0.00     0.058 A 
ENDROOT
TORSDOF 0
ENDMDL
