MODEL 1
REMARK minimizedAffinity 0.491909981
REMARK minimizedRMSD -1
REMARK  0 active torsions:
REMARK  status: ('A' for Active; 'I' for Inactive)
ROOT
ATOM      1  O1  BZF d   1      -1.190  -0.678  -0.633  0.00  0.00    -0.204 OA
ATOM      2  C2  BZF d   1      -1.177   0.645  -1.031  0.00  0.00     0.174 A 
ATOM      3  C3  BZF d   1      -0.802   1.447  -0.013  0.00  0.00    -0.012 A 
ATOM      4  C3A BZF d   1      -0.476   0.562   1.063  0.00  0.00    -0.107 A 
ATOM      5  C4  BZF d   1      -0.024   0.759   2.336  0.00  0.00     0.055 A 
ATOM      6  C5  BZF d   1       0.124  -0.314   3.158  0.00  0.00    -0.016 A 
ATOM      7  C6  BZF d   1      -0.175  -1.594   2.741  0.00  0.00     0.022 A 
ATOM      8  C7  BZF d   1      -0.622  -1.840   1.485  0.00  0.00     0.029 A 
ATOM      9  C7A BZF d   1      -0.741  -0.762   0.642  0.00  0.00     0.058 A 
ENDROOT
TORSDOF 0
ENDMDL
