MODEL 1
REMARK minimizedAffinity 4.76216412
REMARK minimizedRMSD -1
REMARK  0 active torsions:
REMARK  status: ('A' for Active; 'I' for Inactive)
ROOT
ATOM      1  C   UNL d   1      -3.317  -1.114  -2.417  0.00  0.00     0.172 C 
ATOM      2  N   UNL d   1      -3.268  -0.158  -3.498  0.00  0.00    -0.070 N 
ATOM      3  C1  UNL d   1      -4.347   0.478  -4.051  0.00  0.00    -0.004 A 
ATOM      4  C2  UNL d   1      -3.883   1.306  -5.050  0.00  0.00    -0.047 A 
ATOM      5  C3  UNL d   1      -2.476   1.160  -5.101  0.00  0.00    -0.047 A 
ATOM      6  C4  UNL d   1      -2.122   0.248  -4.129  0.00  0.00    -0.004 A 
ENDROOT
TORSDOF 0
ENDMDL
