MODEL 1
REMARK minimizedAffinity 4.61019754
REMARK minimizedRMSD -1
REMARK  0 active torsions:
REMARK  status: ('A' for Active; 'I' for Inactive)
ROOT
ATOM      1  C   UNL d   1       3.306  -0.183  -0.752  0.00  0.00     0.172 C 
ATOM      2  N   UNL d   1       4.402   0.739  -0.568  0.00  0.00    -0.070 N 
ATOM      3  C1  UNL d   1       5.001   1.038   0.626  0.00  0.00    -0.004 A 
ATOM      4  C2  UNL d   1       6.000   1.955   0.379  0.00  0.00    -0.047 A 
ATOM      5  C3  UNL d   1       5.999   2.217  -1.012  0.00  0.00    -0.047 A 
ATOM      6  C4  UNL d   1       5.000   1.451  -1.574  0.00  0.00    -0.004 A 
ENDROOT
TORSDOF 0
ENDMDL
