MODEL 1
REMARK minimizedAffinity 5.31819868
REMARK minimizedRMSD -1
REMARK  0 active torsions:
REMARK  status: ('A' for Active; 'I' for Inactive)
ROOT
ATOM      1  C   UNL d   1      -0.764  -2.635   4.673  0.00  0.00     0.172 C 
ATOM      2  N   UNL d   1      -0.465  -3.941   5.211  0.00  0.00    -0.070 N 
ATOM      3  C1  UNL d   1       0.785  -4.420   5.499  0.00  0.00    -0.004 A 
ATOM      4  C2  UNL d   1       0.644  -5.699   5.992  0.00  0.00    -0.047 A 
ATOM      5  C3  UNL d   1      -0.739  -6.000   6.000  0.00  0.00    -0.047 A 
ATOM      6  C4  UNL d   1      -1.402  -4.894   5.511  0.00  0.00    -0.004 A 
ENDROOT
TORSDOF 0
ENDMDL
