MODEL 1
REMARK minimizedAffinity 0.467183352
REMARK minimizedRMSD -1
REMARK  0 active torsions:
REMARK  status: ('A' for Active; 'I' for Inactive)
ROOT
ATOM      1  C   UNL d   1      -3.153   1.498  -5.628  0.00  0.00     0.172 C 
ATOM      2  N   UNL d   1      -4.229   1.999  -4.806  0.00  0.00    -0.070 N 
ATOM      3  C1  UNL d   1      -4.513   3.320  -4.580  0.00  0.00    -0.004 A 
ATOM      4  C2  UNL d   1      -5.609   3.379  -3.747  0.00  0.00    -0.047 A 
ATOM      5  C3  UNL d   1      -5.996   2.048  -3.461  0.00  0.00    -0.047 A 
ATOM      6  C4  UNL d   1      -5.125   1.214  -4.129  0.00  0.00    -0.004 A 
ENDROOT
TORSDOF 0
ENDMDL
