MODEL 1
REMARK minimizedAffinity 2.3333652
REMARK minimizedRMSD -1
REMARK  0 active torsions:
REMARK  status: ('A' for Active; 'I' for Inactive)
ROOT
ATOM      1  C   UNL d   1       3.232  -0.383  -0.209  0.00  0.00     0.172 C 
ATOM      2  N   UNL d   1       4.207   0.643  -0.492  0.00  0.00    -0.070 N 
ATOM      3  C1  UNL d   1       4.374   1.275  -1.696  0.00  0.00    -0.004 A 
ATOM      4  C2  UNL d   1       5.402   2.183  -1.556  0.00  0.00    -0.047 A 
ATOM      5  C3  UNL d   1       5.869   2.093  -0.223  0.00  0.00    -0.047 A 
ATOM      6  C4  UNL d   1       5.112   1.131   0.413  0.00  0.00    -0.004 A 
ENDROOT
TORSDOF 0
ENDMDL
