MODEL 1
REMARK minimizedAffinity 1.9770267
REMARK minimizedRMSD -1
REMARK  0 active torsions:
REMARK  status: ('A' for Active; 'I' for Inactive)
ROOT
ATOM      1  C   UNL d   1      -4.384   0.855  -0.110  0.00  0.00     0.172 C 
ATOM      2  N   UNL d   1      -2.975   1.137   0.039  0.00  0.00    -0.070 N 
ATOM      3  C1  UNL d   1      -2.387   1.706   1.138  0.00  0.00    -0.004 A 
ATOM      4  C2  UNL d   1      -1.036   1.805   0.889  0.00  0.00    -0.047 A 
ATOM      5  C3  UNL d   1      -0.803   1.278  -0.404  0.00  0.00    -0.047 A 
ATOM      6  C4  UNL d   1      -2.021   0.872  -0.907  0.00  0.00    -0.004 A 
ENDROOT
TORSDOF 0
ENDMDL
