MODEL 1
REMARK minimizedAffinity 2.32785702
REMARK minimizedRMSD -1
REMARK  0 active torsions:
REMARK  status: ('A' for Active; 'I' for Inactive)
ROOT
ATOM      1  C   UNL d   1       4.177  -0.266  -1.171  0.00  0.00     0.172 C 
ATOM      2  N   UNL d   1       3.458  -1.495  -1.410  0.00  0.00    -0.070 N 
ATOM      3  C1  UNL d   1       3.423  -2.183  -2.593  0.00  0.00    -0.004 A 
ATOM      4  C2  UNL d   1       2.632  -3.297  -2.411  0.00  0.00    -0.047 A 
ATOM      5  C3  UNL d   1       2.176  -3.278  -1.071  0.00  0.00    -0.047 A 
ATOM      6  C4  UNL d   1       2.702  -2.152  -0.474  0.00  0.00    -0.004 A 
ENDROOT
TORSDOF 0
ENDMDL
