MODEL 1
REMARK minimizedAffinity -0.316275239
REMARK minimizedRMSD -1
REMARK  0 active torsions:
REMARK  status: ('A' for Active; 'I' for Inactive)
ROOT
ATOM      1  C   UNL d   1       1.268   0.470   0.626  0.00  0.00     0.124 A 
ATOM      2  C1  UNL d   1       0.683   0.190   1.853  0.00  0.00     0.062 A 
ATOM      3  C2  UNL d   1      -0.607  -0.330   1.912  0.00  0.00     0.162 A 
ATOM      4  C3  UNL d   1      -1.321  -0.575   0.739  0.00  0.00    -0.034 A 
ATOM      5  C4  UNL d   1      -0.726  -0.290  -0.491  0.00  0.00     0.162 A 
ATOM      6  C5  UNL d   1       0.563   0.229  -0.545  0.00  0.00     0.062 A 
ATOM      7  F   UNL d   1       1.126   0.499  -1.732  0.00  0.00    -0.097 F 
ATOM      8  F1  UNL d   1      -1.385  -0.514  -1.638  0.00  0.00    -0.096 F 
ATOM      9  I   UNL d   1      -3.250  -1.352   0.823  0.00  0.00    -0.060 I 
ATOM     10  F2  UNL d   1      -1.147  -0.590   3.112  0.00  0.00    -0.096 F 
ATOM     11  F3  UNL d   1       1.362   0.423   2.986  0.00  0.00    -0.097 F 
ATOM     12  F4  UNL d   1       2.509   0.971   0.572  0.00  0.00    -0.092 F 
ENDROOT
TORSDOF 0
ENDMDL
