MODEL 1
REMARK minimizedAffinity -2.57556987
REMARK minimizedRMSD -1
REMARK  0 active torsions:
REMARK  status: ('A' for Active; 'I' for Inactive)
ROOT
ATOM      1  C   UNL d   1       0.853   0.198   2.015  0.00  0.00     0.124 A 
ATOM      2  C1  UNL d   1       1.419   0.645   0.829  0.00  0.00     0.062 A 
ATOM      3  C2  UNL d   1       0.677   0.633  -0.349  0.00  0.00     0.162 A 
ATOM      4  C3  UNL d   1      -0.640   0.173  -0.346  0.00  0.00    -0.034 A 
ATOM      5  C4  UNL d   1      -1.202  -0.277   0.850  0.00  0.00     0.162 A 
ATOM      6  C5  UNL d   1      -0.456  -0.263   2.024  0.00  0.00     0.062 A 
ATOM      7  F   UNL d   1      -1.004  -0.695   3.169  0.00  0.00    -0.097 F 
ATOM      8  F1  UNL d   1      -2.465  -0.726   0.888  0.00  0.00    -0.096 F 
ATOM      9  I   UNL d   1      -1.753   0.153  -2.105  0.00  0.00    -0.060 I 
ATOM     10  F2  UNL d   1       1.248   1.071  -1.480  0.00  0.00    -0.096 F 
ATOM     11  F3  UNL d   1       2.683   1.090   0.816  0.00  0.00    -0.097 F 
ATOM     12  F4  UNL d   1       1.570   0.210   3.146  0.00  0.00    -0.092 F 
ENDROOT
TORSDOF 0
ENDMDL
