MODEL 1
REMARK minimizedAffinity -0.264998227
REMARK minimizedRMSD -1
REMARK  0 active torsions:
REMARK  status: ('A' for Active; 'I' for Inactive)
ROOT
ATOM      1  C   UNL d   1      -1.010  -0.391   2.203  0.00  0.00     0.124 A 
ATOM      2  C1  UNL d   1       0.330  -0.029   2.205  0.00  0.00     0.062 A 
ATOM      3  C2  UNL d   1       1.029   0.072   1.007  0.00  0.00     0.162 A 
ATOM      4  C3  UNL d   1       0.390  -0.188  -0.206  0.00  0.00    -0.034 A 
ATOM      5  C4  UNL d   1      -0.957  -0.553  -0.200  0.00  0.00     0.162 A 
ATOM      6  C5  UNL d   1      -1.652  -0.653   1.001  0.00  0.00     0.062 A 
ATOM      7  F   UNL d   1      -2.947  -1.003   0.997  0.00  0.00    -0.097 F 
ATOM      8  F1  UNL d   1      -1.602  -0.811  -1.347  0.00  0.00    -0.096 F 
ATOM      9  I   UNL d   1       1.433  -0.038  -2.000  0.00  0.00    -0.060 I 
ATOM     10  F2  UNL d   1       2.323   0.425   1.039  0.00  0.00    -0.096 F 
ATOM     11  F3  UNL d   1       0.952   0.224   3.366  0.00  0.00    -0.097 F 
ATOM     12  F4  UNL d   1      -1.681  -0.489   3.358  0.00  0.00    -0.092 F 
ENDROOT
TORSDOF 0
ENDMDL
