MODEL 1
REMARK minimizedAffinity -2.23496675
REMARK minimizedRMSD -1
REMARK  0 active torsions:
REMARK  status: ('A' for Active; 'I' for Inactive)
ROOT
ATOM      1  C   UNL d   1      -1.054  -0.752   1.231  0.00  0.00     0.124 A 
ATOM      2  C1  UNL d   1       0.151  -1.388   0.968  0.00  0.00     0.062 A 
ATOM      3  C2  UNL d   1       0.779  -1.217  -0.263  0.00  0.00     0.162 A 
ATOM      4  C3  UNL d   1       0.202  -0.405  -1.240  0.00  0.00    -0.034 A 
ATOM      5  C4  UNL d   1      -1.011   0.230  -0.968  0.00  0.00     0.162 A 
ATOM      6  C5  UNL d   1      -1.634   0.056   0.264  0.00  0.00     0.062 A 
ATOM      7  F   UNL d   1      -2.798   0.671   0.516  0.00  0.00    -0.097 F 
ATOM      8  F1  UNL d   1      -1.593   1.017  -1.885  0.00  0.00    -0.096 F 
ATOM      9  I   UNL d   1       1.137  -0.147  -3.081  0.00  0.00    -0.060 I 
ATOM     10  F2  UNL d   1       1.943  -1.844  -0.490  0.00  0.00    -0.096 F 
ATOM     11  F3  UNL d   1       0.713  -2.170   1.901  0.00  0.00    -0.097 F 
ATOM     12  F4  UNL d   1      -1.656  -0.919   2.416  0.00  0.00    -0.092 F 
ENDROOT
TORSDOF 0
ENDMDL
