MODEL 1
REMARK minimizedAffinity 0.95207715
REMARK minimizedRMSD -1
REMARK  0 active torsions:
REMARK  status: ('A' for Active; 'I' for Inactive)
ROOT
ATOM      1  C   UNL d   1       0.819  -0.140   2.192  0.00  0.00     0.124 A 
ATOM      2  C1  UNL d   1      -0.547  -0.192   1.952  0.00  0.00     0.062 A 
ATOM      3  C2  UNL d   1      -1.032  -0.129   0.649  0.00  0.00     0.162 A 
ATOM      4  C3  UNL d   1      -0.150  -0.015  -0.426  0.00  0.00    -0.034 A 
ATOM      5  C4  UNL d   1       1.222   0.037  -0.177  0.00  0.00     0.162 A 
ATOM      6  C5  UNL d   1       1.702  -0.026   1.127  0.00  0.00     0.062 A 
ATOM      7  F   UNL d   1       3.022   0.024   1.357  0.00  0.00    -0.097 F 
ATOM      8  F1  UNL d   1       2.098   0.146  -1.187  0.00  0.00    -0.096 F 
ATOM      9  I   UNL d   1      -0.872   0.078  -2.376  0.00  0.00    -0.060 I 
ATOM     10  F2  UNL d   1      -2.357  -0.181   0.447  0.00  0.00    -0.096 F 
ATOM     11  F3  UNL d   1      -1.403  -0.301   2.979  0.00  0.00    -0.097 F 
ATOM     12  F4  UNL d   1       1.283  -0.199   3.446  0.00  0.00    -0.092 F 
ENDROOT
TORSDOF 0
ENDMDL
