MODEL 1
REMARK minimizedAffinity -3.18093753
REMARK minimizedRMSD -1
REMARK  0 active torsions:
REMARK  status: ('A' for Active; 'I' for Inactive)
ROOT
ATOM      1  C   UNL d   1       0.674   0.339   2.110  0.00  0.00     0.124 A 
ATOM      2  C1  UNL d   1       1.053   0.845   0.875  0.00  0.00     0.062 A 
ATOM      3  C2  UNL d   1       0.206   0.722  -0.222  0.00  0.00     0.162 A 
ATOM      4  C3  UNL d   1      -1.031   0.091  -0.089  0.00  0.00    -0.034 A 
ATOM      5  C4  UNL d   1      -1.405  -0.417   1.156  0.00  0.00     0.162 A 
ATOM      6  C5  UNL d   1      -0.555  -0.291   2.250  0.00  0.00     0.062 A 
ATOM      7  F   UNL d   1      -0.923  -0.781   3.443  0.00  0.00    -0.097 F 
ATOM      8  F1  UNL d   1      -2.587  -1.029   1.320  0.00  0.00    -0.096 F 
ATOM      9  I   UNL d   1      -2.301  -0.095  -1.727  0.00  0.00    -0.060 I 
ATOM     10  F2  UNL d   1       0.599   1.220  -1.404  0.00  0.00    -0.096 F 
ATOM     11  F3  UNL d   1       2.240   1.453   0.737  0.00  0.00    -0.097 F 
ATOM     12  F4  UNL d   1       1.492   0.458   3.164  0.00  0.00    -0.092 F 
ENDROOT
TORSDOF 0
ENDMDL
