MODEL 1
REMARK minimizedAffinity -3.60746813
REMARK minimizedRMSD -1
REMARK  0 active torsions:
REMARK  status: ('A' for Active; 'I' for Inactive)
ROOT
ATOM      1  C   UNL d   1      -1.198   0.290  -1.868  0.00  0.00     0.124 A 
ATOM      2  C1  UNL d   1      -2.303   0.107  -1.048  0.00  0.00     0.062 A 
ATOM      3  C2  UNL d   1      -2.133  -0.120   0.314  0.00  0.00     0.162 A 
ATOM      4  C3  UNL d   1      -0.853  -0.164   0.866  0.00  0.00    -0.034 A 
ATOM      5  C4  UNL d   1       0.253   0.020   0.035  0.00  0.00     0.162 A 
ATOM      6  C5  UNL d   1       0.078   0.247  -1.326  0.00  0.00     0.062 A 
ATOM      7  F   UNL d   1       1.147   0.423  -2.117  0.00  0.00    -0.097 F 
ATOM      8  F1  UNL d   1       1.499  -0.016   0.532  0.00  0.00    -0.096 F 
ATOM      9  I   UNL d   1      -0.594  -0.503   2.903  0.00  0.00    -0.060 I 
ATOM     10  F2  UNL d   1      -3.218  -0.293   1.083  0.00  0.00    -0.096 F 
ATOM     11  F3  UNL d   1      -3.538   0.148  -1.570  0.00  0.00    -0.097 F 
ATOM     12  F4  UNL d   1      -1.365   0.508  -3.179  0.00  0.00    -0.092 F 
ENDROOT
TORSDOF 0
ENDMDL
