MODEL 1
REMARK minimizedAffinity -3.84747982
REMARK minimizedRMSD -1
REMARK  0 active torsions:
REMARK  status: ('A' for Active; 'I' for Inactive)
ROOT
ATOM      1  C   UNL d   1       0.162   0.602   1.211  0.00  0.00     0.124 A 
ATOM      2  C1  UNL d   1      -0.551  -0.547   0.900  0.00  0.00     0.062 A 
ATOM      3  C2  UNL d   1      -0.504  -1.074  -0.388  0.00  0.00     0.162 A 
ATOM      4  C3  UNL d   1       0.260  -0.451  -1.375  0.00  0.00    -0.034 A 
ATOM      5  C4  UNL d   1       0.973   0.706  -1.055  0.00  0.00     0.162 A 
ATOM      6  C5  UNL d   1       0.923   1.228   0.233  0.00  0.00     0.062 A 
ATOM      7  F   UNL d   1       1.612   2.339   0.531  0.00  0.00    -0.097 F 
ATOM      8  F1  UNL d   1       1.718   1.330  -1.980  0.00  0.00    -0.096 F 
ATOM      9  I   UNL d   1       0.333  -1.235  -3.302  0.00  0.00    -0.060 I 
ATOM     10  F2  UNL d   1      -1.202  -2.186  -0.660  0.00  0.00    -0.096 F 
ATOM     11  F3  UNL d   1      -1.288  -1.153   1.842  0.00  0.00    -0.097 F 
ATOM     12  F4  UNL d   1       0.114   1.107   2.450  0.00  0.00    -0.092 F 
ENDROOT
TORSDOF 0
ENDMDL
