MODEL 1
REMARK minimizedAffinity 1.36338317
REMARK minimizedRMSD -1
REMARK  0 active torsions:
REMARK  status: ('A' for Active; 'I' for Inactive)
ROOT
ATOM      1  C   UNL d   1      -0.951  -0.490   2.188  0.00  0.00     0.124 A 
ATOM      2  C1  UNL d   1      -1.641  -0.524   0.984  0.00  0.00     0.062 A 
ATOM      3  C2  UNL d   1      -1.018  -0.116  -0.192  0.00  0.00     0.162 A 
ATOM      4  C3  UNL d   1       0.304   0.328  -0.170  0.00  0.00    -0.034 A 
ATOM      5  C4  UNL d   1       0.992   0.360   1.044  0.00  0.00     0.162 A 
ATOM      6  C5  UNL d   1       0.364  -0.048   2.217  0.00  0.00     0.062 A 
ATOM      7  F   UNL d   1       1.033  -0.015   3.379  0.00  0.00    -0.097 F 
ATOM      8  F1  UNL d   1       2.264   0.781   1.101  0.00  0.00    -0.096 F 
ATOM      9  I   UNL d   1       1.240   0.938  -1.926  0.00  0.00    -0.060 I 
ATOM     10  F2  UNL d   1      -1.709  -0.159  -1.340  0.00  0.00    -0.096 F 
ATOM     11  F3  UNL d   1      -2.912  -0.949   0.954  0.00  0.00    -0.097 F 
ATOM     12  F4  UNL d   1      -1.553  -0.882   3.318  0.00  0.00    -0.092 F 
ENDROOT
TORSDOF 0
ENDMDL
