MODEL 1
REMARK minimizedAffinity -0.667450726
REMARK minimizedRMSD -1
REMARK  0 active torsions:
REMARK  status: ('A' for Active; 'I' for Inactive)
ROOT
ATOM      1  C   UNL d   1       0.265   0.220   1.781  0.00  0.00     0.124 A 
ATOM      2  C1  UNL d   1      -0.441  -0.955   1.566  0.00  0.00     0.062 A 
ATOM      3  C2  UNL d   1      -0.488  -1.521   0.295  0.00  0.00     0.162 A 
ATOM      4  C3  UNL d   1       0.173  -0.912  -0.771  0.00  0.00    -0.034 A 
ATOM      5  C4  UNL d   1       0.880   0.271  -0.547  0.00  0.00     0.162 A 
ATOM      6  C5  UNL d   1       0.925   0.832   0.725  0.00  0.00     0.062 A 
ATOM      7  F   UNL d   1       1.607   1.968   0.931  0.00  0.00    -0.097 F 
ATOM      8  F1  UNL d   1       1.528   0.883  -1.550  0.00  0.00    -0.096 F 
ATOM      9  I   UNL d   1       0.105  -1.754  -2.673  0.00  0.00    -0.060 I 
ATOM     10  F2  UNL d   1      -1.178  -2.657   0.116  0.00  0.00    -0.096 F 
ATOM     11  F3  UNL d   1      -1.080  -1.548   2.585  0.00  0.00    -0.097 F 
ATOM     12  F4  UNL d   1       0.308   0.763   3.005  0.00  0.00    -0.092 F 
ENDROOT
TORSDOF 0
ENDMDL
