MODEL 1
REMARK minimizedAffinity -1.04121268
REMARK minimizedRMSD -1
REMARK  0 active torsions:
REMARK  status: ('A' for Active; 'I' for Inactive)
ROOT
ATOM      1  C   UNL d   1       0.293   0.216   1.946  0.00  0.00     0.124 A 
ATOM      2  C1  UNL d   1      -0.277  -1.023   1.687  0.00  0.00     0.062 A 
ATOM      3  C2  UNL d   1      -0.236  -1.557   0.402  0.00  0.00     0.162 A 
ATOM      4  C3  UNL d   1       0.377  -0.852  -0.634  0.00  0.00    -0.034 A 
ATOM      5  C4  UNL d   1       0.946   0.394  -0.365  0.00  0.00     0.162 A 
ATOM      6  C5  UNL d   1       0.903   0.923   0.920  0.00  0.00     0.062 A 
ATOM      7  F   UNL d   1       1.454   2.121   1.169  0.00  0.00    -0.097 F 
ATOM      8  F1  UNL d   1       1.544   1.099  -1.338  0.00  0.00    -0.096 F 
ATOM      9  I   UNL d   1       0.439  -1.646  -2.556  0.00  0.00    -0.060 I 
ATOM     10  F2  UNL d   1      -0.795  -2.756   0.180  0.00  0.00    -0.096 F 
ATOM     11  F3  UNL d   1      -0.868  -1.708   2.676  0.00  0.00    -0.097 F 
ATOM     12  F4  UNL d   1       0.251   0.728   3.183  0.00  0.00    -0.092 F 
ENDROOT
TORSDOF 0
ENDMDL
