MODEL 1
REMARK minimizedAffinity -1.11531091
REMARK minimizedRMSD -1
REMARK  0 active torsions:
REMARK  status: ('A' for Active; 'I' for Inactive)
ROOT
ATOM      1  C   UNL d   1       0.269   0.265   1.766  0.00  0.00     0.124 A 
ATOM      2  C1  UNL d   1      -0.447  -0.896   1.509  0.00  0.00     0.062 A 
ATOM      3  C2  UNL d   1      -0.508  -1.410   0.217  0.00  0.00     0.162 A 
ATOM      4  C3  UNL d   1       0.151  -0.764  -0.829  0.00  0.00    -0.034 A 
ATOM      5  C4  UNL d   1       0.869   0.403  -0.563  0.00  0.00     0.162 A 
ATOM      6  C5  UNL d   1       0.926   0.913   0.730  0.00  0.00     0.062 A 
ATOM      7  F   UNL d   1       1.618   2.035   0.976  0.00  0.00    -0.097 F 
ATOM      8  F1  UNL d   1       1.514   1.050  -1.546  0.00  0.00    -0.096 F 
ATOM      9  I   UNL d   1       0.063  -1.530  -2.762  0.00  0.00    -0.060 I 
ATOM     10  F2  UNL d   1      -1.207  -2.534  -0.002  0.00  0.00    -0.096 F 
ATOM     11  F3  UNL d   1      -1.084  -1.524   2.508  0.00  0.00    -0.097 F 
ATOM     12  F4  UNL d   1       0.324   0.758   3.009  0.00  0.00    -0.092 F 
ENDROOT
TORSDOF 0
ENDMDL
