MODEL 1
REMARK minimizedAffinity 14.4956379
REMARK minimizedRMSD -1
REMARK  0 active torsions:
REMARK  status: ('A' for Active; 'I' for Inactive)
ROOT
ATOM      1  C   UNL d   1       2.989   2.241   2.961  0.00  0.00     0.023 A 
ATOM      2  C1  UNL d   1       3.548   1.675   1.815  0.00  0.00     0.003 A 
ATOM      3  C2  UNL d   1       3.080   0.448   1.341  0.00  0.00     0.048 A 
ATOM      4  C3  UNL d   1       2.051  -0.207   2.017  0.00  0.00     0.023 A 
ATOM      5  C4  UNL d   1       1.488   0.355   3.163  0.00  0.00     0.048 A 
ATOM      6  C5  UNL d   1       1.960   1.582   3.634  0.00  0.00     0.003 A 
ATOM      7  I   UNL d   1       1.352  -2.034   1.313  0.00  0.00    -0.146 I 
ENDROOT
TORSDOF 0
ENDMDL
