MODEL 1
REMARK minimizedAffinity 12.7786932
REMARK minimizedRMSD -1
REMARK  0 active torsions:
REMARK  status: ('A' for Active; 'I' for Inactive)
ROOT
ATOM      1  C   UNL d   1      -1.716   0.134  -0.901  0.00  0.00     0.023 A 
ATOM      2  C1  UNL d   1      -1.863  -0.433  -2.167  0.00  0.00     0.003 A 
ATOM      3  C2  UNL d   1      -2.502   0.281  -3.184  0.00  0.00     0.048 A 
ATOM      4  C3  UNL d   1      -2.989   1.562  -2.927  0.00  0.00     0.023 A 
ATOM      5  C4  UNL d   1      -2.844   2.133  -1.662  0.00  0.00     0.048 A 
ATOM      6  C5  UNL d   1      -2.205   1.415  -0.649  0.00  0.00     0.003 A 
ATOM      7  I   UNL d   1      -3.940   2.626  -4.438  0.00  0.00    -0.146 I 
ENDROOT
TORSDOF 0
ENDMDL
