MODEL 1
REMARK minimizedAffinity 6.4938302
REMARK minimizedRMSD -1
REMARK  0 active torsions:
REMARK  status: ('A' for Active; 'I' for Inactive)
ROOT
ATOM      1  C   UNL d   1       1.962  -5.976   0.897  0.00  0.00     0.023 A 
ATOM      2  C1  UNL d   1       3.227  -5.960   0.310  0.00  0.00     0.003 A 
ATOM      3  C2  UNL d   1       3.353  -5.965  -1.081  0.00  0.00     0.048 A 
ATOM      4  C3  UNL d   1       2.209  -5.985  -1.878  0.00  0.00     0.023 A 
ATOM      5  C4  UNL d   1       0.941  -6.000  -1.295  0.00  0.00     0.048 A 
ATOM      6  C5  UNL d   1       0.820  -5.996   0.096  0.00  0.00     0.003 A 
ATOM      7  I   UNL d   1       2.394  -5.992  -3.949  0.00  0.00    -0.146 I 
ENDROOT
TORSDOF 0
ENDMDL
