MODEL 1
REMARK minimizedAffinity 10.1962852
REMARK minimizedRMSD -1
REMARK  0 active torsions:
REMARK  status: ('A' for Active; 'I' for Inactive)
ROOT
ATOM      1  C   UNL d   1      -4.010   1.426  -5.035  0.00  0.00     0.023 A 
ATOM      2  C1  UNL d   1      -4.182   2.428  -4.080  0.00  0.00     0.003 A 
ATOM      3  C2  UNL d   1      -3.666   2.265  -2.793  0.00  0.00     0.048 A 
ATOM      4  C3  UNL d   1      -2.977   1.097  -2.468  0.00  0.00     0.023 A 
ATOM      5  C4  UNL d   1      -2.801   0.092  -3.420  0.00  0.00     0.048 A 
ATOM      6  C5  UNL d   1      -3.320   0.259  -4.706  0.00  0.00     0.003 A 
ATOM      7  I   UNL d   1      -2.208   0.851  -0.553  0.00  0.00    -0.146 I 
ENDROOT
TORSDOF 0
ENDMDL
