MODEL 1
REMARK minimizedAffinity 3.53724408
REMARK minimizedRMSD -1
REMARK  0 active torsions:
REMARK  status: ('A' for Active; 'I' for Inactive)
ROOT
ATOM      1  C   UNL d   1       3.198  -4.598   4.385  0.00  0.00     0.023 A 
ATOM      2  C1  UNL d   1       2.291  -4.483   3.332  0.00  0.00     0.003 A 
ATOM      3  C2  UNL d   1       1.989  -3.226   2.803  0.00  0.00     0.048 A 
ATOM      4  C3  UNL d   1       2.599  -2.089   3.332  0.00  0.00     0.023 A 
ATOM      5  C4  UNL d   1       3.507  -2.199   4.386  0.00  0.00     0.048 A 
ATOM      6  C5  UNL d   1       3.805  -3.458   4.912  0.00  0.00     0.003 A 
ATOM      7  I   UNL d   1       2.151  -0.217   2.546  0.00  0.00    -0.146 I 
ENDROOT
TORSDOF 0
ENDMDL
