MODEL 1
REMARK minimizedAffinity -1.83115435
REMARK minimizedRMSD -1
REMARK  0 active torsions:
REMARK  status: ('A' for Active; 'I' for Inactive)
ROOT
ATOM      1  C   UNL d   1       3.872  -5.975  -5.701  0.00  0.00     0.023 A 
ATOM      2  C1  UNL d   1       4.688  -5.989  -4.570  0.00  0.00     0.003 A 
ATOM      3  C2  UNL d   1       4.117  -5.996  -3.296  0.00  0.00     0.048 A 
ATOM      4  C3  UNL d   1       2.729  -5.989  -3.160  0.00  0.00     0.023 A 
ATOM      5  C4  UNL d   1       1.909  -5.976  -4.289  0.00  0.00     0.048 A 
ATOM      6  C5  UNL d   1       2.484  -5.968  -5.561  0.00  0.00     0.003 A 
ATOM      7  I   UNL d   1       1.877  -6.000  -1.264  0.00  0.00    -0.146 I 
ENDROOT
TORSDOF 0
ENDMDL
