MODEL 1
REMARK minimizedAffinity 4.4289422
REMARK minimizedRMSD -1
REMARK  0 active torsions:
REMARK  status: ('A' for Active; 'I' for Inactive)
ROOT
ATOM      1  C   UNL d   1       3.672  -5.997  -4.176  0.00  0.00     0.023 A 
ATOM      2  C1  UNL d   1       2.277  -5.993  -4.203  0.00  0.00     0.003 A 
ATOM      3  C2  UNL d   1       1.554  -5.987  -3.009  0.00  0.00     0.048 A 
ATOM      4  C3  UNL d   1       2.231  -5.985  -1.790  0.00  0.00     0.023 A 
ATOM      5  C4  UNL d   1       3.627  -5.988  -1.758  0.00  0.00     0.048 A 
ATOM      6  C5  UNL d   1       4.346  -5.995  -2.954  0.00  0.00     0.003 A 
ATOM      7  I   UNL d   1       1.157  -5.976  -0.011  0.00  0.00    -0.146 I 
ENDROOT
TORSDOF 0
ENDMDL
