MODEL 1
REMARK minimizedAffinity 1.86848629
REMARK minimizedRMSD -1
REMARK  0 active torsions:
REMARK  status: ('A' for Active; 'I' for Inactive)
ROOT
ATOM      1  C   UNL d   1       4.511  -5.859  -2.616  0.00  0.00     0.023 A 
ATOM      2  C1  UNL d   1       3.165  -5.799  -2.977  0.00  0.00     0.003 A 
ATOM      3  C2  UNL d   1       2.174  -5.839  -1.994  0.00  0.00     0.048 A 
ATOM      4  C3  UNL d   1       2.536  -5.939  -0.651  0.00  0.00     0.023 A 
ATOM      5  C4  UNL d   1       3.882  -5.999  -0.285  0.00  0.00     0.048 A 
ATOM      6  C5  UNL d   1       4.869  -5.959  -1.271  0.00  0.00     0.003 A 
ATOM      7  I   UNL d   1       1.064  -6.000   0.814  0.00  0.00    -0.146 I 
ENDROOT
TORSDOF 0
ENDMDL
