MODEL 1
REMARK minimizedAffinity 6.80418444
REMARK minimizedRMSD -1
REMARK  0 active torsions:
REMARK  status: ('A' for Active; 'I' for Inactive)
ROOT
ATOM      1  C   UNL d   1       4.362  -5.993  -4.348  0.00  0.00     0.023 A 
ATOM      2  C1  UNL d   1       2.978  -5.995  -4.520  0.00  0.00     0.003 A 
ATOM      3  C2  UNL d   1       2.134  -5.995  -3.407  0.00  0.00     0.048 A 
ATOM      4  C3  UNL d   1       2.682  -5.992  -2.125  0.00  0.00     0.023 A 
ATOM      5  C4  UNL d   1       4.067  -5.989  -1.948  0.00  0.00     0.048 A 
ATOM      6  C5  UNL d   1       4.906  -5.991  -3.063  0.00  0.00     0.003 A 
ATOM      7  I   UNL d   1       1.429  -5.991  -0.467  0.00  0.00    -0.146 I 
ENDROOT
TORSDOF 0
ENDMDL
