MODEL 1
REMARK minimizedAffinity 6.25532675
REMARK minimizedRMSD -1
REMARK  0 active torsions:
REMARK  status: ('A' for Active; 'I' for Inactive)
ROOT
ATOM      1  C   UNL d   1       1.248   2.879   1.617  0.00  0.00     0.023 A 
ATOM      2  C1  UNL d   1       2.214   2.099   0.980  0.00  0.00     0.003 A 
ATOM      3  C2  UNL d   1       1.831   0.985   0.231  0.00  0.00     0.048 A 
ATOM      4  C3  UNL d   1       0.480   0.657   0.122  0.00  0.00     0.023 A 
ATOM      5  C4  UNL d   1      -0.490   1.434   0.756  0.00  0.00     0.048 A 
ATOM      6  C5  UNL d   1      -0.102   2.547   1.505  0.00  0.00     0.003 A 
ATOM      7  I   UNL d   1      -0.093  -1.001  -0.993  0.00  0.00    -0.146 I 
ENDROOT
TORSDOF 0
ENDMDL
