MODEL 1
REMARK minimizedAffinity -0.193833038
REMARK minimizedRMSD -1
REMARK  1 active torsions:
REMARK  status: ('A' for Active; 'I' for Inactive)
REMARK    1  A    between atoms: C1_2  and  C2_3 
ROOT
ATOM      1  C2  UNL d   1      -0.004   0.428  -2.639  0.00  0.00    -0.081 A 
ATOM      2  C3  UNL d   1      -0.742   1.437  -2.008  0.00  0.00     0.006 A 
ATOM      3  C4  UNL d   1      -0.367   1.904  -0.746  0.00  0.00     0.002 A 
ATOM      4  C5  UNL d   1       0.755   1.377  -0.098  0.00  0.00    -0.080 A 
ATOM      5  C6  UNL d   1       1.186   1.891   1.244  0.00  0.00     0.076 C 
ATOM      6  C7  UNL d   1       1.482   0.357  -0.721  0.00  0.00     0.002 A 
ATOM      7  C8  UNL d   1       1.108  -0.111  -1.982  0.00  0.00     0.006 A 
ENDROOT
BRANCH   1   8
ATOM      8  C1  UNL d   1      -0.367  -0.032  -4.028  0.00  0.00     0.054 C 
ATOM      9  C   UNL d   1      -1.476  -1.074  -3.993  0.00  0.00     0.018 C 
ENDBRANCH   1   8
TORSDOF 1
ENDMDL
