MODEL 1
REMARK minimizedAffinity 14.5740938
REMARK minimizedRMSD -1
REMARK  1 active torsions:
REMARK  status: ('A' for Active; 'I' for Inactive)
REMARK    1  A    between atoms: C1_2  and  C2_3 
ROOT
ATOM      1  C2  UNL d   1       0.256   2.315  -0.105  0.00  0.00    -0.081 A 
ATOM      2  C3  UNL d   1       0.402   1.416  -1.169  0.00  0.00     0.006 A 
ATOM      3  C4  UNL d   1       1.245   0.309  -1.051  0.00  0.00     0.002 A 
ATOM      4  C5  UNL d   1       1.950   0.077   0.135  0.00  0.00    -0.080 A 
ATOM      5  C6  UNL d   1       2.835  -1.124   0.287  0.00  0.00     0.076 C 
ATOM      6  C7  UNL d   1       1.818   0.985   1.192  0.00  0.00     0.002 A 
ATOM      7  C8  UNL d   1       0.975   2.092   1.074  0.00  0.00     0.006 A 
ENDROOT
BRANCH   1   8
ATOM      8  C1  UNL d   1      -0.702   3.474  -0.207  0.00  0.00     0.054 C 
ATOM      9  C   UNL d   1      -2.058   3.125   0.391  0.00  0.00     0.018 C 
ENDBRANCH   1   8
TORSDOF 1
ENDMDL
