MODEL 1
REMARK minimizedAffinity 1.33365667
REMARK minimizedRMSD -1
REMARK  1 active torsions:
REMARK  status: ('A' for Active; 'I' for Inactive)
REMARK    1  A    between atoms: C1_2  and  C2_3 
ROOT
ATOM      1  C2  UNL d   1      -4.983   2.278  -4.096  0.00  0.00    -0.081 A 
ATOM      2  C3  UNL d   1      -5.212   2.823  -5.366  0.00  0.00     0.006 A 
ATOM      3  C4  UNL d   1      -4.242   3.620  -5.980  0.00  0.00     0.002 A 
ATOM      4  C5  UNL d   1      -3.026   3.878  -5.338  0.00  0.00    -0.080 A 
ATOM      5  C6  UNL d   1      -1.965   4.707  -5.999  0.00  0.00     0.076 C 
ATOM      6  C7  UNL d   1      -2.804   3.348  -4.063  0.00  0.00     0.002 A 
ATOM      7  C8  UNL d   1      -3.774   2.552  -3.449  0.00  0.00     0.006 A 
ENDROOT
BRANCH   1   8
ATOM      8  C1  UNL d   1      -6.000   1.366  -3.460  0.00  0.00     0.054 C 
ATOM      9  C   UNL d   1      -5.336   0.364  -2.525  0.00  0.00     0.018 C 
ENDBRANCH   1   8
TORSDOF 1
ENDMDL
