MODEL 1
REMARK minimizedAffinity 9.91500664
REMARK minimizedRMSD -1
REMARK  1 active torsions:
REMARK  status: ('A' for Active; 'I' for Inactive)
REMARK    1  A    between atoms: C1_2  and  C2_3 
ROOT
ATOM      1  C2  UNL d   1       0.436   3.859  -0.418  0.00  0.00    -0.081 A 
ATOM      2  C3  UNL d   1       1.428   3.663   0.551  0.00  0.00     0.006 A 
ATOM      3  C4  UNL d   1       1.719   2.378   1.016  0.00  0.00     0.002 A 
ATOM      4  C5  UNL d   1       1.030   1.268   0.515  0.00  0.00    -0.080 A 
ATOM      5  C6  UNL d   1       1.354  -0.119   0.984  0.00  0.00     0.076 C 
ATOM      6  C7  UNL d   1       0.026   1.466  -0.439  0.00  0.00     0.002 A 
ATOM      7  C8  UNL d   1      -0.266   2.750  -0.904  0.00  0.00     0.006 A 
ENDROOT
BRANCH   1   8
ATOM      8  C1  UNL d   1       0.164   5.235  -0.969  0.00  0.00     0.054 C 
ATOM      9  C   UNL d   1       1.458   5.962  -1.306  0.00  0.00     0.018 C 
ENDBRANCH   1   8
TORSDOF 1
ENDMDL
