MODEL 1
REMARK minimizedAffinity 6.8268013
REMARK minimizedRMSD -1
REMARK  1 active torsions:
REMARK  status: ('A' for Active; 'I' for Inactive)
REMARK    1  A    between atoms: C1_2  and  C2_3 
ROOT
ATOM      1  C2  UNL d   1       0.384   2.523  -0.641  0.00  0.00    -0.081 A 
ATOM      2  C3  UNL d   1       0.505   2.239   0.725  0.00  0.00     0.006 A 
ATOM      3  C4  UNL d   1       0.869   0.960   1.152  0.00  0.00     0.002 A 
ATOM      4  C5  UNL d   1       1.126  -0.054   0.222  0.00  0.00    -0.080 A 
ATOM      5  C6  UNL d   1       1.547  -1.423   0.667  0.00  0.00     0.076 C 
ATOM      6  C7  UNL d   1       0.987   0.225  -1.142  0.00  0.00     0.002 A 
ATOM      7  C8  UNL d   1       0.623   1.504  -1.570  0.00  0.00     0.006 A 
ENDROOT
BRANCH   1   8
ATOM      8  C1  UNL d   1       0.055   3.918  -1.108  0.00  0.00     0.054 C 
ATOM      9  C   UNL d   1       1.318   4.720  -1.388  0.00  0.00     0.018 C 
ENDBRANCH   1   8
TORSDOF 1
ENDMDL
