MODEL 1
REMARK minimizedAffinity 14.0810661
REMARK minimizedRMSD -1
REMARK  1 active torsions:
REMARK  status: ('A' for Active; 'I' for Inactive)
REMARK    1  A    between atoms: C1_2  and  C2_3 
ROOT
ATOM      1  C2  UNL d   1       2.746  -1.214   2.972  0.00  0.00    -0.081 A 
ATOM      2  C3  UNL d   1       4.128  -1.073   2.800  0.00  0.00     0.006 A 
ATOM      3  C4  UNL d   1       5.014  -1.521   3.783  0.00  0.00     0.002 A 
ATOM      4  C5  UNL d   1       4.533  -2.124   4.950  0.00  0.00    -0.080 A 
ATOM      5  C6  UNL d   1       5.474  -2.637   6.000  0.00  0.00     0.076 C 
ATOM      6  C7  UNL d   1       3.151  -2.250   5.130  0.00  0.00     0.002 A 
ATOM      7  C8  UNL d   1       2.265  -1.801   4.148  0.00  0.00     0.006 A 
ENDROOT
BRANCH   1   8
ATOM      8  C1  UNL d   1       1.791  -0.791   1.885  0.00  0.00     0.054 C 
ATOM      9  C   UNL d   1       2.480  -0.751   0.529  0.00  0.00     0.018 C 
ENDBRANCH   1   8
TORSDOF 1
ENDMDL
