MODEL 1
REMARK minimizedAffinity 4.14437342
REMARK minimizedRMSD -1
REMARK  1 active torsions:
REMARK  status: ('A' for Active; 'I' for Inactive)
REMARK    1  A    between atoms: C1_2  and  C2_3 
ROOT
ATOM      1  C2  UNL d   1      -4.102   4.555  -5.175  0.00  0.00    -0.081 A 
ATOM      2  C3  UNL d   1      -3.448   3.954  -4.092  0.00  0.00     0.006 A 
ATOM      3  C4  UNL d   1      -4.064   2.926  -3.375  0.00  0.00     0.002 A 
ATOM      4  C5  UNL d   1      -5.339   2.476  -3.733  0.00  0.00    -0.080 A 
ATOM      5  C6  UNL d   1      -5.999   1.353  -2.989  0.00  0.00     0.076 C 
ATOM      6  C7  UNL d   1      -6.000   3.088  -4.803  0.00  0.00     0.002 A 
ATOM      7  C8  UNL d   1      -5.385   4.116  -5.521  0.00  0.00     0.006 A 
ENDROOT
BRANCH   1   8
ATOM      8  C1  UNL d   1      -3.414   5.619  -5.992  0.00  0.00     0.054 C 
ATOM      9  C   UNL d   1      -1.905   5.421  -5.999  0.00  0.00     0.018 C 
ENDBRANCH   1   8
TORSDOF 1
ENDMDL
