MODEL 1
REMARK minimizedAffinity -2.74489021
REMARK minimizedRMSD -1
REMARK  0 active torsions:
REMARK  status: ('A' for Active; 'I' for Inactive)
ROOT
ATOM      1  C   UNL d   1       1.070   0.746  -0.054  0.00  0.00     0.172 C 
ATOM      2  N   UNL d   1       2.183   1.510   0.460  0.00  0.00    -0.070 N 
ATOM      3  C1  UNL d   1       3.044   2.267  -0.288  0.00  0.00    -0.004 A 
ATOM      4  C2  UNL d   1       3.962   2.834   0.571  0.00  0.00    -0.047 A 
ATOM      5  C3  UNL d   1       3.642   2.400   1.879  0.00  0.00    -0.047 A 
ATOM      6  C4  UNL d   1       2.536   1.582   1.782  0.00  0.00    -0.004 A 
ENDROOT
TORSDOF 0
ENDMDL
