MODEL 1
REMARK minimizedAffinity -2.86757684
REMARK minimizedRMSD -1
REMARK  0 active torsions:
REMARK  status: ('A' for Active; 'I' for Inactive)
ROOT
ATOM      1  C   UNL d   1       1.552  -0.209  -0.024  0.00  0.00     0.172 C 
ATOM      2  N   UNL d   1       2.123   1.076   0.308  0.00  0.00    -0.070 N 
ATOM      3  C1  UNL d   1       2.885   1.850  -0.525  0.00  0.00    -0.004 A 
ATOM      4  C2  UNL d   1       3.234   2.993   0.162  0.00  0.00    -0.047 A 
ATOM      5  C3  UNL d   1       2.662   2.901   1.454  0.00  0.00    -0.047 A 
ATOM      6  C4  UNL d   1       1.981   1.705   1.517  0.00  0.00    -0.004 A 
ENDROOT
TORSDOF 0
ENDMDL
