MODEL 1
REMARK minimizedAffinity 0.281744093
REMARK minimizedRMSD -1
REMARK  0 active torsions:
REMARK  status: ('A' for Active; 'I' for Inactive)
ROOT
ATOM      1  C   UNL d   1       1.221   0.095  -0.311  0.00  0.00     0.172 C 
ATOM      2  N   UNL d   1      -0.067   0.039  -0.964  0.00  0.00    -0.070 N 
ATOM      3  C1  UNL d   1      -1.189  -0.565  -0.463  0.00  0.00    -0.004 A 
ATOM      4  C2  UNL d   1      -2.203  -0.399  -1.382  0.00  0.00    -0.047 A 
ATOM      5  C3  UNL d   1      -1.671   0.330  -2.472  0.00  0.00    -0.047 A 
ATOM      6  C4  UNL d   1      -0.347   0.588  -2.187  0.00  0.00    -0.004 A 
ENDROOT
TORSDOF 0
ENDMDL
