MODEL 1
REMARK minimizedAffinity -3.15026045
REMARK minimizedRMSD -1
REMARK  0 active torsions:
REMARK  status: ('A' for Active; 'I' for Inactive)
ROOT
ATOM      1  C   UNL d   1       1.263  -0.003   0.018  0.00  0.00     0.172 C 
ATOM      2  N   UNL d   1      -0.113  -0.319  -0.283  0.00  0.00    -0.070 N 
ATOM      3  C1  UNL d   1      -0.931  -1.119   0.468  0.00  0.00    -0.004 A 
ATOM      4  C2  UNL d   1      -2.160  -1.169  -0.154  0.00  0.00    -0.047 A 
ATOM      5  C3  UNL d   1      -2.077  -0.372  -1.320  0.00  0.00    -0.047 A 
ATOM      6  C4  UNL d   1      -0.799   0.142  -1.376  0.00  0.00    -0.004 A 
ENDROOT
TORSDOF 0
ENDMDL
