MODEL 1
REMARK minimizedAffinity -2.68059349
REMARK minimizedRMSD -1
REMARK  0 active torsions:
REMARK  status: ('A' for Active; 'I' for Inactive)
ROOT
ATOM      1  C   UNL d   1       3.988   4.217  -1.181  0.00  0.00     0.172 C 
ATOM      2  N   UNL d   1       3.288   3.332  -0.280  0.00  0.00    -0.070 N 
ATOM      3  C1  UNL d   1       2.404   3.719   0.692  0.00  0.00    -0.004 A 
ATOM      4  C2  UNL d   1       1.956   2.583   1.332  0.00  0.00    -0.047 A 
ATOM      5  C3  UNL d   1       2.594   1.476   0.724  0.00  0.00    -0.047 A 
ATOM      6  C4  UNL d   1       3.413   1.968  -0.270  0.00  0.00    -0.004 A 
ENDROOT
TORSDOF 0
ENDMDL
