MODEL 1
REMARK minimizedAffinity -1.57195854
REMARK minimizedRMSD -1
REMARK  0 active torsions:
REMARK  status: ('A' for Active; 'I' for Inactive)
ROOT
ATOM      1  C   UNL d   1       1.616   2.386   1.084  0.00  0.00     0.172 C 
ATOM      2  N   UNL d   1       0.885   1.468   0.243  0.00  0.00    -0.070 N 
ATOM      3  C1  UNL d   1       1.255   0.181  -0.045  0.00  0.00    -0.004 A 
ATOM      4  C2  UNL d   1       0.296  -0.358  -0.875  0.00  0.00    -0.047 A 
ATOM      5  C3  UNL d   1      -0.684   0.639  -1.095  0.00  0.00    -0.047 A 
ATOM      6  C4  UNL d   1      -0.294   1.759  -0.391  0.00  0.00    -0.004 A 
ENDROOT
TORSDOF 0
ENDMDL
