MODEL 1
REMARK minimizedAffinity -1.57876861
REMARK minimizedRMSD -1
REMARK  0 active torsions:
REMARK  status: ('A' for Active; 'I' for Inactive)
ROOT
ATOM      1  C   UNL d   1       1.126   0.447   0.418  0.00  0.00     0.172 C 
ATOM      2  N   UNL d   1       1.876   1.609   0.834  0.00  0.00    -0.070 N 
ATOM      3  C1  UNL d   1       2.690   2.363   0.032  0.00  0.00    -0.004 A 
ATOM      4  C2  UNL d   1       3.220   3.376   0.801  0.00  0.00    -0.047 A 
ATOM      5  C3  UNL d   1       2.708   3.224   2.112  0.00  0.00    -0.047 A 
ATOM      6  C4  UNL d   1       1.879   2.123   2.104  0.00  0.00    -0.004 A 
ENDROOT
TORSDOF 0
ENDMDL
