MODEL 1
REMARK minimizedAffinity -2.16229892
REMARK minimizedRMSD -1
REMARK  0 active torsions:
REMARK  status: ('A' for Active; 'I' for Inactive)
ROOT
ATOM      1  C   UNL d   1       0.862  -1.055   1.037  0.00  0.00     0.172 C 
ATOM      2  N   UNL d   1       0.013  -0.605  -0.041  0.00  0.00    -0.070 N 
ATOM      3  C1  UNL d   1      -1.338  -0.806  -0.131  0.00  0.00    -0.004 A 
ATOM      4  C2  UNL d   1      -1.775  -0.225  -1.302  0.00  0.00    -0.047 A 
ATOM      5  C3  UNL d   1      -0.646   0.344  -1.939  0.00  0.00    -0.047 A 
ATOM      6  C4  UNL d   1       0.447   0.094  -1.137  0.00  0.00    -0.004 A 
ENDROOT
TORSDOF 0
ENDMDL
