MODEL 1
REMARK minimizedAffinity -0.182718903
REMARK minimizedRMSD -1
REMARK  0 active torsions:
REMARK  status: ('A' for Active; 'I' for Inactive)
ROOT
ATOM      1  C   UNL d   1       1.706  -0.064   0.322  0.00  0.00     0.172 C 
ATOM      2  N   UNL d   1       2.177   1.280   0.558  0.00  0.00    -0.070 N 
ATOM      3  C1  UNL d   1       2.300   1.879   1.783  0.00  0.00    -0.004 A 
ATOM      4  C2  UNL d   1       2.781   3.155   1.582  0.00  0.00    -0.047 A 
ATOM      5  C3  UNL d   1       2.952   3.329   0.188  0.00  0.00    -0.047 A 
ATOM      6  C4  UNL d   1       2.571   2.153  -0.422  0.00  0.00    -0.004 A 
ENDROOT
TORSDOF 0
ENDMDL
