MODEL 1
REMARK minimizedAffinity -2.46521139
REMARK minimizedRMSD -1
REMARK  0 active torsions:
REMARK  status: ('A' for Active; 'I' for Inactive)
ROOT
ATOM      1  C   UNL d   1      -0.043   0.183  -0.148  0.00  0.00     0.172 C 
ATOM      2  N   UNL d   1      -1.156  -0.736  -0.204  0.00  0.00    -0.070 N 
ATOM      3  C1  UNL d   1      -2.346  -0.511  -0.842  0.00  0.00    -0.004 A 
ATOM      4  C2  UNL d   1      -3.138  -1.624  -0.664  0.00  0.00    -0.047 A 
ATOM      5  C3  UNL d   1      -2.399  -2.550   0.110  0.00  0.00    -0.047 A 
ATOM      6  C4  UNL d   1      -1.175  -1.975   0.381  0.00  0.00    -0.004 A 
ENDROOT
TORSDOF 0
ENDMDL
