MODEL 1
REMARK minimizedAffinity -1.68053961
REMARK minimizedRMSD -1
REMARK  0 active torsions:
REMARK  status: ('A' for Active; 'I' for Inactive)
ROOT
ATOM      1  C   UNL d   1       1.010   0.094   0.057  0.00  0.00     0.172 C 
ATOM      2  N   UNL d   1       1.713   1.297   0.435  0.00  0.00    -0.070 N 
ATOM      3  C1  UNL d   1       1.612   1.935   1.642  0.00  0.00    -0.004 A 
ATOM      4  C2  UNL d   1       2.437   3.038   1.607  0.00  0.00    -0.047 A 
ATOM      5  C3  UNL d   1       3.056   3.064   0.334  0.00  0.00    -0.047 A 
ATOM      6  C4  UNL d   1       2.590   1.974  -0.371  0.00  0.00    -0.004 A 
ENDROOT
TORSDOF 0
ENDMDL
