MODEL 1
REMARK minimizedAffinity -3.07508922
REMARK minimizedRMSD -1
REMARK  0 active torsions:
REMARK  status: ('A' for Active; 'I' for Inactive)
ROOT
ATOM      1  C   UNL d   1       1.879  -0.413   1.100  0.00  0.00     0.172 C 
ATOM      2  N   UNL d   1       2.279   0.969   1.221  0.00  0.00    -0.070 N 
ATOM      3  C1  UNL d   1       2.213   1.722   2.363  0.00  0.00    -0.004 A 
ATOM      4  C2  UNL d   1       2.686   2.982   2.066  0.00  0.00    -0.047 A 
ATOM      5  C3  UNL d   1       3.048   2.987   0.697  0.00  0.00    -0.047 A 
ATOM      6  C4  UNL d   1       2.785   1.728   0.199  0.00  0.00    -0.004 A 
ENDROOT
TORSDOF 0
ENDMDL
