MODEL 1
REMARK minimizedAffinity -3.28412724
REMARK minimizedRMSD -1
REMARK  0 active torsions:
REMARK  status: ('A' for Active; 'I' for Inactive)
ROOT
ATOM      1  C   UNL d   1      -2.109  -0.278  -1.093  0.00  0.00     0.172 C 
ATOM      2  N   UNL d   1      -0.748  -0.047  -0.669  0.00  0.00    -0.070 N 
ATOM      3  C1  UNL d   1      -0.207  -0.439   0.526  0.00  0.00    -0.004 A 
ATOM      4  C2  UNL d   1       1.110  -0.033   0.547  0.00  0.00    -0.047 A 
ATOM      5  C3  UNL d   1       1.369   0.627  -0.678  0.00  0.00    -0.047 A 
ATOM      6  C4  UNL d   1       0.201   0.604  -1.412  0.00  0.00    -0.004 A 
ENDROOT
TORSDOF 0
ENDMDL
