MODEL 1
REMARK minimizedAffinity -2.63416815
REMARK minimizedRMSD -1
REMARK  0 active torsions:
REMARK  status: ('A' for Active; 'I' for Inactive)
ROOT
ATOM      1  C   UNL d   1       1.133   0.453   0.220  0.00  0.00     0.172 C 
ATOM      2  N   UNL d   1      -0.167   0.134  -0.320  0.00  0.00    -0.070 N 
ATOM      3  C1  UNL d   1      -1.054  -0.764   0.211  0.00  0.00    -0.004 A 
ATOM      4  C2  UNL d   1      -2.173  -0.779  -0.595  0.00  0.00    -0.047 A 
ATOM      5  C3  UNL d   1      -1.949   0.141  -1.647  0.00  0.00    -0.047 A 
ATOM      6  C4  UNL d   1      -0.700   0.692  -1.452  0.00  0.00    -0.004 A 
ENDROOT
TORSDOF 0
ENDMDL
