MODEL 1
REMARK minimizedAffinity -1.89033461
REMARK minimizedRMSD -1
REMARK  0 active torsions:
REMARK  status: ('A' for Active; 'I' for Inactive)
ROOT
ATOM      1  C   UNL d   1       0.971   0.066   0.386  0.00  0.00     0.172 C 
ATOM      2  N   UNL d   1       1.822   1.199   0.666  0.00  0.00    -0.070 N 
ATOM      3  C1  UNL d   1       2.011   1.771   1.895  0.00  0.00    -0.004 A 
ATOM      4  C2  UNL d   1       2.892   2.820   1.742  0.00  0.00    -0.047 A 
ATOM      5  C3  UNL d   1       3.243   2.881   0.372  0.00  0.00    -0.047 A 
ATOM      6  C4  UNL d   1       2.566   1.866  -0.271  0.00  0.00    -0.004 A 
ENDROOT
TORSDOF 0
ENDMDL
