MODEL 1
REMARK minimizedAffinity -0.435491234
REMARK minimizedRMSD -1
REMARK  0 active torsions:
REMARK  status: ('A' for Active; 'I' for Inactive)
ROOT
ATOM      1  C   UNL d   1      -0.319   0.362  -0.554  0.00  0.00     0.172 C 
ATOM      2  N   UNL d   1      -1.119  -0.789  -0.210  0.00  0.00    -0.070 N 
ATOM      3  C1  UNL d   1      -0.835  -1.691   0.781  0.00  0.00    -0.004 A 
ATOM      4  C2  UNL d   1      -1.839  -2.636   0.791  0.00  0.00    -0.047 A 
ATOM      5  C3  UNL d   1      -2.757  -2.290  -0.229  0.00  0.00    -0.047 A 
ATOM      6  C4  UNL d   1      -2.287  -1.143  -0.832  0.00  0.00    -0.004 A 
ENDROOT
TORSDOF 0
ENDMDL
