MODEL 1
REMARK minimizedAffinity -2.19436359
REMARK minimizedRMSD -1
REMARK  0 active torsions:
REMARK  status: ('A' for Active; 'I' for Inactive)
ROOT
ATOM      1  C   UNL d   1       3.821   4.503  -1.197  0.00  0.00     0.172 C 
ATOM      2  N   UNL d   1       3.369   3.537  -0.223  0.00  0.00    -0.070 N 
ATOM      3  C1  UNL d   1       3.142   3.788   1.104  0.00  0.00    -0.004 A 
ATOM      4  C2  UNL d   1       2.722   2.613   1.690  0.00  0.00    -0.047 A 
ATOM      5  C3  UNL d   1       2.697   1.622   0.680  0.00  0.00    -0.047 A 
ATOM      6  C4  UNL d   1       3.102   2.221  -0.494  0.00  0.00    -0.004 A 
ENDROOT
TORSDOF 0
ENDMDL
