MODEL 1
REMARK minimizedAffinity -3.87082362
REMARK minimizedRMSD -1
REMARK  0 active torsions:
REMARK  status: ('A' for Active; 'I' for Inactive)
ROOT
ATOM      1  O1  BZF d   1       0.387  -1.965  -2.411  0.00  0.00    -0.204 OA
ATOM      2  C2  BZF d   1       0.416  -3.055  -1.562  0.00  0.00     0.174 A 
ATOM      3  C3  BZF d   1       0.519  -2.658  -0.277  0.00  0.00    -0.012 A 
ATOM      4  C3A BZF d   1       0.463  -1.229  -0.319  0.00  0.00    -0.107 A 
ATOM      5  C4  BZF d   1       0.500  -0.259   0.642  0.00  0.00     0.055 A 
ATOM      6  C5  BZF d   1       0.498   1.046   0.264  0.00  0.00    -0.016 A 
ATOM      7  C6  BZF d   1       0.465   1.417  -1.064  0.00  0.00     0.022 A 
ATOM      8  C7  BZF d   1       0.422   0.491  -2.053  0.00  0.00     0.029 A 
ATOM      9  C7A BZF d   1       0.391  -0.828  -1.673  0.00  0.00     0.058 A 
ENDROOT
TORSDOF 0
ENDMDL
