MODEL 1
REMARK minimizedAffinity -2.48960781
REMARK minimizedRMSD -1
REMARK  0 active torsions:
REMARK  status: ('A' for Active; 'I' for Inactive)
ROOT
ATOM      1  O1  BZF d   1      -0.032  -0.619  -2.052  0.00  0.00    -0.204 OA
ATOM      2  C2  BZF d   1       0.211   0.714  -1.782  0.00  0.00     0.174 A 
ATOM      3  C3  BZF d   1      -0.083   1.004  -0.498  0.00  0.00    -0.012 A 
ATOM      4  C3A BZF d   1      -0.451  -0.245   0.095  0.00  0.00    -0.107 A 
ATOM      5  C4  BZF d   1      -0.834  -0.611   1.354  0.00  0.00     0.055 A 
ATOM      6  C5  BZF d   1      -1.196  -1.900   1.586  0.00  0.00    -0.016 A 
ATOM      7  C6  BZF d   1      -1.192  -2.847   0.583  0.00  0.00     0.022 A 
ATOM      8  C7  BZF d   1      -0.816  -2.533  -0.680  0.00  0.00     0.029 A 
ATOM      9  C7A BZF d   1      -0.418  -1.239  -0.911  0.00  0.00     0.058 A 
ENDROOT
TORSDOF 0
ENDMDL
