MODEL 1
REMARK minimizedAffinity -4.27139807
REMARK minimizedRMSD -1
REMARK  0 active torsions:
REMARK  status: ('A' for Active; 'I' for Inactive)
ROOT
ATOM      1  O1  BZF d   1       0.172   0.095  -1.628  0.00  0.00    -0.204 OA
ATOM      2  C2  BZF d   1       0.348   1.218  -0.842  0.00  0.00     0.174 A 
ATOM      3  C3  BZF d   1       0.431   0.882   0.461  0.00  0.00    -0.012 A 
ATOM      4  C3A BZF d   1       0.391  -0.548   0.484  0.00  0.00    -0.107 A 
ATOM      5  C4  BZF d   1       0.450  -1.473   1.488  0.00  0.00     0.055 A 
ATOM      6  C5  BZF d   1       0.310  -2.789   1.181  0.00  0.00    -0.016 A 
ATOM      7  C6  BZF d   1       0.104  -3.215  -0.115  0.00  0.00     0.022 A 
ATOM      8  C7  BZF d   1       0.044  -2.336  -1.144  0.00  0.00     0.029 A 
ATOM      9  C7A BZF d   1       0.218  -1.007  -0.842  0.00  0.00     0.058 A 
ENDROOT
TORSDOF 0
ENDMDL
