MODEL 1
REMARK minimizedAffinity -1.89334238
REMARK minimizedRMSD -1
REMARK  0 active torsions:
REMARK  status: ('A' for Active; 'I' for Inactive)
ROOT
ATOM      1  O1  BZF d   1      -0.025   0.157  -1.340  0.00  0.00    -0.204 OA
ATOM      2  C2  BZF d   1       0.144   1.192  -0.441  0.00  0.00     0.174 A 
ATOM      3  C3  BZF d   1      -0.209   0.807   0.803  0.00  0.00    -0.012 A 
ATOM      4  C3A BZF d   1      -0.536  -0.581   0.689  0.00  0.00    -0.107 A 
ATOM      5  C4  BZF d   1      -0.943  -1.527   1.587  0.00  0.00     0.055 A 
ATOM      6  C5  BZF d   1      -1.250  -2.773   1.140  0.00  0.00    -0.016 A 
ATOM      7  C6  BZF d   1      -1.166  -3.106  -0.196  0.00  0.00     0.022 A 
ATOM      8  C7  BZF d   1      -0.762  -2.204  -1.123  0.00  0.00     0.029 A 
ATOM      9  C7A BZF d   1      -0.419  -0.953  -0.670  0.00  0.00     0.058 A 
ENDROOT
TORSDOF 0
ENDMDL
