MODEL 1
REMARK minimizedAffinity -3.43047285
REMARK minimizedRMSD -1
REMARK  0 active torsions:
REMARK  status: ('A' for Active; 'I' for Inactive)
ROOT
ATOM      1  O1  BZF d   1       0.039  -0.271  -1.723  0.00  0.00    -0.204 OA
ATOM      2  C2  BZF d   1       0.028   1.016  -1.219  0.00  0.00     0.174 A 
ATOM      3  C3  BZF d   1      -0.481   1.035   0.030  0.00  0.00    -0.012 A 
ATOM      4  C3A BZF d   1      -0.723  -0.336   0.360  0.00  0.00    -0.107 A 
ATOM      5  C4  BZF d   1      -1.211  -0.962   1.471  0.00  0.00     0.055 A 
ATOM      6  C5  BZF d   1      -1.392  -2.309   1.444  0.00  0.00    -0.016 A 
ATOM      7  C6  BZF d   1      -1.101  -3.058   0.322  0.00  0.00     0.022 A 
ATOM      8  C7  BZF d   1      -0.611  -2.482  -0.802  0.00  0.00     0.029 A 
ATOM      9  C7A BZF d   1      -0.396  -1.126  -0.766  0.00  0.00     0.058 A 
ENDROOT
TORSDOF 0
ENDMDL
