MODEL 1
REMARK minimizedAffinity -2.88909411
REMARK minimizedRMSD -1
REMARK  0 active torsions:
REMARK  status: ('A' for Active; 'I' for Inactive)
ROOT
ATOM      1  O1  BZF d   1      -0.667  -2.523   0.028  0.00  0.00    -0.204 OA
ATOM      2  C2  BZF d   1      -0.679  -3.189  -1.182  0.00  0.00     0.174 A 
ATOM      3  C3  BZF d   1      -0.489  -2.328  -2.203  0.00  0.00    -0.012 A 
ATOM      4  C3A BZF d   1      -0.259  -1.058  -1.587  0.00  0.00    -0.107 A 
ATOM      5  C4  BZF d   1       0.008   0.189  -2.076  0.00  0.00     0.055 A 
ATOM      6  C5  BZF d   1       0.108   1.231  -1.210  0.00  0.00    -0.016 A 
ATOM      7  C6  BZF d   1      -0.057   1.064   0.149  0.00  0.00     0.022 A 
ATOM      8  C7  BZF d   1      -0.318  -0.154   0.682  0.00  0.00     0.029 A 
ATOM      9  C7A BZF d   1      -0.387  -1.215  -0.187  0.00  0.00     0.058 A 
ENDROOT
TORSDOF 0
ENDMDL
