MODEL 1
REMARK minimizedAffinity -2.09367394
REMARK minimizedRMSD -1
REMARK  0 active torsions:
REMARK  status: ('A' for Active; 'I' for Inactive)
ROOT
ATOM      1  O1  BZF d   1      -0.989  -2.541  -0.156  0.00  0.00    -0.204 OA
ATOM      2  C2  BZF d   1      -1.347  -2.221   1.139  0.00  0.00     0.174 A 
ATOM      3  C3  BZF d   1      -1.151  -0.909   1.380  0.00  0.00    -0.012 A 
ATOM      4  C3A BZF d   1      -0.725  -0.356   0.131  0.00  0.00    -0.107 A 
ATOM      5  C4  BZF d   1      -0.391   0.904  -0.273  0.00  0.00     0.055 A 
ATOM      6  C5  BZF d   1       0.053   1.095  -1.543  0.00  0.00    -0.016 A 
ATOM      7  C6  BZF d   1       0.179   0.049  -2.433  0.00  0.00     0.022 A 
ATOM      8  C7  BZF d   1      -0.145  -1.219  -2.080  0.00  0.00     0.029 A 
ATOM      9  C7A BZF d   1      -0.625  -1.410  -0.808  0.00  0.00     0.058 A 
ENDROOT
TORSDOF 0
ENDMDL
