MODEL 1
REMARK minimizedAffinity -2.93641734
REMARK minimizedRMSD -1
REMARK  0 active torsions:
REMARK  status: ('A' for Active; 'I' for Inactive)
ROOT
ATOM      1  O1  BZF d   1      -1.376  -2.619   1.188  0.00  0.00    -0.204 OA
ATOM      2  C2  BZF d   1      -0.925  -3.605   0.332  0.00  0.00     0.174 A 
ATOM      3  C3  BZF d   1      -0.163  -3.077  -0.648  0.00  0.00    -0.012 A 
ATOM      4  C3A BZF d   1      -0.061  -1.685  -0.335  0.00  0.00    -0.107 A 
ATOM      5  C4  BZF d   1       0.580  -0.634  -0.928  0.00  0.00     0.055 A 
ATOM      6  C5  BZF d   1       0.420   0.613  -0.413  0.00  0.00    -0.016 A 
ATOM      7  C6  BZF d   1      -0.376   0.846   0.690  0.00  0.00     0.022 A 
ATOM      8  C7  BZF d   1      -1.027  -0.165   1.315  0.00  0.00     0.029 A 
ATOM      9  C7A BZF d   1      -0.841  -1.431   0.816  0.00  0.00     0.058 A 
ENDROOT
TORSDOF 0
ENDMDL
