MODEL 1
REMARK minimizedAffinity -1.45425892
REMARK minimizedRMSD -1
REMARK  0 active torsions:
REMARK  status: ('A' for Active; 'I' for Inactive)
ROOT
ATOM      1  O1  BZF d   1       0.502   0.263  -1.560  0.00  0.00    -0.204 OA
ATOM      2  C2  BZF d   1       0.346   1.323  -0.687  0.00  0.00     0.174 A 
ATOM      3  C3  BZF d   1      -0.198   0.909   0.475  0.00  0.00    -0.012 A 
ATOM      4  C3A BZF d   1      -0.310  -0.512   0.354  0.00  0.00    -0.107 A 
ATOM      5  C4  BZF d   1      -0.763  -1.493   1.189  0.00  0.00     0.055 A 
ATOM      6  C5  BZF d   1      -0.806  -2.775   0.740  0.00  0.00    -0.016 A 
ATOM      7  C6  BZF d   1      -0.408  -3.110  -0.537  0.00  0.00     0.022 A 
ATOM      8  C7  BZF d   1       0.054  -2.173  -1.400  0.00  0.00     0.029 A 
ATOM      9  C7A BZF d   1       0.129  -0.881  -0.939  0.00  0.00     0.058 A 
ENDROOT
TORSDOF 0
ENDMDL
