MODEL 1
REMARK minimizedAffinity -1.68152583
REMARK minimizedRMSD -1
REMARK  0 active torsions:
REMARK  status: ('A' for Active; 'I' for Inactive)
ROOT
ATOM      1  O1  BZF d   1      -0.565  -1.954  -0.977  0.00  0.00    -0.204 OA
ATOM      2  C2  BZF d   1      -0.887  -2.885  -0.008  0.00  0.00     0.174 A 
ATOM      3  C3  BZF d   1      -0.869  -2.325   1.219  0.00  0.00    -0.012 A 
ATOM      4  C3A BZF d   1      -0.604  -0.937   0.995  0.00  0.00    -0.107 A 
ATOM      5  C4  BZF d   1      -0.482   0.141   1.824  0.00  0.00     0.055 A 
ATOM      6  C5  BZF d   1      -0.148   1.347   1.295  0.00  0.00    -0.016 A 
ATOM      7  C6  BZF d   1       0.074   1.510  -0.057  0.00  0.00     0.022 A 
ATOM      8  C7  BZF d   1      -0.041   0.472  -0.920  0.00  0.00     0.029 A 
ATOM      9  C7A BZF d   1      -0.410  -0.742  -0.392  0.00  0.00     0.058 A 
ENDROOT
TORSDOF 0
ENDMDL
