MODEL 1
REMARK minimizedAffinity -4.72145939
REMARK minimizedRMSD -1
REMARK  0 active torsions:
REMARK  status: ('A' for Active; 'I' for Inactive)
ROOT
ATOM      1  O1  BZF d   1       0.192  -0.530  -2.241  0.00  0.00    -0.204 OA
ATOM      2  C2  BZF d   1       0.012   0.801  -1.918  0.00  0.00     0.174 A 
ATOM      3  C3  BZF d   1      -0.468   0.928  -0.663  0.00  0.00    -0.012 A 
ATOM      4  C3A BZF d   1      -0.507  -0.403  -0.139  0.00  0.00    -0.107 A 
ATOM      5  C4  BZF d   1      -0.877  -0.926   1.067  0.00  0.00     0.055 A 
ATOM      6  C5  BZF d   1      -0.868  -2.275   1.233  0.00  0.00    -0.016 A 
ATOM      7  C6  BZF d   1      -0.499  -3.129   0.214  0.00  0.00     0.022 A 
ATOM      8  C7  BZF d   1      -0.120  -2.656  -0.998  0.00  0.00     0.029 A 
ATOM      9  C7A BZF d   1      -0.097  -1.292  -1.158  0.00  0.00     0.058 A 
ENDROOT
TORSDOF 0
ENDMDL
