MODEL 1
REMARK minimizedAffinity -3.63463449
REMARK minimizedRMSD -1
REMARK  0 active torsions:
REMARK  status: ('A' for Active; 'I' for Inactive)
ROOT
ATOM      1  O1  BZF d   1       0.101   0.234  -2.024  0.00  0.00    -0.204 OA
ATOM      2  C2  BZF d   1       0.069   1.310  -1.158  0.00  0.00     0.174 A 
ATOM      3  C3  BZF d   1      -0.353   0.927   0.065  0.00  0.00    -0.012 A 
ATOM      4  C3A BZF d   1      -0.511  -0.493  -0.020  0.00  0.00    -0.107 A 
ATOM      5  C4  BZF d   1      -0.893  -1.450   0.877  0.00  0.00     0.055 A 
ATOM      6  C5  BZF d   1      -1.016  -2.736   0.457  0.00  0.00    -0.016 A 
ATOM      7  C6  BZF d   1      -0.771  -3.100  -0.851  0.00  0.00     0.022 A 
ATOM      8  C7  BZF d   1      -0.385  -2.187  -1.775  0.00  0.00     0.029 A 
ATOM      9  C7A BZF d   1      -0.228  -0.892  -1.346  0.00  0.00     0.058 A 
ENDROOT
TORSDOF 0
ENDMDL
