MODEL 1
REMARK minimizedAffinity -3.52288866
REMARK minimizedRMSD -1
REMARK  0 active torsions:
REMARK  status: ('A' for Active; 'I' for Inactive)
ROOT
ATOM      1  O1  BZF d   1      -0.428  -2.275  -1.308  0.00  0.00    -0.204 OA
ATOM      2  C2  BZF d   1      -0.754  -3.088  -0.240  0.00  0.00     0.174 A 
ATOM      3  C3  BZF d   1      -0.636  -2.418   0.925  0.00  0.00    -0.012 A 
ATOM      4  C3A BZF d   1      -0.300  -1.078   0.556  0.00  0.00    -0.107 A 
ATOM      5  C4  BZF d   1      -0.067   0.063   1.270  0.00  0.00     0.055 A 
ATOM      6  C5  BZF d   1       0.311   1.190   0.611  0.00  0.00    -0.016 A 
ATOM      7  C6  BZF d   1       0.471   1.210  -0.759  0.00  0.00     0.022 A 
ATOM      8  C7  BZF d   1       0.247   0.105  -1.511  0.00  0.00     0.029 A 
ATOM      9  C7A BZF d   1      -0.167  -1.026  -0.851  0.00  0.00     0.058 A 
ENDROOT
TORSDOF 0
ENDMDL
