MODEL 1
REMARK minimizedAffinity -3.21743464
REMARK minimizedRMSD -1
REMARK  0 active torsions:
REMARK  status: ('A' for Active; 'I' for Inactive)
ROOT
ATOM      1  O1  BZF d   1       0.052   1.894  -1.238  0.00  0.00    -0.204 OA
ATOM      2  C2  BZF d   1      -0.248   0.660  -0.695  0.00  0.00     0.174 A 
ATOM      3  C3  BZF d   1       0.197   0.575   0.576  0.00  0.00    -0.012 A 
ATOM      4  C3A BZF d   1       0.732   1.868   0.874  0.00  0.00    -0.107 A 
ATOM      5  C4  BZF d   1       1.308   2.413   1.986  0.00  0.00     0.055 A 
ATOM      6  C5  BZF d   1       1.790   3.682   1.926  0.00  0.00    -0.016 A 
ATOM      7  C6  BZF d   1       1.718   4.432   0.771  0.00  0.00     0.022 A 
ATOM      8  C7  BZF d   1       1.151   3.937  -0.356  0.00  0.00     0.029 A 
ATOM      9  C7A BZF d   1       0.633   2.667  -0.289  0.00  0.00     0.058 A 
ENDROOT
TORSDOF 0
ENDMDL
