MODEL 1
REMARK minimizedAffinity -3.03910375
REMARK minimizedRMSD -1
REMARK  0 active torsions:
REMARK  status: ('A' for Active; 'I' for Inactive)
ROOT
ATOM      1  O1  BZF d   1      -0.021   0.861  -1.091  0.00  0.00    -0.204 OA
ATOM      2  C2  BZF d   1       0.615   1.804  -0.307  0.00  0.00     0.174 A 
ATOM      3  C3  BZF d   1       0.658   1.405   0.981  0.00  0.00    -0.012 A 
ATOM      4  C3A BZF d   1       0.090   0.092   0.987  0.00  0.00    -0.107 A 
ATOM      5  C4  BZF d   1      -0.129  -0.831   1.970  0.00  0.00     0.055 A 
ATOM      6  C5  BZF d   1      -0.770  -1.988   1.658  0.00  0.00    -0.016 A 
ATOM      7  C6  BZF d   1      -1.209  -2.252   0.377  0.00  0.00     0.022 A 
ATOM      8  C7  BZF d   1      -1.010  -1.369  -0.632  0.00  0.00     0.029 A 
ATOM      9  C7A BZF d   1      -0.334  -0.213  -0.327  0.00  0.00     0.058 A 
ENDROOT
TORSDOF 0
ENDMDL
