MODEL 1
REMARK minimizedAffinity -1.26712275
REMARK minimizedRMSD -1
REMARK  0 active torsions:
REMARK  status: ('A' for Active; 'I' for Inactive)
ROOT
ATOM      1  O1  BZF d   1      -1.054  -1.649  -0.628  0.00  0.00    -0.204 OA
ATOM      2  C2  BZF d   1      -1.250  -2.455   0.477  0.00  0.00     0.174 A 
ATOM      3  C3  BZF d   1      -0.804  -1.850   1.596  0.00  0.00    -0.012 A 
ATOM      4  C3A BZF d   1      -0.383  -0.548   1.178  0.00  0.00    -0.107 A 
ATOM      5  C4  BZF d   1       0.140   0.527   1.838  0.00  0.00     0.055 A 
ATOM      6  C5  BZF d   1       0.512   1.623   1.126  0.00  0.00    -0.016 A 
ATOM      7  C6  BZF d   1       0.381   1.675  -0.246  0.00  0.00     0.022 A 
ATOM      8  C7  BZF d   1      -0.137   0.636  -0.945  0.00  0.00     0.029 A 
ATOM      9  C7A BZF d   1      -0.545  -0.460  -0.224  0.00  0.00     0.058 A 
ENDROOT
TORSDOF 0
ENDMDL
