MODEL 1
REMARK minimizedAffinity -3.52079678
REMARK minimizedRMSD -1
REMARK  1 active torsions:
REMARK  status: ('A' for Active; 'I' for Inactive)
REMARK    1  A    between atoms: C1_2  and  C2_3 
ROOT
ATOM      1  C2  UNL d   1       0.852  -0.187  -1.452  0.00  0.00    -0.077 A 
ATOM      2  C3  UNL d   1       2.125   0.354  -1.683  0.00  0.00     0.002 A 
ATOM      3  C4  UNL d   1       2.581   0.555  -2.987  0.00  0.00     0.002 A 
ATOM      4  C5  UNL d   1       1.770   0.221  -4.069  0.00  0.00    -0.004 A 
ATOM      5  C6  UNL d   1       0.504  -0.319  -3.850  0.00  0.00     0.002 A 
ATOM      6  C7  UNL d   1       0.046  -0.522  -2.547  0.00  0.00     0.002 A 
ENDROOT
BRANCH   1   7
ATOM      7  C1  UNL d   1       0.339  -0.358  -0.046  0.00  0.00     0.055 C 
ATOM      8  C   UNL d   1      -1.092   0.144   0.086  0.00  0.00     0.019 C 
ENDBRANCH   1   7
TORSDOF 1
ENDMDL
