MODEL 1
REMARK minimizedAffinity -3.42218685
REMARK minimizedRMSD -1
REMARK  1 active torsions:
REMARK  status: ('A' for Active; 'I' for Inactive)
REMARK    1  A    between atoms: C1_2  and  C2_3 
ROOT
ATOM      1  C2  UNL d   1      -0.244   0.932   1.415  0.00  0.00    -0.077 A 
ATOM      2  C3  UNL d   1      -1.284   0.573   0.546  0.00  0.00     0.002 A 
ATOM      3  C4  UNL d   1      -1.015  -0.163  -0.610  0.00  0.00     0.002 A 
ATOM      4  C5  UNL d   1       0.291  -0.549  -0.904  0.00  0.00    -0.004 A 
ATOM      5  C6  UNL d   1       1.332  -0.195  -0.046  0.00  0.00     0.002 A 
ATOM      6  C7  UNL d   1       1.065   0.542   1.109  0.00  0.00     0.002 A 
ENDROOT
BRANCH   1   7
ATOM      7  C1  UNL d   1      -0.539   1.684   2.687  0.00  0.00     0.055 C 
ATOM      8  C   UNL d   1      -1.102   0.760   3.758  0.00  0.00     0.019 C 
ENDBRANCH   1   7
TORSDOF 1
ENDMDL
