MODEL 1
REMARK minimizedAffinity -4.56760359
REMARK minimizedRMSD -1
REMARK  1 active torsions:
REMARK  status: ('A' for Active; 'I' for Inactive)
REMARK    1  A    between atoms: C1_2  and  C2_3 
ROOT
ATOM      1  C2  UNL d   1      -0.159   0.390  -1.736  0.00  0.00    -0.077 A 
ATOM      2  C3  UNL d   1       0.823  -0.608  -1.808  0.00  0.00     0.002 A 
ATOM      3  C4  UNL d   1       1.757  -0.607  -2.846  0.00  0.00     0.002 A 
ATOM      4  C5  UNL d   1       1.721   0.392  -3.817  0.00  0.00    -0.004 A 
ATOM      5  C6  UNL d   1       0.747   1.388  -3.755  0.00  0.00     0.002 A 
ATOM      6  C7  UNL d   1      -0.188   1.387  -2.719  0.00  0.00     0.002 A 
ENDROOT
BRANCH   1   7
ATOM      7  C1  UNL d   1      -1.137   0.418  -0.591  0.00  0.00     0.055 C 
ATOM      8  C   UNL d   1      -2.128  -0.733  -0.680  0.00  0.00     0.019 C 
ENDBRANCH   1   7
TORSDOF 1
ENDMDL
