MODEL 1
REMARK minimizedAffinity -2.19394255
REMARK minimizedRMSD -1
REMARK  1 active torsions:
REMARK  status: ('A' for Active; 'I' for Inactive)
REMARK    1  A    between atoms: C1_2  and  C2_3 
ROOT
ATOM      1  C2  UNL d   1      -1.790  -0.292   1.772  0.00  0.00    -0.077 A 
ATOM      2  C3  UNL d   1      -0.796   0.534   2.315  0.00  0.00     0.002 A 
ATOM      3  C4  UNL d   1       0.271   0.967   1.526  0.00  0.00     0.002 A 
ATOM      4  C5  UNL d   1       0.353   0.582   0.189  0.00  0.00    -0.004 A 
ATOM      5  C6  UNL d   1      -0.629  -0.242  -0.359  0.00  0.00     0.002 A 
ATOM      6  C7  UNL d   1      -1.696  -0.676   0.428  0.00  0.00     0.002 A 
ENDROOT
BRANCH   1   7
ATOM      7  C1  UNL d   1      -2.968  -0.720   2.608  0.00  0.00     0.055 C 
ATOM      8  C   UNL d   1      -2.517  -1.406   3.889  0.00  0.00     0.019 C 
ENDBRANCH   1   7
TORSDOF 1
ENDMDL
