MODEL 1
REMARK minimizedAffinity -3.14067578
REMARK minimizedRMSD -1
REMARK  1 active torsions:
REMARK  status: ('A' for Active; 'I' for Inactive)
REMARK    1  A    between atoms: C1_2  and  C2_3 
ROOT
ATOM      1  C2  UNL d   1      -0.456   0.254   0.435  0.00  0.00    -0.077 A 
ATOM      2  C3  UNL d   1      -1.700  -0.301   0.103  0.00  0.00     0.002 A 
ATOM      3  C4  UNL d   1      -1.808  -1.216  -0.946  0.00  0.00     0.002 A 
ATOM      4  C5  UNL d   1      -0.676  -1.588  -1.668  0.00  0.00    -0.004 A 
ATOM      5  C6  UNL d   1       0.565  -1.040  -1.347  0.00  0.00     0.002 A 
ATOM      6  C7  UNL d   1       0.675  -0.124  -0.300  0.00  0.00     0.002 A 
ENDROOT
BRANCH   1   7
ATOM      7  C1  UNL d   1      -0.330   1.204   1.597  0.00  0.00     0.055 C 
ATOM      8  C   UNL d   1      -1.230   0.788   2.752  0.00  0.00     0.019 C 
ENDBRANCH   1   7
TORSDOF 1
ENDMDL
