MODEL 1
REMARK minimizedAffinity -4.24864674
REMARK minimizedRMSD -1
REMARK  1 active torsions:
REMARK  status: ('A' for Active; 'I' for Inactive)
REMARK    1  A    between atoms: C1_2  and  C2_3 
ROOT
ATOM      1  C2  UNL d   1      -0.628   0.331   0.641  0.00  0.00    -0.077 A 
ATOM      2  C3  UNL d   1       0.258   1.351   1.013  0.00  0.00     0.002 A 
ATOM      3  C4  UNL d   1       0.146   1.963   2.263  0.00  0.00     0.002 A 
ATOM      4  C5  UNL d   1      -0.848   1.559   3.152  0.00  0.00    -0.004 A 
ATOM      5  C6  UNL d   1      -1.736   0.546   2.791  0.00  0.00     0.002 A 
ATOM      6  C7  UNL d   1      -1.626  -0.066   1.541  0.00  0.00     0.002 A 
ENDROOT
BRANCH   1   7
ATOM      7  C1  UNL d   1      -0.478  -0.364  -0.687  0.00  0.00     0.055 C 
ATOM      8  C   UNL d   1       0.953  -0.829  -0.909  0.00  0.00     0.019 C 
ENDBRANCH   1   7
TORSDOF 1
ENDMDL
