MODEL 1
REMARK minimizedAffinity -4.61182308
REMARK minimizedRMSD -1
REMARK  1 active torsions:
REMARK  status: ('A' for Active; 'I' for Inactive)
REMARK    1  A    between atoms: C1_2  and  C2_3 
ROOT
ATOM      1  C2  UNL d   1       0.179  -0.111  -0.248  0.00  0.00    -0.077 A 
ATOM      2  C3  UNL d   1       1.002   0.278   0.818  0.00  0.00     0.002 A 
ATOM      3  C4  UNL d   1       0.446   0.808   1.983  0.00  0.00     0.002 A 
ATOM      4  C5  UNL d   1      -0.936   0.952   2.095  0.00  0.00    -0.004 A 
ATOM      5  C6  UNL d   1      -1.763   0.570   1.039  0.00  0.00     0.002 A 
ATOM      6  C7  UNL d   1      -1.209   0.041  -0.127  0.00  0.00     0.002 A 
ENDROOT
BRANCH   1   7
ATOM      7  C1  UNL d   1       0.773  -0.729  -1.487  0.00  0.00     0.055 C 
ATOM      8  C   UNL d   1       0.979   0.310  -2.580  0.00  0.00     0.019 C 
ENDBRANCH   1   7
TORSDOF 1
ENDMDL
