MODEL 1
REMARK minimizedAffinity -4.99395847
REMARK minimizedRMSD -1
REMARK  1 active torsions:
REMARK  status: ('A' for Active; 'I' for Inactive)
REMARK    1  A    between atoms: C1_2  and  C2_3 
ROOT
ATOM      1  C2  UNL d   1      -0.347  -0.711  -0.049  0.00  0.00    -0.077 A 
ATOM      2  C3  UNL d   1       0.612  -0.115   0.782  0.00  0.00     0.002 A 
ATOM      3  C4  UNL d   1       0.240   0.424   2.015  0.00  0.00     0.002 A 
ATOM      4  C5  UNL d   1      -1.089   0.368   2.430  0.00  0.00    -0.004 A 
ATOM      5  C6  UNL d   1      -2.050  -0.221   1.610  0.00  0.00     0.002 A 
ATOM      6  C7  UNL d   1      -1.681  -0.759   0.376  0.00  0.00     0.002 A 
ENDROOT
BRANCH   1   7
ATOM      7  C1  UNL d   1       0.060  -1.337  -1.358  0.00  0.00     0.055 C 
ATOM      8  C   UNL d   1       0.578  -0.291  -2.334  0.00  0.00     0.019 C 
ENDBRANCH   1   7
TORSDOF 1
ENDMDL
