MODEL 1
REMARK minimizedAffinity -4.08145332
REMARK minimizedRMSD -1
REMARK  1 active torsions:
REMARK  status: ('A' for Active; 'I' for Inactive)
REMARK    1  A    between atoms: N_2  and  C1_3 
ROOT
ATOM      1  C1  UNL d   1      -0.008  -0.172  -0.323  0.00  0.00     0.143 A 
ATOM      2  C2  UNL d   1       0.789   0.577   0.549  0.00  0.00    -0.057 A 
ATOM      3  C3  UNL d   1       0.227   1.289   1.615  0.00  0.00     0.033 A 
ATOM      4  C4  UNL d   1      -1.150   1.287   1.812  0.00  0.00    -0.042 A 
ATOM      5  C5  UNL d   1      -1.964   0.570   0.942  0.00  0.00     0.033 A 
ATOM      6  C6  UNL d   1      -1.396  -0.145  -0.117  0.00  0.00    -0.057 A 
ENDROOT
BRANCH   1   7
ATOM      7  N   UNL d   1       0.481  -0.821  -1.460  0.00  0.00    -0.732 N 
ATOM      8  C   UNL d   1       1.093  -0.067  -2.533  0.00  0.00     0.284 C 
ATOM      9  H3  UNL d   1       0.961  -1.689  -1.236  0.00  0.00     0.395 HD
ENDBRANCH   1   7
TORSDOF 1
ENDMDL
