MODEL 1
REMARK minimizedAffinity -5.29268503
REMARK minimizedRMSD -1
REMARK  1 active torsions:
REMARK  status: ('A' for Active; 'I' for Inactive)
REMARK    1  A    between atoms: N_2  and  C1_3 
ROOT
ATOM      1  C1  UNL d   1       0.053  -0.148   0.441  0.00  0.00     0.143 A 
ATOM      2  C2  UNL d   1      -1.216   0.438   0.500  0.00  0.00    -0.057 A 
ATOM      3  C3  UNL d   1      -1.709   0.982   1.692  0.00  0.00     0.033 A 
ATOM      4  C4  UNL d   1      -0.950   0.923   2.857  0.00  0.00    -0.042 A 
ATOM      5  C5  UNL d   1       0.303   0.322   2.827  0.00  0.00     0.033 A 
ATOM      6  C6  UNL d   1       0.793  -0.213   1.632  0.00  0.00    -0.057 A 
ENDROOT
BRANCH   1   7
ATOM      7  N   UNL d   1       0.559  -0.794  -0.690  0.00  0.00    -0.732 N 
ATOM      8  C   UNL d   1       0.487  -0.166  -1.992  0.00  0.00     0.284 C 
ATOM      9  H3  UNL d   1       1.441  -1.267  -0.505  0.00  0.00     0.395 HD
ENDBRANCH   1   7
TORSDOF 1
ENDMDL
