MODEL 1
REMARK minimizedAffinity -3.05105162
REMARK minimizedRMSD -1
REMARK  1 active torsions:
REMARK  status: ('A' for Active; 'I' for Inactive)
REMARK    1  A    between atoms: N_2  and  C1_3 
ROOT
ATOM      1  C1  UNL d   1       1.105   0.249   1.097  0.00  0.00     0.143 A 
ATOM      2  C2  UNL d   1       0.935  -0.472  -0.090  0.00  0.00    -0.057 A 
ATOM      3  C3  UNL d   1      -0.329  -0.626  -0.671  0.00  0.00     0.033 A 
ATOM      4  C4  UNL d   1      -1.454  -0.085  -0.057  0.00  0.00    -0.042 A 
ATOM      5  C5  UNL d   1      -1.312   0.614   1.136  0.00  0.00     0.033 A 
ATOM      6  C6  UNL d   1      -0.046   0.771   1.708  0.00  0.00    -0.057 A 
ENDROOT
BRANCH   1   7
ATOM      7  N   UNL d   1       2.322   0.354   1.776  0.00  0.00    -0.732 N 
ATOM      8  C   UNL d   1       3.240  -0.763   1.819  0.00  0.00     0.284 C 
ATOM      9  H3  UNL d   1       2.771   1.256   1.631  0.00  0.00     0.395 HD
ENDBRANCH   1   7
TORSDOF 1
ENDMDL
