MODEL 1
REMARK minimizedAffinity 0.737088501
REMARK minimizedRMSD -1
REMARK  1 active torsions:
REMARK  status: ('A' for Active; 'I' for Inactive)
REMARK    1  A    between atoms: N_2  and  C1_3 
ROOT
ATOM      1  C1  UNL d   1       0.534   0.226   1.060  0.00  0.00     0.143 A 
ATOM      2  C2  UNL d   1      -0.647  -0.096   0.383  0.00  0.00    -0.057 A 
ATOM      3  C3  UNL d   1      -1.875   0.463   0.757  0.00  0.00     0.033 A 
ATOM      4  C4  UNL d   1      -1.947   1.336   1.838  0.00  0.00    -0.042 A 
ATOM      5  C5  UNL d   1      -0.790   1.652   2.541  0.00  0.00     0.033 A 
ATOM      6  C6  UNL d   1       0.434   1.095   2.158  0.00  0.00    -0.057 A 
ENDROOT
BRANCH   1   7
ATOM      7  N   UNL d   1       1.769  -0.372   0.798  0.00  0.00    -0.732 N 
ATOM      8  C   UNL d   1       2.741  -0.549   1.855  0.00  0.00     0.284 C 
ATOM      9  H3  UNL d   1       1.689  -1.168   0.169  0.00  0.00     0.395 HD
ENDBRANCH   1   7
TORSDOF 1
ENDMDL
