MODEL 1
REMARK minimizedAffinity -4.07361364
REMARK minimizedRMSD -1
REMARK  1 active torsions:
REMARK  status: ('A' for Active; 'I' for Inactive)
REMARK    1  A    between atoms: N_2  and  C1_3 
ROOT
ATOM      1  C1  UNL d   1       0.291  -0.772   0.415  0.00  0.00     0.143 A 
ATOM      2  C2  UNL d   1      -0.759  -1.162  -0.423  0.00  0.00    -0.057 A 
ATOM      3  C3  UNL d   1      -2.089  -0.857  -0.109  0.00  0.00     0.033 A 
ATOM      4  C4  UNL d   1      -2.395  -0.180   1.067  0.00  0.00    -0.042 A 
ATOM      5  C5  UNL d   1      -1.369   0.196   1.927  0.00  0.00     0.033 A 
ATOM      6  C6  UNL d   1      -0.043  -0.106   1.605  0.00  0.00    -0.057 A 
ENDROOT
BRANCH   1   7
ATOM      7  N   UNL d   1       1.625  -1.130   0.208  0.00  0.00    -0.732 N 
ATOM      8  C   UNL d   1       2.471  -1.501   1.323  0.00  0.00     0.284 C 
ATOM      9  H3  UNL d   1       1.748  -1.712  -0.618  0.00  0.00     0.395 HD
ENDBRANCH   1   7
TORSDOF 1
ENDMDL
