MODEL 1
REMARK minimizedAffinity -3.63496947
REMARK minimizedRMSD -1
REMARK  1 active torsions:
REMARK  status: ('A' for Active; 'I' for Inactive)
REMARK    1  A    between atoms: N_2  and  C1_3 
ROOT
ATOM      1  C1  UNL d   1       0.259   0.510   1.639  0.00  0.00     0.143 A 
ATOM      2  C2  UNL d   1       1.440  -0.237   1.567  0.00  0.00    -0.057 A 
ATOM      3  C3  UNL d   1       1.694  -1.090   0.486  0.00  0.00     0.033 A 
ATOM      4  C4  UNL d   1       0.756  -1.234  -0.530  0.00  0.00    -0.042 A 
ATOM      5  C5  UNL d   1      -0.436  -0.520  -0.467  0.00  0.00     0.033 A 
ATOM      6  C6  UNL d   1      -0.681   0.335   0.611  0.00  0.00    -0.057 A 
ENDROOT
BRANCH   1   7
ATOM      7  N   UNL d   1      -0.096   1.300   2.735  0.00  0.00    -0.732 N 
ATOM      8  C   UNL d   1      -1.203   0.924   3.587  0.00  0.00     0.284 C 
ATOM      9  H3  UNL d   1       0.715   1.652   3.239  0.00  0.00     0.395 HD
ENDBRANCH   1   7
TORSDOF 1
ENDMDL
