MODEL 1
REMARK minimizedAffinity 13.7840881
REMARK minimizedRMSD -1
REMARK  0 active torsions:
REMARK  status: ('A' for Active; 'I' for Inactive)
ROOT
ATOM      1  C   UNL d   1      -2.028  -1.626  -3.738  0.00  0.00    -0.002 A 
ATOM      2  C1  UNL d   1      -0.646  -1.598  -3.617  0.00  0.00     0.010 A 
ATOM      3  C2  UNL d   1       0.044  -2.698  -3.104  0.00  0.00     0.041 A 
ATOM      4  C3  UNL d   1      -0.685  -3.838  -2.712  0.00  0.00    -0.075 A 
ATOM      5  S   UNL d   1      -0.053  -5.302  -2.058  0.00  0.00     0.015 SA
ATOM      6  C4  UNL d   1      -1.602  -5.999  -1.924  0.00  0.00     0.022 A 
ATOM      7  C5  UNL d   1      -2.590  -5.150  -2.363  0.00  0.00     0.026 A 
ATOM      8  C6  UNL d   1      -2.077  -3.890  -2.825  0.00  0.00    -0.082 A 
ATOM      9  C7  UNL d   1      -2.748  -2.759  -3.349  0.00  0.00     0.045 A 
ENDROOT
TORSDOF 0
ENDMDL
