MODEL 1
REMARK minimizedAffinity 2.64698434
REMARK minimizedRMSD -1
REMARK  0 active torsions:
REMARK  status: ('A' for Active; 'I' for Inactive)
ROOT
ATOM      1  C   UNL d   1      -0.855  -5.420  -2.435  0.00  0.00    -0.002 A 
ATOM      2  C1  UNL d   1      -0.097  -4.738  -3.376  0.00  0.00     0.010 A 
ATOM      3  C2  UNL d   1      -0.710  -4.113  -4.464  0.00  0.00     0.041 A 
ATOM      4  C3  UNL d   1      -2.112  -4.183  -4.590  0.00  0.00    -0.075 A 
ATOM      5  S   UNL d   1      -3.079  -3.493  -5.838  0.00  0.00     0.015 SA
ATOM      6  C4  UNL d   1      -4.522  -4.085  -5.151  0.00  0.00     0.022 A 
ATOM      7  C5  UNL d   1      -4.289  -4.795  -3.997  0.00  0.00     0.026 A 
ATOM      8  C6  UNL d   1      -2.896  -4.863  -3.654  0.00  0.00    -0.082 A 
ATOM      9  C7  UNL d   1      -2.245  -5.488  -2.563  0.00  0.00     0.045 A 
ENDROOT
TORSDOF 0
ENDMDL
