MODEL 1
REMARK minimizedAffinity 8.75060844
REMARK minimizedRMSD -1
REMARK  0 active torsions:
REMARK  status: ('A' for Active; 'I' for Inactive)
ROOT
ATOM      1  C   UNL d   1       0.590   0.467   1.714  0.00  0.00    -0.002 A 
ATOM      2  C1  UNL d   1       0.665   1.334   2.795  0.00  0.00     0.010 A 
ATOM      3  C2  UNL d   1      -0.484   1.687   3.504  0.00  0.00     0.041 A 
ATOM      4  C3  UNL d   1      -1.723   1.148   3.106  0.00  0.00    -0.075 A 
ATOM      5  S   UNL d   1      -3.263   1.438   3.825  0.00  0.00     0.015 SA
ATOM      6  C4  UNL d   1      -4.057   0.417   2.716  0.00  0.00     0.022 A 
ATOM      7  C5  UNL d   1      -3.184  -0.140   1.811  0.00  0.00     0.026 A 
ATOM      8  C6  UNL d   1      -1.825   0.272   2.021  0.00  0.00    -0.082 A 
ATOM      9  C7  UNL d   1      -0.641  -0.066   1.322  0.00  0.00     0.045 A 
ENDROOT
TORSDOF 0
ENDMDL
