MODEL 1
REMARK minimizedAffinity 26.0419483
REMARK minimizedRMSD -1
REMARK  0 active torsions:
REMARK  status: ('A' for Active; 'I' for Inactive)
ROOT
ATOM      1  C   UNL d   1      -2.488   0.746   3.599  0.00  0.00    -0.002 A 
ATOM      2  C1  UNL d   1      -2.497   1.056   2.247  0.00  0.00     0.010 A 
ATOM      3  C2  UNL d   1      -3.393   0.426   1.380  0.00  0.00     0.041 A 
ATOM      4  C3  UNL d   1      -4.289  -0.528   1.901  0.00  0.00    -0.075 A 
ATOM      5  S   UNL d   1      -5.475  -1.424   1.028  0.00  0.00     0.015 SA
ATOM      6  C4  UNL d   1      -5.999  -2.239   2.430  0.00  0.00     0.022 A 
ATOM      7  C5  UNL d   1      -5.296  -1.849   3.546  0.00  0.00     0.026 A 
ATOM      8  C6  UNL d   1      -4.300  -0.856   3.259  0.00  0.00    -0.082 A 
ATOM      9  C7  UNL d   1      -3.379  -0.201   4.112  0.00  0.00     0.045 A 
ENDROOT
TORSDOF 0
ENDMDL
