MODEL 1
REMARK minimizedAffinity 9.67873478
REMARK minimizedRMSD -1
REMARK  0 active torsions:
REMARK  status: ('A' for Active; 'I' for Inactive)
ROOT
ATOM      1  C   UNL d   1      -1.846  -4.123  -4.008  0.00  0.00    -0.002 A 
ATOM      2  C1  UNL d   1      -2.269  -2.838  -4.317  0.00  0.00     0.010 A 
ATOM      3  C2  UNL d   1      -3.502  -2.626  -4.936  0.00  0.00     0.041 A 
ATOM      4  C3  UNL d   1      -4.312  -3.737  -5.241  0.00  0.00    -0.075 A 
ATOM      5  S   UNL d   1      -5.861  -3.719  -5.998  0.00  0.00     0.015 SA
ATOM      6  C4  UNL d   1      -5.998  -5.416  -5.929  0.00  0.00     0.022 A 
ATOM      7  C5  UNL d   1      -4.898  -5.999  -5.345  0.00  0.00     0.026 A 
ATOM      8  C6  UNL d   1      -3.908  -5.041  -4.939  0.00  0.00    -0.082 A 
ATOM      9  C7  UNL d   1      -2.652  -5.223  -4.312  0.00  0.00     0.045 A 
ENDROOT
TORSDOF 0
ENDMDL
