MODEL 1
REMARK minimizedAffinity 3.24630189
REMARK minimizedRMSD -1
REMARK  0 active torsions:
REMARK  status: ('A' for Active; 'I' for Inactive)
ROOT
ATOM      1  C   UNL d   1      -0.677  -4.715  -3.412  0.00  0.00    -0.002 A 
ATOM      2  C1  UNL d   1      -1.645  -5.322  -2.623  0.00  0.00     0.010 A 
ATOM      3  C2  UNL d   1      -2.998  -5.211  -2.948  0.00  0.00     0.041 A 
ATOM      4  C3  UNL d   1      -3.366  -4.474  -4.091  0.00  0.00    -0.075 A 
ATOM      5  S   UNL d   1      -4.962  -4.203  -4.684  0.00  0.00     0.015 SA
ATOM      6  C4  UNL d   1      -4.398  -3.276  -5.998  0.00  0.00     0.022 A 
ATOM      7  C5  UNL d   1      -3.027  -3.166  -6.000  0.00  0.00     0.026 A 
ATOM      8  C6  UNL d   1      -2.410  -3.854  -4.901  0.00  0.00    -0.082 A 
ATOM      9  C7  UNL d   1      -1.046  -3.985  -4.545  0.00  0.00     0.045 A 
ENDROOT
TORSDOF 0
ENDMDL
