MODEL 1
REMARK minimizedAffinity 10.9933195
REMARK minimizedRMSD -1
REMARK  0 active torsions:
REMARK  status: ('A' for Active; 'I' for Inactive)
ROOT
ATOM      1  C   UNL d   1      -2.108  -3.197  -3.332  0.00  0.00    -0.002 A 
ATOM      2  C1  UNL d   1      -2.324  -4.492  -2.884  0.00  0.00     0.010 A 
ATOM      3  C2  UNL d   1      -3.394  -5.244  -3.373  0.00  0.00     0.041 A 
ATOM      4  C3  UNL d   1      -4.251  -4.666  -4.330  0.00  0.00    -0.075 A 
ATOM      5  S   UNL d   1      -5.626  -5.398  -5.071  0.00  0.00     0.015 SA
ATOM      6  C4  UNL d   1      -5.958  -4.008  -6.000  0.00  0.00     0.022 A 
ATOM      7  C5  UNL d   1      -5.053  -3.001  -5.763  0.00  0.00     0.026 A 
ATOM      8  C6  UNL d   1      -4.054  -3.363  -4.797  0.00  0.00    -0.082 A 
ATOM      9  C7  UNL d   1      -2.960  -2.627  -4.282  0.00  0.00     0.045 A 
ENDROOT
TORSDOF 0
ENDMDL
