MODEL 1
REMARK minimizedAffinity 16.4137001
REMARK minimizedRMSD -1
REMARK  0 active torsions:
REMARK  status: ('A' for Active; 'I' for Inactive)
ROOT
ATOM      1  C   UNL d   1      -1.605  -5.068  -2.035  0.00  0.00    -0.002 A 
ATOM      2  C1  UNL d   1      -2.621  -5.933  -1.655  0.00  0.00     0.010 A 
ATOM      3  C2  UNL d   1      -3.884  -5.847  -2.244  0.00  0.00     0.041 A 
ATOM      4  C3  UNL d   1      -4.111  -4.868  -3.231  0.00  0.00    -0.075 A 
ATOM      5  S   UNL d   1      -5.577  -4.577  -4.091  0.00  0.00     0.015 SA
ATOM      6  C4  UNL d   1      -4.888  -3.298  -4.982  0.00  0.00     0.022 A 
ATOM      7  C5  UNL d   1      -3.573  -3.084  -4.645  0.00  0.00     0.026 A 
ATOM      8  C6  UNL d   1      -3.103  -3.986  -3.631  0.00  0.00    -0.082 A 
ATOM      9  C7  UNL d   1      -1.833  -4.098  -3.014  0.00  0.00     0.045 A 
ENDROOT
TORSDOF 0
ENDMDL
