MODEL 1
REMARK minimizedAffinity 19.0182323
REMARK minimizedRMSD -1
REMARK  0 active torsions:
REMARK  status: ('A' for Active; 'I' for Inactive)
ROOT
ATOM      1  C   UNL d   1       0.349   0.362   1.501  0.00  0.00    -0.002 A 
ATOM      2  C1  UNL d   1       0.333  -0.898   2.083  0.00  0.00     0.010 A 
ATOM      3  C2  UNL d   1       0.313  -1.038   3.472  0.00  0.00     0.041 A 
ATOM      4  C3  UNL d   1       0.305   0.120   4.274  0.00  0.00    -0.075 A 
ATOM      5  S   UNL d   1       0.280   0.192   5.996  0.00  0.00     0.015 SA
ATOM      6  C4  UNL d   1       0.287   1.896   6.000  0.00  0.00     0.022 A 
ATOM      7  C5  UNL d   1       0.309   2.415   4.727  0.00  0.00     0.026 A 
ATOM      8  C6  UNL d   1       0.320   1.400   3.711  0.00  0.00    -0.082 A 
ATOM      9  C7  UNL d   1       0.342   1.509   2.300  0.00  0.00     0.045 A 
ENDROOT
TORSDOF 0
ENDMDL
