MODEL 1
REMARK minimizedAffinity 16.0529022
REMARK minimizedRMSD -1
REMARK  0 active torsions:
REMARK  status: ('A' for Active; 'I' for Inactive)
ROOT
ATOM      1  C   UNL d   1      -0.150   1.692   2.703  0.00  0.00    -0.002 A 
ATOM      2  C1  UNL d   1       0.433   0.466   2.989  0.00  0.00     0.010 A 
ATOM      3  C2  UNL d   1      -0.332  -0.702   2.992  0.00  0.00     0.041 A 
ATOM      4  C3  UNL d   1      -1.707  -0.616   2.697  0.00  0.00    -0.075 A 
ATOM      5  S   UNL d   1      -2.841  -1.913   2.641  0.00  0.00     0.015 SA
ATOM      6  C4  UNL d   1      -4.127  -0.871   2.235  0.00  0.00     0.022 A 
ATOM      7  C5  UNL d   1      -3.719   0.439   2.141  0.00  0.00     0.026 A 
ATOM      8  C6  UNL d   1      -2.318   0.607   2.405  0.00  0.00    -0.082 A 
ATOM      9  C7  UNL d   1      -1.515   1.773   2.411  0.00  0.00     0.045 A 
ENDROOT
TORSDOF 0
ENDMDL
