MODEL 1
REMARK minimizedAffinity 11.6402149
REMARK minimizedRMSD -1
REMARK  2 active torsions:
REMARK  status: ('A' for Active; 'I' for Inactive)
REMARK    1  A    between atoms: C1_2  and  C2_3 
REMARK    2  A    between atoms: C2_3  and  C3_4 
ROOT
ATOM      1  C3  UNL d   1       5.260   3.671   2.794  0.00  0.00    -0.075 A 
ATOM      2  C4  UNL d   1       4.217   3.687   1.856  0.00  0.00     0.002 A 
ATOM      3  C5  UNL d   1       3.936   4.844   1.129  0.00  0.00     0.002 A 
ATOM      4  C6  UNL d   1       4.686   6.000   1.336  0.00  0.00    -0.004 A 
ATOM      5  C7  UNL d   1       5.714   6.000   2.276  0.00  0.00     0.002 A 
ATOM      6  C8  UNL d   1       6.000   4.842   3.003  0.00  0.00     0.002 A 
ENDROOT
BRANCH   1   7
ATOM      7  C2  UNL d   1       5.588   2.413   3.563  0.00  0.00     0.056 C 
BRANCH   7   8
ATOM      8  C1  UNL d   1       4.681   1.224   3.230  0.00  0.00     0.007 C 
ATOM      9  C   UNL d   1       3.439   1.151   4.109  0.00  0.00     0.009 C 
ENDBRANCH   7   8
ENDBRANCH   1   7
TORSDOF 2
ENDMDL
