MODEL 1
REMARK minimizedAffinity 12.9487505
REMARK minimizedRMSD -1
REMARK  2 active torsions:
REMARK  status: ('A' for Active; 'I' for Inactive)
REMARK    1  A    between atoms: C1_2  and  C2_3 
REMARK    2  A    between atoms: C2_3  and  C3_4 
ROOT
ATOM      1  C3  UNL d   1      -0.875  -0.806   2.676  0.00  0.00    -0.075 A 
ATOM      2  C4  UNL d   1       0.161  -0.004   2.175  0.00  0.00     0.002 A 
ATOM      3  C5  UNL d   1       1.484  -0.240   2.551  0.00  0.00     0.002 A 
ATOM      4  C6  UNL d   1       1.786  -1.271   3.437  0.00  0.00    -0.004 A 
ATOM      5  C7  UNL d   1       0.764  -2.064   3.953  0.00  0.00     0.002 A 
ATOM      6  C8  UNL d   1      -0.561  -1.833   3.576  0.00  0.00     0.002 A 
ENDROOT
BRANCH   1   7
ATOM      7  C2  UNL d   1      -2.305  -0.575   2.250  0.00  0.00     0.056 C 
BRANCH   7   8
ATOM      8  C1  UNL d   1      -3.154  -1.849   2.199  0.00  0.00     0.007 C 
ATOM      9  C   UNL d   1      -4.468  -1.727   2.961  0.00  0.00     0.009 C 
ENDBRANCH   7   8
ENDBRANCH   1   7
TORSDOF 2
ENDMDL
