MODEL 1
REMARK minimizedAffinity 8.82854557
REMARK minimizedRMSD -1
REMARK  2 active torsions:
REMARK  status: ('A' for Active; 'I' for Inactive)
REMARK    1  A    between atoms: C1_2  and  C2_3 
REMARK    2  A    between atoms: C2_3  and  C3_4 
ROOT
ATOM      1  C3  UNL d   1       1.517  -0.423   3.563  0.00  0.00    -0.075 A 
ATOM      2  C4  UNL d   1       1.122  -1.592   4.230  0.00  0.00     0.002 A 
ATOM      3  C5  UNL d   1       1.773  -1.997   5.396  0.00  0.00     0.002 A 
ATOM      4  C6  UNL d   1       2.831  -1.245   5.903  0.00  0.00    -0.004 A 
ATOM      5  C7  UNL d   1       3.242  -0.091   5.240  0.00  0.00     0.002 A 
ATOM      6  C8  UNL d   1       2.590   0.318   4.076  0.00  0.00     0.002 A 
ENDROOT
BRANCH   1   7
ATOM      7  C2  UNL d   1       0.798   0.036   2.317  0.00  0.00     0.056 C 
BRANCH   7   8
ATOM      8  C1  UNL d   1       0.039  -1.078   1.589  0.00  0.00     0.007 C 
ATOM      9  C   UNL d   1       0.811  -1.661   0.413  0.00  0.00     0.009 C 
ENDBRANCH   7   8
ENDBRANCH   1   7
TORSDOF 2
ENDMDL
