MODEL 1
REMARK minimizedAffinity 8.48176193
REMARK minimizedRMSD -1
REMARK  2 active torsions:
REMARK  status: ('A' for Active; 'I' for Inactive)
REMARK    1  A    between atoms: C1_2  and  C2_3 
REMARK    2  A    between atoms: C2_3  and  C3_4 
ROOT
ATOM      1  C3  UNL d   1       0.377   0.790   3.328  0.00  0.00    -0.075 A 
ATOM      2  C4  UNL d   1      -0.400  -0.079   2.547  0.00  0.00     0.002 A 
ATOM      3  C5  UNL d   1       0.007  -1.396   2.336  0.00  0.00     0.002 A 
ATOM      4  C6  UNL d   1       1.197  -1.859   2.892  0.00  0.00    -0.004 A 
ATOM      5  C7  UNL d   1       1.985  -1.000   3.656  0.00  0.00     0.002 A 
ATOM      6  C8  UNL d   1       1.578   0.317   3.873  0.00  0.00     0.002 A 
ENDROOT
BRANCH   1   7
ATOM      7  C2  UNL d   1      -0.073   2.208   3.585  0.00  0.00     0.056 C 
BRANCH   7   8
ATOM      8  C1  UNL d   1      -0.495   2.476   5.034  0.00  0.00     0.007 C 
ATOM      9  C   UNL d   1       0.681   2.544   5.999  0.00  0.00     0.009 C 
ENDBRANCH   7   8
ENDBRANCH   1   7
TORSDOF 2
ENDMDL
