MODEL 1
REMARK minimizedAffinity 4.41707945
REMARK minimizedRMSD -1
REMARK  2 active torsions:
REMARK  status: ('A' for Active; 'I' for Inactive)
REMARK    1  A    between atoms: C1_2  and  C2_3 
REMARK    2  A    between atoms: C2_3  and  C3_4 
ROOT
ATOM      1  C3  UNL d   1       0.668  -1.975   3.680  0.00  0.00    -0.075 A 
ATOM      2  C4  UNL d   1      -0.328  -1.841   2.701  0.00  0.00     0.002 A 
ATOM      3  C5  UNL d   1      -0.669  -0.583   2.206  0.00  0.00     0.002 A 
ATOM      4  C6  UNL d   1      -0.029   0.557   2.688  0.00  0.00    -0.004 A 
ATOM      5  C7  UNL d   1       0.949   0.437   3.673  0.00  0.00     0.002 A 
ATOM      6  C8  UNL d   1       1.296  -0.821   4.167  0.00  0.00     0.002 A 
ENDROOT
BRANCH   1   7
ATOM      7  C2  UNL d   1       1.063  -3.337   4.199  0.00  0.00     0.056 C 
BRANCH   7   8
ATOM      8  C1  UNL d   1       1.384  -3.364   5.697  0.00  0.00     0.007 C 
ATOM      9  C   UNL d   1       2.854  -3.632   5.991  0.00  0.00     0.009 C 
ENDBRANCH   7   8
ENDBRANCH   1   7
TORSDOF 2
ENDMDL
