MODEL 1
REMARK minimizedAffinity 16.8679848
REMARK minimizedRMSD -1
REMARK  2 active torsions:
REMARK  status: ('A' for Active; 'I' for Inactive)
REMARK    1  A    between atoms: C1_2  and  C2_3 
REMARK    2  A    between atoms: C2_3  and  C3_4 
ROOT
ATOM      1  C3  UNL d   1      -0.626  -3.280  -5.600  0.00  0.00    -0.075 A 
ATOM      2  C4  UNL d   1      -1.954  -3.683  -5.797  0.00  0.00     0.002 A 
ATOM      3  C5  UNL d   1      -2.274  -5.036  -5.920  0.00  0.00     0.002 A 
ATOM      4  C6  UNL d   1      -1.270  -6.000  -5.857  0.00  0.00    -0.004 A 
ATOM      5  C7  UNL d   1       0.056  -5.610  -5.679  0.00  0.00     0.002 A 
ATOM      6  C8  UNL d   1       0.377  -4.258  -5.551  0.00  0.00     0.002 A 
ENDROOT
BRANCH   1   7
ATOM      7  C2  UNL d   1      -0.277  -1.820  -5.437  0.00  0.00     0.056 C 
BRANCH   7   8
ATOM      8  C1  UNL d   1       0.509  -1.505  -4.160  0.00  0.00     0.007 C 
ATOM      9  C   UNL d   1      -0.382  -1.111  -2.989  0.00  0.00     0.009 C 
ENDBRANCH   7   8
ENDBRANCH   1   7
TORSDOF 2
ENDMDL
