MODEL 1
REMARK minimizedAffinity -1.12730634
REMARK minimizedRMSD -1
REMARK  0 active torsions:
REMARK  status: ('A' for Active; 'I' for Inactive)
ROOT
ATOM      1  C   UNL d   1      -4.940   2.880  -5.999  0.00  0.00     0.172 C 
ATOM      2  N   UNL d   1      -3.567   2.961  -5.559  0.00  0.00    -0.070 N 
ATOM      3  C1  UNL d   1      -2.970   2.132  -4.648  0.00  0.00    -0.004 A 
ATOM      4  C2  UNL d   1      -1.661   2.537  -4.502  0.00  0.00    -0.047 A 
ATOM      5  C3  UNL d   1      -1.464   3.649  -5.355  0.00  0.00    -0.047 A 
ATOM      6  C4  UNL d   1      -2.660   3.890  -5.997  0.00  0.00    -0.004 A 
ENDROOT
TORSDOF 0
ENDMDL
