MODEL 1
REMARK minimizedAffinity -2.11572337
REMARK minimizedRMSD -1
REMARK  0 active torsions:
REMARK  status: ('A' for Active; 'I' for Inactive)
ROOT
ATOM      1  C   UNL d   1       5.654  -5.256  -6.000  0.00  0.00     0.172 C 
ATOM      2  N   UNL d   1       4.392  -5.413  -5.314  0.00  0.00    -0.070 N 
ATOM      3  C1  UNL d   1       3.268  -5.996  -5.835  0.00  0.00    -0.004 A 
ATOM      4  C2  UNL d   1       2.284  -5.951  -4.871  0.00  0.00    -0.047 A 
ATOM      5  C3  UNL d   1       2.836  -5.317  -3.732  0.00  0.00    -0.047 A 
ATOM      6  C4  UNL d   1       4.142  -4.995  -4.034  0.00  0.00    -0.004 A 
ENDROOT
TORSDOF 0
ENDMDL
