MODEL 1
REMARK minimizedAffinity 1.2302959
REMARK minimizedRMSD -1
REMARK  0 active torsions:
REMARK  status: ('A' for Active; 'I' for Inactive)
ROOT
ATOM      1  C   UNL d   1       3.396  -5.227  -2.470  0.00  0.00     0.172 C 
ATOM      2  N   UNL d   1       3.479  -5.375  -3.904  0.00  0.00    -0.070 N 
ATOM      3  C1  UNL d   1       4.498  -4.918  -4.697  0.00  0.00    -0.004 A 
ATOM      4  C2  UNL d   1       4.203  -5.257  -6.000  0.00  0.00    -0.047 A 
ATOM      5  C3  UNL d   1       2.964  -5.941  -5.990  0.00  0.00    -0.047 A 
ATOM      6  C4  UNL d   1       2.538  -5.999  -4.680  0.00  0.00    -0.004 A 
ENDROOT
TORSDOF 0
ENDMDL
