MODEL 1
REMARK minimizedAffinity -1.30698121
REMARK minimizedRMSD -1
REMARK  0 active torsions:
REMARK  status: ('A' for Active; 'I' for Inactive)
ROOT
ATOM      1  C   UNL d   1       3.858  -5.950  -2.382  0.00  0.00     0.172 C 
ATOM      2  N   UNL d   1       4.076  -5.896  -3.808  0.00  0.00    -0.070 N 
ATOM      3  C1  UNL d   1       3.105  -6.000  -4.768  0.00  0.00    -0.004 A 
ATOM      4  C2  UNL d   1       3.717  -5.899  -5.999  0.00  0.00    -0.047 A 
ATOM      5  C3  UNL d   1       5.103  -5.731  -5.771  0.00  0.00    -0.047 A 
ATOM      6  C4  UNL d   1       5.298  -5.732  -4.406  0.00  0.00    -0.004 A 
ENDROOT
TORSDOF 0
ENDMDL
