MODEL 1
REMARK minimizedAffinity -3.00552487
REMARK minimizedRMSD -1
REMARK  0 active torsions:
REMARK  status: ('A' for Active; 'I' for Inactive)
ROOT
ATOM      1  C   UNL d   1       2.445  -5.996  -5.674  0.00  0.00     0.172 C 
ATOM      2  N   UNL d   1       3.794  -5.778  -5.210  0.00  0.00    -0.070 N 
ATOM      3  C1  UNL d   1       4.911  -5.721  -6.000  0.00  0.00    -0.004 A 
ATOM      4  C2  UNL d   1       5.997  -5.498  -5.181  0.00  0.00    -0.047 A 
ATOM      5  C3  UNL d   1       5.516  -5.420  -3.852  0.00  0.00    -0.047 A 
ATOM      6  C4  UNL d   1       4.149  -5.597  -3.899  0.00  0.00    -0.004 A 
ENDROOT
TORSDOF 0
ENDMDL
