MODEL 1
REMARK minimizedAffinity -0.169964135
REMARK minimizedRMSD -1
REMARK  0 active torsions:
REMARK  status: ('A' for Active; 'I' for Inactive)
ROOT
ATOM      1  C   UNL d   1       4.499   5.953   5.626  0.00  0.00     0.172 C 
ATOM      2  N   UNL d   1       4.777   5.428   4.310  0.00  0.00    -0.070 N 
ATOM      3  C1  UNL d   1       3.870   5.307   3.291  0.00  0.00    -0.004 A 
ATOM      4  C2  UNL d   1       4.524   4.766   2.206  0.00  0.00    -0.047 A 
ATOM      5  C3  UNL d   1       5.871   4.554   2.586  0.00  0.00    -0.047 A 
ATOM      6  C4  UNL d   1       5.999   4.972   3.893  0.00  0.00    -0.004 A 
ENDROOT
TORSDOF 0
ENDMDL
