MODEL 1
REMARK minimizedAffinity -2.24183702
REMARK minimizedRMSD -1
REMARK  0 active torsions:
REMARK  status: ('A' for Active; 'I' for Inactive)
ROOT
ATOM      1  C   UNL d   1       2.978  -6.000  -5.997  0.00  0.00     0.172 C 
ATOM      2  N   UNL d   1       3.918  -5.649  -4.958  0.00  0.00    -0.070 N 
ATOM      3  C1  UNL d   1       3.661  -5.660  -3.613  0.00  0.00    -0.004 A 
ATOM      4  C2  UNL d   1       4.809  -5.264  -2.961  0.00  0.00    -0.047 A 
ATOM      5  C3  UNL d   1       5.789  -5.005  -3.949  0.00  0.00    -0.047 A 
ATOM      6  C4  UNL d   1       5.210  -5.252  -5.176  0.00  0.00    -0.004 A 
ENDROOT
TORSDOF 0
ENDMDL
