MODEL 1
REMARK minimizedAffinity 4.24495029
REMARK minimizedRMSD -1
REMARK  0 active torsions:
REMARK  status: ('A' for Active; 'I' for Inactive)
ROOT
ATOM      1  C   UNL d   1       3.731  -5.073  -2.399  0.00  0.00     0.172 C 
ATOM      2  N   UNL d   1       3.329  -5.283  -3.770  0.00  0.00    -0.070 N 
ATOM      3  C1  UNL d   1       3.980  -4.803  -4.875  0.00  0.00    -0.004 A 
ATOM      4  C2  UNL d   1       3.284  -5.219  -5.989  0.00  0.00    -0.047 A 
ATOM      5  C3  UNL d   1       2.176  -5.975  -5.538  0.00  0.00    -0.047 A 
ATOM      6  C4  UNL d   1       2.228  -5.998  -4.161  0.00  0.00    -0.004 A 
ENDROOT
TORSDOF 0
ENDMDL
