MODEL 1
REMARK minimizedAffinity -2.88644886
REMARK minimizedRMSD -1
REMARK  0 active torsions:
REMARK  status: ('A' for Active; 'I' for Inactive)
ROOT
ATOM      1  C   UNL d   1       3.075  -5.998  -5.989  0.00  0.00     0.172 C 
ATOM      2  N   UNL d   1       4.052  -5.730  -4.960  0.00  0.00    -0.070 N 
ATOM      3  C1  UNL d   1       5.411  -5.758  -5.123  0.00  0.00    -0.004 A 
ATOM      4  C2  UNL d   1       5.988  -5.447  -3.911  0.00  0.00    -0.047 A 
ATOM      5  C3  UNL d   1       4.940  -5.227  -2.987  0.00  0.00    -0.047 A 
ATOM      6  C4  UNL d   1       3.752  -5.408  -3.663  0.00  0.00    -0.004 A 
ENDROOT
TORSDOF 0
ENDMDL
