MODEL 1
REMARK minimizedAffinity -1.36928141
REMARK minimizedRMSD -1
REMARK  0 active torsions:
REMARK  status: ('A' for Active; 'I' for Inactive)
ROOT
ATOM      1  C   UNL d   1       2.291  -5.989  -4.867  0.00  0.00     0.172 C 
ATOM      2  N   UNL d   1       3.614  -5.467  -5.113  0.00  0.00    -0.070 N 
ATOM      3  C1  UNL d   1       4.166  -4.371  -4.504  0.00  0.00    -0.004 A 
ATOM      4  C2  UNL d   1       5.437  -4.202  -5.009  0.00  0.00    -0.047 A 
ATOM      5  C3  UNL d   1       5.657  -5.232  -5.955  0.00  0.00    -0.047 A 
ATOM      6  C4  UNL d   1       4.513  -6.000  -5.999  0.00  0.00    -0.004 A 
ENDROOT
TORSDOF 0
ENDMDL
