MODEL 1
REMARK minimizedAffinity -2.53988194
REMARK minimizedRMSD -1
REMARK  0 active torsions:
REMARK  status: ('A' for Active; 'I' for Inactive)
ROOT
ATOM      1  C   UNL d   1       4.134  -4.882  -2.587  0.00  0.00     0.172 C 
ATOM      2  N   UNL d   1       4.217  -5.270  -3.976  0.00  0.00    -0.070 N 
ATOM      3  C1  UNL d   1       3.182  -5.745  -4.735  0.00  0.00    -0.004 A 
ATOM      4  C2  UNL d   1       3.668  -5.999  -6.000  0.00  0.00    -0.047 A 
ATOM      5  C3  UNL d   1       5.043  -5.665  -6.000  0.00  0.00    -0.047 A 
ATOM      6  C4  UNL d   1       5.357  -5.216  -4.734  0.00  0.00    -0.004 A 
ENDROOT
TORSDOF 0
ENDMDL
