MODEL 1
REMARK minimizedAffinity -1.8387239
REMARK minimizedRMSD -1
REMARK  0 active torsions:
REMARK  status: ('A' for Active; 'I' for Inactive)
ROOT
ATOM      1  C   UNL d   1       4.119  -5.483  -2.409  0.00  0.00     0.172 C 
ATOM      2  N   UNL d   1       4.067  -5.528  -3.851  0.00  0.00    -0.070 N 
ATOM      3  C1  UNL d   1       5.082  -5.173  -4.698  0.00  0.00    -0.004 A 
ATOM      4  C2  UNL d   1       4.639  -5.358  -5.990  0.00  0.00    -0.047 A 
ATOM      5  C3  UNL d   1       3.311  -5.841  -5.917  0.00  0.00    -0.047 A 
ATOM      6  C4  UNL d   1       2.982  -5.936  -4.581  0.00  0.00    -0.004 A 
ENDROOT
TORSDOF 0
ENDMDL
