MODEL 1
REMARK minimizedAffinity -3.1372788
REMARK minimizedRMSD -1
REMARK  0 active torsions:
REMARK  status: ('A' for Active; 'I' for Inactive)
ROOT
ATOM      1  C   UNL d   1       5.999  -5.215  -3.362  0.00  0.00     0.172 C 
ATOM      2  N   UNL d   1       4.846  -5.445  -4.200  0.00  0.00    -0.070 N 
ATOM      3  C1  UNL d   1       3.625  -5.892  -3.772  0.00  0.00    -0.004 A 
ATOM      4  C2  UNL d   1       2.799  -5.980  -4.872  0.00  0.00    -0.047 A 
ATOM      5  C3  UNL d   1       3.550  -5.573  -6.000  0.00  0.00    -0.047 A 
ATOM      6  C4  UNL d   1       4.814  -5.248  -5.555  0.00  0.00    -0.004 A 
ENDROOT
TORSDOF 0
ENDMDL
