MODEL 1
REMARK minimizedAffinity -0.154325634
REMARK minimizedRMSD -1
REMARK  0 active torsions:
REMARK  status: ('A' for Active; 'I' for Inactive)
ROOT
ATOM      1  C   UNL d   1       4.428  -5.624  -2.393  0.00  0.00     0.172 C 
ATOM      2  N   UNL d   1       4.731  -5.772  -3.797  0.00  0.00    -0.070 N 
ATOM      3  C1  UNL d   1       3.811  -5.872  -4.807  0.00  0.00    -0.004 A 
ATOM      4  C2  UNL d   1       4.499  -6.000  -5.994  0.00  0.00    -0.047 A 
ATOM      5  C3  UNL d   1       5.881  -5.977  -5.687  0.00  0.00    -0.047 A 
ATOM      6  C4  UNL d   1       5.996  -5.835  -4.321  0.00  0.00    -0.004 A 
ENDROOT
TORSDOF 0
ENDMDL
