MODEL 1
REMARK minimizedAffinity -2.95108795
REMARK minimizedRMSD -1
REMARK  0 active torsions:
REMARK  status: ('A' for Active; 'I' for Inactive)
ROOT
ATOM      1  C   UNL d   1       3.168  -5.999  -6.000  0.00  0.00     0.172 C 
ATOM      2  N   UNL d   1       4.053  -5.543  -4.954  0.00  0.00    -0.070 N 
ATOM      3  C1  UNL d   1       3.706  -5.345  -3.644  0.00  0.00    -0.004 A 
ATOM      4  C2  UNL d   1       4.828  -4.911  -2.972  0.00  0.00    -0.047 A 
ATOM      5  C3  UNL d   1       5.886  -4.845  -3.910  0.00  0.00    -0.047 A 
ATOM      6  C4  UNL d   1       5.378  -5.242  -5.129  0.00  0.00    -0.004 A 
ENDROOT
TORSDOF 0
ENDMDL
