MODEL 1
REMARK minimizedAffinity -2.04905891
REMARK minimizedRMSD -1
REMARK  0 active torsions:
REMARK  status: ('A' for Active; 'I' for Inactive)
ROOT
ATOM      1  C   UNL d   1       3.425  -5.257  -2.505  0.00  0.00     0.172 C 
ATOM      2  N   UNL d   1       3.406  -5.534  -3.922  0.00  0.00    -0.070 N 
ATOM      3  C1  UNL d   1       2.283  -5.716  -4.685  0.00  0.00    -0.004 A 
ATOM      4  C2  UNL d   1       2.687  -5.956  -5.980  0.00  0.00    -0.047 A 
ATOM      5  C3  UNL d   1       4.102  -5.918  -5.996  0.00  0.00    -0.047 A 
ATOM      6  C4  UNL d   1       4.521  -5.655  -4.709  0.00  0.00    -0.004 A 
ENDROOT
TORSDOF 0
ENDMDL
