MODEL 1
REMARK minimizedAffinity 6.27181673
REMARK minimizedRMSD -1
REMARK  1 active torsions:
REMARK  status: ('A' for Active; 'I' for Inactive)
REMARK    1  A    between atoms: C1_2  and  C2_3 
ROOT
ATOM      1  C2  UNL d   1      -2.499   0.008  -1.869  0.00  0.00    -0.081 A 
ATOM      2  C3  UNL d   1      -3.813  -0.221  -1.441  0.00  0.00     0.006 A 
ATOM      3  C4  UNL d   1      -4.241   0.238  -0.194  0.00  0.00     0.002 A 
ATOM      4  C5  UNL d   1      -3.367   0.940   0.643  0.00  0.00    -0.080 A 
ATOM      5  C6  UNL d   1      -3.823   1.465   1.972  0.00  0.00     0.076 C 
ATOM      6  C7  UNL d   1      -2.050   1.154   0.223  0.00  0.00     0.002 A 
ATOM      7  C8  UNL d   1      -1.620   0.694  -1.024  0.00  0.00     0.006 A 
ENDROOT
BRANCH   1   8
ATOM      8  C1  UNL d   1      -2.052  -0.429  -3.241  0.00  0.00     0.054 C 
ATOM      9  C   UNL d   1      -2.953   0.144  -4.325  0.00  0.00     0.018 C 
ENDBRANCH   1   8
TORSDOF 1
ENDMDL
