MODEL 1
REMARK minimizedAffinity 8.87425709
REMARK minimizedRMSD -1
REMARK  1 active torsions:
REMARK  status: ('A' for Active; 'I' for Inactive)
REMARK    1  A    between atoms: C1_2  and  C2_3 
ROOT
ATOM      1  C2  UNL d   1       1.862   1.244   0.701  0.00  0.00    -0.081 A 
ATOM      2  C3  UNL d   1       2.467   0.528  -0.340  0.00  0.00     0.006 A 
ATOM      3  C4  UNL d   1       3.802   0.762  -0.677  0.00  0.00     0.002 A 
ATOM      4  C5  UNL d   1       4.556   1.709   0.024  0.00  0.00    -0.080 A 
ATOM      5  C6  UNL d   1       5.999   1.947  -0.308  0.00  0.00     0.076 C 
ATOM      6  C7  UNL d   1       3.947   2.436   1.052  0.00  0.00     0.002 A 
ATOM      7  C8  UNL d   1       2.612   2.203   1.390  0.00  0.00     0.006 A 
ENDROOT
BRANCH   1   8
ATOM      8  C1  UNL d   1       0.441   0.949   1.110  0.00  0.00     0.054 C 
ATOM      9  C   UNL d   1      -0.552   1.744   0.274  0.00  0.00     0.018 C 
ENDBRANCH   1   8
TORSDOF 1
ENDMDL
