MODEL 1
REMARK minimizedAffinity 6.93614578
REMARK minimizedRMSD -1
REMARK  1 active torsions:
REMARK  status: ('A' for Active; 'I' for Inactive)
REMARK    1  A    between atoms: C1_2  and  C2_3 
ROOT
ATOM      1  C2  UNL d   1      -3.275  -0.278  -1.462  0.00  0.00    -0.081 A 
ATOM      2  C3  UNL d   1      -4.578  -0.231  -0.951  0.00  0.00     0.006 A 
ATOM      3  C4  UNL d   1      -4.850   0.459   0.233  0.00  0.00     0.002 A 
ATOM      4  C5  UNL d   1      -3.826   1.120   0.920  0.00  0.00    -0.080 A 
ATOM      5  C6  UNL d   1      -4.110   1.891   2.175  0.00  0.00     0.076 C 
ATOM      6  C7  UNL d   1      -2.522   1.059   0.418  0.00  0.00     0.002 A 
ATOM      7  C8  UNL d   1      -2.249   0.368  -0.765  0.00  0.00     0.006 A 
ENDROOT
BRANCH   1   8
ATOM      8  C1  UNL d   1      -2.990  -0.967  -2.772  0.00  0.00     0.054 C 
ATOM      9  C   UNL d   1      -2.651   0.038  -3.864  0.00  0.00     0.018 C 
ENDBRANCH   1   8
TORSDOF 1
ENDMDL
