MODEL 1
REMARK minimizedAffinity 10.7023764
REMARK minimizedRMSD -1
REMARK  0 active torsions:
REMARK  status: ('A' for Active; 'I' for Inactive)
ROOT
ATOM      1  C1  DEN d   1      -0.317   1.347   0.179  0.00  0.00     0.130 A 
ATOM      2  C2  DEN d   1       0.688   2.378   0.421  0.00  0.00    -0.031 A 
ATOM      3  C3  DEN d   1       2.018   1.785   0.179  0.00  0.00     0.027 A 
ATOM      4  C4  DEN d   1       2.615  -0.616  -0.550  0.00  0.00     0.027 A 
ATOM      5  C5  DEN d   1       2.101  -1.854  -0.867  0.00  0.00    -0.003 A 
ATOM      6  C6  DEN d   1       0.757  -2.118  -0.826  0.00  0.00     0.001 A 
ATOM      7  C7  DEN d   1      -0.122  -1.119  -0.502  0.00  0.00     0.017 A 
ATOM      8  C8  DEN d   1       0.390   0.130  -0.174  0.00  0.00    -0.094 A 
ATOM      9  C9  DEN d   1       1.751   0.381  -0.234  0.00  0.00    -0.072 A 
ENDROOT
TORSDOF 0
ENDMDL
