MODEL 1
REMARK minimizedAffinity 7.51433277
REMARK minimizedRMSD -1
REMARK  0 active torsions:
REMARK  status: ('A' for Active; 'I' for Inactive)
ROOT
ATOM      1  C1  DEN d   1      -3.328  -1.174  -0.450  0.00  0.00     0.130 A 
ATOM      2  C2  DEN d   1      -4.133   0.038  -0.574  0.00  0.00    -0.031 A 
ATOM      3  C3  DEN d   1      -3.224   1.199  -0.507  0.00  0.00     0.027 A 
ATOM      4  C4  DEN d   1      -0.660   1.238  -0.230  0.00  0.00     0.027 A 
ATOM      5  C5  DEN d   1       0.464   0.458  -0.072  0.00  0.00    -0.003 A 
ATOM      6  C6  DEN d   1       0.400  -0.908   0.004  0.00  0.00     0.001 A 
ATOM      7  C7  DEN d   1      -0.810  -1.539  -0.123  0.00  0.00     0.017 A 
ATOM      8  C8  DEN d   1      -1.948  -0.759  -0.275  0.00  0.00    -0.094 A 
ATOM      9  C9  DEN d   1      -1.861   0.620  -0.362  0.00  0.00    -0.072 A 
ENDROOT
TORSDOF 0
ENDMDL
