MODEL 1
REMARK minimizedAffinity 0.994765639
REMARK minimizedRMSD -1
REMARK  0 active torsions:
REMARK  status: ('A' for Active; 'I' for Inactive)
ROOT
ATOM      1  C1  DEN d   1       3.527   1.053  -0.513  0.00  0.00     0.130 A 
ATOM      2  C2  DEN d   1       4.856   0.533  -0.823  0.00  0.00    -0.031 A 
ATOM      3  C3  DEN d   1       4.750  -0.933  -0.967  0.00  0.00     0.027 A 
ATOM      4  C4  DEN d   1       2.668  -2.439  -0.746  0.00  0.00     0.027 A 
ATOM      5  C5  DEN d   1       1.316  -2.454  -0.480  0.00  0.00    -0.003 A 
ATOM      6  C6  DEN d   1       0.620  -1.315  -0.176  0.00  0.00     0.001 A 
ATOM      7  C7  DEN d   1       1.263  -0.105  -0.174  0.00  0.00     0.017 A 
ATOM      8  C8  DEN d   1       2.627  -0.083  -0.433  0.00  0.00    -0.094 A 
ATOM      9  C9  DEN d   1       3.311  -1.244  -0.751  0.00  0.00    -0.072 A 
ENDROOT
TORSDOF 0
ENDMDL
