MODEL 1
REMARK minimizedAffinity -2.96274233
REMARK minimizedRMSD -1
REMARK  0 active torsions:
REMARK  status: ('A' for Active; 'I' for Inactive)
ROOT
ATOM      1  C1  DEN d   1       0.524   1.536   0.232  0.00  0.00     0.130 A 
ATOM      2  C2  DEN d   1      -0.923   1.369   0.133  0.00  0.00    -0.031 A 
ATOM      3  C3  DEN d   1      -1.198  -0.040  -0.213  0.00  0.00     0.027 A 
ATOM      4  C4  DEN d   1       0.469  -1.971  -0.597  0.00  0.00     0.027 A 
ATOM      5  C5  DEN d   1       1.803  -2.311  -0.633  0.00  0.00    -0.003 A 
ATOM      6  C6  DEN d   1       2.797  -1.394  -0.419  0.00  0.00     0.001 A 
ATOM      7  C7  DEN d   1       2.471  -0.099  -0.114  0.00  0.00     0.017 A 
ATOM      8  C8  DEN d   1       1.128   0.254  -0.082  0.00  0.00    -0.094 A 
ATOM      9  C9  DEN d   1       0.138  -0.691  -0.290  0.00  0.00    -0.072 A 
ENDROOT
TORSDOF 0
ENDMDL
