MODEL 1
REMARK minimizedAffinity 12.7266436
REMARK minimizedRMSD -1
REMARK  0 active torsions:
REMARK  status: ('A' for Active; 'I' for Inactive)
ROOT
ATOM      1  C1  DEN d   1      -1.852  -0.740  -1.653  0.00  0.00     0.130 A 
ATOM      2  C2  DEN d   1      -0.581  -0.574  -0.952  0.00  0.00    -0.031 A 
ATOM      3  C3  DEN d   1      -0.870  -0.062   0.402  0.00  0.00     0.027 A 
ATOM      4  C4  DEN d   1      -3.149   0.484   1.479  0.00  0.00     0.027 A 
ATOM      5  C5  DEN d   1      -4.510   0.515   1.271  0.00  0.00    -0.003 A 
ATOM      6  C6  DEN d   1      -5.074   0.165   0.072  0.00  0.00     0.001 A 
ATOM      7  C7  DEN d   1      -4.276  -0.275  -0.951  0.00  0.00     0.017 A 
ATOM      8  C8  DEN d   1      -2.902  -0.302  -0.751  0.00  0.00    -0.094 A 
ATOM      9  C9  DEN d   1      -2.352   0.044   0.472  0.00  0.00    -0.072 A 
ENDROOT
TORSDOF 0
ENDMDL
