MODEL 1
REMARK minimizedAffinity 6.18661404
REMARK minimizedRMSD -1
REMARK  0 active torsions:
REMARK  status: ('A' for Active; 'I' for Inactive)
ROOT
ATOM      1  C1  DEN d   1       3.674  -2.230  -2.196  0.00  0.00     0.130 A 
ATOM      2  C2  DEN d   1       4.559  -1.070  -2.260  0.00  0.00    -0.031 A 
ATOM      3  C3  DEN d   1       3.907   0.041  -1.539  0.00  0.00     0.027 A 
ATOM      4  C4  DEN d   1       1.628   0.078  -0.332  0.00  0.00     0.027 A 
ATOM      5  C5  DEN d   1       0.512  -0.666  -0.018  0.00  0.00    -0.003 A 
ATOM      6  C6  DEN d   1       0.357  -1.962  -0.434  0.00  0.00     0.001 A 
ATOM      7  C7  DEN d   1       1.356  -2.568  -1.149  0.00  0.00     0.017 A 
ATOM      8  C8  DEN d   1       2.481  -1.823  -1.476  0.00  0.00    -0.094 A 
ATOM      9  C9  DEN d   1       2.624  -0.518  -1.036  0.00  0.00    -0.072 A 
ENDROOT
TORSDOF 0
ENDMDL
