MODEL 1
REMARK minimizedAffinity 11.0180902
REMARK minimizedRMSD -1
REMARK  0 active torsions:
REMARK  status: ('A' for Active; 'I' for Inactive)
ROOT
ATOM      1  C1  DEN d   1       1.348  -1.341   5.928  0.00  0.00     0.130 A 
ATOM      2  C2  DEN d   1       0.369  -0.258   5.958  0.00  0.00    -0.031 A 
ATOM      3  C3  DEN d   1      -0.978  -0.862   5.982  0.00  0.00     0.027 A 
ATOM      4  C4  DEN d   1      -1.640  -3.355   5.983  0.00  0.00     0.027 A 
ATOM      5  C5  DEN d   1      -1.158  -4.644   5.951  0.00  0.00    -0.003 A 
ATOM      6  C6  DEN d   1       0.182  -4.921   5.877  0.00  0.00     0.001 A 
ATOM      7  C7  DEN d   1       1.088  -3.893   5.876  0.00  0.00     0.017 A 
ATOM      8  C8  DEN d   1       0.609  -2.590   5.900  0.00  0.00    -0.094 A 
ATOM      9  C9  DEN d   1      -0.749  -2.332   5.988  0.00  0.00    -0.072 A 
ENDROOT
TORSDOF 0
ENDMDL
