MODEL 1
REMARK minimizedAffinity 12.2987881
REMARK minimizedRMSD -1
REMARK  0 active torsions:
REMARK  status: ('A' for Active; 'I' for Inactive)
ROOT
ATOM      1  C1  DEN d   1       1.758  -1.813  -0.021  0.00  0.00     0.130 A 
ATOM      2  C2  DEN d   1       1.364  -3.012  -0.755  0.00  0.00    -0.031 A 
ATOM      3  C3  DEN d   1       0.103  -2.719  -1.467  0.00  0.00     0.027 A 
ATOM      4  C4  DEN d   1      -1.266  -0.533  -1.506  0.00  0.00     0.027 A 
ATOM      5  C5  DEN d   1      -1.337   0.756  -1.027  0.00  0.00    -0.003 A 
ATOM      6  C6  DEN d   1      -0.407   1.265  -0.160  0.00  0.00     0.001 A 
ATOM      7  C7  DEN d   1       0.660   0.494   0.220  0.00  0.00     0.017 A 
ATOM      8  C8  DEN d   1       0.734  -0.810  -0.252  0.00  0.00    -0.094 A 
ATOM      9  C9  DEN d   1      -0.210  -1.302  -1.138  0.00  0.00    -0.072 A 
ENDROOT
TORSDOF 0
ENDMDL
