MODEL 1
REMARK minimizedAffinity 13.2434435
REMARK minimizedRMSD -1
REMARK  0 active torsions:
REMARK  status: ('A' for Active; 'I' for Inactive)
ROOT
ATOM      1  C1  DEN d   1      -0.808  -3.011  -1.910  0.00  0.00     0.130 A 
ATOM      2  C2  DEN d   1      -1.249  -4.231  -1.239  0.00  0.00    -0.031 A 
ATOM      3  C3  DEN d   1      -0.328  -4.493  -0.115  0.00  0.00     0.027 A 
ATOM      4  C4  DEN d   1       1.724  -3.132   0.651  0.00  0.00     0.027 A 
ATOM      5  C5  DEN d   1       2.500  -2.025   0.386  0.00  0.00    -0.003 A 
ATOM      6  C6  DEN d   1       2.249  -1.194  -0.674  0.00  0.00     0.001 A 
ATOM      7  C7  DEN d   1       1.170  -1.433  -1.483  0.00  0.00     0.017 A 
ATOM      8  C8  DEN d   1       0.388  -2.552  -1.226  0.00  0.00    -0.094 A 
ATOM      9  C9  DEN d   1       0.650  -3.372  -0.142  0.00  0.00    -0.072 A 
ENDROOT
TORSDOF 0
ENDMDL
