MODEL 1
REMARK minimizedAffinity 15.5489206
REMARK minimizedRMSD -1
REMARK  0 active torsions:
REMARK  status: ('A' for Active; 'I' for Inactive)
ROOT
ATOM      1  C1  DEN d   1       1.552  -1.981   2.964  0.00  0.00     0.130 A 
ATOM      2  C2  DEN d   1       1.473  -0.814   3.839  0.00  0.00    -0.031 A 
ATOM      3  C3  DEN d   1       1.544   0.395   2.995  0.00  0.00     0.027 A 
ATOM      4  C4  DEN d   1       1.763   0.575   0.432  0.00  0.00     0.027 A 
ATOM      5  C5  DEN d   1       1.878  -0.143  -0.738  0.00  0.00    -0.003 A 
ATOM      6  C6  DEN d   1       1.926  -1.512  -0.753  0.00  0.00     0.001 A 
ATOM      7  C7  DEN d   1       1.813  -2.208   0.422  0.00  0.00     0.017 A 
ATOM      8  C8  DEN d   1       1.705  -1.491   1.606  0.00  0.00    -0.094 A 
ATOM      9  C9  DEN d   1       1.646  -0.107   1.599  0.00  0.00    -0.072 A 
ENDROOT
TORSDOF 0
ENDMDL
