MODEL 1
REMARK minimizedAffinity 5.09417582
REMARK minimizedRMSD -1
REMARK  2 active torsions:
REMARK  status: ('A' for Active; 'I' for Inactive)
REMARK    1  A    between atoms: C2'_3  and  C1'_4 
REMARK    2  A    between atoms: C1'_4  and  C1_5 
ROOT
ATOM      1  C1  I4B d   1      -1.473   5.959  -3.515  0.00  0.00    -0.075 A 
ATOM      2  C2  I4B d   1      -2.147   5.936  -2.319  0.00  0.00     0.003 A 
ATOM      3  C3  I4B d   1      -3.563   5.928  -2.299  0.00  0.00     0.002 A 
ATOM      4  C4  I4B d   1      -4.260   5.994  -3.488  0.00  0.00    -0.004 A 
ATOM      5  C5  I4B d   1      -3.575   5.994  -4.700  0.00  0.00     0.002 A 
ATOM      6  C6  I4B d   1      -2.173   5.964  -4.714  0.00  0.00     0.003 A 
ENDROOT
BRANCH   1   7
ATOM      7  C1' I4B d   1       0.022   6.000  -3.498  0.00  0.00     0.060 C 
BRANCH   7   8
ATOM      8  C2' I4B d   1       0.523   5.249  -4.715  0.00  0.00    -0.013 C 
ATOM      9  C4' I4B d   1       1.680   5.966  -5.360  0.00  0.00     0.013 C 
ATOM     10  C3' I4B d   1       0.917   3.869  -4.278  0.00  0.00     0.013 C 
ENDBRANCH   7   8
ENDBRANCH   1   7
TORSDOF 2
ENDMDL
