MODEL 1
REMARK minimizedAffinity -1.30892015
REMARK minimizedRMSD -1
REMARK  2 active torsions:
REMARK  status: ('A' for Active; 'I' for Inactive)
REMARK    1  A    between atoms: C2'_3  and  C1'_4 
REMARK    2  A    between atoms: C1'_4  and  C1_5 
ROOT
ATOM      1  C1  I4B d   1      -1.885   5.938  -3.415  0.00  0.00    -0.075 A 
ATOM      2  C2  I4B d   1      -2.270   5.994  -2.099  0.00  0.00     0.003 A 
ATOM      3  C3  I4B d   1      -3.644   6.000  -1.758  0.00  0.00     0.002 A 
ATOM      4  C4  I4B d   1      -4.593   5.999  -2.760  0.00  0.00    -0.004 A 
ATOM      5  C5  I4B d   1      -4.201   5.919  -4.093  0.00  0.00     0.002 A 
ATOM      6  C6  I4B d   1      -2.838   5.876  -4.423  0.00  0.00     0.003 A 
ENDROOT
BRANCH   1   7
ATOM      7  C1' I4B d   1      -0.425   5.968  -3.741  0.00  0.00     0.060 C 
BRANCH   7   8
ATOM      8  C2' I4B d   1      -0.237   5.327  -5.101  0.00  0.00    -0.013 C 
ATOM      9  C4' I4B d   1       0.868   6.000  -5.872  0.00  0.00     0.013 C 
ATOM     10  C3' I4B d   1       0.057   3.872  -4.891  0.00  0.00     0.013 C 
ENDBRANCH   7   8
ENDBRANCH   1   7
TORSDOF 2
ENDMDL
