MODEL 1
REMARK minimizedAffinity 9.48461723
REMARK minimizedRMSD -1
REMARK  2 active torsions:
REMARK  status: ('A' for Active; 'I' for Inactive)
REMARK    1  A    between atoms: C2'_3  and  C1'_4 
REMARK    2  A    between atoms: C1'_4  and  C1_5 
ROOT
ATOM      1  C1  I4B d   1      -0.528   0.374  -0.145  0.00  0.00    -0.075 A 
ATOM      2  C2  I4B d   1      -0.264   1.297  -1.126  0.00  0.00     0.003 A 
ATOM      3  C3  I4B d   1       0.505   2.449  -0.833  0.00  0.00     0.002 A 
ATOM      4  C4  I4B d   1       0.944   2.662   0.458  0.00  0.00    -0.004 A 
ATOM      5  C5  I4B d   1       0.695   1.714   1.446  0.00  0.00     0.002 A 
ATOM      6  C6  I4B d   1      -0.035   0.557   1.141  0.00  0.00     0.003 A 
ENDROOT
BRANCH   1   7
ATOM      7  C1' I4B d   1      -1.371  -0.815  -0.481  0.00  0.00     0.060 C 
BRANCH   7   8
ATOM      8  C2' I4B d   1      -2.055  -0.543  -1.806  0.00  0.00    -0.013 C 
ATOM      9  C4' I4B d   1      -1.323  -1.205  -2.943  0.00  0.00     0.013 C 
ATOM     10  C3' I4B d   1      -3.467  -1.038  -1.708  0.00  0.00     0.013 C 
ENDBRANCH   7   8
ENDBRANCH   1   7
TORSDOF 2
ENDMDL
