MODEL 1
REMARK minimizedAffinity -3.10625792
REMARK minimizedRMSD -1
REMARK  2 active torsions:
REMARK  status: ('A' for Active; 'I' for Inactive)
REMARK    1  A    between atoms: C2'_3  and  C1'_4 
REMARK    2  A    between atoms: C1'_4  and  C1_5 
ROOT
ATOM      1  C1  I4B d   1       3.070   4.815  -5.167  0.00  0.00    -0.075 A 
ATOM      2  C2  I4B d   1       3.851   5.810  -5.701  0.00  0.00     0.003 A 
ATOM      3  C3  I4B d   1       5.176   6.000  -5.240  0.00  0.00     0.002 A 
ATOM      4  C4  I4B d   1       5.660   5.211  -4.217  0.00  0.00    -0.004 A 
ATOM      5  C5  I4B d   1       4.875   4.187  -3.693  0.00  0.00     0.002 A 
ATOM      6  C6  I4B d   1       3.576   3.980  -4.180  0.00  0.00     0.003 A 
ENDROOT
BRANCH   1   7
ATOM      7  C1' I4B d   1       1.664   4.663  -5.654  0.00  0.00     0.060 C 
BRANCH   7   8
ATOM      8  C2' I4B d   1       0.908   5.928  -5.300  0.00  0.00    -0.013 C 
ATOM      9  C4' I4B d   1      -0.425   5.981  -5.998  0.00  0.00     0.013 C 
ATOM     10  C3' I4B d   1       0.741   5.965  -3.810  0.00  0.00     0.013 C 
ENDBRANCH   7   8
ENDBRANCH   1   7
TORSDOF 2
ENDMDL
