MODEL 1
REMARK minimizedAffinity 1.12080359
REMARK minimizedRMSD -1
REMARK  2 active torsions:
REMARK  status: ('A' for Active; 'I' for Inactive)
REMARK    1  A    between atoms: C2'_3  and  C1'_4 
REMARK    2  A    between atoms: C1'_4  and  C1_5 
ROOT
ATOM      1  C1  I4B d   1      -0.113   5.302  -3.472  0.00  0.00    -0.075 A 
ATOM      2  C2  I4B d   1      -1.048   5.404  -4.472  0.00  0.00     0.003 A 
ATOM      3  C3  I4B d   1      -2.378   5.783  -4.169  0.00  0.00     0.002 A 
ATOM      4  C4  I4B d   1      -2.740   6.000  -2.855  0.00  0.00    -0.004 A 
ATOM      5  C5  I4B d   1      -1.786   5.919  -1.845  0.00  0.00     0.002 A 
ATOM      6  C6  I4B d   1      -0.461   5.580  -2.156  0.00  0.00     0.003 A 
ENDROOT
BRANCH   1   7
ATOM      7  C1' I4B d   1       1.275   4.868  -3.824  0.00  0.00     0.060 C 
BRANCH   7   8
ATOM      8  C2' I4B d   1       1.941   6.000  -4.579  0.00  0.00    -0.013 C 
ATOM      9  C4' I4B d   1       3.441   5.895  -4.507  0.00  0.00     0.013 C 
ATOM     10  C3' I4B d   1       1.462   5.953  -6.000  0.00  0.00     0.013 C 
ENDBRANCH   7   8
ENDBRANCH   1   7
TORSDOF 2
ENDMDL
