MODEL 1
REMARK minimizedAffinity -3.16317916
REMARK minimizedRMSD -1
REMARK  2 active torsions:
REMARK  status: ('A' for Active; 'I' for Inactive)
REMARK    1  A    between atoms: C2'_3  and  C1'_4 
REMARK    2  A    between atoms: C1'_4  and  C1_5 
ROOT
ATOM      1  C1  I4B d   1       2.856   5.932  -4.763  0.00  0.00    -0.075 A 
ATOM      2  C2  I4B d   1       2.071   5.933  -5.889  0.00  0.00     0.003 A 
ATOM      3  C3  I4B d   1       0.661   5.981  -5.774  0.00  0.00     0.002 A 
ATOM      4  C4  I4B d   1       0.080   5.976  -4.522  0.00  0.00    -0.004 A 
ATOM      5  C5  I4B d   1       0.878   5.998  -3.382  0.00  0.00     0.002 A 
ATOM      6  C6  I4B d   1       2.275   5.989  -3.503  0.00  0.00     0.003 A 
ENDROOT
BRANCH   1   7
ATOM      7  C1' I4B d   1       4.341   5.848  -4.920  0.00  0.00     0.060 C 
BRANCH   7   8
ATOM      8  C2' I4B d   1       4.895   5.101  -3.723  0.00  0.00    -0.013 C 
ATOM      9  C4' I4B d   1       5.545   3.808  -4.141  0.00  0.00     0.013 C 
ATOM     10  C3' I4B d   1       5.875   6.000  -3.029  0.00  0.00     0.013 C 
ENDBRANCH   7   8
ENDBRANCH   1   7
TORSDOF 2
ENDMDL
