MODEL 1
REMARK minimizedAffinity 4.92611837
REMARK minimizedRMSD -1
REMARK  2 active torsions:
REMARK  status: ('A' for Active; 'I' for Inactive)
REMARK    1  A    between atoms: C2'_3  and  C1'_4 
REMARK    2  A    between atoms: C1'_4  and  C1_5 
ROOT
ATOM      1  C1  I4B d   1       0.403  -0.289   0.361  0.00  0.00    -0.075 A 
ATOM      2  C2  I4B d   1       0.563   0.354   1.563  0.00  0.00     0.003 A 
ATOM      3  C3  I4B d   1       0.805   1.748   1.598  0.00  0.00     0.002 A 
ATOM      4  C4  I4B d   1       0.927   2.447   0.415  0.00  0.00    -0.004 A 
ATOM      5  C5  I4B d   1       0.742   1.798  -0.802  0.00  0.00     0.002 A 
ATOM      6  C6  I4B d   1       0.465   0.423  -0.830  0.00  0.00     0.003 A 
ENDROOT
BRANCH   1   7
ATOM      7  C1' I4B d   1       0.182  -1.769   0.359  0.00  0.00     0.060 C 
BRANCH   7   8
ATOM      8  C2' I4B d   1      -1.254  -2.027   0.767  0.00  0.00    -0.013 C 
ATOM      9  C4' I4B d   1      -2.082  -2.479  -0.407  0.00  0.00     0.013 C 
ATOM     10  C3' I4B d   1      -1.247  -3.060   1.854  0.00  0.00     0.013 C 
ENDBRANCH   7   8
ENDBRANCH   1   7
TORSDOF 2
ENDMDL
