MODEL 1
REMARK minimizedAffinity 13.7254286
REMARK minimizedRMSD -1
REMARK  2 active torsions:
REMARK  status: ('A' for Active; 'I' for Inactive)
REMARK    1  A    between atoms: C2'_3  and  C1'_4 
REMARK    2  A    between atoms: C1'_4  and  C1_5 
ROOT
ATOM      1  C1  I4B d   1      -0.583   5.964  -4.861  0.00  0.00    -0.075 A 
ATOM      2  C2  I4B d   1      -1.915   5.948  -5.191  0.00  0.00     0.003 A 
ATOM      3  C3  I4B d   1      -2.901   5.949  -4.176  0.00  0.00     0.002 A 
ATOM      4  C4  I4B d   1      -2.514   5.915  -2.852  0.00  0.00    -0.004 A 
ATOM      5  C5  I4B d   1      -1.163   5.954  -2.518  0.00  0.00     0.002 A 
ATOM      6  C6  I4B d   1      -0.191   5.991  -3.528  0.00  0.00     0.003 A 
ENDROOT
BRANCH   1   7
ATOM      7  C1' I4B d   1       0.433   5.929  -5.958  0.00  0.00     0.060 C 
BRANCH   7   8
ATOM      8  C2' I4B d   1       1.614   5.112  -5.476  0.00  0.00    -0.013 C 
ATOM      9  C4' I4B d   1       2.908   5.858  -5.666  0.00  0.00     0.013 C 
ATOM     10  C3' I4B d   1       1.388   4.779  -4.031  0.00  0.00     0.013 C 
ENDBRANCH   7   8
ENDBRANCH   1   7
TORSDOF 2
ENDMDL
