MODEL 1
REMARK minimizedAffinity 12.6129808
REMARK minimizedRMSD -1
REMARK  2 active torsions:
REMARK  status: ('A' for Active; 'I' for Inactive)
REMARK    1  A    between atoms: C2'_3  and  C1'_4 
REMARK    2  A    between atoms: C1'_4  and  C1_5 
ROOT
ATOM      1  C1  I4B d   1      -2.082   5.903  -4.321  0.00  0.00    -0.075 A 
ATOM      2  C2  I4B d   1      -3.446   5.925  -4.471  0.00  0.00     0.003 A 
ATOM      3  C3  I4B d   1      -4.287   6.000  -3.334  0.00  0.00     0.002 A 
ATOM      4  C4  I4B d   1      -3.727   5.999  -2.073  0.00  0.00    -0.004 A 
ATOM      5  C5  I4B d   1      -2.343   5.999  -1.924  0.00  0.00     0.002 A 
ATOM      6  C6  I4B d   1      -1.515   5.963  -3.055  0.00  0.00     0.003 A 
ENDROOT
BRANCH   1   7
ATOM      7  C1' I4B d   1      -1.225   5.790  -5.541  0.00  0.00     0.060 C 
BRANCH   7   8
ATOM      8  C2' I4B d   1      -0.834   4.336  -5.705  0.00  0.00    -0.013 C 
ATOM      9  C4' I4B d   1       0.347   3.987  -4.837  0.00  0.00     0.013 C 
ATOM     10  C3' I4B d   1      -2.026   3.494  -5.360  0.00  0.00     0.013 C 
ENDBRANCH   7   8
ENDBRANCH   1   7
TORSDOF 2
ENDMDL
