MODEL 1
REMARK minimizedAffinity 1.69114423
REMARK minimizedRMSD -1
REMARK  2 active torsions:
REMARK  status: ('A' for Active; 'I' for Inactive)
REMARK    1  A    between atoms: C2'_3  and  C1'_4 
REMARK    2  A    between atoms: C1'_4  and  C1_5 
ROOT
ATOM      1  C1  I4B d   1      -0.645   6.000  -3.583  0.00  0.00    -0.075 A 
ATOM      2  C2  I4B d   1       0.723   5.995  -3.473  0.00  0.00     0.003 A 
ATOM      3  C3  I4B d   1       1.532   5.979  -4.635  0.00  0.00     0.002 A 
ATOM      4  C4  I4B d   1       0.935   5.916  -5.878  0.00  0.00    -0.004 A 
ATOM      5  C5  I4B d   1      -0.452   5.944  -5.988  0.00  0.00     0.002 A 
ATOM      6  C6  I4B d   1      -1.247   5.999  -4.835  0.00  0.00     0.003 A 
ENDROOT
BRANCH   1   7
ATOM      7  C1' I4B d   1      -1.469   5.984  -2.335  0.00  0.00     0.060 C 
BRANCH   7   8
ATOM      8  C2' I4B d   1      -2.622   5.026  -2.549  0.00  0.00    -0.013 C 
ATOM      9  C4' I4B d   1      -2.673   3.982  -1.464  0.00  0.00     0.013 C 
ATOM     10  C3' I4B d   1      -3.889   5.827  -2.588  0.00  0.00     0.013 C 
ENDBRANCH   7   8
ENDBRANCH   1   7
TORSDOF 2
ENDMDL
