MODEL 1
REMARK minimizedAffinity 7.7253437
REMARK minimizedRMSD -1
REMARK  2 active torsions:
REMARK  status: ('A' for Active; 'I' for Inactive)
REMARK    1  A    between atoms: C2'_3  and  C1'_4 
REMARK    2  A    between atoms: C1'_4  and  C1_5 
ROOT
ATOM      1  C1  I4B d   1       4.142   3.913  -4.746  0.00  0.00    -0.075 A 
ATOM      2  C2  I4B d   1       4.154   5.070  -4.008  0.00  0.00     0.003 A 
ATOM      3  C3  I4B d   1       5.111   5.250  -2.980  0.00  0.00     0.002 A 
ATOM      4  C4  I4B d   1       5.998   4.233  -2.692  0.00  0.00    -0.004 A 
ATOM      5  C5  I4B d   1       6.000   3.070  -3.456  0.00  0.00     0.002 A 
ATOM      6  C6  I4B d   1       5.074   2.914  -4.498  0.00  0.00     0.003 A 
ENDROOT
BRANCH   1   7
ATOM      7  C1' I4B d   1       3.097   3.743  -5.803  0.00  0.00     0.060 C 
BRANCH   7   8
ATOM      8  C2' I4B d   1       1.917   3.025  -5.180  0.00  0.00    -0.013 C 
ATOM      9  C4' I4B d   1       2.010   3.025  -3.677  0.00  0.00     0.013 C 
ATOM     10  C3' I4B d   1       0.664   3.706  -5.645  0.00  0.00     0.013 C 
ENDBRANCH   7   8
ENDBRANCH   1   7
TORSDOF 2
ENDMDL
