MODEL 1
REMARK minimizedAffinity 3.3982904
REMARK minimizedRMSD -1
REMARK  2 active torsions:
REMARK  status: ('A' for Active; 'I' for Inactive)
REMARK    1  A    between atoms: C2'_3  and  C1'_4 
REMARK    2  A    between atoms: C1'_4  and  C1_5 
ROOT
ATOM      1  C1  I4B d   1      -0.925  -1.656  -1.838  0.00  0.00    -0.075 A 
ATOM      2  C2  I4B d   1      -0.154  -1.824  -2.962  0.00  0.00     0.003 A 
ATOM      3  C3  I4B d   1      -0.767  -2.009  -4.225  0.00  0.00     0.002 A 
ATOM      4  C4  I4B d   1      -2.143  -2.068  -4.311  0.00  0.00    -0.004 A 
ATOM      5  C5  I4B d   1      -2.923  -1.874  -3.175  0.00  0.00     0.002 A 
ATOM      6  C6  I4B d   1      -2.311  -1.654  -1.932  0.00  0.00     0.003 A 
ENDROOT
BRANCH   1   7
ATOM      7  C1' I4B d   1      -0.245  -1.497  -0.515  0.00  0.00     0.060 C 
BRANCH   7   8
ATOM      8  C2' I4B d   1      -0.085  -0.014  -0.248  0.00  0.00    -0.013 C 
ATOM      9  C4' I4B d   1      -1.083   0.468   0.771  0.00  0.00     0.013 C 
ATOM     10  C3' I4B d   1       1.321   0.223   0.217  0.00  0.00     0.013 C 
ENDBRANCH   7   8
ENDBRANCH   1   7
TORSDOF 2
ENDMDL
