MODEL 1
REMARK minimizedAffinity 11.3178892
REMARK minimizedRMSD -1
REMARK  1 active torsions:
REMARK  status: ('A' for Active; 'I' for Inactive)
REMARK    1  A    between atoms: N_2  and  C1_3 
ROOT
ATOM      1  C1  UNL d   1       0.492  -2.012   1.104  0.00  0.00     0.143 A 
ATOM      2  C2  UNL d   1       1.168  -0.790   1.011  0.00  0.00    -0.057 A 
ATOM      3  C3  UNL d   1       2.003  -0.342   2.041  0.00  0.00     0.033 A 
ATOM      4  C4  UNL d   1       2.154  -1.097   3.200  0.00  0.00    -0.042 A 
ATOM      5  C5  UNL d   1       1.472  -2.302   3.325  0.00  0.00     0.033 A 
ATOM      6  C6  UNL d   1       0.645  -2.747   2.290  0.00  0.00    -0.057 A 
ENDROOT
BRANCH   1   7
ATOM      7  N   UNL d   1      -0.429  -2.465   0.157  0.00  0.00    -0.732 N 
ATOM      8  C   UNL d   1      -1.498  -1.605  -0.303  0.00  0.00     0.284 C 
ATOM      9  H3  UNL d   1       0.009  -3.013  -0.580  0.00  0.00     0.395 HD
ENDBRANCH   1   7
TORSDOF 1
ENDMDL
