MODEL 1
REMARK minimizedAffinity 6.30637693
REMARK minimizedRMSD -1
REMARK  1 active torsions:
REMARK  status: ('A' for Active; 'I' for Inactive)
REMARK    1  A    between atoms: N_2  and  C1_3 
ROOT
ATOM      1  C1  UNL d   1       0.418  -2.123   1.101  0.00  0.00     0.143 A 
ATOM      2  C2  UNL d   1      -0.821  -1.595   0.723  0.00  0.00    -0.057 A 
ATOM      3  C3  UNL d   1      -1.483  -2.046  -0.426  0.00  0.00     0.033 A 
ATOM      4  C4  UNL d   1      -0.900  -3.015  -1.237  0.00  0.00    -0.042 A 
ATOM      5  C5  UNL d   1       0.343  -3.535  -0.894  0.00  0.00     0.033 A 
ATOM      6  C6  UNL d   1       0.995  -3.086   0.258  0.00  0.00    -0.057 A 
ENDROOT
BRANCH   1   7
ATOM      7  N   UNL d   1       1.170  -1.647   2.177  0.00  0.00    -0.732 N 
ATOM      8  C   UNL d   1       1.569  -2.535   3.248  0.00  0.00     0.284 C 
ATOM      9  H3  UNL d   1       1.895  -0.995   1.886  0.00  0.00     0.395 HD
ENDBRANCH   1   7
TORSDOF 1
ENDMDL
