MODEL 1
REMARK minimizedAffinity 5.26413012
REMARK minimizedRMSD -1
REMARK  1 active torsions:
REMARK  status: ('A' for Active; 'I' for Inactive)
REMARK    1  A    between atoms: N_2  and  C1_3 
ROOT
ATOM      1  C1  UNL d   1       1.190  -2.769   3.302  0.00  0.00     0.143 A 
ATOM      2  C2  UNL d   1       1.800  -1.520   3.141  0.00  0.00    -0.057 A 
ATOM      3  C3  UNL d   1       1.534  -0.720   2.023  0.00  0.00     0.033 A 
ATOM      4  C4  UNL d   1       0.671  -1.170   1.029  0.00  0.00    -0.042 A 
ATOM      5  C5  UNL d   1       0.073  -2.418   1.155  0.00  0.00     0.033 A 
ATOM      6  C6  UNL d   1       0.338  -3.210   2.277  0.00  0.00    -0.057 A 
ENDROOT
BRANCH   1   7
ATOM      7  N   UNL d   1       1.490  -3.653   4.341  0.00  0.00    -0.732 N 
ATOM      8  C   UNL d   1       2.699  -3.493   5.119  0.00  0.00     0.284 C 
ATOM      9  H3  UNL d   1       0.670  -3.897   4.892  0.00  0.00     0.395 HD
ENDBRANCH   1   7
TORSDOF 1
ENDMDL
