MODEL 1
REMARK minimizedAffinity 9.79168415
REMARK minimizedRMSD -1
REMARK  1 active torsions:
REMARK  status: ('A' for Active; 'I' for Inactive)
REMARK    1  A    between atoms: N_2  and  C1_3 
ROOT
ATOM      1  C1  UNL d   1       2.504  -2.578   3.317  0.00  0.00     0.143 A 
ATOM      2  C2  UNL d   1       2.236  -3.781   3.978  0.00  0.00    -0.057 A 
ATOM      3  C3  UNL d   1       3.258  -4.518   4.588  0.00  0.00     0.033 A 
ATOM      4  C4  UNL d   1       4.575  -4.077   4.523  0.00  0.00    -0.042 A 
ATOM      5  C5  UNL d   1       4.869  -2.897   3.850  0.00  0.00     0.033 A 
ATOM      6  C6  UNL d   1       3.843  -2.162   3.248  0.00  0.00    -0.057 A 
ENDROOT
BRANCH   1   7
ATOM      7  N   UNL d   1       1.547  -1.850   2.606  0.00  0.00    -0.732 N 
ATOM      8  C   UNL d   1       1.899  -0.606   1.955  0.00  0.00     0.284 C 
ATOM      9  H3  UNL d   1       0.934  -2.448   2.056  0.00  0.00     0.395 HD
ENDBRANCH   1   7
TORSDOF 1
ENDMDL
