MODEL 1
REMARK minimizedAffinity 0.541622758
REMARK minimizedRMSD -1
REMARK  1 active torsions:
REMARK  status: ('A' for Active; 'I' for Inactive)
REMARK    1  A    between atoms: N_2  and  C1_3 
ROOT
ATOM      1  C1  UNL d   1      -0.795  -1.723  -0.414  0.00  0.00     0.143 A 
ATOM      2  C2  UNL d   1      -1.083  -2.216  -1.691  0.00  0.00    -0.057 A 
ATOM      3  C3  UNL d   1      -0.445  -3.357  -2.191  0.00  0.00     0.033 A 
ATOM      4  C4  UNL d   1       0.518  -4.012  -1.430  0.00  0.00    -0.042 A 
ATOM      5  C5  UNL d   1       0.839  -3.526  -0.167  0.00  0.00     0.033 A 
ATOM      6  C6  UNL d   1       0.193  -2.389   0.329  0.00  0.00    -0.057 A 
ENDROOT
BRANCH   1   7
ATOM      7  N   UNL d   1      -1.324  -0.537   0.100  0.00  0.00    -0.732 N 
ATOM      8  C   UNL d   1      -1.008   0.736  -0.511  0.00  0.00     0.284 C 
ATOM      9  H3  UNL d   1      -2.298  -0.634   0.379  0.00  0.00     0.395 HD
ENDBRANCH   1   7
TORSDOF 1
ENDMDL
