MODEL 1
REMARK minimizedAffinity 1.60115528
REMARK minimizedRMSD -1
REMARK  1 active torsions:
REMARK  status: ('A' for Active; 'I' for Inactive)
REMARK    1  A    between atoms: N_2  and  C1_3 
ROOT
ATOM      1  C1  UNL d   1       1.190   0.770   0.673  0.00  0.00     0.143 A 
ATOM      2  C2  UNL d   1       0.628  -0.510   0.719  0.00  0.00    -0.057 A 
ATOM      3  C3  UNL d   1      -0.703  -0.732   0.345  0.00  0.00     0.033 A 
ATOM      4  C4  UNL d   1      -1.506   0.332  -0.054  0.00  0.00    -0.042 A 
ATOM      5  C5  UNL d   1      -0.976   1.616  -0.082  0.00  0.00     0.033 A 
ATOM      6  C6  UNL d   1       0.356   1.830   0.285  0.00  0.00    -0.057 A 
ENDROOT
BRANCH   1   7
ATOM      7  N   UNL d   1       2.478   1.070   1.126  0.00  0.00    -0.732 N 
ATOM      8  C   UNL d   1       2.677   1.732   2.397  0.00  0.00     0.284 C 
ATOM      9  H3  UNL d   1       3.140   0.320   0.939  0.00  0.00     0.395 HD
ENDBRANCH   1   7
TORSDOF 1
ENDMDL
