MODEL 1
REMARK minimizedAffinity -3.26436162
REMARK minimizedRMSD -1
REMARK  1 active torsions:
REMARK  status: ('A' for Active; 'I' for Inactive)
REMARK    1  A    between atoms: N_2  and  C1_3 
ROOT
ATOM      1  C1  UNL d   1       0.230  -2.085   1.323  0.00  0.00     0.143 A 
ATOM      2  C2  UNL d   1      -1.011  -1.531   0.989  0.00  0.00    -0.057 A 
ATOM      3  C3  UNL d   1      -1.751  -2.011  -0.098  0.00  0.00     0.033 A 
ATOM      4  C4  UNL d   1      -1.248  -3.038  -0.891  0.00  0.00    -0.042 A 
ATOM      5  C5  UNL d   1      -0.006  -3.586  -0.592  0.00  0.00     0.033 A 
ATOM      6  C6  UNL d   1       0.725  -3.107   0.499  0.00  0.00    -0.057 A 
ENDROOT
BRANCH   1   7
ATOM      7  N   UNL d   1       1.058  -1.587   2.332  0.00  0.00    -0.732 N 
ATOM      8  C   UNL d   1       1.312  -2.361   3.527  0.00  0.00     0.284 C 
ATOM      9  H3  UNL d   1       1.879  -1.112   1.961  0.00  0.00     0.395 HD
ENDBRANCH   1   7
TORSDOF 1
ENDMDL
