MODEL 1
REMARK minimizedAffinity -1.8157748
REMARK minimizedRMSD -1
REMARK  0 active torsions:
REMARK  status: ('A' for Active; 'I' for Inactive)
ROOT
ATOM      1  C   UNL d   1       1.591  -0.398   0.003  0.00  0.00     0.023 A 
ATOM      2  C1  UNL d   1       1.032   0.880   0.018  0.00  0.00     0.003 A 
ATOM      3  C2  UNL d   1      -0.278   1.077  -0.424  0.00  0.00     0.048 A 
ATOM      4  C3  UNL d   1      -1.024  -0.010  -0.879  0.00  0.00     0.023 A 
ATOM      5  C4  UNL d   1      -0.470  -1.291  -0.895  0.00  0.00     0.048 A 
ATOM      6  C5  UNL d   1       0.841  -1.482  -0.453  0.00  0.00     0.003 A 
ATOM      7  I   UNL d   1      -2.974   0.280  -1.537  0.00  0.00    -0.146 I 
ENDROOT
TORSDOF 0
ENDMDL
