MODEL 1
REMARK minimizedAffinity -0.452847153
REMARK minimizedRMSD -1
REMARK  0 active torsions:
REMARK  status: ('A' for Active; 'I' for Inactive)
ROOT
ATOM      1  C   UNL d   1       2.306  -0.898  -0.016  0.00  0.00     0.023 A 
ATOM      2  C1  UNL d   1       1.400  -1.902  -0.359  0.00  0.00     0.003 A 
ATOM      3  C2  UNL d   1       0.029  -1.634  -0.369  0.00  0.00     0.048 A 
ATOM      4  C3  UNL d   1      -0.428  -0.359  -0.036  0.00  0.00     0.023 A 
ATOM      5  C4  UNL d   1       0.475   0.648   0.307  0.00  0.00     0.048 A 
ATOM      6  C5  UNL d   1       1.844   0.375   0.317  0.00  0.00     0.003 A 
ATOM      7  I   UNL d   1      -2.467   0.042  -0.050  0.00  0.00    -0.146 I 
ENDROOT
TORSDOF 0
ENDMDL
