MODEL 1
REMARK minimizedAffinity -2.64945316
REMARK minimizedRMSD -1
REMARK  0 active torsions:
REMARK  status: ('A' for Active; 'I' for Inactive)
ROOT
ATOM      1  C   UNL d   1       3.383  -0.109  -0.163  0.00  0.00     0.023 A 
ATOM      2  C1  UNL d   1       2.791   1.148  -0.045  0.00  0.00     0.003 A 
ATOM      3  C2  UNL d   1       1.400   1.268  -0.030  0.00  0.00     0.048 A 
ATOM      4  C3  UNL d   1       0.607   0.126  -0.133  0.00  0.00     0.023 A 
ATOM      5  C4  UNL d   1       1.195  -1.134  -0.250  0.00  0.00     0.048 A 
ATOM      6  C5  UNL d   1       2.586  -1.249  -0.265  0.00  0.00     0.003 A 
ATOM      7  I   UNL d   1      -1.464   0.302  -0.112  0.00  0.00    -0.146 I 
ENDROOT
TORSDOF 0
ENDMDL
