MODEL 1
REMARK minimizedAffinity -2.93329191
REMARK minimizedRMSD -1
REMARK  0 active torsions:
REMARK  status: ('A' for Active; 'I' for Inactive)
ROOT
ATOM      1  C   UNL d   1       3.328  -0.006   0.071  0.00  0.00     0.023 A 
ATOM      2  C1  UNL d   1       2.454  -1.085  -0.060  0.00  0.00     0.003 A 
ATOM      3  C2  UNL d   1       1.090  -0.860  -0.255  0.00  0.00     0.048 A 
ATOM      4  C3  UNL d   1       0.607   0.447  -0.320  0.00  0.00     0.023 A 
ATOM      5  C4  UNL d   1       1.478   1.529  -0.190  0.00  0.00     0.048 A 
ATOM      6  C5  UNL d   1       2.841   1.299   0.006  0.00  0.00     0.003 A 
ATOM      7  I   UNL d   1      -1.423   0.785  -0.611  0.00  0.00    -0.146 I 
ENDROOT
TORSDOF 0
ENDMDL
