MODEL 1
REMARK minimizedAffinity 0.741839945
REMARK minimizedRMSD -1
REMARK  0 active torsions:
REMARK  status: ('A' for Active; 'I' for Inactive)
ROOT
ATOM      1  C   UNL d   1      -3.660   1.997   1.385  0.00  0.00     0.023 A 
ATOM      2  C1  UNL d   1      -2.620   2.537   0.629  0.00  0.00     0.003 A 
ATOM      3  C2  UNL d   1      -1.631   1.703   0.103  0.00  0.00     0.048 A 
ATOM      4  C3  UNL d   1      -1.689   0.329   0.336  0.00  0.00     0.023 A 
ATOM      5  C4  UNL d   1      -2.729  -0.216   1.091  0.00  0.00     0.048 A 
ATOM      6  C5  UNL d   1      -3.714   0.622   1.616  0.00  0.00     0.003 A 
ATOM      7  I   UNL d   1      -0.219  -0.914  -0.447  0.00  0.00    -0.146 I 
ENDROOT
TORSDOF 0
ENDMDL
