MODEL 1
REMARK minimizedAffinity -1.87086916
REMARK minimizedRMSD -1
REMARK  0 active torsions:
REMARK  status: ('A' for Active; 'I' for Inactive)
ROOT
ATOM      1  C   UNL d   1       1.577  -0.970  -0.920  0.00  0.00     0.023 A 
ATOM      2  C1  UNL d   1       0.569  -1.935  -0.918  0.00  0.00     0.003 A 
ATOM      3  C2  UNL d   1      -0.755  -1.561  -0.681  0.00  0.00     0.048 A 
ATOM      4  C3  UNL d   1      -1.065  -0.222  -0.448  0.00  0.00     0.023 A 
ATOM      5  C4  UNL d   1      -0.060   0.747  -0.450  0.00  0.00     0.048 A 
ATOM      6  C5  UNL d   1       1.263   0.369  -0.687  0.00  0.00     0.003 A 
ATOM      7  I   UNL d   1      -3.036   0.336  -0.096  0.00  0.00    -0.146 I 
ENDROOT
TORSDOF 0
ENDMDL
