MODEL 1
REMARK minimizedAffinity -2.39671898
REMARK minimizedRMSD -1
REMARK  0 active torsions:
REMARK  status: ('A' for Active; 'I' for Inactive)
ROOT
ATOM      1  C   UNL d   1       0.700  -0.602  -0.554  0.00  0.00     0.023 A 
ATOM      2  C1  UNL d   1      -0.118  -1.592  -0.009  0.00  0.00     0.003 A 
ATOM      3  C2  UNL d   1      -1.387  -1.263   0.473  0.00  0.00     0.048 A 
ATOM      4  C3  UNL d   1      -1.831   0.057   0.407  0.00  0.00     0.023 A 
ATOM      5  C4  UNL d   1      -1.017   1.050  -0.139  0.00  0.00     0.048 A 
ATOM      6  C5  UNL d   1       0.251   0.718  -0.619  0.00  0.00     0.003 A 
ATOM      7  I   UNL d   1      -3.719   0.547   1.124  0.00  0.00    -0.146 I 
ENDROOT
TORSDOF 0
ENDMDL
