MODEL 1
REMARK minimizedAffinity -1.07658601
REMARK minimizedRMSD -1
REMARK  0 active torsions:
REMARK  status: ('A' for Active; 'I' for Inactive)
ROOT
ATOM      1  C   UNL d   1       1.385  -0.557  -0.622  0.00  0.00     0.023 A 
ATOM      2  C1  UNL d   1       1.084   0.802  -0.526  0.00  0.00     0.003 A 
ATOM      3  C2  UNL d   1      -0.139   1.211   0.010  0.00  0.00     0.048 A 
ATOM      4  C3  UNL d   1      -1.056   0.256   0.448  0.00  0.00     0.023 A 
ATOM      5  C4  UNL d   1      -0.759  -1.104   0.355  0.00  0.00     0.048 A 
ATOM      6  C5  UNL d   1       0.464  -1.509  -0.182  0.00  0.00     0.003 A 
ATOM      7  I   UNL d   1      -2.877   0.863   1.246  0.00  0.00    -0.146 I 
ENDROOT
TORSDOF 0
ENDMDL
