MODEL 1
REMARK minimizedAffinity -1.46039903
REMARK minimizedRMSD -1
REMARK  0 active torsions:
REMARK  status: ('A' for Active; 'I' for Inactive)
ROOT
ATOM      1  C   UNL d   1       3.060  -0.931  -0.244  0.00  0.00     0.023 A 
ATOM      2  C1  UNL d   1       3.091   0.457  -0.114  0.00  0.00     0.003 A 
ATOM      3  C2  UNL d   1       1.900   1.184  -0.087  0.00  0.00     0.048 A 
ATOM      4  C3  UNL d   1       0.680   0.517  -0.190  0.00  0.00     0.023 A 
ATOM      5  C4  UNL d   1       0.643  -0.873  -0.319  0.00  0.00     0.048 A 
ATOM      6  C5  UNL d   1       1.838  -1.595  -0.346  0.00  0.00     0.003 A 
ATOM      7  I   UNL d   1      -1.096   1.597  -0.150  0.00  0.00    -0.146 I 
ENDROOT
TORSDOF 0
ENDMDL
