MODEL 1
REMARK minimizedAffinity -3.87794662
REMARK minimizedRMSD -1
REMARK  0 active torsions:
REMARK  status: ('A' for Active; 'I' for Inactive)
ROOT
ATOM      1  C   UNL d   1       3.556  -0.503   0.126  0.00  0.00     0.023 A 
ATOM      2  C1  UNL d   1       3.222   0.851   0.100  0.00  0.00     0.003 A 
ATOM      3  C2  UNL d   1       1.887   1.240  -0.030  0.00  0.00     0.048 A 
ATOM      4  C3  UNL d   1       0.891   0.269  -0.133  0.00  0.00     0.023 A 
ATOM      5  C4  UNL d   1       1.221  -1.087  -0.107  0.00  0.00     0.048 A 
ATOM      6  C5  UNL d   1       2.557  -1.471   0.023  0.00  0.00     0.003 A 
ATOM      7  I   UNL d   1      -1.096   0.845  -0.326  0.00  0.00    -0.146 I 
ENDROOT
TORSDOF 0
ENDMDL
