MODEL 1
REMARK minimizedAffinity -0.694236398
REMARK minimizedRMSD -1
REMARK  0 active torsions:
REMARK  status: ('A' for Active; 'I' for Inactive)
ROOT
ATOM      1  C   UNL d   1      -1.303  -0.867  -0.603  0.00  0.00     0.023 A 
ATOM      2  C1  UNL d   1      -0.371  -1.897  -0.732  0.00  0.00     0.003 A 
ATOM      3  C2  UNL d   1       0.995  -1.618  -0.658  0.00  0.00     0.048 A 
ATOM      4  C3  UNL d   1       1.422  -0.306  -0.455  0.00  0.00     0.023 A 
ATOM      5  C4  UNL d   1       0.494   0.728  -0.325  0.00  0.00     0.048 A 
ATOM      6  C5  UNL d   1      -0.871   0.444  -0.400  0.00  0.00     0.003 A 
ATOM      7  I   UNL d   1       3.455   0.113  -0.345  0.00  0.00    -0.146 I 
ENDROOT
TORSDOF 0
ENDMDL
