MODEL 1
REMARK minimizedAffinity -1.61412227
REMARK minimizedRMSD -1
REMARK  0 active torsions:
REMARK  status: ('A' for Active; 'I' for Inactive)
ROOT
ATOM      1  C   UNL d   1      -0.063   3.125  -0.215  0.00  0.00     0.077 C 
ATOM      2  C1  UNL d   1       0.529   1.748  -0.159  0.00  0.00    -0.074 A 
ATOM      3  C2  UNL d   1       1.915   1.561  -0.151  0.00  0.00    -0.005 A 
ATOM      4  C3  UNL d   1       2.451   0.275  -0.089  0.00  0.00     0.006 A 
ATOM      5  C4  UNL d   1       1.607  -0.836  -0.034  0.00  0.00    -0.005 A 
ATOM      6  C5  UNL d   1       0.219  -0.668  -0.040  0.00  0.00    -0.074 A 
ATOM      7  C6  UNL d   1      -0.701  -1.851   0.028  0.00  0.00     0.077 C 
ATOM      8  C7  UNL d   1      -0.312   0.628  -0.095  0.00  0.00    -0.001 A 
ENDROOT
TORSDOF 0
ENDMDL
