MODEL 1
REMARK minimizedAffinity -3.10611796
REMARK minimizedRMSD -1
REMARK  0 active torsions:
REMARK  status: ('A' for Active; 'I' for Inactive)
ROOT
ATOM      1  C   UNL d   1      -0.298  -1.144   0.027  0.00  0.00     0.077 C 
ATOM      2  C1  UNL d   1       0.039   0.298   0.265  0.00  0.00    -0.074 A 
ATOM      3  C2  UNL d   1      -0.967   1.263   0.372  0.00  0.00    -0.005 A 
ATOM      4  C3  UNL d   1      -0.639   2.599   0.603  0.00  0.00     0.006 A 
ATOM      5  C4  UNL d   1       0.697   2.983   0.728  0.00  0.00    -0.005 A 
ATOM      6  C5  UNL d   1       1.717   2.031   0.625  0.00  0.00    -0.074 A 
ATOM      7  C6  UNL d   1       3.157   2.425   0.767  0.00  0.00     0.077 C 
ATOM      8  C7  UNL d   1       1.379   0.690   0.400  0.00  0.00    -0.001 A 
ENDROOT
TORSDOF 0
ENDMDL
