MODEL 1
REMARK minimizedAffinity -3.99533725
REMARK minimizedRMSD -1
REMARK  0 active torsions:
REMARK  status: ('A' for Active; 'I' for Inactive)
ROOT
ATOM      1  C   UNL d   1       0.239   2.987  -0.504  0.00  0.00     0.077 C 
ATOM      2  C1  UNL d   1       0.846   1.647  -0.213  0.00  0.00    -0.074 A 
ATOM      3  C2  UNL d   1       2.224   1.509  -0.020  0.00  0.00    -0.005 A 
ATOM      4  C3  UNL d   1       2.773   0.257   0.259  0.00  0.00     0.006 A 
ATOM      5  C4  UNL d   1       1.951  -0.867   0.348  0.00  0.00    -0.005 A 
ATOM      6  C5  UNL d   1       0.570  -0.748   0.159  0.00  0.00    -0.074 A 
ATOM      7  C6  UNL d   1      -0.329  -1.944   0.261  0.00  0.00     0.077 C 
ATOM      8  C7  UNL d   1       0.025   0.515  -0.114  0.00  0.00    -0.001 A 
ENDROOT
TORSDOF 0
ENDMDL
