MODEL 1
REMARK minimizedAffinity -0.355731666
REMARK minimizedRMSD -1
REMARK  0 active torsions:
REMARK  status: ('A' for Active; 'I' for Inactive)
ROOT
ATOM      1  C   UNL d   1       2.635   1.243   1.122  0.00  0.00     0.077 C 
ATOM      2  C1  UNL d   1       1.236   0.824   0.779  0.00  0.00    -0.074 A 
ATOM      3  C2  UNL d   1       0.161   1.703   0.944  0.00  0.00    -0.005 A 
ATOM      4  C3  UNL d   1      -1.133   1.302   0.611  0.00  0.00     0.006 A 
ATOM      5  C4  UNL d   1      -1.364   0.020   0.111  0.00  0.00    -0.005 A 
ATOM      6  C5  UNL d   1      -0.301  -0.872  -0.062  0.00  0.00    -0.074 A 
ATOM      7  C6  UNL d   1      -0.532  -2.250  -0.607  0.00  0.00     0.077 C 
ATOM      8  C7  UNL d   1       0.997  -0.459   0.268  0.00  0.00    -0.001 A 
ENDROOT
TORSDOF 0
ENDMDL
