MODEL 1
REMARK minimizedAffinity -5.21224356
REMARK minimizedRMSD -1
REMARK  0 active torsions:
REMARK  status: ('A' for Active; 'I' for Inactive)
ROOT
ATOM      1  C   UNL d   1       0.730   3.863  -0.046  0.00  0.00     0.077 C 
ATOM      2  C1  UNL d   1      -0.169   2.803   0.517  0.00  0.00    -0.074 A 
ATOM      3  C2  UNL d   1      -0.267   1.546  -0.090  0.00  0.00    -0.005 A 
ATOM      4  C3  UNL d   1      -1.100   0.567   0.451  0.00  0.00     0.006 A 
ATOM      5  C4  UNL d   1      -1.843   0.833   1.602  0.00  0.00    -0.005 A 
ATOM      6  C5  UNL d   1      -1.757   2.084   2.222  0.00  0.00    -0.074 A 
ATOM      7  C6  UNL d   1      -2.542   2.383   3.465  0.00  0.00     0.077 C 
ATOM      8  C7  UNL d   1      -0.913   3.060   1.677  0.00  0.00    -0.001 A 
ENDROOT
TORSDOF 0
ENDMDL
