MODEL 1
REMARK minimizedAffinity -3.3388133
REMARK minimizedRMSD -1
REMARK  0 active torsions:
REMARK  status: ('A' for Active; 'I' for Inactive)
ROOT
ATOM      1  C   UNL d   1       0.809   3.570  -0.492  0.00  0.00     0.077 C 
ATOM      2  C1  UNL d   1       0.049   2.372  -0.005  0.00  0.00    -0.074 A 
ATOM      3  C2  UNL d   1      -1.091   2.520   0.791  0.00  0.00    -0.005 A 
ATOM      4  C3  UNL d   1      -1.793   1.397   1.230  0.00  0.00     0.006 A 
ATOM      5  C4  UNL d   1      -1.362   0.117   0.877  0.00  0.00    -0.005 A 
ATOM      6  C5  UNL d   1      -0.225  -0.050   0.080  0.00  0.00    -0.074 A 
ATOM      7  C6  UNL d   1       0.246  -1.418  -0.316  0.00  0.00     0.077 C 
ATOM      8  C7  UNL d   1       0.471   1.084  -0.362  0.00  0.00    -0.001 A 
ENDROOT
TORSDOF 0
ENDMDL
