MODEL 1
REMARK minimizedAffinity -3.61988235
REMARK minimizedRMSD -1
REMARK  0 active torsions:
REMARK  status: ('A' for Active; 'I' for Inactive)
ROOT
ATOM      1  C   UNL d   1       2.302   1.352  -0.628  0.00  0.00     0.077 C 
ATOM      2  C1  UNL d   1       0.920   0.896  -0.268  0.00  0.00    -0.074 A 
ATOM      3  C2  UNL d   1      -0.039   1.804   0.193  0.00  0.00    -0.005 A 
ATOM      4  C3  UNL d   1      -1.324   1.367   0.515  0.00  0.00     0.006 A 
ATOM      5  C4  UNL d   1      -1.663   0.020   0.380  0.00  0.00    -0.005 A 
ATOM      6  C5  UNL d   1      -0.717  -0.902  -0.080  0.00  0.00    -0.074 A 
ATOM      7  C6  UNL d   1      -1.067  -2.352  -0.240  0.00  0.00     0.077 C 
ATOM      8  C7  UNL d   1       0.570  -0.454  -0.408  0.00  0.00    -0.001 A 
ENDROOT
TORSDOF 0
ENDMDL
