MODEL 1
REMARK minimizedAffinity -3.83565092
REMARK minimizedRMSD -1
REMARK  0 active torsions:
REMARK  status: ('A' for Active; 'I' for Inactive)
ROOT
ATOM      1  C   UNL d   1      -3.408  -3.446  -1.465  0.00  0.00     0.077 C 
ATOM      2  C1  UNL d   1      -2.006  -2.946  -1.647  0.00  0.00    -0.074 A 
ATOM      3  C2  UNL d   1      -1.294  -3.213  -2.820  0.00  0.00    -0.005 A 
ATOM      4  C3  UNL d   1       0.006  -2.733  -2.979  0.00  0.00     0.006 A 
ATOM      5  C4  UNL d   1       0.606  -1.982  -1.968  0.00  0.00    -0.005 A 
ATOM      6  C5  UNL d   1      -0.091  -1.703  -0.788  0.00  0.00    -0.074 A 
ATOM      7  C6  UNL d   1       0.536  -0.889   0.304  0.00  0.00     0.077 C 
ATOM      8  C7  UNL d   1      -1.399  -2.183  -0.639  0.00  0.00    -0.001 A 
ENDROOT
TORSDOF 0
ENDMDL
