MODEL 1
REMARK minimizedAffinity 5.68332577
REMARK minimizedRMSD -1
REMARK  0 active torsions:
REMARK  status: ('A' for Active; 'I' for Inactive)
ROOT
ATOM      1  C   UNL d   1       2.625   2.380   0.456  0.00  0.00     0.077 C 
ATOM      2  C1  UNL d   1       1.141   2.527   0.620  0.00  0.00    -0.074 A 
ATOM      3  C2  UNL d   1       0.331   2.887  -0.462  0.00  0.00    -0.005 A 
ATOM      4  C3  UNL d   1      -1.049   3.010  -0.296  0.00  0.00     0.006 A 
ATOM      5  C4  UNL d   1      -1.631   2.776   0.950  0.00  0.00    -0.005 A 
ATOM      6  C5  UNL d   1      -0.836   2.414   2.043  0.00  0.00    -0.074 A 
ATOM      7  C6  UNL d   1      -1.447   2.149   3.387  0.00  0.00     0.077 C 
ATOM      8  C7  UNL d   1       0.548   2.285   1.867  0.00  0.00    -0.001 A 
ENDROOT
TORSDOF 0
ENDMDL
