MODEL 1
REMARK minimizedAffinity 4.49176693
REMARK minimizedRMSD -1
REMARK  0 active torsions:
REMARK  status: ('A' for Active; 'I' for Inactive)
ROOT
ATOM      1  C   UNL d   1       3.529   3.715   2.360  0.00  0.00     0.077 C 
ATOM      2  C1  UNL d   1       2.694   2.785   1.531  0.00  0.00    -0.074 A 
ATOM      3  C2  UNL d   1       3.245   1.624   0.979  0.00  0.00    -0.005 A 
ATOM      4  C3  UNL d   1       2.454   0.763   0.217  0.00  0.00     0.006 A 
ATOM      5  C4  UNL d   1       1.107   1.055   0.000  0.00  0.00    -0.005 A 
ATOM      6  C5  UNL d   1       0.538   2.210   0.545  0.00  0.00    -0.074 A 
ATOM      7  C6  UNL d   1      -0.910   2.533   0.330  0.00  0.00     0.077 C 
ATOM      8  C7  UNL d   1       1.338   3.067   1.315  0.00  0.00    -0.001 A 
ENDROOT
TORSDOF 0
ENDMDL
