MODEL 1
REMARK minimizedAffinity -3.30129933
REMARK minimizedRMSD -1
REMARK  0 active torsions:
REMARK  status: ('A' for Active; 'I' for Inactive)
ROOT
ATOM      1  C   UNL d   1       3.198   1.184   0.868  0.00  0.00     0.077 C 
ATOM      2  C1  UNL d   1       1.809   0.624   0.778  0.00  0.00    -0.074 A 
ATOM      3  C2  UNL d   1       1.585  -0.755   0.840  0.00  0.00    -0.005 A 
ATOM      4  C3  UNL d   1       0.287  -1.261   0.765  0.00  0.00     0.006 A 
ATOM      5  C4  UNL d   1      -0.798  -0.394   0.627  0.00  0.00    -0.005 A 
ATOM      6  C5  UNL d   1      -0.593   0.988   0.564  0.00  0.00    -0.074 A 
ATOM      7  C6  UNL d   1      -1.749   1.934   0.426  0.00  0.00     0.077 C 
ATOM      8  C7  UNL d   1       0.713   1.489   0.648  0.00  0.00    -0.001 A 
ENDROOT
TORSDOF 0
ENDMDL
