MODEL 1
REMARK minimizedAffinity 2.72875953
REMARK minimizedRMSD -1
REMARK  0 active torsions:
REMARK  status: ('A' for Active; 'I' for Inactive)
ROOT
ATOM      1  C   UNL d   1      -2.062   2.487   0.144  0.00  0.00     0.077 C 
ATOM      2  C1  UNL d   1      -0.582   2.540  -0.097  0.00  0.00    -0.074 A 
ATOM      3  C2  UNL d   1       0.016   3.682  -0.640  0.00  0.00    -0.005 A 
ATOM      4  C3  UNL d   1       1.395   3.720  -0.850  0.00  0.00     0.006 A 
ATOM      5  C4  UNL d   1       2.187   2.620  -0.520  0.00  0.00    -0.005 A 
ATOM      6  C5  UNL d   1       1.606   1.470   0.024  0.00  0.00    -0.074 A 
ATOM      7  C6  UNL d   1       2.444   0.282   0.394  0.00  0.00     0.077 C 
ATOM      8  C7  UNL d   1       0.221   1.442   0.239  0.00  0.00    -0.001 A 
ENDROOT
TORSDOF 0
ENDMDL
