MODEL 1
REMARK minimizedAffinity -5.68928385
REMARK minimizedRMSD -1
REMARK  0 active torsions:
REMARK  status: ('A' for Active; 'I' for Inactive)
ROOT
ATOM      1  C   UNL d   1       3.367   2.307   0.119  0.00  0.00     0.077 C 
ATOM      2  C1  UNL d   1       1.915   1.960   0.265  0.00  0.00    -0.074 A 
ATOM      3  C2  UNL d   1       0.940   2.960   0.324  0.00  0.00    -0.005 A 
ATOM      4  C3  UNL d   1      -0.408   2.622   0.450  0.00  0.00     0.006 A 
ATOM      5  C4  UNL d   1      -0.793   1.283   0.518  0.00  0.00    -0.005 A 
ATOM      6  C5  UNL d   1       0.169   0.269   0.460  0.00  0.00    -0.074 A 
ATOM      7  C6  UNL d   1      -0.229  -1.176   0.522  0.00  0.00     0.077 C 
ATOM      8  C7  UNL d   1       1.520   0.616   0.326  0.00  0.00    -0.001 A 
ENDROOT
TORSDOF 0
ENDMDL
