MODEL 1
REMARK minimizedAffinity 1.5969317
REMARK minimizedRMSD -1
REMARK  0 active torsions:
REMARK  status: ('A' for Active; 'I' for Inactive)
ROOT
ATOM      1  C   UNL d   1      -2.873   2.442  -0.171  0.00  0.00     0.077 C 
ATOM      2  C1  UNL d   1      -1.397   2.664  -0.326  0.00  0.00    -0.074 A 
ATOM      3  C2  UNL d   1      -0.900   3.542  -1.294  0.00  0.00    -0.005 A 
ATOM      4  C3  UNL d   1       0.474   3.745  -1.420  0.00  0.00     0.006 A 
ATOM      5  C4  UNL d   1       1.363   3.073  -0.579  0.00  0.00    -0.005 A 
ATOM      6  C5  UNL d   1       0.884   2.192   0.395  0.00  0.00    -0.074 A 
ATOM      7  C6  UNL d   1       1.826   1.470   1.313  0.00  0.00     0.077 C 
ATOM      8  C7  UNL d   1      -0.498   1.999   0.520  0.00  0.00    -0.001 A 
ENDROOT
TORSDOF 0
ENDMDL
