MODEL 1
REMARK minimizedAffinity -5.42969084
REMARK minimizedRMSD -1
REMARK  0 active torsions:
REMARK  status: ('A' for Active; 'I' for Inactive)
ROOT
ATOM      1  C   UNL d   1      -0.722  -2.461   1.445  0.00  0.00     0.077 C 
ATOM      2  C1  UNL d   1      -0.657  -1.332   0.460  0.00  0.00    -0.074 A 
ATOM      3  C2  UNL d   1      -0.759  -1.570  -0.915  0.00  0.00    -0.005 A 
ATOM      4  C3  UNL d   1      -0.707  -0.509  -1.818  0.00  0.00     0.006 A 
ATOM      5  C4  UNL d   1      -0.552   0.799  -1.358  0.00  0.00    -0.005 A 
ATOM      6  C5  UNL d   1      -0.450   1.057   0.013  0.00  0.00    -0.074 A 
ATOM      7  C6  UNL d   1      -0.293   2.458   0.526  0.00  0.00     0.077 C 
ATOM      8  C7  UNL d   1      -0.510  -0.014   0.915  0.00  0.00    -0.001 A 
ENDROOT
TORSDOF 0
ENDMDL
