MODEL 1
REMARK minimizedAffinity -4.66171408
REMARK minimizedRMSD -1
REMARK  0 active torsions:
REMARK  status: ('A' for Active; 'I' for Inactive)
ROOT
ATOM      1  C   UNL d   1      -0.379  -0.983   0.382  0.00  0.00     0.077 C 
ATOM      2  C1  UNL d   1       0.115   0.430   0.294  0.00  0.00    -0.074 A 
ATOM      3  C2  UNL d   1      -0.770   1.508   0.393  0.00  0.00    -0.005 A 
ATOM      4  C3  UNL d   1      -0.295   2.818   0.319  0.00  0.00     0.006 A 
ATOM      5  C4  UNL d   1       1.068   3.062   0.145  0.00  0.00    -0.005 A 
ATOM      6  C5  UNL d   1       1.968   1.996   0.045  0.00  0.00    -0.074 A 
ATOM      7  C6  UNL d   1       3.437   2.241  -0.133  0.00  0.00     0.077 C 
ATOM      8  C7  UNL d   1       1.483   0.684   0.127  0.00  0.00    -0.001 A 
ENDROOT
TORSDOF 0
ENDMDL
