MODEL 1
REMARK minimizedAffinity -3.37179565
REMARK minimizedRMSD -1
REMARK  0 active torsions:
REMARK  status: ('A' for Active; 'I' for Inactive)
ROOT
ATOM      1  C   UNL d   1       0.265   3.101   0.269  0.00  0.00     0.077 C 
ATOM      2  C1  UNL d   1       0.785   1.695   0.297  0.00  0.00    -0.074 A 
ATOM      3  C2  UNL d   1       2.148   1.436   0.474  0.00  0.00    -0.005 A 
ATOM      4  C3  UNL d   1       2.616   0.122   0.507  0.00  0.00     0.006 A 
ATOM      5  C4  UNL d   1       1.727  -0.944   0.364  0.00  0.00    -0.005 A 
ATOM      6  C5  UNL d   1       0.361  -0.704   0.187  0.00  0.00    -0.074 A 
ATOM      7  C6  UNL d   1      -0.609  -1.839   0.042  0.00  0.00     0.077 C 
ATOM      8  C7  UNL d   1      -0.102   0.618   0.162  0.00  0.00    -0.001 A 
ENDROOT
TORSDOF 0
ENDMDL
