MODEL 1
REMARK minimizedAffinity -5.21469069
REMARK minimizedRMSD -1
REMARK  0 active torsions:
REMARK  status: ('A' for Active; 'I' for Inactive)
ROOT
ATOM      1  C   UNL d   1       3.501   0.434   0.850  0.00  0.00    -0.002 A 
ATOM      2  C1  UNL d   1       3.502  -0.930   0.596  0.00  0.00     0.010 A 
ATOM      3  C2  UNL d   1       2.346  -1.571   0.148  0.00  0.00     0.041 A 
ATOM      4  C3  UNL d   1       1.176  -0.809  -0.045  0.00  0.00    -0.075 A 
ATOM      5  S   UNL d   1      -0.357  -1.379  -0.589  0.00  0.00     0.015 SA
ATOM      6  C4  UNL d   1      -1.051   0.175  -0.499  0.00  0.00     0.022 A 
ATOM      7  C5  UNL d   1      -0.148   1.118  -0.066  0.00  0.00     0.026 A 
ATOM      8  C6  UNL d   1       1.150   0.566   0.202  0.00  0.00    -0.082 A 
ATOM      9  C7  UNL d   1       2.339   1.186   0.657  0.00  0.00     0.045 A 
ENDROOT
TORSDOF 0
ENDMDL
