MODEL 1
REMARK minimizedAffinity -2.59447598
REMARK minimizedRMSD -1
REMARK  0 active torsions:
REMARK  status: ('A' for Active; 'I' for Inactive)
ROOT
ATOM      1  C   UNL d   1       3.431   0.461   0.898  0.00  0.00    -0.002 A 
ATOM      2  C1  UNL d   1       3.375  -0.890   0.586  0.00  0.00     0.010 A 
ATOM      3  C2  UNL d   1       2.193  -1.461   0.110  0.00  0.00     0.041 A 
ATOM      4  C3  UNL d   1       1.057  -0.642  -0.051  0.00  0.00    -0.075 A 
ATOM      5  S   UNL d   1      -0.498  -1.122  -0.619  0.00  0.00     0.015 SA
ATOM      6  C4  UNL d   1      -1.124   0.455  -0.463  0.00  0.00     0.022 A 
ATOM      7  C5  UNL d   1      -0.184   1.339   0.010  0.00  0.00     0.026 A 
ATOM      8  C6  UNL d   1       1.089   0.721   0.255  0.00  0.00    -0.082 A 
ATOM      9  C7  UNL d   1       2.302   1.270   0.736  0.00  0.00     0.045 A 
ENDROOT
TORSDOF 0
ENDMDL
