MODEL 1
REMARK minimizedAffinity -5.28416443
REMARK minimizedRMSD -1
REMARK  0 active torsions:
REMARK  status: ('A' for Active; 'I' for Inactive)
ROOT
ATOM      1  C   UNL d   1       3.475   0.359   0.804  0.00  0.00    -0.002 A 
ATOM      2  C1  UNL d   1       3.344  -1.021   0.865  0.00  0.00     0.010 A 
ATOM      3  C2  UNL d   1       2.135  -1.635   0.532  0.00  0.00     0.041 A 
ATOM      4  C3  UNL d   1       1.050  -0.831   0.130  0.00  0.00    -0.075 A 
ATOM      5  S   UNL d   1      -0.525  -1.362  -0.326  0.00  0.00     0.015 SA
ATOM      6  C4  UNL d   1      -1.061   0.230  -0.613  0.00  0.00     0.022 A 
ATOM      7  C5  UNL d   1      -0.075   1.157  -0.372  0.00  0.00     0.026 A 
ATOM      8  C6  UNL d   1       1.158   0.561   0.060  0.00  0.00    -0.082 A 
ATOM      9  C7  UNL d   1       2.397   1.153   0.406  0.00  0.00     0.045 A 
ENDROOT
TORSDOF 0
ENDMDL
