MODEL 1
REMARK minimizedAffinity -4.73015499
REMARK minimizedRMSD -1
REMARK  0 active torsions:
REMARK  status: ('A' for Active; 'I' for Inactive)
ROOT
ATOM      1  C   UNL d   1       2.574  -1.260   0.928  0.00  0.00    -0.002 A 
ATOM      2  C1  UNL d   1       3.269  -0.059   0.921  0.00  0.00     0.010 A 
ATOM      3  C2  UNL d   1       2.616   1.139   0.624  0.00  0.00     0.041 A 
ATOM      4  C3  UNL d   1       1.238   1.109   0.334  0.00  0.00    -0.075 A 
ATOM      5  S   UNL d   1       0.229   2.452  -0.057  0.00  0.00     0.015 SA
ATOM      6  C4  UNL d   1      -1.149   1.463  -0.224  0.00  0.00     0.022 A 
ATOM      7  C5  UNL d   1      -0.865   0.138   0.009  0.00  0.00     0.026 A 
ATOM      8  C6  UNL d   1       0.516  -0.087   0.335  0.00  0.00    -0.082 A 
ATOM      9  C7  UNL d   1       1.207  -1.285   0.639  0.00  0.00     0.045 A 
ENDROOT
TORSDOF 0
ENDMDL
