MODEL 1
REMARK minimizedAffinity -0.186228111
REMARK minimizedRMSD -1
REMARK  0 active torsions:
REMARK  status: ('A' for Active; 'I' for Inactive)
ROOT
ATOM      1  C   UNL d   1      -0.422   2.098  -0.525  0.00  0.00    -0.002 A 
ATOM      2  C1  UNL d   1       0.794   2.438   0.049  0.00  0.00     0.010 A 
ATOM      3  C2  UNL d   1       1.713   1.450   0.407  0.00  0.00     0.041 A 
ATOM      4  C3  UNL d   1       1.386   0.099   0.173  0.00  0.00    -0.075 A 
ATOM      5  S   UNL d   1       2.355  -1.281   0.529  0.00  0.00     0.015 SA
ATOM      6  C4  UNL d   1       1.178  -2.356  -0.074  0.00  0.00     0.022 A 
ATOM      7  C5  UNL d   1       0.066  -1.695  -0.539  0.00  0.00     0.026 A 
ATOM      8  C6  UNL d   1       0.168  -0.269  -0.405  0.00  0.00    -0.082 A 
ATOM      9  C7  UNL d   1      -0.743   0.757  -0.755  0.00  0.00     0.045 A 
ENDROOT
TORSDOF 0
ENDMDL
