MODEL 1
REMARK minimizedAffinity -2.17818522
REMARK minimizedRMSD -1
REMARK  0 active torsions:
REMARK  status: ('A' for Active; 'I' for Inactive)
ROOT
ATOM      1  C   UNL d   1       2.813  -1.887   0.412  0.00  0.00    -0.002 A 
ATOM      2  C1  UNL d   1       2.897  -0.757   1.215  0.00  0.00     0.010 A 
ATOM      3  C2  UNL d   1       1.859   0.175   1.239  0.00  0.00     0.041 A 
ATOM      4  C3  UNL d   1       0.722  -0.049   0.438  0.00  0.00    -0.075 A 
ATOM      5  S   UNL d   1      -0.673   0.956   0.307  0.00  0.00     0.015 SA
ATOM      6  C4  UNL d   1      -1.414  -0.091  -0.816  0.00  0.00     0.022 A 
ATOM      7  C5  UNL d   1      -0.630  -1.185  -1.096  0.00  0.00     0.026 A 
ATOM      8  C6  UNL d   1       0.614  -1.179  -0.378  0.00  0.00    -0.082 A 
ATOM      9  C7  UNL d   1       1.684  -2.106  -0.381  0.00  0.00     0.045 A 
ENDROOT
TORSDOF 0
ENDMDL
