MODEL 1
REMARK minimizedAffinity 9.35261345
REMARK minimizedRMSD -1
REMARK  1 active torsions:
REMARK  status: ('A' for Active; 'I' for Inactive)
REMARK    1  A    between atoms: C1_2  and  C2_3 
ROOT
ATOM      1  C2  UNL d   1       0.010   1.267   2.696  0.00  0.00    -0.081 A 
ATOM      2  C3  UNL d   1       0.904   2.337   2.826  0.00  0.00     0.006 A 
ATOM      3  C4  UNL d   1       0.957   3.338   1.854  0.00  0.00     0.002 A 
ATOM      4  C5  UNL d   1       0.113   3.291   0.739  0.00  0.00    -0.080 A 
ATOM      5  C6  UNL d   1       0.138   4.375  -0.297  0.00  0.00     0.076 C 
ATOM      6  C7  UNL d   1      -0.768   2.213   0.600  0.00  0.00     0.002 A 
ATOM      7  C8  UNL d   1      -0.821   1.211   1.572  0.00  0.00     0.006 A 
ENDROOT
BRANCH   1   8
ATOM      8  C1  UNL d   1      -0.095   0.220   3.775  0.00  0.00     0.054 C 
ATOM      9  C   UNL d   1       0.688  -1.033   3.408  0.00  0.00     0.018 C 
ENDBRANCH   1   8
TORSDOF 1
ENDMDL
