MODEL 1
REMARK minimizedAffinity 12.7399244
REMARK minimizedRMSD -1
REMARK  1 active torsions:
REMARK  status: ('A' for Active; 'I' for Inactive)
REMARK    1  A    between atoms: C1_2  and  C2_3 
ROOT
ATOM      1  C2  UNL d   1      -2.787   0.710  -1.207  0.00  0.00    -0.081 A 
ATOM      2  C3  UNL d   1      -1.671   1.498  -0.904  0.00  0.00     0.006 A 
ATOM      3  C4  UNL d   1      -0.380   0.995  -1.081  0.00  0.00     0.002 A 
ATOM      4  C5  UNL d   1      -0.184  -0.301  -1.571  0.00  0.00    -0.080 A 
ATOM      5  C6  UNL d   1       1.197  -0.842  -1.795  0.00  0.00     0.076 C 
ATOM      6  C7  UNL d   1      -1.300  -1.095  -1.857  0.00  0.00     0.002 A 
ATOM      7  C8  UNL d   1      -2.591  -0.593  -1.680  0.00  0.00     0.006 A 
ENDROOT
BRANCH   1   8
ATOM      8  C1  UNL d   1      -4.180   1.272  -1.079  0.00  0.00     0.054 C 
ATOM      9  C   UNL d   1      -4.423   2.384  -2.089  0.00  0.00     0.018 C 
ENDBRANCH   1   8
TORSDOF 1
ENDMDL
