MODEL 1
REMARK minimizedAffinity 7.2958622
REMARK minimizedRMSD -1
REMARK  1 active torsions:
REMARK  status: ('A' for Active; 'I' for Inactive)
REMARK    1  A    between atoms: C1_2  and  C2_3 
ROOT
ATOM      1  C2  UNL d   1      -0.945   1.778  -0.881  0.00  0.00    -0.081 A 
ATOM      2  C3  UNL d   1      -0.772   2.223   0.435  0.00  0.00     0.006 A 
ATOM      3  C4  UNL d   1      -0.643   3.586   0.710  0.00  0.00     0.002 A 
ATOM      4  C5  UNL d   1      -0.691   4.527  -0.324  0.00  0.00    -0.080 A 
ATOM      5  C6  UNL d   1      -0.584   5.996  -0.039  0.00  0.00     0.076 C 
ATOM      6  C7  UNL d   1      -0.846   4.081  -1.641  0.00  0.00     0.002 A 
ATOM      7  C8  UNL d   1      -0.975   2.718  -1.917  0.00  0.00     0.006 A 
ENDROOT
BRANCH   1   8
ATOM      8  C1  UNL d   1      -1.150   0.313  -1.174  0.00  0.00     0.054 C 
ATOM      9  C   UNL d   1      -2.625  -0.057  -1.138  0.00  0.00     0.018 C 
ENDBRANCH   1   8
TORSDOF 1
ENDMDL
