MODEL 1
REMARK minimizedAffinity 7.94161081
REMARK minimizedRMSD -1
REMARK  1 active torsions:
REMARK  status: ('A' for Active; 'I' for Inactive)
REMARK    1  A    between atoms: C1_2  and  C2_3 
ROOT
ATOM      1  C2  UNL d   1       2.733  -1.880  -1.173  0.00  0.00    -0.081 A 
ATOM      2  C3  UNL d   1       4.101  -1.626  -1.020  0.00  0.00     0.006 A 
ATOM      3  C4  UNL d   1       4.949  -2.605  -0.496  0.00  0.00     0.002 A 
ATOM      4  C5  UNL d   1       4.445  -3.855  -0.124  0.00  0.00    -0.080 A 
ATOM      5  C6  UNL d   1       5.349  -4.926   0.411  0.00  0.00     0.076 C 
ATOM      6  C7  UNL d   1       3.075  -4.103  -0.261  0.00  0.00     0.002 A 
ATOM      7  C8  UNL d   1       2.227  -3.125  -0.784  0.00  0.00     0.006 A 
ENDROOT
BRANCH   1   8
ATOM      8  C1  UNL d   1       1.827  -0.849  -1.797  0.00  0.00     0.054 C 
ATOM      9  C   UNL d   1       0.613  -1.500  -2.445  0.00  0.00     0.018 C 
ENDBRANCH   1   8
TORSDOF 1
ENDMDL
