MODEL 1
REMARK minimizedAffinity 6.58047152
REMARK minimizedRMSD -1
REMARK  1 active torsions:
REMARK  status: ('A' for Active; 'I' for Inactive)
REMARK    1  A    between atoms: C1_2  and  C2_3 
ROOT
ATOM      1  C2  UNL d   1      -0.102   3.717   0.943  0.00  0.00    -0.081 A 
ATOM      2  C3  UNL d   1       1.159   3.402   1.464  0.00  0.00     0.006 A 
ATOM      3  C4  UNL d   1       1.285   2.473   2.500  0.00  0.00     0.002 A 
ATOM      4  C5  UNL d   1       0.155   1.840   3.027  0.00  0.00    -0.080 A 
ATOM      5  C6  UNL d   1       0.280   0.819   4.119  0.00  0.00     0.076 C 
ATOM      6  C7  UNL d   1      -1.107   2.167   2.518  0.00  0.00     0.002 A 
ATOM      7  C8  UNL d   1      -1.233   3.095   1.483  0.00  0.00     0.006 A 
ENDROOT
BRANCH   1   8
ATOM      8  C1  UNL d   1      -0.235   4.669  -0.218  0.00  0.00     0.054 C 
ATOM      9  C   UNL d   1      -0.537   3.925  -1.511  0.00  0.00     0.018 C 
ENDBRANCH   1   8
TORSDOF 1
ENDMDL
