MODEL 1
REMARK minimizedAffinity 1.6946671
REMARK minimizedRMSD -1
REMARK  1 active torsions:
REMARK  status: ('A' for Active; 'I' for Inactive)
REMARK    1  A    between atoms: C1_2  and  C2_3 
ROOT
ATOM      1  C2  UNL d   1      -0.757   2.623   0.641  0.00  0.00    -0.081 A 
ATOM      2  C3  UNL d   1      -0.774   2.423  -0.745  0.00  0.00     0.006 A 
ATOM      3  C4  UNL d   1      -0.742   3.512  -1.618  0.00  0.00     0.002 A 
ATOM      4  C5  UNL d   1      -0.684   4.819  -1.121  0.00  0.00    -0.080 A 
ATOM      5  C6  UNL d   1      -0.618   5.996  -2.048  0.00  0.00     0.076 C 
ATOM      6  C7  UNL d   1      -0.684   5.019   0.264  0.00  0.00     0.002 A 
ATOM      7  C8  UNL d   1      -0.717   3.930   1.137  0.00  0.00     0.006 A 
ENDROOT
BRANCH   1   8
ATOM      8  C1  UNL d   1      -0.726   1.448   1.585  0.00  0.00     0.054 C 
ATOM      9  C   UNL d   1       0.018   1.788   2.868  0.00  0.00     0.018 C 
ENDBRANCH   1   8
TORSDOF 1
ENDMDL
