MODEL 1
REMARK minimizedAffinity -1.58275914
REMARK minimizedRMSD -1
REMARK  1 active torsions:
REMARK  status: ('A' for Active; 'I' for Inactive)
REMARK    1  A    between atoms: C1_2  and  C2_3 
ROOT
ATOM      1  C2  UNL d   1       3.232  -0.463   0.873  0.00  0.00    -0.073 A 
ATOM      2  C3  UNL d   1       3.130  -1.659   1.593  0.00  0.00    -0.002 A 
ATOM      3  C4  UNL d   1       2.053  -2.521   1.379  0.00  0.00     0.004 A 
ATOM      4  C5  UNL d   1       1.073  -2.200   0.440  0.00  0.00    -0.004 A 
ATOM      5  C6  UNL d   1       1.164  -1.016  -0.298  0.00  0.00    -0.075 A 
ATOM      6  C7  UNL d   1       0.116  -0.655  -1.310  0.00  0.00     0.076 C 
ATOM      7  C8  UNL d   1       2.246  -0.154  -0.076  0.00  0.00     0.001 A 
ENDROOT
BRANCH   1   8
ATOM      8  C1  UNL d   1       4.396   0.468   1.096  0.00  0.00     0.053 C 
ATOM      9  C   UNL d   1       5.670  -0.049   0.447  0.00  0.00     0.018 C 
ENDBRANCH   1   8
TORSDOF 1
ENDMDL
