MODEL 1
REMARK minimizedAffinity 8.53752518
REMARK minimizedRMSD -1
REMARK  1 active torsions:
REMARK  status: ('A' for Active; 'I' for Inactive)
REMARK    1  A    between atoms: C1_2  and  C2_3 
ROOT
ATOM      1  C2  UNL d   1       0.640  -2.443   2.250  0.00  0.00    -0.073 A 
ATOM      2  C3  UNL d   1       1.345  -1.557   1.426  0.00  0.00    -0.002 A 
ATOM      3  C4  UNL d   1       2.218  -2.043   0.452  0.00  0.00     0.004 A 
ATOM      4  C5  UNL d   1       2.390  -3.418   0.287  0.00  0.00    -0.004 A 
ATOM      5  C6  UNL d   1       1.686  -4.319   1.092  0.00  0.00    -0.075 A 
ATOM      6  C7  UNL d   1       1.862  -5.800   0.929  0.00  0.00     0.076 C 
ATOM      7  C8  UNL d   1       0.813  -3.823   2.070  0.00  0.00     0.001 A 
ENDROOT
BRANCH   1   8
ATOM      8  C1  UNL d   1      -0.309  -1.922   3.298  0.00  0.00     0.053 C 
ATOM      9  C   UNL d   1      -1.536  -2.807   3.445  0.00  0.00     0.018 C 
ENDBRANCH   1   8
TORSDOF 1
ENDMDL
