MODEL 1
REMARK minimizedAffinity 1.25164771
REMARK minimizedRMSD -1
REMARK  1 active torsions:
REMARK  status: ('A' for Active; 'I' for Inactive)
REMARK    1  A    between atoms: C1_2  and  C2_3 
ROOT
ATOM      1  C2  UNL d   1      -0.422  -1.737   0.486  0.00  0.00    -0.073 A 
ATOM      2  C3  UNL d   1       0.826  -2.191   0.928  0.00  0.00    -0.002 A 
ATOM      3  C4  UNL d   1       1.171  -2.101   2.277  0.00  0.00     0.004 A 
ATOM      4  C5  UNL d   1       0.272  -1.563   3.197  0.00  0.00    -0.004 A 
ATOM      5  C6  UNL d   1      -0.985  -1.115   2.777  0.00  0.00    -0.075 A 
ATOM      6  C7  UNL d   1      -1.963  -0.532   3.754  0.00  0.00     0.076 C 
ATOM      7  C8  UNL d   1      -1.323  -1.207   1.420  0.00  0.00     0.001 A 
ENDROOT
BRANCH   1   8
ATOM      8  C1  UNL d   1      -0.802  -1.839  -0.969  0.00  0.00     0.053 C 
ATOM      9  C   UNL d   1       0.358  -1.485  -1.887  0.00  0.00     0.018 C 
ENDBRANCH   1   8
TORSDOF 1
ENDMDL
