MODEL 1
REMARK minimizedAffinity 9.96286964
REMARK minimizedRMSD -1
REMARK  1 active torsions:
REMARK  status: ('A' for Active; 'I' for Inactive)
REMARK    1  A    between atoms: C1_2  and  C2_3 
ROOT
ATOM      1  C2  UNL d   1       0.870  -2.062   1.854  0.00  0.00    -0.073 A 
ATOM      2  C3  UNL d   1       1.427  -1.221   0.884  0.00  0.00    -0.002 A 
ATOM      3  C4  UNL d   1       2.304  -1.733  -0.074  0.00  0.00     0.004 A 
ATOM      4  C5  UNL d   1       2.627  -3.089  -0.076  0.00  0.00    -0.004 A 
ATOM      5  C6  UNL d   1       2.071  -3.949   0.878  0.00  0.00    -0.075 A 
ATOM      6  C7  UNL d   1       2.410  -5.410   0.890  0.00  0.00     0.076 C 
ATOM      7  C8  UNL d   1       1.194  -3.427   1.838  0.00  0.00     0.001 A 
ENDROOT
BRANCH   1   8
ATOM      8  C1  UNL d   1      -0.082  -1.516   2.886  0.00  0.00     0.053 C 
ATOM      9  C   UNL d   1      -1.485  -2.079   2.722  0.00  0.00     0.018 C 
ENDBRANCH   1   8
TORSDOF 1
ENDMDL
