MODEL 1
REMARK minimizedAffinity 4.05586529
REMARK minimizedRMSD -1
REMARK  1 active torsions:
REMARK  status: ('A' for Active; 'I' for Inactive)
REMARK    1  A    between atoms: C1_2  and  C2_3 
ROOT
ATOM      1  C2  UNL d   1       4.147  -1.315   0.700  0.00  0.00    -0.073 A 
ATOM      2  C3  UNL d   1       2.855  -0.785   0.795  0.00  0.00    -0.002 A 
ATOM      3  C4  UNL d   1       1.784  -1.601   1.162  0.00  0.00     0.004 A 
ATOM      4  C5  UNL d   1       1.994  -2.951   1.445  0.00  0.00    -0.004 A 
ATOM      5  C6  UNL d   1       3.280  -3.496   1.367  0.00  0.00    -0.075 A 
ATOM      6  C7  UNL d   1       3.523  -4.946   1.665  0.00  0.00     0.076 C 
ATOM      7  C8  UNL d   1       4.350  -2.671   0.995  0.00  0.00     0.001 A 
ENDROOT
BRANCH   1   8
ATOM      8  C1  UNL d   1       5.307  -0.436   0.310  0.00  0.00     0.053 C 
ATOM      9  C   UNL d   1       5.174   0.969   0.877  0.00  0.00     0.018 C 
ENDBRANCH   1   8
TORSDOF 1
ENDMDL
