MODEL 1
REMARK minimizedAffinity 1.29029465
REMARK minimizedRMSD -1
REMARK  1 active torsions:
REMARK  status: ('A' for Active; 'I' for Inactive)
REMARK    1  A    between atoms: C1_2  and  C2_3 
ROOT
ATOM      1  C2  UNL d   1       1.065  -2.179   1.992  0.00  0.00    -0.073 A 
ATOM      2  C3  UNL d   1       1.700  -1.257   1.152  0.00  0.00    -0.002 A 
ATOM      3  C4  UNL d   1       2.494  -1.700   0.093  0.00  0.00     0.004 A 
ATOM      4  C5  UNL d   1       2.656  -3.065  -0.141  0.00  0.00    -0.004 A 
ATOM      5  C6  UNL d   1       2.020  -4.001   0.680  0.00  0.00    -0.075 A 
ATOM      6  C7  UNL d   1       2.185  -5.474   0.444  0.00  0.00     0.076 C 
ATOM      7  C8  UNL d   1       1.226  -3.549   1.743  0.00  0.00     0.001 A 
ENDROOT
BRANCH   1   8
ATOM      8  C1  UNL d   1       0.202  -1.706   3.133  0.00  0.00     0.053 C 
ATOM      9  C   UNL d   1      -0.653  -0.511   2.743  0.00  0.00     0.018 C 
ENDBRANCH   1   8
TORSDOF 1
ENDMDL
