MODEL 1
REMARK minimizedAffinity 4.62177992
REMARK minimizedRMSD -1
REMARK  2 active torsions:
REMARK  status: ('A' for Active; 'I' for Inactive)
REMARK    1  A    between atoms: C2'_3  and  C1'_4 
REMARK    2  A    between atoms: C1'_4  and  C1_5 
ROOT
ATOM      1  C1  I4B d   1       0.382  -1.613   2.568  0.00  0.00    -0.075 A 
ATOM      2  C2  I4B d   1      -0.738  -1.466   1.789  0.00  0.00     0.003 A 
ATOM      3  C3  I4B d   1      -0.809  -0.424   0.832  0.00  0.00     0.002 A 
ATOM      4  C4  I4B d   1       0.235   0.472   0.724  0.00  0.00    -0.004 A 
ATOM      5  C5  I4B d   1       1.379   0.307   1.499  0.00  0.00     0.002 A 
ATOM      6  C6  I4B d   1       1.459  -0.749   2.418  0.00  0.00     0.003 A 
ENDROOT
BRANCH   1   7
ATOM      7  C1' I4B d   1       0.410  -2.703   3.592  0.00  0.00     0.060 C 
BRANCH   7   8
ATOM      8  C2' I4B d   1      -0.508  -3.812   3.117  0.00  0.00    -0.013 C 
ATOM      9  C4' I4B d   1       0.279  -4.996   2.621  0.00  0.00     0.013 C 
ATOM     10  C3' I4B d   1      -1.399  -4.195   4.260  0.00  0.00     0.013 C 
ENDBRANCH   7   8
ENDBRANCH   1   7
TORSDOF 2
ENDMDL
