MODEL 1
REMARK minimizedAffinity 0.751218736
REMARK minimizedRMSD -1
REMARK  2 active torsions:
REMARK  status: ('A' for Active; 'I' for Inactive)
REMARK    1  A    between atoms: C2'_3  and  C1'_4 
REMARK    2  A    between atoms: C1'_4  and  C1_5 
ROOT
ATOM      1  C1  I4B d   1      -0.482   0.206  -0.841  0.00  0.00    -0.075 A 
ATOM      2  C2  I4B d   1      -1.518   0.759  -0.130  0.00  0.00     0.003 A 
ATOM      3  C3  I4B d   1      -1.687   0.450   1.241  0.00  0.00     0.002 A 
ATOM      4  C4  I4B d   1      -0.833  -0.450   1.845  0.00  0.00    -0.004 A 
ATOM      5  C5  I4B d   1       0.231  -0.992   1.130  0.00  0.00     0.002 A 
ATOM      6  C6  I4B d   1       0.415  -0.653  -0.219  0.00  0.00     0.003 A 
ENDROOT
BRANCH   1   7
ATOM      7  C1' I4B d   1      -0.353   0.528  -2.296  0.00  0.00     0.060 C 
BRANCH   7   8
ATOM      8  C2' I4B d   1      -0.667   1.999  -2.477  0.00  0.00    -0.013 C 
ATOM      9  C4' I4B d   1       0.438   2.706  -3.218  0.00  0.00     0.013 C 
ATOM     10  C3' I4B d   1      -1.968   2.107  -3.216  0.00  0.00     0.013 C 
ENDBRANCH   7   8
ENDBRANCH   1   7
TORSDOF 2
ENDMDL
