MODEL 1
REMARK minimizedAffinity -6.52818489
REMARK minimizedRMSD -1
REMARK  2 active torsions:
REMARK  status: ('A' for Active; 'I' for Inactive)
REMARK    1  A    between atoms: C2'_3  and  C1'_4 
REMARK    2  A    between atoms: C1'_4  and  C1_5 
ROOT
ATOM      1  C1  I4B d   1      -1.173   0.885  -1.821  0.00  0.00    -0.075 A 
ATOM      2  C2  I4B d   1      -0.208   1.524  -2.559  0.00  0.00     0.003 A 
ATOM      3  C3  I4B d   1      -0.550   2.627  -3.379  0.00  0.00     0.002 A 
ATOM      4  C4  I4B d   1      -1.869   3.022  -3.470  0.00  0.00    -0.004 A 
ATOM      5  C5  I4B d   1      -2.843   2.387  -2.704  0.00  0.00     0.002 A 
ATOM      6  C6  I4B d   1      -2.491   1.320  -1.865  0.00  0.00     0.003 A 
ENDROOT
BRANCH   1   7
ATOM      7  C1' I4B d   1      -0.782  -0.296  -0.991  0.00  0.00     0.060 C 
BRANCH   7   8
ATOM      8  C2' I4B d   1       0.017   0.209   0.193  0.00  0.00    -0.013 C 
ATOM      9  C4' I4B d   1      -0.712  -0.037   1.487  0.00  0.00     0.013 C 
ATOM     10  C3' I4B d   1       1.348  -0.481   0.182  0.00  0.00     0.013 C 
ENDBRANCH   7   8
ENDBRANCH   1   7
TORSDOF 2
ENDMDL
