MODEL 1
REMARK minimizedAffinity -3.69995022
REMARK minimizedRMSD -1
REMARK  2 active torsions:
REMARK  status: ('A' for Active; 'I' for Inactive)
REMARK    1  A    between atoms: C2'_3  and  C1'_4 
REMARK    2  A    between atoms: C1'_4  and  C1_5 
ROOT
ATOM      1  C1  I4B d   1      -0.287   0.240  -1.048  0.00  0.00    -0.075 A 
ATOM      2  C2  I4B d   1       0.821  -0.501  -1.376  0.00  0.00     0.003 A 
ATOM      3  C3  I4B d   1       1.466  -1.292  -0.395  0.00  0.00     0.002 A 
ATOM      4  C4  I4B d   1       1.003  -1.273   0.905  0.00  0.00    -0.004 A 
ATOM      5  C5  I4B d   1      -0.133  -0.539   1.231  0.00  0.00     0.002 A 
ATOM      6  C6  I4B d   1      -0.790   0.213   0.246  0.00  0.00     0.003 A 
ENDROOT
BRANCH   1   7
ATOM      7  C1' I4B d   1      -0.924   1.089  -2.101  0.00  0.00     0.060 C 
BRANCH   7   8
ATOM      8  C2' I4B d   1      -0.382   2.497  -1.957  0.00  0.00    -0.013 C 
ATOM      9  C4' I4B d   1       0.572   2.831  -3.074  0.00  0.00     0.013 C 
ATOM     10  C3' I4B d   1      -1.546   3.442  -1.938  0.00  0.00     0.013 C 
ENDBRANCH   7   8
ENDBRANCH   1   7
TORSDOF 2
ENDMDL
