MODEL 1
REMARK minimizedAffinity -5.06548071
REMARK minimizedRMSD -1
REMARK  0 active torsions:
REMARK  status: ('A' for Active; 'I' for Inactive)
ROOT
ATOM      1  N1  IND d   1      -0.245  -1.175   0.132  0.00  0.00    -0.196 N 
ATOM      2  C2  IND d   1      -1.024  -0.070  -0.073  0.00  0.00     0.054 A 
ATOM      3  C3  IND d   1      -0.307   1.057   0.137  0.00  0.00    -0.031 A 
ATOM      4  C4  IND d   1       2.186   1.323   0.724  0.00  0.00     0.051 A 
ATOM      5  C5  IND d   1       3.299   0.600   1.049  0.00  0.00    -0.031 A 
ATOM      6  C6  IND d   1       3.289  -0.779   1.082  0.00  0.00     0.015 A 
ATOM      7  C7  IND d   1       2.162  -1.491   0.780  0.00  0.00    -0.016 A 
ATOM      8  C8  IND d   1       1.028  -0.760   0.457  0.00  0.00    -0.047 A 
ATOM      9  C9  IND d   1       1.021   0.641   0.463  0.00  0.00    -0.096 A 
ATOM     10  HN1 IND d   1      -0.507  -1.991   0.069  0.00  0.00     0.298 HD
ENDROOT
TORSDOF 0
ENDMDL
