MODEL 1
REMARK minimizedAffinity -2.26546979
REMARK minimizedRMSD -1
REMARK  0 active torsions:
REMARK  status: ('A' for Active; 'I' for Inactive)
ROOT
ATOM      1  N1  IND d   1      -0.941   0.687  -0.025  0.00  0.00    -0.196 N 
ATOM      2  C2  IND d   1      -1.418  -0.594  -0.006  0.00  0.00     0.054 A 
ATOM      3  C3  IND d   1      -0.397  -1.474   0.105  0.00  0.00    -0.031 A 
ATOM      4  C4  IND d   1       2.124  -1.029   0.371  0.00  0.00     0.051 A 
ATOM      5  C5  IND d   1       3.046  -0.020   0.373  0.00  0.00    -0.031 A 
ATOM      6  C6  IND d   1       2.678   1.304   0.243  0.00  0.00     0.015 A 
ATOM      7  C7  IND d   1       1.368   1.670   0.116  0.00  0.00    -0.016 A 
ATOM      8  C8  IND d   1       0.430   0.647   0.107  0.00  0.00    -0.047 A 
ATOM      9  C9  IND d   1       0.801  -0.701   0.196  0.00  0.00    -0.096 A 
ATOM     10  HN1 IND d   1      -1.417   1.399  -0.106  0.00  0.00     0.298 HD
ENDROOT
TORSDOF 0
ENDMDL
