MODEL 1
REMARK minimizedAffinity -2.63826513
REMARK minimizedRMSD -1
REMARK  0 active torsions:
REMARK  status: ('A' for Active; 'I' for Inactive)
ROOT
ATOM      1  N1  IND d   1      -0.133  -0.835  -0.686  0.00  0.00    -0.196 N 
ATOM      2  C2  IND d   1      -1.208  -0.053  -0.365  0.00  0.00     0.054 A 
ATOM      3  C3  IND d   1      -0.861   0.863   0.566  0.00  0.00    -0.031 A 
ATOM      4  C4  IND d   1       1.438   1.326   1.629  0.00  0.00     0.051 A 
ATOM      5  C5  IND d   1       2.717   0.849   1.679  0.00  0.00    -0.031 A 
ATOM      6  C6  IND d   1       3.121  -0.235   0.926  0.00  0.00     0.015 A 
ATOM      7  C7  IND d   1       2.259  -0.877   0.083  0.00  0.00    -0.016 A 
ATOM      8  C8  IND d   1       0.957  -0.399   0.035  0.00  0.00    -0.047 A 
ATOM      9  C9  IND d   1       0.530   0.674   0.829  0.00  0.00    -0.096 A 
ATOM     10  HN1 IND d   1      -0.138  -1.489  -1.244  0.00  0.00     0.298 HD
ENDROOT
TORSDOF 0
ENDMDL
