MODEL 1
REMARK minimizedAffinity -4.66187525
REMARK minimizedRMSD -1
REMARK  0 active torsions:
REMARK  status: ('A' for Active; 'I' for Inactive)
ROOT
ATOM      1  N1  IND d   1       0.666  -1.966   1.587  0.00  0.00    -0.196 N 
ATOM      2  C2  IND d   1       1.903  -2.367   2.009  0.00  0.00     0.054 A 
ATOM      3  C3  IND d   1       2.827  -1.423   1.721  0.00  0.00    -0.031 A 
ATOM      4  C4  IND d   1       2.516   0.898   0.652  0.00  0.00     0.051 A 
ATOM      5  C5  IND d   1       1.574   1.696   0.066  0.00  0.00    -0.031 A 
ATOM      6  C6  IND d   1       0.254   1.308  -0.042  0.00  0.00     0.015 A 
ATOM      7  C7  IND d   1      -0.177   0.106   0.444  0.00  0.00    -0.016 A 
ATOM      8  C8  IND d   1       0.778  -0.710   1.033  0.00  0.00    -0.047 A 
ATOM      9  C9  IND d   1       2.127  -0.340   1.108  0.00  0.00    -0.096 A 
ATOM     10  HN1 IND d   1      -0.059  -2.422   1.657  0.00  0.00     0.298 HD
ENDROOT
TORSDOF 0
ENDMDL
