MODEL 1
REMARK minimizedAffinity -5.28271198
REMARK minimizedRMSD -1
REMARK  0 active torsions:
REMARK  status: ('A' for Active; 'I' for Inactive)
ROOT
ATOM      1  N1  IND d   1      -0.603  -0.946   0.540  0.00  0.00    -0.196 N 
ATOM      2  C2  IND d   1      -0.916   0.333   0.172  0.00  0.00     0.054 A 
ATOM      3  C3  IND d   1       0.199   1.098   0.136  0.00  0.00    -0.031 A 
ATOM      4  C4  IND d   1       2.652   0.433   0.545  0.00  0.00     0.051 A 
ATOM      5  C5  IND d   1       3.432  -0.616   0.944  0.00  0.00    -0.031 A 
ATOM      6  C6  IND d   1       2.896  -1.854   1.232  0.00  0.00     0.015 A 
ATOM      7  C7  IND d   1       1.556  -2.094   1.120  0.00  0.00    -0.016 A 
ATOM      8  C8  IND d   1       0.760  -1.029   0.722  0.00  0.00    -0.047 A 
ATOM      9  C9  IND d   1       1.293   0.242   0.469  0.00  0.00    -0.096 A 
ATOM     10  HN1 IND d   1      -1.163  -1.590   0.640  0.00  0.00     0.298 HD
ENDROOT
TORSDOF 0
ENDMDL
