MODEL 1
REMARK minimizedAffinity -3.77279735
REMARK minimizedRMSD -1
REMARK  0 active torsions:
REMARK  status: ('A' for Active; 'I' for Inactive)
ROOT
ATOM      1  N1  IND d   1       0.370  -1.663   1.489  0.00  0.00    -0.196 N 
ATOM      2  C2  IND d   1       1.419  -2.316   2.074  0.00  0.00     0.054 A 
ATOM      3  C3  IND d   1       2.547  -1.577   1.976  0.00  0.00    -0.031 A 
ATOM      4  C4  IND d   1       2.880   0.776   0.986  0.00  0.00     0.051 A 
ATOM      5  C5  IND d   1       2.222   1.760   0.303  0.00  0.00    -0.031 A 
ATOM      6  C6  IND d   1       0.886   1.652  -0.024  0.00  0.00     0.015 A 
ATOM      7  C7  IND d   1       0.151   0.557   0.331  0.00  0.00    -0.016 A 
ATOM      8  C8  IND d   1       0.818  -0.448   1.019  0.00  0.00    -0.047 A 
ATOM      9  C9  IND d   1       2.184  -0.363   1.316  0.00  0.00    -0.096 A 
ATOM     10  HN1 IND d   1      -0.434  -1.961   1.424  0.00  0.00     0.298 HD
ENDROOT
TORSDOF 0
ENDMDL
