MODEL 1
REMARK minimizedAffinity 0.990289748
REMARK minimizedRMSD -1
REMARK  0 active torsions:
REMARK  status: ('A' for Active; 'I' for Inactive)
ROOT
ATOM      1  N1  IND d   1       0.221   1.472   1.130  0.00  0.00    -0.196 N 
ATOM      2  C2  IND d   1       0.512   2.262   0.053  0.00  0.00     0.054 A 
ATOM      3  C3  IND d   1       0.509   1.529  -1.083  0.00  0.00    -0.031 A 
ATOM      4  C4  IND d   1      -0.048  -0.961  -1.420  0.00  0.00     0.051 A 
ATOM      5  C5  IND d   1      -0.338  -2.104  -0.728  0.00  0.00    -0.031 A 
ATOM      6  C6  IND d   1      -0.462  -2.112   0.646  0.00  0.00     0.015 A 
ATOM      7  C7  IND d   1      -0.311  -0.971   1.382  0.00  0.00    -0.016 A 
ATOM      8  C8  IND d   1      -0.009   0.190   0.683  0.00  0.00    -0.047 A 
ATOM      9  C9  IND d   1       0.160   0.196  -0.708  0.00  0.00    -0.096 A 
ATOM     10  HN1 IND d   1       0.187   1.733   1.948  0.00  0.00     0.298 HD
ENDROOT
TORSDOF 0
ENDMDL
