MODEL 1
REMARK minimizedAffinity -5.13312435
REMARK minimizedRMSD -1
REMARK  0 active torsions:
REMARK  status: ('A' for Active; 'I' for Inactive)
ROOT
ATOM      1  N1  IND d   1      -0.501  -0.815  -0.346  0.00  0.00    -0.196 N 
ATOM      2  C2  IND d   1      -1.366   0.242  -0.399  0.00  0.00     0.054 A 
ATOM      3  C3  IND d   1      -0.758   1.370   0.033  0.00  0.00    -0.031 A 
ATOM      4  C4  IND d   1       1.680   1.732   0.777  0.00  0.00     0.051 A 
ATOM      5  C5  IND d   1       2.841   1.056   1.027  0.00  0.00    -0.031 A 
ATOM      6  C6  IND d   1       2.951  -0.305   0.826  0.00  0.00     0.015 A 
ATOM      7  C7  IND d   1       1.902  -1.042   0.354  0.00  0.00    -0.016 A 
ATOM      8  C8  IND d   1       0.719  -0.360   0.105  0.00  0.00    -0.047 A 
ATOM      9  C9  IND d   1       0.589   1.013   0.348  0.00  0.00    -0.096 A 
ATOM     10  HN1 IND d   1      -0.687  -1.627  -0.559  0.00  0.00     0.298 HD
ENDROOT
TORSDOF 0
ENDMDL
