MODEL 1
REMARK minimizedAffinity -4.69267654
REMARK minimizedRMSD -1
REMARK  0 active torsions:
REMARK  status: ('A' for Active; 'I' for Inactive)
ROOT
ATOM      1  C2' OXE d   1       1.441  -0.817   2.880  0.00  0.00     0.078 C 
ATOM      2  C1' OXE d   1      -1.291  -0.271   2.535  0.00  0.00     0.078 C 
ATOM      3  C1  OXE d   1      -0.450  -0.466   1.297  0.00  0.00    -0.078 A 
ATOM      4  C2  OXE d   1       0.894  -0.687   1.475  0.00  0.00    -0.078 A 
ATOM      5  C3  OXE d   1       1.705  -0.928   0.369  0.00  0.00     0.003 A 
ATOM      6  C4  OXE d   1       1.193  -0.796  -0.927  0.00  0.00    -0.002 A 
ATOM      7  C5  OXE d   1      -0.165  -0.532  -1.131  0.00  0.00    -0.002 A 
ATOM      8  C6  OXE d   1      -1.007  -0.407  -0.031  0.00  0.00     0.003 A 
ENDROOT
TORSDOF 0
ENDMDL
