MODEL 1
REMARK minimizedAffinity 0.908165395
REMARK minimizedRMSD -1
REMARK  0 active torsions:
REMARK  status: ('A' for Active; 'I' for Inactive)
ROOT
ATOM      1  C2' OXE d   1      -0.093   0.974  -0.977  0.00  0.00     0.078 C 
ATOM      2  C1' OXE d   1       1.794  -1.104  -0.957  0.00  0.00     0.078 C 
ATOM      3  C1  OXE d   1       1.004  -0.859   0.304  0.00  0.00    -0.078 A 
ATOM      4  C2  OXE d   1       0.116   0.190   0.300  0.00  0.00    -0.078 A 
ATOM      5  C3  OXE d   1      -0.677   0.425   1.420  0.00  0.00     0.003 A 
ATOM      6  C4  OXE d   1      -0.470  -0.298   2.600  0.00  0.00    -0.002 A 
ATOM      7  C5  OXE d   1       0.458  -1.345   2.638  0.00  0.00    -0.002 A 
ATOM      8  C6  OXE d   1       1.171  -1.665   1.488  0.00  0.00     0.003 A 
ENDROOT
TORSDOF 0
ENDMDL
