MODEL 1
REMARK minimizedAffinity -5.63234901
REMARK minimizedRMSD -1
REMARK  0 active torsions:
REMARK  status: ('A' for Active; 'I' for Inactive)
ROOT
ATOM      1  C2' OXE d   1      -0.208   0.682  -0.554  0.00  0.00     0.078 C 
ATOM      2  C1' OXE d   1       1.939  -1.070  -1.001  0.00  0.00     0.078 C 
ATOM      3  C1  OXE d   1       1.420  -0.938   0.410  0.00  0.00    -0.078 A 
ATOM      4  C2  OXE d   1       0.400  -0.043   0.626  0.00  0.00    -0.078 A 
ATOM      5  C3  OXE d   1      -0.152   0.078   1.899  0.00  0.00     0.003 A 
ATOM      6  C4  OXE d   1       0.424  -0.588   2.987  0.00  0.00    -0.002 A 
ATOM      7  C5  OXE d   1       1.489  -1.474   2.795  0.00  0.00    -0.002 A 
ATOM      8  C6  OXE d   1       1.970  -1.692   1.508  0.00  0.00     0.003 A 
ENDROOT
TORSDOF 0
ENDMDL
