MODEL 1
REMARK minimizedAffinity -3.54801726
REMARK minimizedRMSD -1
REMARK  0 active torsions:
REMARK  status: ('A' for Active; 'I' for Inactive)
ROOT
ATOM      1  C2' OXE d   1      -1.067  -0.350  -1.488  0.00  0.00     0.078 C 
ATOM      2  C1' OXE d   1      -0.283   0.879   0.911  0.00  0.00     0.078 C 
ATOM      3  C1  OXE d   1      -0.360   1.738  -0.327  0.00  0.00    -0.078 A 
ATOM      4  C2  OXE d   1      -0.699   1.119  -1.505  0.00  0.00    -0.078 A 
ATOM      5  C3  OXE d   1      -0.838   1.874  -2.666  0.00  0.00     0.003 A 
ATOM      6  C4  OXE d   1      -0.486   3.229  -2.676  0.00  0.00    -0.002 A 
ATOM      7  C5  OXE d   1      -0.100   3.871  -1.494  0.00  0.00    -0.002 A 
ATOM      8  C6  OXE d   1      -0.073   3.151  -0.305  0.00  0.00     0.003 A 
ENDROOT
TORSDOF 0
ENDMDL
