MODEL 1
REMARK minimizedAffinity -2.45512223
REMARK minimizedRMSD -1
REMARK  0 active torsions:
REMARK  status: ('A' for Active; 'I' for Inactive)
ROOT
ATOM      1  C2' OXE d   1      -0.749   0.496  -1.568  0.00  0.00     0.078 C 
ATOM      2  C1' OXE d   1       1.210  -1.464  -1.121  0.00  0.00     0.078 C 
ATOM      3  C1  OXE d   1       0.385  -1.012   0.059  0.00  0.00    -0.078 A 
ATOM      4  C2  OXE d   1      -0.539  -0.019  -0.160  0.00  0.00    -0.078 A 
ATOM      5  C3  OXE d   1      -1.364   0.397   0.881  0.00  0.00     0.003 A 
ATOM      6  C4  OXE d   1      -1.156  -0.077   2.182  0.00  0.00    -0.002 A 
ATOM      7  C5  OXE d   1      -0.193  -1.060   2.435  0.00  0.00    -0.002 A 
ATOM      8  C6  OXE d   1       0.555  -1.568   1.378  0.00  0.00     0.003 A 
ENDROOT
TORSDOF 0
ENDMDL
