MODEL 1
REMARK minimizedAffinity -4.36978149
REMARK minimizedRMSD -1
REMARK  0 active torsions:
REMARK  status: ('A' for Active; 'I' for Inactive)
ROOT
ATOM      1  C2' OXE d   1       0.346  -0.005  -1.497  0.00  0.00     0.078 C 
ATOM      2  C1' OXE d   1       2.737  -1.174  -0.603  0.00  0.00     0.078 C 
ATOM      3  C1  OXE d   1       1.773  -0.661   0.438  0.00  0.00    -0.078 A 
ATOM      4  C2  OXE d   1       0.627  -0.048  -0.010  0.00  0.00    -0.078 A 
ATOM      5  C3  OXE d   1      -0.322   0.394   0.907  0.00  0.00     0.003 A 
ATOM      6  C4  OXE d   1      -0.051   0.359   2.280  0.00  0.00    -0.002 A 
ATOM      7  C5  OXE d   1       1.128  -0.224   2.756  0.00  0.00    -0.002 A 
ATOM      8  C6  OXE d   1       2.029  -0.776   1.852  0.00  0.00     0.003 A 
ENDROOT
TORSDOF 0
ENDMDL
