MODEL 1
REMARK minimizedAffinity -2.31649756
REMARK minimizedRMSD -1
REMARK  0 active torsions:
REMARK  status: ('A' for Active; 'I' for Inactive)
ROOT
ATOM      1  C2' OXE d   1      -0.351   1.848  -2.079  0.00  0.00     0.078 C 
ATOM      2  C1' OXE d   1       0.022  -0.932  -1.953  0.00  0.00     0.078 C 
ATOM      3  C1  OXE d   1      -0.224  -0.196  -0.660  0.00  0.00    -0.078 A 
ATOM      4  C2  OXE d   1      -0.359   1.170  -0.726  0.00  0.00    -0.078 A 
ATOM      5  C3  OXE d   1      -0.641   1.891   0.431  0.00  0.00     0.003 A 
ATOM      6  C4  OXE d   1      -0.636   1.259   1.680  0.00  0.00    -0.002 A 
ATOM      7  C5  OXE d   1      -0.461  -0.126   1.773  0.00  0.00    -0.002 A 
ATOM      8  C6  OXE d   1      -0.297  -0.872   0.611  0.00  0.00     0.003 A 
ENDROOT
TORSDOF 0
ENDMDL
