MODEL 1
REMARK minimizedAffinity -4.39324379
REMARK minimizedRMSD -1
REMARK  0 active torsions:
REMARK  status: ('A' for Active; 'I' for Inactive)
ROOT
ATOM      1  C2' OXE d   1      -1.615   0.019   0.865  0.00  0.00     0.078 C 
ATOM      2  C1' OXE d   1       0.522   0.818  -0.771  0.00  0.00     0.078 C 
ATOM      3  C1  OXE d   1       0.836  -0.050   0.422  0.00  0.00    -0.078 A 
ATOM      4  C2  OXE d   1      -0.210  -0.398   1.243  0.00  0.00    -0.078 A 
ATOM      5  C3  OXE d   1       0.015  -1.242   2.327  0.00  0.00     0.003 A 
ATOM      6  C4  OXE d   1       1.319  -1.615   2.676  0.00  0.00    -0.002 A 
ATOM      7  C5  OXE d   1       2.403  -1.239   1.875  0.00  0.00    -0.002 A 
ATOM      8  C6  OXE d   1       2.174  -0.494   0.724  0.00  0.00     0.003 A 
ENDROOT
TORSDOF 0
ENDMDL
