MODEL 1
REMARK minimizedAffinity -4.33516979
REMARK minimizedRMSD -1
REMARK  1 active torsions:
REMARK  status: ('A' for Active; 'I' for Inactive)
REMARK    1  A    between atoms: C1_2  and  C2_3 
ROOT
ATOM      1  C2  UNL d   1      -0.343   0.039   0.009  0.00  0.00    -0.073 A 
ATOM      2  C3  UNL d   1      -1.397  -0.002   0.928  0.00  0.00    -0.002 A 
ATOM      3  C4  UNL d   1      -1.450  -1.006   1.896  0.00  0.00     0.004 A 
ATOM      4  C5  UNL d   1      -0.447  -1.974   1.960  0.00  0.00    -0.004 A 
ATOM      5  C6  UNL d   1       0.621  -1.943   1.057  0.00  0.00    -0.075 A 
ATOM      6  C7  UNL d   1       1.706  -2.977   1.111  0.00  0.00     0.076 C 
ATOM      7  C8  UNL d   1       0.665  -0.933   0.086  0.00  0.00     0.001 A 
ENDROOT
BRANCH   1   8
ATOM      8  C1  UNL d   1      -0.278   1.124  -1.034  0.00  0.00     0.053 C 
ATOM      9  C   UNL d   1      -1.630   1.371  -1.684  0.00  0.00     0.018 C 
ENDBRANCH   1   8
TORSDOF 1
ENDMDL
