MODEL 1
REMARK minimizedAffinity -5.17072105
REMARK minimizedRMSD -1
REMARK  1 active torsions:
REMARK  status: ('A' for Active; 'I' for Inactive)
REMARK    1  A    between atoms: C1_2  and  C2_3 
ROOT
ATOM      1  C2  UNL d   1       0.013  -0.020   0.093  0.00  0.00    -0.073 A 
ATOM      2  C3  UNL d   1       1.185  -0.074  -0.669  0.00  0.00    -0.002 A 
ATOM      3  C4  UNL d   1       2.122  -1.084  -0.450  0.00  0.00     0.004 A 
ATOM      4  C5  UNL d   1       1.894  -2.053   0.527  0.00  0.00    -0.004 A 
ATOM      5  C6  UNL d   1       0.723  -2.023   1.291  0.00  0.00    -0.075 A 
ATOM      6  C7  UNL d   1       0.464  -3.057   2.347  0.00  0.00     0.076 C 
ATOM      7  C8  UNL d   1      -0.212  -1.004   1.066  0.00  0.00     0.001 A 
ENDROOT
BRANCH   1   8
ATOM      8  C1  UNL d   1      -1.005   1.066  -0.145  0.00  0.00     0.053 C 
ATOM      9  C   UNL d   1      -0.776   1.782  -1.466  0.00  0.00     0.018 C 
ENDBRANCH   1   8
TORSDOF 1
ENDMDL
