MODEL 1
REMARK minimizedAffinity -7.09754133
REMARK minimizedRMSD -1
REMARK  1 active torsions:
REMARK  status: ('A' for Active; 'I' for Inactive)
REMARK    1  A    between atoms: C1_2  and  C2_3 
ROOT
ATOM      1  C2  UNL d   1       0.745  -1.000   0.480  0.00  0.00    -0.073 A 
ATOM      2  C3  UNL d   1       1.680  -2.010   0.732  0.00  0.00    -0.002 A 
ATOM      3  C4  UNL d   1       1.517  -2.865   1.824  0.00  0.00     0.004 A 
ATOM      4  C5  UNL d   1       0.417  -2.723   2.669  0.00  0.00    -0.004 A 
ATOM      5  C6  UNL d   1      -0.535  -1.727   2.426  0.00  0.00    -0.075 A 
ATOM      6  C7  UNL d   1      -1.723  -1.560   3.327  0.00  0.00     0.076 C 
ATOM      7  C8  UNL d   1      -0.363  -0.871   1.330  0.00  0.00     0.001 A 
ENDROOT
BRANCH   1   8
ATOM      8  C1  UNL d   1       0.912  -0.079  -0.700  0.00  0.00     0.053 C 
ATOM      9  C   UNL d   1       0.397   1.321  -0.409  0.00  0.00     0.018 C 
ENDBRANCH   1   8
TORSDOF 1
ENDMDL
