MODEL 1
REMARK minimizedAffinity -5.04678202
REMARK minimizedRMSD -1
REMARK  1 active torsions:
REMARK  status: ('A' for Active; 'I' for Inactive)
REMARK    1  A    between atoms: C1_2  and  C2_3 
ROOT
ATOM      1  C2  UNL d   1       0.988  -1.741   0.802  0.00  0.00    -0.073 A 
ATOM      2  C3  UNL d   1       2.130  -1.190   0.210  0.00  0.00    -0.002 A 
ATOM      3  C4  UNL d   1       2.067   0.054  -0.419  0.00  0.00     0.004 A 
ATOM      4  C5  UNL d   1       0.866   0.762  -0.456  0.00  0.00    -0.004 A 
ATOM      5  C6  UNL d   1      -0.283   0.233   0.140  0.00  0.00    -0.075 A 
ATOM      6  C7  UNL d   1      -1.583   0.981   0.107  0.00  0.00     0.076 C 
ATOM      7  C8  UNL d   1      -0.213  -1.018   0.768  0.00  0.00     0.001 A 
ENDROOT
BRANCH   1   8
ATOM      8  C1  UNL d   1       1.052  -3.082   1.488  0.00  0.00     0.053 C 
ATOM      9  C   UNL d   1       0.748  -2.977   2.974  0.00  0.00     0.018 C 
ENDBRANCH   1   8
TORSDOF 1
ENDMDL
