MODEL 1
REMARK minimizedAffinity -2.56645226
REMARK minimizedRMSD -1
REMARK  1 active torsions:
REMARK  status: ('A' for Active; 'I' for Inactive)
REMARK    1  A    between atoms: C1_2  and  C2_3 
ROOT
ATOM      1  C2  UNL d   1      -1.059   0.089  -2.296  0.00  0.00    -0.073 A 
ATOM      2  C3  UNL d   1       0.219  -0.385  -2.614  0.00  0.00    -0.002 A 
ATOM      3  C4  UNL d   1       1.058  -0.875  -1.612  0.00  0.00     0.004 A 
ATOM      4  C5  UNL d   1       0.626  -0.902  -0.286  0.00  0.00    -0.004 A 
ATOM      5  C6  UNL d   1      -0.652  -0.443   0.050  0.00  0.00    -0.075 A 
ATOM      6  C7  UNL d   1      -1.130  -0.464   1.472  0.00  0.00     0.076 C 
ATOM      7  C8  UNL d   1      -1.487   0.049  -0.962  0.00  0.00     0.001 A 
ENDROOT
BRANCH   1   8
ATOM      8  C1  UNL d   1      -1.970   0.613  -3.376  0.00  0.00     0.053 C 
ATOM      9  C   UNL d   1      -1.674   2.065  -3.717  0.00  0.00     0.018 C 
ENDBRANCH   1   8
TORSDOF 1
ENDMDL
