MODEL 1
REMARK minimizedAffinity -2.65568256
REMARK minimizedRMSD -1
REMARK  1 active torsions:
REMARK  status: ('A' for Active; 'I' for Inactive)
REMARK    1  A    between atoms: C1_2  and  C2_3 
ROOT
ATOM      1  C2  UNL d   1      -0.591   0.505  -1.058  0.00  0.00    -0.073 A 
ATOM      2  C3  UNL d   1       0.435   1.207  -0.415  0.00  0.00    -0.002 A 
ATOM      3  C4  UNL d   1       1.575   0.537   0.031  0.00  0.00     0.004 A 
ATOM      4  C5  UNL d   1       1.704  -0.838  -0.168  0.00  0.00    -0.004 A 
ATOM      5  C6  UNL d   1       0.695  -1.554  -0.819  0.00  0.00    -0.075 A 
ATOM      6  C7  UNL d   1       0.818  -3.033  -1.039  0.00  0.00     0.076 C 
ATOM      7  C8  UNL d   1      -0.448  -0.875  -1.261  0.00  0.00     0.001 A 
ENDROOT
BRANCH   1   8
ATOM      8  C1  UNL d   1      -1.822   1.225  -1.546  0.00  0.00     0.053 C 
ATOM      9  C   UNL d   1      -1.681   1.677  -2.991  0.00  0.00     0.018 C 
ENDBRANCH   1   8
TORSDOF 1
ENDMDL
