MODEL 1
REMARK minimizedAffinity -4.49385309
REMARK minimizedRMSD -1
REMARK  1 active torsions:
REMARK  status: ('A' for Active; 'I' for Inactive)
REMARK    1  A    between atoms: C1_2  and  C2_3 
ROOT
ATOM      1  C2  UNL d   1      -0.028   0.349  -0.159  0.00  0.00    -0.073 A 
ATOM      2  C3  UNL d   1       1.150  -0.093  -0.773  0.00  0.00    -0.002 A 
ATOM      3  C4  UNL d   1       1.972  -1.023  -0.136  0.00  0.00     0.004 A 
ATOM      4  C5  UNL d   1       1.623  -1.526   1.117  0.00  0.00    -0.004 A 
ATOM      5  C6  UNL d   1       0.444  -1.106   1.742  0.00  0.00    -0.075 A 
ATOM      6  C7  UNL d   1       0.055  -1.636   3.091  0.00  0.00     0.076 C 
ATOM      7  C8  UNL d   1      -0.375  -0.170   1.097  0.00  0.00     0.001 A 
ENDROOT
BRANCH   1   8
ATOM      8  C1  UNL d   1      -0.922   1.348  -0.846  0.00  0.00     0.053 C 
ATOM      9  C   UNL d   1      -1.958   0.672  -1.730  0.00  0.00     0.018 C 
ENDBRANCH   1   8
TORSDOF 1
ENDMDL
