MODEL 1
REMARK minimizedAffinity -3.58886719
REMARK minimizedRMSD -1
REMARK  1 active torsions:
REMARK  status: ('A' for Active; 'I' for Inactive)
REMARK    1  A    between atoms: C1_2  and  C2_3 
ROOT
ATOM      1  C2  UNL d   1       0.594  -1.036   0.239  0.00  0.00    -0.073 A 
ATOM      2  C3  UNL d   1       1.822  -1.651   0.510  0.00  0.00    -0.002 A 
ATOM      3  C4  UNL d   1       2.007  -2.363   1.696  0.00  0.00     0.004 A 
ATOM      4  C5  UNL d   1       0.966  -2.473   2.619  0.00  0.00    -0.004 A 
ATOM      5  C6  UNL d   1      -0.272  -1.876   2.360  0.00  0.00    -0.075 A 
ATOM      6  C7  UNL d   1      -1.400  -1.983   3.343  0.00  0.00     0.076 C 
ATOM      7  C8  UNL d   1      -0.449  -1.161   1.168  0.00  0.00     0.001 A 
ENDROOT
BRANCH   1   8
ATOM      8  C1  UNL d   1       0.388  -0.272  -1.043  0.00  0.00     0.053 C 
ATOM      9  C   UNL d   1      -0.788   0.687  -0.951  0.00  0.00     0.018 C 
ENDBRANCH   1   8
TORSDOF 1
ENDMDL
