MODEL 1
REMARK minimizedAffinity -2.84180474
REMARK minimizedRMSD -1
REMARK  1 active torsions:
REMARK  status: ('A' for Active; 'I' for Inactive)
REMARK    1  A    between atoms: C1_2  and  C2_3 
ROOT
ATOM      1  C2  UNL d   1      -1.286   0.520  -1.859  0.00  0.00    -0.073 A 
ATOM      2  C3  UNL d   1      -1.313   1.710  -1.123  0.00  0.00    -0.002 A 
ATOM      3  C4  UNL d   1      -0.386   1.930  -0.103  0.00  0.00     0.004 A 
ATOM      4  C5  UNL d   1       0.580   0.966   0.187  0.00  0.00    -0.004 A 
ATOM      5  C6  UNL d   1       0.630  -0.225  -0.545  0.00  0.00    -0.075 A 
ATOM      6  C7  UNL d   1       1.662  -1.272  -0.244  0.00  0.00     0.076 C 
ATOM      7  C8  UNL d   1      -0.306  -0.439  -1.566  0.00  0.00     0.001 A 
ENDROOT
BRANCH   1   8
ATOM      8  C1  UNL d   1      -2.281   0.281  -2.965  0.00  0.00     0.053 C 
ATOM      9  C   UNL d   1      -2.692   1.575  -3.651  0.00  0.00     0.018 C 
ENDBRANCH   1   8
TORSDOF 1
ENDMDL
