MODEL 1
REMARK minimizedAffinity 3.37334037
REMARK minimizedRMSD -1
REMARK  0 active torsions:
REMARK  status: ('A' for Active; 'I' for Inactive)
ROOT
ATOM      1  N1  IND d   1       1.127   3.783  -1.585  0.00  0.00    -0.196 N 
ATOM      2  C2  IND d   1      -0.117   3.686  -2.145  0.00  0.00     0.054 A 
ATOM      3  C3  IND d   1      -0.990   3.153  -1.261  0.00  0.00    -0.031 A 
ATOM      4  C4  IND d   1      -0.620   2.464   1.191  0.00  0.00     0.051 A 
ATOM      5  C5  IND d   1       0.358   2.333   2.138  0.00  0.00    -0.031 A 
ATOM      6  C6  IND d   1       1.668   2.688   1.887  0.00  0.00     0.015 A 
ATOM      7  C7  IND d   1       2.048   3.201   0.679  0.00  0.00    -0.016 A 
ATOM      8  C8  IND d   1       1.059   3.329  -0.286  0.00  0.00    -0.047 A 
ATOM      9  C9  IND d   1      -0.263   2.930  -0.052  0.00  0.00    -0.096 A 
ATOM     10  HN1 IND d   1       1.832   4.079  -1.978  0.00  0.00     0.298 HD
ENDROOT
TORSDOF 0
ENDMDL
