MODEL 1
REMARK minimizedAffinity 13.1472139
REMARK minimizedRMSD -1
REMARK  0 active torsions:
REMARK  status: ('A' for Active; 'I' for Inactive)
ROOT
ATOM      1  N1  IND d   1       3.107  -5.478  -0.839  0.00  0.00    -0.196 N 
ATOM      2  C2  IND d   1       3.885  -6.000  -1.835  0.00  0.00     0.054 A 
ATOM      3  C3  IND d   1       3.304  -5.801  -3.039  0.00  0.00    -0.031 A 
ATOM      4  C4  IND d   1       1.128  -4.554  -3.619  0.00  0.00     0.051 A 
ATOM      5  C5  IND d   1       0.053  -3.936  -3.042  0.00  0.00    -0.031 A 
ATOM      6  C6  IND d   1      -0.059  -3.796  -1.673  0.00  0.00     0.015 A 
ATOM      7  C7  IND d   1       0.909  -4.260  -0.828  0.00  0.00    -0.016 A 
ATOM      8  C8  IND d   1       1.998  -4.893  -1.410  0.00  0.00    -0.047 A 
ATOM      9  C9  IND d   1       2.097  -5.076  -2.795  0.00  0.00    -0.096 A 
ATOM     10  HN1 IND d   1       3.282  -5.509   0.002  0.00  0.00     0.298 HD
ENDROOT
TORSDOF 0
ENDMDL
