MODEL 1
REMARK minimizedAffinity 15.4373245
REMARK minimizedRMSD -1
REMARK  0 active torsions:
REMARK  status: ('A' for Active; 'I' for Inactive)
ROOT
ATOM      1  N1  IND d   1       0.605  -1.915   5.117  0.00  0.00    -0.196 N 
ATOM      2  C2  IND d   1       1.668  -2.734   4.857  0.00  0.00     0.054 A 
ATOM      3  C3  IND d   1       2.441  -2.207   3.881  0.00  0.00    -0.031 A 
ATOM      4  C4  IND d   1       2.207   0.039   2.644  0.00  0.00     0.051 A 
ATOM      5  C5  IND d   1       1.375   1.115   2.512  0.00  0.00    -0.031 A 
ATOM      6  C6  IND d   1       0.222   1.240   3.259  0.00  0.00     0.015 A 
ATOM      7  C7  IND d   1      -0.138   0.294   4.178  0.00  0.00    -0.016 A 
ATOM      8  C8  IND d   1       0.701  -0.803   4.309  0.00  0.00    -0.047 A 
ATOM      9  C9  IND d   1       1.851  -0.956   3.523  0.00  0.00    -0.096 A 
ATOM     10  HN1 IND d   1      -0.018  -2.068   5.689  0.00  0.00     0.298 HD
ENDROOT
TORSDOF 0
ENDMDL
