MODEL 1
REMARK minimizedAffinity 14.6200809
REMARK minimizedRMSD -1
REMARK  0 active torsions:
REMARK  status: ('A' for Active; 'I' for Inactive)
ROOT
ATOM      1  N1  IND d   1       1.556   3.277  -1.353  0.00  0.00    -0.196 N 
ATOM      2  C2  IND d   1       0.731   3.934  -2.222  0.00  0.00     0.054 A 
ATOM      3  C3  IND d   1      -0.548   3.885  -1.786  0.00  0.00    -0.031 A 
ATOM      4  C4  IND d   1      -1.498   2.868   0.380  0.00  0.00     0.051 A 
ATOM      5  C5  IND d   1      -1.137   2.129   1.472  0.00  0.00    -0.031 A 
ATOM      6  C6  IND d   1       0.166   1.729   1.684  0.00  0.00     0.015 A 
ATOM      7  C7  IND d   1       1.165   2.065   0.813  0.00  0.00    -0.016 A 
ATOM      8  C8  IND d   1       0.801   2.809  -0.300  0.00  0.00    -0.047 A 
ATOM      9  C9  IND d   1      -0.528   3.181  -0.542  0.00  0.00    -0.096 A 
ATOM     10  HN1 IND d   1       2.405   3.174  -1.448  0.00  0.00     0.298 HD
ENDROOT
TORSDOF 0
ENDMDL
