MODEL 1
REMARK minimizedAffinity 14.7515564
REMARK minimizedRMSD -1
REMARK  0 active torsions:
REMARK  status: ('A' for Active; 'I' for Inactive)
ROOT
ATOM      1  N1  IND d   1      -5.151   1.030  -4.456  0.00  0.00    -0.196 N 
ATOM      2  C2  IND d   1      -4.811   1.141  -5.775  0.00  0.00     0.054 A 
ATOM      3  C3  IND d   1      -4.163   2.307  -5.998  0.00  0.00    -0.031 A 
ATOM      4  C4  IND d   1      -3.464   4.134  -4.325  0.00  0.00     0.051 A 
ATOM      5  C5  IND d   1      -3.584   4.496  -3.012  0.00  0.00    -0.031 A 
ATOM      6  C6  IND d   1      -4.244   3.704  -2.095  0.00  0.00     0.015 A 
ATOM      7  C7  IND d   1      -4.801   2.510  -2.455  0.00  0.00    -0.016 A 
ATOM      8  C8  IND d   1      -4.687   2.142  -3.789  0.00  0.00    -0.047 A 
ATOM      9  C9  IND d   1      -4.055   2.962  -4.733  0.00  0.00    -0.096 A 
ATOM     10  HN1 IND d   1      -5.583   0.376  -4.102  0.00  0.00     0.298 HD
ENDROOT
TORSDOF 0
ENDMDL
