MODEL 1
REMARK minimizedAffinity 11.1802673
REMARK minimizedRMSD -1
REMARK  0 active torsions:
REMARK  status: ('A' for Active; 'I' for Inactive)
ROOT
ATOM      1  N1  IND d   1       1.236   3.414  -0.202  0.00  0.00    -0.196 N 
ATOM      2  C2  IND d   1       0.198   3.544  -1.083  0.00  0.00     0.054 A 
ATOM      3  C3  IND d   1      -0.917   2.965  -0.585  0.00  0.00    -0.031 A 
ATOM      4  C4  IND d   1      -1.293   1.835   1.698  0.00  0.00     0.051 A 
ATOM      5  C5  IND d   1      -0.631   1.443   2.828  0.00  0.00    -0.031 A 
ATOM      6  C6  IND d   1       0.713   1.696   3.010  0.00  0.00     0.015 A 
ATOM      7  C7  IND d   1       1.446   2.363   2.070  0.00  0.00    -0.016 A 
ATOM      8  C8  IND d   1       0.780   2.756   0.919  0.00  0.00    -0.047 A 
ATOM      9  C9  IND d   1      -0.575   2.465   0.709  0.00  0.00    -0.096 A 
ATOM     10  HN1 IND d   1       2.038   3.696  -0.328  0.00  0.00     0.298 HD
ENDROOT
TORSDOF 0
ENDMDL
