MODEL 1
REMARK minimizedAffinity 15.2277966
REMARK minimizedRMSD -1
REMARK  0 active torsions:
REMARK  status: ('A' for Active; 'I' for Inactive)
ROOT
ATOM      1  N1  IND d   1       2.158  -5.272  -1.726  0.00  0.00    -0.196 N 
ATOM      2  C2  IND d   1       1.510  -4.235  -1.116  0.00  0.00     0.054 A 
ATOM      3  C3  IND d   1       2.388  -3.475  -0.423  0.00  0.00    -0.031 A 
ATOM      4  C4  IND d   1       4.946  -3.690  -0.235  0.00  0.00     0.051 A 
ATOM      5  C5  IND d   1       5.987  -4.501  -0.588  0.00  0.00    -0.031 A 
ATOM      6  C6  IND d   1       5.802  -5.633  -1.356  0.00  0.00     0.015 A 
ATOM      7  C7  IND d   1       4.565  -5.990  -1.812  0.00  0.00    -0.016 A 
ATOM      8  C8  IND d   1       3.504  -5.172  -1.449  0.00  0.00    -0.047 A 
ATOM      9  C9  IND d   1       3.680  -4.046  -0.634  0.00  0.00    -0.096 A 
ATOM     10  HN1 IND d   1       1.787  -5.884  -2.203  0.00  0.00     0.298 HD
ENDROOT
TORSDOF 0
ENDMDL
