MODEL 1
REMARK minimizedAffinity 14.555439
REMARK minimizedRMSD -1
REMARK  0 active torsions:
REMARK  status: ('A' for Active; 'I' for Inactive)
ROOT
ATOM      1  N1  IND d   1       2.328   3.339  -2.002  0.00  0.00    -0.196 N 
ATOM      2  C2  IND d   1       1.859   4.443  -2.658  0.00  0.00     0.054 A 
ATOM      3  C3  IND d   1       0.557   4.650  -2.360  0.00  0.00    -0.031 A 
ATOM      4  C4  IND d   1      -0.975   3.361  -0.741  0.00  0.00     0.051 A 
ATOM      5  C5  IND d   1      -1.007   2.255   0.061  0.00  0.00    -0.031 A 
ATOM      6  C6  IND d   1       0.094   1.439   0.222  0.00  0.00     0.015 A 
ATOM      7  C7  IND d   1       1.277   1.706  -0.407  0.00  0.00    -0.016 A 
ATOM      8  C8  IND d   1       1.311   2.824  -1.228  0.00  0.00    -0.047 A 
ATOM      9  C9  IND d   1       0.184   3.632  -1.429  0.00  0.00    -0.096 A 
ATOM     10  HN1 IND d   1       3.124   3.020  -2.063  0.00  0.00     0.298 HD
ENDROOT
TORSDOF 0
ENDMDL
