MODEL 1
REMARK minimizedAffinity -0.250458419
REMARK minimizedRMSD -1
REMARK  0 active torsions:
REMARK  status: ('A' for Active; 'I' for Inactive)
ROOT
ATOM      1  C   UNL d   1      -0.864   2.257   0.328  0.00  0.00     0.124 A 
ATOM      2  C1  UNL d   1      -1.328   1.209   1.110  0.00  0.00     0.062 A 
ATOM      3  C2  UNL d   1      -0.991  -0.104   0.792  0.00  0.00     0.162 A 
ATOM      4  C3  UNL d   1      -0.184  -0.376  -0.313  0.00  0.00    -0.034 A 
ATOM      5  C4  UNL d   1       0.278   0.684  -1.095  0.00  0.00     0.162 A 
ATOM      6  C5  UNL d   1      -0.062   1.994  -0.774  0.00  0.00     0.062 A 
ATOM      7  F   UNL d   1       0.387   3.006  -1.530  0.00  0.00    -0.097 F 
ATOM      8  F1  UNL d   1       1.055   0.459  -2.165  0.00  0.00    -0.096 F 
ATOM      9  I   UNL d   1       0.322  -2.337  -0.792  0.00  0.00    -0.060 I 
ATOM     10  F2  UNL d   1      -1.453  -1.098   1.566  0.00  0.00    -0.096 F 
ATOM     11  F3  UNL d   1      -2.104   1.460   2.174  0.00  0.00    -0.097 F 
ATOM     12  F4  UNL d   1      -1.191   3.519   0.635  0.00  0.00    -0.092 F 
ENDROOT
TORSDOF 0
ENDMDL
