MODEL 1
REMARK minimizedAffinity 0.484608263
REMARK minimizedRMSD -1
REMARK  0 active torsions:
REMARK  status: ('A' for Active; 'I' for Inactive)
ROOT
ATOM      1  C   UNL d   1      -0.559   2.680   0.256  0.00  0.00     0.124 A 
ATOM      2  C1  UNL d   1      -0.754   1.704   1.223  0.00  0.00     0.062 A 
ATOM      3  C2  UNL d   1      -0.437   0.377   0.952  0.00  0.00     0.162 A 
ATOM      4  C3  UNL d   1       0.081   0.017  -0.292  0.00  0.00    -0.034 A 
ATOM      5  C4  UNL d   1       0.273   1.004  -1.260  0.00  0.00     0.162 A 
ATOM      6  C5  UNL d   1      -0.046   2.329  -0.985  0.00  0.00     0.062 A 
ATOM      7  F   UNL d   1       0.143   3.271  -1.921  0.00  0.00    -0.097 F 
ATOM      8  F1  UNL d   1       0.769   0.693  -2.467  0.00  0.00    -0.096 F 
ATOM      9  I   UNL d   1       0.557  -1.967  -0.701  0.00  0.00    -0.060 I 
ATOM     10  F2  UNL d   1      -0.635  -0.545   1.906  0.00  0.00    -0.096 F 
ATOM     11  F3  UNL d   1      -1.251   2.041   2.422  0.00  0.00    -0.097 F 
ATOM     12  F4  UNL d   1      -0.867   3.957   0.519  0.00  0.00    -0.092 F 
ENDROOT
TORSDOF 0
ENDMDL
