MODEL 1
REMARK minimizedAffinity -2.83255482
REMARK minimizedRMSD -1
REMARK  0 active torsions:
REMARK  status: ('A' for Active; 'I' for Inactive)
ROOT
ATOM      1  C   UNL d   1       0.073   0.436   1.702  0.00  0.00     0.124 A 
ATOM      2  C1  UNL d   1       0.455   0.086   0.414  0.00  0.00     0.062 A 
ATOM      3  C2  UNL d   1       0.095   0.888  -0.665  0.00  0.00     0.162 A 
ATOM      4  C3  UNL d   1      -0.651   2.049  -0.462  0.00  0.00    -0.034 A 
ATOM      5  C4  UNL d   1      -1.032   2.394   0.836  0.00  0.00     0.162 A 
ATOM      6  C5  UNL d   1      -0.670   1.589   1.912  0.00  0.00     0.062 A 
ATOM      7  F   UNL d   1      -1.041   1.929   3.155  0.00  0.00    -0.097 F 
ATOM      8  F1  UNL d   1      -1.750   3.503   1.068  0.00  0.00    -0.096 F 
ATOM      9  I   UNL d   1      -1.191   3.250  -2.073  0.00  0.00    -0.060 I 
ATOM     10  F2  UNL d   1       0.478   0.525  -1.898  0.00  0.00    -0.096 F 
ATOM     11  F3  UNL d   1       1.172  -1.028   0.209  0.00  0.00    -0.097 F 
ATOM     12  F4  UNL d   1       0.419  -0.338   2.738  0.00  0.00    -0.092 F 
ENDROOT
TORSDOF 0
ENDMDL
