MODEL 1
REMARK minimizedAffinity 0.0113182701
REMARK minimizedRMSD -1
REMARK  0 active torsions:
REMARK  status: ('A' for Active; 'I' for Inactive)
ROOT
ATOM      1  C   UNL d   1       0.541  -0.351   1.562  0.00  0.00     0.124 A 
ATOM      2  C1  UNL d   1       0.604  -0.626   0.203  0.00  0.00     0.062 A 
ATOM      3  C2  UNL d   1       0.332   0.373  -0.726  0.00  0.00     0.162 A 
ATOM      4  C3  UNL d   1      -0.004   1.658  -0.300  0.00  0.00    -0.034 A 
ATOM      5  C4  UNL d   1      -0.066   1.927   1.068  0.00  0.00     0.162 A 
ATOM      6  C5  UNL d   1       0.206   0.924   1.993  0.00  0.00     0.062 A 
ATOM      7  F   UNL d   1       0.145   1.192   3.306  0.00  0.00    -0.097 F 
ATOM      8  F1  UNL d   1      -0.387   3.151   1.512  0.00  0.00    -0.096 F 
ATOM      9  I   UNL d   1      -0.411   3.155  -1.687  0.00  0.00    -0.060 I 
ATOM     10  F2  UNL d   1       0.401   0.079  -2.033  0.00  0.00    -0.096 F 
ATOM     11  F3  UNL d   1       0.927  -1.859  -0.215  0.00  0.00    -0.097 F 
ATOM     12  F4  UNL d   1       0.802  -1.315   2.455  0.00  0.00    -0.092 F 
ENDROOT
TORSDOF 0
ENDMDL
