MODEL 1
REMARK minimizedAffinity -3.33508134
REMARK minimizedRMSD -1
REMARK  0 active torsions:
REMARK  status: ('A' for Active; 'I' for Inactive)
ROOT
ATOM      1  C   UNL d   1       0.261  -0.030   1.858  0.00  0.00     0.124 A 
ATOM      2  C1  UNL d   1       0.495  -0.245   0.507  0.00  0.00     0.062 A 
ATOM      3  C2  UNL d   1       0.098   0.703  -0.431  0.00  0.00     0.162 A 
ATOM      4  C3  UNL d   1      -0.537   1.876  -0.022  0.00  0.00    -0.034 A 
ATOM      5  C4  UNL d   1      -0.770   2.084   1.339  0.00  0.00     0.162 A 
ATOM      6  C5  UNL d   1      -0.371   1.133   2.273  0.00  0.00     0.062 A 
ATOM      7  F   UNL d   1      -0.598   1.342   3.578  0.00  0.00    -0.097 F 
ATOM      8  F1  UNL d   1      -1.378   3.200   1.767  0.00  0.00    -0.096 F 
ATOM      9  I   UNL d   1      -1.133   3.296  -1.422  0.00  0.00    -0.060 I 
ATOM     10  F2  UNL d   1       0.337   0.469  -1.730  0.00  0.00    -0.096 F 
ATOM     11  F3  UNL d   1       1.104  -1.369   0.104  0.00  0.00    -0.097 F 
ATOM     12  F4  UNL d   1       0.643  -0.945   2.759  0.00  0.00    -0.092 F 
ENDROOT
TORSDOF 0
ENDMDL
