MODEL 1
REMARK minimizedAffinity -3.66406202
REMARK minimizedRMSD -1
REMARK  0 active torsions:
REMARK  status: ('A' for Active; 'I' for Inactive)
ROOT
ATOM      1  C   UNL d   1      -0.216   2.940   0.742  0.00  0.00     0.124 A 
ATOM      2  C1  UNL d   1      -0.139   1.897   1.655  0.00  0.00     0.062 A 
ATOM      3  C2  UNL d   1       0.072   0.594   1.213  0.00  0.00     0.162 A 
ATOM      4  C3  UNL d   1       0.209   0.326  -0.149  0.00  0.00    -0.034 A 
ATOM      5  C4  UNL d   1       0.129   1.380  -1.061  0.00  0.00     0.162 A 
ATOM      6  C5  UNL d   1      -0.082   2.680  -0.614  0.00  0.00     0.062 A 
ATOM      7  F   UNL d   1      -0.157   3.686  -1.498  0.00  0.00    -0.097 F 
ATOM      8  F1  UNL d   1       0.256   1.158  -2.378  0.00  0.00    -0.096 F 
ATOM      9  I   UNL d   1       0.525  -1.621  -0.813  0.00  0.00    -0.060 I 
ATOM     10  F2  UNL d   1       0.143  -0.394   2.118  0.00  0.00    -0.096 F 
ATOM     11  F3  UNL d   1      -0.269   2.145   2.966  0.00  0.00    -0.097 F 
ATOM     12  F4  UNL d   1      -0.421   4.192   1.170  0.00  0.00    -0.092 F 
ENDROOT
TORSDOF 0
ENDMDL
