MODEL 1
REMARK minimizedAffinity -1.08611012
REMARK minimizedRMSD -1
REMARK  0 active torsions:
REMARK  status: ('A' for Active; 'I' for Inactive)
ROOT
ATOM      1  C   UNL d   1       0.014   2.400   0.079  0.00  0.00     0.124 A 
ATOM      2  C1  UNL d   1       0.189   2.026  -1.246  0.00  0.00     0.062 A 
ATOM      3  C2  UNL d   1       0.417   0.693  -1.574  0.00  0.00     0.162 A 
ATOM      4  C3  UNL d   1       0.471  -0.278  -0.574  0.00  0.00    -0.034 A 
ATOM      5  C4  UNL d   1       0.296   0.105   0.757  0.00  0.00     0.162 A 
ATOM      6  C5  UNL d   1       0.067   1.439   1.079  0.00  0.00     0.062 A 
ATOM      7  F   UNL d   1      -0.101   1.798   2.360  0.00  0.00    -0.097 F 
ATOM      8  F1  UNL d   1       0.341  -0.803   1.743  0.00  0.00    -0.096 F 
ATOM      9  I   UNL d   1       0.813  -2.273  -1.059  0.00  0.00    -0.060 I 
ATOM     10  F2  UNL d   1       0.583   0.361  -2.863  0.00  0.00    -0.096 F 
ATOM     11  F3  UNL d   1       0.139   2.953  -2.214  0.00  0.00    -0.097 F 
ATOM     12  F4  UNL d   1      -0.205   3.683   0.392  0.00  0.00    -0.092 F 
ENDROOT
TORSDOF 0
ENDMDL
