MODEL 1
REMARK minimizedAffinity 10.983284
REMARK minimizedRMSD -1
REMARK  0 active torsions:
REMARK  status: ('A' for Active; 'I' for Inactive)
ROOT
ATOM      1  C   UNL d   1      -1.870  -3.242  -3.828  0.00  0.00     0.124 A 
ATOM      2  C1  UNL d   1      -1.424  -3.608  -2.565  0.00  0.00     0.062 A 
ATOM      3  C2  UNL d   1      -1.286  -2.648  -1.566  0.00  0.00     0.162 A 
ATOM      4  C3  UNL d   1      -1.596  -1.313  -1.826  0.00  0.00    -0.034 A 
ATOM      5  C4  UNL d   1      -2.042  -0.953  -3.098  0.00  0.00     0.162 A 
ATOM      6  C5  UNL d   1      -2.178  -1.915  -4.093  0.00  0.00     0.062 A 
ATOM      7  F   UNL d   1      -2.609  -1.560  -5.312  0.00  0.00    -0.097 F 
ATOM      8  F1  UNL d   1      -2.349   0.322  -3.382  0.00  0.00    -0.096 F 
ATOM      9  I   UNL d   1      -1.391   0.125  -0.335  0.00  0.00    -0.060 I 
ATOM     10  F2  UNL d   1      -0.853  -3.030  -0.356  0.00  0.00    -0.096 F 
ATOM     11  F3  UNL d   1      -1.124  -4.889  -2.306  0.00  0.00    -0.097 F 
ATOM     12  F4  UNL d   1      -2.001  -4.167  -4.787  0.00  0.00    -0.092 F 
ENDROOT
TORSDOF 0
ENDMDL
