MODEL 1
REMARK minimizedAffinity 14.3540125
REMARK minimizedRMSD -1
REMARK  1 active torsions:
REMARK  status: ('A' for Active; 'I' for Inactive)
REMARK    1  A    between atoms: C1_2  and  C2_3 
ROOT
ATOM      1  C2  UNL d   1       3.048   1.128  -1.313  0.00  0.00    -0.081 A 
ATOM      2  C3  UNL d   1       3.712   0.303  -0.397  0.00  0.00     0.006 A 
ATOM      3  C4  UNL d   1       3.159   0.055   0.862  0.00  0.00     0.002 A 
ATOM      4  C5  UNL d   1       1.932   0.620   1.222  0.00  0.00    -0.080 A 
ATOM      5  C6  UNL d   1       1.313   0.337   2.559  0.00  0.00     0.076 C 
ATOM      6  C7  UNL d   1       1.277   1.458   0.314  0.00  0.00     0.002 A 
ATOM      7  C8  UNL d   1       1.829   1.708  -0.944  0.00  0.00     0.006 A 
ENDROOT
BRANCH   1   8
ATOM      8  C1  UNL d   1       3.609   1.347  -2.695  0.00  0.00     0.054 C 
ATOM      9  C   UNL d   1       4.839   2.242  -2.657  0.00  0.00     0.018 C 
ENDBRANCH   1   8
TORSDOF 1
ENDMDL
