MODEL 1
REMARK minimizedAffinity 18.5480556
REMARK minimizedRMSD -1
REMARK  1 active torsions:
REMARK  status: ('A' for Active; 'I' for Inactive)
REMARK    1  A    between atoms: C1_2  and  C2_3 
ROOT
ATOM      1  C2  UNL d   1      -2.872  -3.046  -3.920  0.00  0.00    -0.081 A 
ATOM      2  C3  UNL d   1      -2.200  -4.274  -3.930  0.00  0.00     0.006 A 
ATOM      3  C4  UNL d   1      -2.451  -5.227  -2.941  0.00  0.00     0.002 A 
ATOM      4  C5  UNL d   1      -3.384  -4.972  -1.930  0.00  0.00    -0.080 A 
ATOM      5  C6  UNL d   1      -3.685  -5.999  -0.879  0.00  0.00     0.076 C 
ATOM      6  C7  UNL d   1      -4.043  -3.738  -1.909  0.00  0.00     0.002 A 
ATOM      7  C8  UNL d   1      -3.791  -2.784  -2.898  0.00  0.00     0.006 A 
ENDROOT
BRANCH   1   8
ATOM      8  C1  UNL d   1      -2.651  -2.042  -5.022  0.00  0.00     0.054 C 
ATOM      9  C   UNL d   1      -1.585  -2.518  -5.999  0.00  0.00     0.018 C 
ENDBRANCH   1   8
TORSDOF 1
ENDMDL
