MODEL 1
REMARK minimizedAffinity 9.01827717
REMARK minimizedRMSD -1
REMARK  1 active torsions:
REMARK  status: ('A' for Active; 'I' for Inactive)
REMARK    1  A    between atoms: C1_2  and  C2_3 
ROOT
ATOM      1  C2  UNL d   1       1.545   0.919   1.606  0.00  0.00    -0.081 A 
ATOM      2  C3  UNL d   1       1.530   2.127   0.898  0.00  0.00     0.006 A 
ATOM      3  C4  UNL d   1       2.270   2.267  -0.279  0.00  0.00     0.002 A 
ATOM      4  C5  UNL d   1       3.030   1.201  -0.770  0.00  0.00    -0.080 A 
ATOM      5  C6  UNL d   1       3.805   1.328  -2.048  0.00  0.00     0.076 C 
ATOM      6  C7  UNL d   1       3.060  -0.000  -0.053  0.00  0.00     0.002 A 
ATOM      7  C8  UNL d   1       2.321  -0.141   1.123  0.00  0.00     0.006 A 
ENDROOT
BRANCH   1   8
ATOM      8  C1  UNL d   1       0.697   0.743   2.840  0.00  0.00     0.054 C 
ATOM      9  C   UNL d   1       0.898  -0.633   3.458  0.00  0.00     0.018 C 
ENDBRANCH   1   8
TORSDOF 1
ENDMDL
