MODEL 1
REMARK minimizedAffinity 11.1575537
REMARK minimizedRMSD -1
REMARK  1 active torsions:
REMARK  status: ('A' for Active; 'I' for Inactive)
REMARK    1  A    between atoms: C1_2  and  C2_3 
ROOT
ATOM      1  C2  UNL d   1      -2.719  -4.792   1.928  0.00  0.00    -0.081 A 
ATOM      2  C3  UNL d   1      -1.514  -4.914   2.630  0.00  0.00     0.006 A 
ATOM      3  C4  UNL d   1      -0.741  -3.785   2.911  0.00  0.00     0.002 A 
ATOM      4  C5  UNL d   1      -1.163  -2.515   2.502  0.00  0.00    -0.080 A 
ATOM      5  C6  UNL d   1      -0.358  -1.291   2.823  0.00  0.00     0.076 C 
ATOM      6  C7  UNL d   1      -2.359  -2.396   1.785  0.00  0.00     0.002 A 
ATOM      7  C8  UNL d   1      -3.132  -3.524   1.503  0.00  0.00     0.006 A 
ENDROOT
BRANCH   1   8
ATOM      8  C1  UNL d   1      -3.587  -5.999   1.680  0.00  0.00     0.054 C 
ATOM      9  C   UNL d   1      -4.900  -5.903   2.442  0.00  0.00     0.018 C 
ENDBRANCH   1   8
TORSDOF 1
ENDMDL
