MODEL 1
REMARK minimizedAffinity 9.6183424
REMARK minimizedRMSD -1
REMARK  1 active torsions:
REMARK  status: ('A' for Active; 'I' for Inactive)
REMARK    1  A    between atoms: C1_2  and  C2_3 
ROOT
ATOM      1  C2  UNL d   1       1.550   0.939   1.092  0.00  0.00    -0.081 A 
ATOM      2  C3  UNL d   1       1.556   2.191   0.464  0.00  0.00     0.006 A 
ATOM      3  C4  UNL d   1       2.317   2.401  -0.688  0.00  0.00     0.002 A 
ATOM      4  C5  UNL d   1       3.077   1.363  -1.237  0.00  0.00    -0.080 A 
ATOM      5  C6  UNL d   1       3.874   1.568  -2.491  0.00  0.00     0.076 C 
ATOM      6  C7  UNL d   1       3.085   0.117  -0.600  0.00  0.00     0.002 A 
ATOM      7  C8  UNL d   1       2.326  -0.094   0.553  0.00  0.00     0.006 A 
ENDROOT
BRANCH   1   8
ATOM      8  C1  UNL d   1       0.681   0.690   2.298  0.00  0.00     0.054 C 
ATOM      9  C   UNL d   1      -0.336  -0.410   2.029  0.00  0.00     0.018 C 
ENDBRANCH   1   8
TORSDOF 1
ENDMDL
