MODEL 1
REMARK minimizedAffinity 14.0794554
REMARK minimizedRMSD -1
REMARK  1 active torsions:
REMARK  status: ('A' for Active; 'I' for Inactive)
REMARK    1  A    between atoms: C1_2  and  C2_3 
ROOT
ATOM      1  C2  UNL d   1       2.135   0.223   1.844  0.00  0.00    -0.081 A 
ATOM      2  C3  UNL d   1       3.233  -0.003   2.683  0.00  0.00     0.006 A 
ATOM      3  C4  UNL d   1       4.483  -0.319   2.144  0.00  0.00     0.002 A 
ATOM      4  C5  UNL d   1       4.657  -0.405   0.759  0.00  0.00    -0.080 A 
ATOM      5  C6  UNL d   1       6.000  -0.713   0.167  0.00  0.00     0.076 C 
ATOM      6  C7  UNL d   1       3.556  -0.196  -0.079  0.00  0.00     0.002 A 
ATOM      7  C8  UNL d   1       2.306   0.119   0.459  0.00  0.00     0.006 A 
ENDROOT
BRANCH   1   8
ATOM      8  C1  UNL d   1       0.802   0.627   2.419  0.00  0.00     0.054 C 
ATOM      9  C   UNL d   1       0.545   2.115   2.229  0.00  0.00     0.018 C 
ENDBRANCH   1   8
TORSDOF 1
ENDMDL
