MODEL 1
REMARK minimizedAffinity 19.5922146
REMARK minimizedRMSD -1
REMARK  1 active torsions:
REMARK  status: ('A' for Active; 'I' for Inactive)
REMARK    1  A    between atoms: C1_2  and  C2_3 
ROOT
ATOM      1  C2  UNL d   1       2.911   1.238  -2.340  0.00  0.00    -0.081 A 
ATOM      2  C3  UNL d   1       1.968   2.075  -1.730  0.00  0.00     0.006 A 
ATOM      3  C4  UNL d   1       1.359   1.701  -0.530  0.00  0.00     0.002 A 
ATOM      4  C5  UNL d   1       1.688   0.488   0.085  0.00  0.00    -0.080 A 
ATOM      5  C6  UNL d   1       1.064   0.089   1.389  0.00  0.00     0.076 C 
ATOM      6  C7  UNL d   1       2.617  -0.356  -0.533  0.00  0.00     0.002 A 
ATOM      7  C8  UNL d   1       3.225   0.017  -1.733  0.00  0.00     0.006 A 
ENDROOT
BRANCH   1   8
ATOM      8  C1  UNL d   1       3.617   1.668  -3.600  0.00  0.00     0.054 C 
ATOM      9  C   UNL d   1       5.006   2.212  -3.298  0.00  0.00     0.018 C 
ENDBRANCH   1   8
TORSDOF 1
ENDMDL
