MODEL 1
REMARK minimizedAffinity 15.7103128
REMARK minimizedRMSD -1
REMARK  1 active torsions:
REMARK  status: ('A' for Active; 'I' for Inactive)
REMARK    1  A    between atoms: C1_2  and  C2_3 
ROOT
ATOM      1  C2  UNL d   1      -1.834  -4.043   0.884  0.00  0.00    -0.081 A 
ATOM      2  C3  UNL d   1      -2.759  -4.813   0.169  0.00  0.00     0.006 A 
ATOM      3  C4  UNL d   1      -3.286  -4.346  -1.038  0.00  0.00     0.002 A 
ATOM      4  C5  UNL d   1      -2.890  -3.107  -1.554  0.00  0.00    -0.080 A 
ATOM      5  C6  UNL d   1      -3.425  -2.609  -2.863  0.00  0.00     0.076 C 
ATOM      6  C7  UNL d   1      -1.980  -2.330  -0.830  0.00  0.00     0.002 A 
ATOM      7  C8  UNL d   1      -1.453  -2.795   0.377  0.00  0.00     0.006 A 
ENDROOT
BRANCH   1   8
ATOM      8  C1  UNL d   1      -1.216  -4.571   2.153  0.00  0.00     0.054 C 
ATOM      9  C   UNL d   1      -1.661  -5.999   2.433  0.00  0.00     0.018 C 
ENDBRANCH   1   8
TORSDOF 1
ENDMDL
