MODEL 1
REMARK minimizedAffinity 18.9299984
REMARK minimizedRMSD -1
REMARK  1 active torsions:
REMARK  status: ('A' for Active; 'I' for Inactive)
REMARK    1  A    between atoms: C1_2  and  C2_3 
ROOT
ATOM      1  C2  UNL d   1      -2.418  -3.189   0.247  0.00  0.00    -0.081 A 
ATOM      2  C3  UNL d   1      -1.364  -2.850   1.103  0.00  0.00     0.006 A 
ATOM      3  C4  UNL d   1      -0.921  -3.752   2.073  0.00  0.00     0.002 A 
ATOM      4  C5  UNL d   1      -1.519  -5.010   2.198  0.00  0.00    -0.080 A 
ATOM      5  C6  UNL d   1      -1.033  -6.000   3.215  0.00  0.00     0.076 C 
ATOM      6  C7  UNL d   1      -2.584  -5.343   1.354  0.00  0.00     0.002 A 
ATOM      7  C8  UNL d   1      -3.028  -4.441   0.385  0.00  0.00     0.006 A 
ENDROOT
BRANCH   1   8
ATOM      8  C1  UNL d   1      -2.855  -2.244  -0.843  0.00  0.00     0.054 C 
ATOM      9  C   UNL d   1      -3.098  -2.982  -2.152  0.00  0.00     0.018 C 
ENDBRANCH   1   8
TORSDOF 1
ENDMDL
