MODEL 1
REMARK minimizedAffinity 13.4496164
REMARK minimizedRMSD -1
REMARK  1 active torsions:
REMARK  status: ('A' for Active; 'I' for Inactive)
REMARK    1  A    between atoms: C1_2  and  C2_3 
ROOT
ATOM      1  C2  UNL d   1       3.442   0.951  -1.236  0.00  0.00    -0.081 A 
ATOM      2  C3  UNL d   1       3.803   0.033  -0.241  0.00  0.00     0.006 A 
ATOM      3  C4  UNL d   1       2.935  -0.240   0.819  0.00  0.00     0.002 A 
ATOM      4  C5  UNL d   1       1.690   0.392   0.897  0.00  0.00    -0.080 A 
ATOM      5  C6  UNL d   1       0.736   0.085   2.013  0.00  0.00     0.076 C 
ATOM      6  C7  UNL d   1       1.336   1.322  -0.087  0.00  0.00     0.002 A 
ATOM      7  C8  UNL d   1       2.204   1.596  -1.146  0.00  0.00     0.006 A 
ENDROOT
BRANCH   1   8
ATOM      8  C1  UNL d   1       4.349   1.199  -2.414  0.00  0.00     0.054 C 
ATOM      9  C   UNL d   1       4.560   2.689  -2.644  0.00  0.00     0.018 C 
ENDBRANCH   1   8
TORSDOF 1
ENDMDL
