MODEL 1
REMARK minimizedAffinity 10.9368839
REMARK minimizedRMSD -1
REMARK  1 active torsions:
REMARK  status: ('A' for Active; 'I' for Inactive)
REMARK    1  A    between atoms: C1_2  and  C2_3 
ROOT
ATOM      1  C2  UNL d   1      -3.233   3.199   4.151  0.00  0.00    -0.081 A 
ATOM      2  C3  UNL d   1      -2.988   3.722   5.426  0.00  0.00     0.006 A 
ATOM      3  C4  UNL d   1      -3.874   4.636   5.999  0.00  0.00     0.002 A 
ATOM      4  C5  UNL d   1      -5.024   5.037   5.310  0.00  0.00    -0.080 A 
ATOM      5  C6  UNL d   1      -6.000   5.995   5.926  0.00  0.00     0.076 C 
ATOM      6  C7  UNL d   1      -5.260   4.528   4.029  0.00  0.00     0.002 A 
ATOM      7  C8  UNL d   1      -4.374   3.614   3.455  0.00  0.00     0.006 A 
ENDROOT
BRANCH   1   8
ATOM      8  C1  UNL d   1      -2.313   2.163   3.557  0.00  0.00     0.054 C 
ATOM      9  C   UNL d   1      -0.918   2.729   3.327  0.00  0.00     0.018 C 
ENDBRANCH   1   8
TORSDOF 1
ENDMDL
