MODEL 1
REMARK minimizedAffinity 15.3282328
REMARK minimizedRMSD -1
REMARK  0 active torsions:
REMARK  status: ('A' for Active; 'I' for Inactive)
ROOT
ATOM      1  C   UNL d   1      -1.589  -0.633   2.116  0.00  0.00     0.078 C 
ATOM      2  C1  UNL d   1      -0.395  -1.385   2.623  0.00  0.00    -0.077 A 
ATOM      3  C2  UNL d   1       0.038  -2.559   1.994  0.00  0.00    -0.001 A 
ATOM      4  C3  UNL d   1       1.145  -3.255   2.483  0.00  0.00     0.003 A 
ATOM      5  C4  UNL d   1       1.827  -2.786   3.604  0.00  0.00    -0.005 A 
ATOM      6  C5  UNL d   1       1.402  -1.620   4.238  0.00  0.00     0.003 A 
ATOM      7  C6  UNL d   1       0.295  -0.923   3.751  0.00  0.00    -0.001 A 
ENDROOT
TORSDOF 0
ENDMDL
