MODEL 1
REMARK minimizedAffinity 6.24854326
REMARK minimizedRMSD -1
REMARK  0 active torsions:
REMARK  status: ('A' for Active; 'I' for Inactive)
ROOT
ATOM      1  C   UNL d   1      -1.520   4.524  -4.976  0.00  0.00     0.078 C 
ATOM      2  C1  UNL d   1      -0.330   4.248  -4.106  0.00  0.00    -0.077 A 
ATOM      3  C2  UNL d   1       0.033   5.129  -3.080  0.00  0.00    -0.001 A 
ATOM      4  C3  UNL d   1       1.149   4.864  -2.284  0.00  0.00     0.003 A 
ATOM      5  C4  UNL d   1       1.912   3.720  -2.507  0.00  0.00    -0.005 A 
ATOM      6  C5  UNL d   1       1.559   2.838  -3.527  0.00  0.00     0.003 A 
ATOM      7  C6  UNL d   1       0.444   3.101  -4.324  0.00  0.00    -0.001 A 
ENDROOT
TORSDOF 0
ENDMDL
