MODEL 1
REMARK minimizedAffinity 1.87819505
REMARK minimizedRMSD -1
REMARK  0 active torsions:
REMARK  status: ('A' for Active; 'I' for Inactive)
ROOT
ATOM      1  C   UNL d   1       2.631   1.708   0.402  0.00  0.00     0.078 C 
ATOM      2  C1  UNL d   1       3.802   2.596   0.697  0.00  0.00    -0.077 A 
ATOM      3  C2  UNL d   1       3.824   3.405   1.840  0.00  0.00    -0.001 A 
ATOM      4  C3  UNL d   1       4.916   4.235   2.098  0.00  0.00     0.003 A 
ATOM      5  C4  UNL d   1       5.995   4.264   1.216  0.00  0.00    -0.005 A 
ATOM      6  C5  UNL d   1       5.982   3.465   0.075  0.00  0.00     0.003 A 
ATOM      7  C6  UNL d   1       4.890   2.635  -0.184  0.00  0.00    -0.001 A 
ENDROOT
TORSDOF 0
ENDMDL
