MODEL 1
REMARK minimizedAffinity 11.6617575
REMARK minimizedRMSD -1
REMARK  0 active torsions:
REMARK  status: ('A' for Active; 'I' for Inactive)
ROOT
ATOM      1  C   UNL d   1       1.001  -1.762   2.392  0.00  0.00     0.078 C 
ATOM      2  C1  UNL d   1      -0.392  -1.231   2.234  0.00  0.00    -0.077 A 
ATOM      3  C2  UNL d   1      -1.271  -1.781   1.293  0.00  0.00    -0.001 A 
ATOM      4  C3  UNL d   1      -2.562  -1.271   1.150  0.00  0.00     0.003 A 
ATOM      5  C4  UNL d   1      -2.986  -0.207   1.944  0.00  0.00    -0.005 A 
ATOM      6  C5  UNL d   1      -2.118   0.348   2.881  0.00  0.00     0.003 A 
ATOM      7  C6  UNL d   1      -0.826  -0.161   3.026  0.00  0.00    -0.001 A 
ENDROOT
TORSDOF 0
ENDMDL
