MODEL 1
REMARK minimizedAffinity 8.6267004
REMARK minimizedRMSD -1
REMARK  0 active torsions:
REMARK  status: ('A' for Active; 'I' for Inactive)
ROOT
ATOM      1  C   UNL d   1       1.956   2.897  -2.992  0.00  0.00     0.078 C 
ATOM      2  C1  UNL d   1       3.260   3.286  -3.623  0.00  0.00    -0.077 A 
ATOM      3  C2  UNL d   1       3.548   2.948  -4.951  0.00  0.00    -0.001 A 
ATOM      4  C3  UNL d   1       4.769   3.308  -5.522  0.00  0.00     0.003 A 
ATOM      5  C4  UNL d   1       5.713   4.008  -4.772  0.00  0.00    -0.005 A 
ATOM      6  C5  UNL d   1       5.436   4.347  -3.450  0.00  0.00     0.003 A 
ATOM      7  C6  UNL d   1       4.215   3.988  -2.877  0.00  0.00    -0.001 A 
ENDROOT
TORSDOF 0
ENDMDL
