MODEL 1
REMARK minimizedAffinity 9.91935825
REMARK minimizedRMSD -1
REMARK  0 active torsions:
REMARK  status: ('A' for Active; 'I' for Inactive)
ROOT
ATOM      1  C   UNL d   1       6.000   5.382  -4.195  0.00  0.00     0.078 C 
ATOM      2  C1  UNL d   1       4.725   4.643  -3.918  0.00  0.00    -0.077 A 
ATOM      3  C2  UNL d   1       4.238   3.683  -4.814  0.00  0.00    -0.001 A 
ATOM      4  C3  UNL d   1       3.045   3.009  -4.547  0.00  0.00     0.003 A 
ATOM      5  C4  UNL d   1       2.329   3.288  -3.385  0.00  0.00    -0.005 A 
ATOM      6  C5  UNL d   1       2.804   4.243  -2.489  0.00  0.00     0.003 A 
ATOM      7  C6  UNL d   1       3.997   4.918  -2.754  0.00  0.00    -0.001 A 
ENDROOT
TORSDOF 0
ENDMDL
