MODEL 1
REMARK minimizedAffinity 5.18329239
REMARK minimizedRMSD -1
REMARK  0 active torsions:
REMARK  status: ('A' for Active; 'I' for Inactive)
ROOT
ATOM      1  C   UNL d   1       5.999   4.913  -5.179  0.00  0.00     0.078 C 
ATOM      2  C1  UNL d   1       4.744   4.513  -4.462  0.00  0.00    -0.077 A 
ATOM      3  C2  UNL d   1       3.809   3.662  -5.065  0.00  0.00    -0.001 A 
ATOM      4  C3  UNL d   1       2.641   3.306  -4.390  0.00  0.00     0.003 A 
ATOM      5  C4  UNL d   1       2.395   3.797  -3.109  0.00  0.00    -0.005 A 
ATOM      6  C5  UNL d   1       3.318   4.646  -2.502  0.00  0.00     0.003 A 
ATOM      7  C6  UNL d   1       4.487   5.003  -3.176  0.00  0.00    -0.001 A 
ENDROOT
TORSDOF 0
ENDMDL
