MODEL 1
REMARK minimizedAffinity 9.29985428
REMARK minimizedRMSD -1
REMARK  0 active torsions:
REMARK  status: ('A' for Active; 'I' for Inactive)
ROOT
ATOM      1  C   UNL d   1      -0.724  -1.802   2.216  0.00  0.00     0.078 C 
ATOM      2  C1  UNL d   1      -1.963  -0.968   2.085  0.00  0.00    -0.077 A 
ATOM      3  C2  UNL d   1      -1.978   0.370   2.498  0.00  0.00    -0.001 A 
ATOM      4  C3  UNL d   1      -3.142   1.132   2.379  0.00  0.00     0.003 A 
ATOM      5  C4  UNL d   1      -4.299   0.565   1.849  0.00  0.00    -0.005 A 
ATOM      6  C5  UNL d   1      -4.294  -0.767   1.438  0.00  0.00     0.003 A 
ATOM      7  C6  UNL d   1      -3.131  -1.530   1.556  0.00  0.00    -0.001 A 
ENDROOT
TORSDOF 0
ENDMDL
