MODEL 1
REMARK minimizedAffinity 17.1751442
REMARK minimizedRMSD -1
REMARK  0 active torsions:
REMARK  status: ('A' for Active; 'I' for Inactive)
ROOT
ATOM      1  C   UNL d   1      -4.171   2.972   5.942  0.00  0.00     0.078 C 
ATOM      2  C1  UNL d   1      -3.216   2.037   5.263  0.00  0.00    -0.077 A 
ATOM      3  C2  UNL d   1      -2.468   1.110   5.999  0.00  0.00    -0.001 A 
ATOM      4  C3  UNL d   1      -1.575   0.253   5.354  0.00  0.00     0.003 A 
ATOM      5  C4  UNL d   1      -1.421   0.314   3.970  0.00  0.00    -0.005 A 
ATOM      6  C5  UNL d   1      -2.160   1.235   3.230  0.00  0.00     0.003 A 
ATOM      7  C6  UNL d   1      -3.053   2.093   3.873  0.00  0.00    -0.001 A 
ENDROOT
TORSDOF 0
ENDMDL
