MODEL 1
REMARK minimizedAffinity 12.176054
REMARK minimizedRMSD -1
REMARK  0 active torsions:
REMARK  status: ('A' for Active; 'I' for Inactive)
ROOT
ATOM      1  C   UNL d   1       0.708  -6.000  -5.991  0.00  0.00     0.078 C 
ATOM      2  C1  UNL d   1      -0.388  -5.407  -5.157  0.00  0.00    -0.077 A 
ATOM      3  C2  UNL d   1      -1.656  -6.000  -5.106  0.00  0.00    -0.001 A 
ATOM      4  C3  UNL d   1      -2.670  -5.432  -4.334  0.00  0.00     0.003 A 
ATOM      5  C4  UNL d   1      -2.428  -4.268  -3.607  0.00  0.00    -0.005 A 
ATOM      6  C5  UNL d   1      -1.170  -3.669  -3.653  0.00  0.00     0.003 A 
ATOM      7  C6  UNL d   1      -0.155  -4.236  -4.425  0.00  0.00    -0.001 A 
ENDROOT
TORSDOF 0
ENDMDL
