MODEL 1
REMARK minimizedAffinity 15.190773
REMARK minimizedRMSD -1
REMARK  0 active torsions:
REMARK  status: ('A' for Active; 'I' for Inactive)
ROOT
ATOM      1  C   UNL d   1       2.613   2.082  -2.014  0.00  0.00     0.078 C 
ATOM      2  C1  UNL d   1       2.519   2.659  -3.395  0.00  0.00    -0.077 A 
ATOM      3  C2  UNL d   1       1.338   3.261  -3.846  0.00  0.00    -0.001 A 
ATOM      4  C3  UNL d   1       1.262   3.786  -5.137  0.00  0.00     0.003 A 
ATOM      5  C4  UNL d   1       2.362   3.712  -5.989  0.00  0.00    -0.005 A 
ATOM      6  C5  UNL d   1       3.541   3.112  -5.550  0.00  0.00     0.003 A 
ATOM      7  C6  UNL d   1       3.619   2.587  -4.259  0.00  0.00    -0.001 A 
ENDROOT
TORSDOF 0
ENDMDL
