MODEL 1
REMARK minimizedAffinity 9.48479366
REMARK minimizedRMSD -1
REMARK  0 active torsions:
REMARK  status: ('A' for Active; 'I' for Inactive)
ROOT
ATOM      1  C   UNL d   1      -4.076  -0.038   0.885  0.00  0.00     0.078 C 
ATOM      2  C1  UNL d   1      -2.754  -0.286   1.547  0.00  0.00    -0.077 A 
ATOM      3  C2  UNL d   1      -1.999  -1.426   1.247  0.00  0.00    -0.001 A 
ATOM      4  C3  UNL d   1      -0.775  -1.649   1.878  0.00  0.00     0.003 A 
ATOM      5  C4  UNL d   1      -0.294  -0.736   2.815  0.00  0.00    -0.005 A 
ATOM      6  C5  UNL d   1      -1.039   0.401   3.122  0.00  0.00     0.003 A 
ATOM      7  C6  UNL d   1      -2.264   0.625   2.492  0.00  0.00    -0.001 A 
ENDROOT
TORSDOF 0
ENDMDL
