MODEL 1
REMARK minimizedAffinity 8.34184742
REMARK minimizedRMSD -1
REMARK  0 active torsions:
REMARK  status: ('A' for Active; 'I' for Inactive)
ROOT
ATOM      1  C   UNL d   1      -0.039  -1.208   2.013  0.00  0.00     0.078 C 
ATOM      2  C1  UNL d   1      -0.773  -0.356   3.005  0.00  0.00    -0.077 A 
ATOM      3  C2  UNL d   1      -0.481  -0.429   4.373  0.00  0.00    -0.001 A 
ATOM      4  C3  UNL d   1      -1.179   0.364   5.286  0.00  0.00     0.003 A 
ATOM      5  C4  UNL d   1      -2.173   1.233   4.842  0.00  0.00    -0.005 A 
ATOM      6  C5  UNL d   1      -2.472   1.311   3.483  0.00  0.00     0.003 A 
ATOM      7  C6  UNL d   1      -1.775   0.519   2.569  0.00  0.00    -0.001 A 
ENDROOT
TORSDOF 0
ENDMDL
