MODEL 1
REMARK minimizedAffinity 7.50003433
REMARK minimizedRMSD -1
REMARK  0 active torsions:
REMARK  status: ('A' for Active; 'I' for Inactive)
ROOT
ATOM      1  C   UNL d   1       1.132  -2.282   3.864  0.00  0.00     0.078 C 
ATOM      2  C1  UNL d   1       0.024  -1.407   3.359  0.00  0.00    -0.077 A 
ATOM      3  C2  UNL d   1      -0.503  -0.380   4.152  0.00  0.00    -0.001 A 
ATOM      4  C3  UNL d   1      -1.541   0.420   3.672  0.00  0.00     0.003 A 
ATOM      5  C4  UNL d   1      -2.062   0.201   2.398  0.00  0.00    -0.005 A 
ATOM      6  C5  UNL d   1      -1.546  -0.820   1.603  0.00  0.00     0.003 A 
ATOM      7  C6  UNL d   1      -0.508  -1.621   2.081  0.00  0.00    -0.001 A 
ENDROOT
TORSDOF 0
ENDMDL
