MODEL 1
REMARK minimizedAffinity 5.62153673
REMARK minimizedRMSD -1
REMARK  0 active torsions:
REMARK  status: ('A' for Active; 'I' for Inactive)
ROOT
ATOM      1  C   UNL d   1      -1.813   1.657   4.111  0.00  0.00     0.078 C 
ATOM      2  C1  UNL d   1      -1.369   0.706   3.040  0.00  0.00    -0.077 A 
ATOM      3  C2  UNL d   1      -2.297  -0.067   2.331  0.00  0.00    -0.001 A 
ATOM      4  C3  UNL d   1      -1.869  -0.955   1.344  0.00  0.00     0.003 A 
ATOM      5  C4  UNL d   1      -0.511  -1.080   1.057  0.00  0.00    -0.005 A 
ATOM      6  C5  UNL d   1       0.420  -0.317   1.758  0.00  0.00     0.003 A 
ATOM      7  C6  UNL d   1      -0.006   0.572   2.746  0.00  0.00    -0.001 A 
ENDROOT
TORSDOF 0
ENDMDL
