MODEL 1
REMARK minimizedAffinity 7.04592037
REMARK minimizedRMSD -1
REMARK  0 active torsions:
REMARK  status: ('A' for Active; 'I' for Inactive)
ROOT
ATOM      1  C   UNL d   1      -4.425  -0.308   0.803  0.00  0.00     0.078 C 
ATOM      2  C1  UNL d   1      -3.110  -0.393   1.520  0.00  0.00    -0.077 A 
ATOM      3  C2  UNL d   1      -2.784   0.512   2.537  0.00  0.00    -0.001 A 
ATOM      4  C3  UNL d   1      -1.552   0.427   3.189  0.00  0.00     0.003 A 
ATOM      5  C4  UNL d   1      -0.637  -0.561   2.830  0.00  0.00    -0.005 A 
ATOM      6  C5  UNL d   1      -0.953  -1.464   1.817  0.00  0.00     0.003 A 
ATOM      7  C6  UNL d   1      -2.184  -1.381   1.164  0.00  0.00    -0.001 A 
ENDROOT
TORSDOF 0
ENDMDL
