MODEL 1
REMARK minimizedAffinity 8.17444611
REMARK minimizedRMSD -1
REMARK  0 active torsions:
REMARK  status: ('A' for Active; 'I' for Inactive)
ROOT
ATOM      1  C   UNL d   1      -4.799   1.336   1.164  0.00  0.00     0.078 C 
ATOM      2  C1  UNL d   1      -3.550   0.650   1.631  0.00  0.00    -0.077 A 
ATOM      3  C2  UNL d   1      -2.746   1.216   2.628  0.00  0.00    -0.001 A 
ATOM      4  C3  UNL d   1      -1.580   0.571   3.045  0.00  0.00     0.003 A 
ATOM      5  C4  UNL d   1      -1.207  -0.642   2.470  0.00  0.00    -0.005 A 
ATOM      6  C5  UNL d   1      -2.000  -1.211   1.475  0.00  0.00     0.003 A 
ATOM      7  C6  UNL d   1      -3.166  -0.568   1.057  0.00  0.00    -0.001 A 
ENDROOT
TORSDOF 0
ENDMDL
