MODEL 1
REMARK minimizedAffinity 11.6887321
REMARK minimizedRMSD -1
REMARK  0 active torsions:
REMARK  status: ('A' for Active; 'I' for Inactive)
ROOT
ATOM      1  C   UNL d   1       5.753   5.559  -1.495  0.00  0.00     0.078 C 
ATOM      2  C1  UNL d   1       5.076   4.794  -2.592  0.00  0.00    -0.077 A 
ATOM      3  C2  UNL d   1       3.802   4.241  -2.406  0.00  0.00    -0.001 A 
ATOM      4  C3  UNL d   1       3.188   3.523  -3.433  0.00  0.00     0.003 A 
ATOM      5  C4  UNL d   1       3.839   3.349  -4.653  0.00  0.00    -0.005 A 
ATOM      6  C5  UNL d   1       5.107   3.893  -4.846  0.00  0.00     0.003 A 
ATOM      7  C6  UNL d   1       5.724   4.612  -3.820  0.00  0.00    -0.001 A 
ENDROOT
TORSDOF 0
ENDMDL
