MODEL 1
REMARK minimizedAffinity 8.24534702
REMARK minimizedRMSD -1
REMARK  0 active torsions:
REMARK  status: ('A' for Active; 'I' for Inactive)
ROOT
ATOM      1  C   UNL d   1       1.811   2.960  -2.712  0.00  0.00     0.078 C 
ATOM      2  C1  UNL d   1       3.212   3.351  -3.076  0.00  0.00    -0.077 A 
ATOM      3  C2  UNL d   1       4.033   4.024  -2.163  0.00  0.00    -0.001 A 
ATOM      4  C3  UNL d   1       5.332   4.391  -2.519  0.00  0.00     0.003 A 
ATOM      5  C4  UNL d   1       5.821   4.090  -3.789  0.00  0.00    -0.005 A 
ATOM      6  C5  UNL d   1       5.010   3.423  -4.705  0.00  0.00     0.003 A 
ATOM      7  C6  UNL d   1       3.711   3.055  -4.351  0.00  0.00    -0.001 A 
ENDROOT
TORSDOF 0
ENDMDL
