MODEL 1
REMARK minimizedAffinity 19.9257145
REMARK minimizedRMSD -1
REMARK  0 active torsions:
REMARK  status: ('A' for Active; 'I' for Inactive)
ROOT
ATOM      1  C   UNL d   1      -1.247  -3.871   1.344  0.00  0.00     0.124 A 
ATOM      2  C1  UNL d   1      -1.802  -2.669   0.929  0.00  0.00     0.062 A 
ATOM      3  C2  UNL d   1      -1.845  -2.348  -0.425  0.00  0.00     0.162 A 
ATOM      4  C3  UNL d   1      -1.331  -3.231  -1.374  0.00  0.00    -0.034 A 
ATOM      5  C4  UNL d   1      -0.774  -4.438  -0.949  0.00  0.00     0.162 A 
ATOM      6  C5  UNL d   1      -0.734  -4.754   0.405  0.00  0.00     0.062 A 
ATOM      7  F   UNL d   1      -0.197  -5.917   0.804  0.00  0.00    -0.097 F 
ATOM      8  F1  UNL d   1      -0.271  -5.311  -1.835  0.00  0.00    -0.096 F 
ATOM      9  I   UNL d   1      -1.393  -2.755  -3.399  0.00  0.00    -0.060 I 
ATOM     10  F2  UNL d   1      -2.387  -1.179  -0.797  0.00  0.00    -0.096 F 
ATOM     11  F3  UNL d   1      -2.299  -1.813   1.834  0.00  0.00    -0.097 F 
ATOM     12  F4  UNL d   1      -1.207  -4.177   2.647  0.00  0.00    -0.092 F 
ENDROOT
TORSDOF 0
ENDMDL
