MODEL 1
REMARK minimizedAffinity 16.0528488
REMARK minimizedRMSD -1
REMARK  0 active torsions:
REMARK  status: ('A' for Active; 'I' for Inactive)
ROOT
ATOM      1  C   UNL d   1      -1.281  -3.813   2.314  0.00  0.00     0.124 A 
ATOM      2  C1  UNL d   1      -0.759  -4.623   1.315  0.00  0.00     0.062 A 
ATOM      3  C2  UNL d   1      -0.789  -4.205  -0.012  0.00  0.00     0.162 A 
ATOM      4  C3  UNL d   1      -1.341  -2.969  -0.349  0.00  0.00    -0.034 A 
ATOM      5  C4  UNL d   1      -1.865  -2.160   0.662  0.00  0.00     0.162 A 
ATOM      6  C5  UNL d   1      -1.834  -2.583   1.986  0.00  0.00     0.062 A 
ATOM      7  F   UNL d   1      -2.339  -1.799   2.950  0.00  0.00    -0.097 F 
ATOM      8  F1  UNL d   1      -2.404  -0.966   0.373  0.00  0.00    -0.096 F 
ATOM      9  I   UNL d   1      -1.387  -2.340  -2.332  0.00  0.00    -0.060 I 
ATOM     10  F2  UNL d   1      -0.277  -5.008  -0.957  0.00  0.00    -0.096 F 
ATOM     11  F3  UNL d   1      -0.226  -5.813   1.628  0.00  0.00    -0.097 F 
ATOM     12  F4  UNL d   1      -1.253  -4.219   3.590  0.00  0.00    -0.092 F 
ENDROOT
TORSDOF 0
ENDMDL
