MODEL 1
REMARK minimizedAffinity 10.0149746
REMARK minimizedRMSD -1
REMARK  0 active torsions:
REMARK  status: ('A' for Active; 'I' for Inactive)
ROOT
ATOM      1  C   UNL d   1      -1.071  -4.123   0.380  0.00  0.00     0.124 A 
ATOM      2  C1  UNL d   1      -1.173  -4.685   1.645  0.00  0.00     0.062 A 
ATOM      3  C2  UNL d   1      -1.485  -3.888   2.742  0.00  0.00     0.162 A 
ATOM      4  C3  UNL d   1      -1.698  -2.519   2.580  0.00  0.00    -0.034 A 
ATOM      5  C4  UNL d   1      -1.592  -1.960   1.304  0.00  0.00     0.162 A 
ATOM      6  C5  UNL d   1      -1.280  -2.762   0.211  0.00  0.00     0.062 A 
ATOM      7  F   UNL d   1      -1.181  -2.217  -1.010  0.00  0.00    -0.097 F 
ATOM      8  F1  UNL d   1      -1.790  -0.648   1.112  0.00  0.00    -0.096 F 
ATOM      9  I   UNL d   1      -2.165  -1.323   4.218  0.00  0.00    -0.060 I 
ATOM     10  F2  UNL d   1      -1.578  -4.458   3.953  0.00  0.00    -0.096 F 
ATOM     11  F3  UNL d   1      -0.971  -6.000   1.811  0.00  0.00    -0.097 F 
ATOM     12  F4  UNL d   1      -0.770  -4.892  -0.674  0.00  0.00    -0.092 F 
ENDROOT
TORSDOF 0
ENDMDL
