MODEL 1
REMARK minimizedAffinity 19.5169964
REMARK minimizedRMSD -1
REMARK  0 active torsions:
REMARK  status: ('A' for Active; 'I' for Inactive)
ROOT
ATOM      1  C   UNL d   1       1.938  -0.457  -2.687  0.00  0.00     0.124 A 
ATOM      2  C1  UNL d   1       3.180   0.162  -2.651  0.00  0.00     0.062 A 
ATOM      3  C2  UNL d   1       3.555   0.914  -1.542  0.00  0.00     0.162 A 
ATOM      4  C3  UNL d   1       2.687   1.052  -0.458  0.00  0.00    -0.034 A 
ATOM      5  C4  UNL d   1       1.439   0.427  -0.503  0.00  0.00     0.162 A 
ATOM      6  C5  UNL d   1       1.069  -0.324  -1.614  0.00  0.00     0.062 A 
ATOM      7  F   UNL d   1      -0.131  -0.922  -1.647  0.00  0.00    -0.097 F 
ATOM      8  F1  UNL d   1       0.580   0.538   0.521  0.00  0.00    -0.096 F 
ATOM      9  I   UNL d   1       3.243   2.176   1.202  0.00  0.00    -0.060 I 
ATOM     10  F2  UNL d   1       4.761   1.502  -1.533  0.00  0.00    -0.096 F 
ATOM     11  F3  UNL d   1       4.021   0.036  -3.687  0.00  0.00    -0.097 F 
ATOM     12  F4  UNL d   1       1.580  -1.180  -3.756  0.00  0.00    -0.092 F 
ENDROOT
TORSDOF 0
ENDMDL
