MODEL 1
REMARK minimizedAffinity 15.0198841
REMARK minimizedRMSD -1
REMARK  0 active torsions:
REMARK  status: ('A' for Active; 'I' for Inactive)
ROOT
ATOM      1  C   UNL d   1       2.555   1.769  -0.376  0.00  0.00     0.124 A 
ATOM      2  C1  UNL d   1       3.810   2.360  -0.411  0.00  0.00     0.062 A 
ATOM      3  C2  UNL d   1       4.796   1.860  -1.257  0.00  0.00     0.162 A 
ATOM      4  C3  UNL d   1       4.529   0.764  -2.077  0.00  0.00    -0.034 A 
ATOM      5  C4  UNL d   1       3.264   0.174  -2.036  0.00  0.00     0.162 A 
ATOM      6  C5  UNL d   1       2.283   0.677  -1.188  0.00  0.00     0.062 A 
ATOM      7  F   UNL d   1       1.070   0.106  -1.156  0.00  0.00    -0.097 F 
ATOM      8  F1  UNL d   1       2.974  -0.881  -2.811  0.00  0.00    -0.096 F 
ATOM      9  I   UNL d   1       6.000   0.014  -3.344  0.00  0.00    -0.060 I 
ATOM     10  F2  UNL d   1       6.000   2.451  -1.270  0.00  0.00    -0.096 F 
ATOM     11  F3  UNL d   1       4.076   3.414   0.374  0.00  0.00    -0.097 F 
ATOM     12  F4  UNL d   1       1.609   2.251   0.440  0.00  0.00    -0.092 F 
ENDROOT
TORSDOF 0
ENDMDL
