MODEL 1
REMARK minimizedAffinity 18.8332653
REMARK minimizedRMSD -1
REMARK  0 active torsions:
REMARK  status: ('A' for Active; 'I' for Inactive)
ROOT
ATOM      1  C   UNL d   1      -0.941  -4.007  -0.047  0.00  0.00     0.124 A 
ATOM      2  C1  UNL d   1      -1.418  -2.704  -0.024  0.00  0.00     0.062 A 
ATOM      3  C2  UNL d   1      -1.832  -2.131   1.175  0.00  0.00     0.162 A 
ATOM      4  C3  UNL d   1      -1.770  -2.861   2.362  0.00  0.00    -0.034 A 
ATOM      5  C4  UNL d   1      -1.289  -4.172   2.331  0.00  0.00     0.162 A 
ATOM      6  C5  UNL d   1      -0.877  -4.740   1.130  0.00  0.00     0.062 A 
ATOM      7  F   UNL d   1      -0.416  -5.999   1.110  0.00  0.00    -0.097 F 
ATOM      8  F1  UNL d   1      -1.216  -4.902   3.454  0.00  0.00    -0.096 F 
ATOM      9  I   UNL d   1      -2.388  -2.009   4.157  0.00  0.00    -0.060 I 
ATOM     10  F2  UNL d   1      -2.289  -0.870   1.168  0.00  0.00    -0.096 F 
ATOM     11  F3  UNL d   1      -1.482  -1.995  -1.160  0.00  0.00    -0.097 F 
ATOM     12  F4  UNL d   1      -0.544  -4.556  -1.202  0.00  0.00    -0.092 F 
ENDROOT
TORSDOF 0
ENDMDL
