MODEL 1
REMARK minimizedAffinity 38.6519318
REMARK minimizedRMSD -1
REMARK  0 active torsions:
REMARK  status: ('A' for Active; 'I' for Inactive)
ROOT
ATOM      1  C   UNL d   1       3.004   1.110  -0.644  0.00  0.00     0.124 A 
ATOM      2  C1  UNL d   1       2.612   2.423  -0.865  0.00  0.00     0.062 A 
ATOM      3  C2  UNL d   1       1.787   2.735  -1.941  0.00  0.00     0.162 A 
ATOM      4  C3  UNL d   1       1.347   1.733  -2.806  0.00  0.00    -0.034 A 
ATOM      5  C4  UNL d   1       1.747   0.414  -2.578  0.00  0.00     0.162 A 
ATOM      6  C5  UNL d   1       2.571   0.107  -1.501  0.00  0.00     0.062 A 
ATOM      7  F   UNL d   1       2.949  -1.162  -1.289  0.00  0.00    -0.097 F 
ATOM      8  F1  UNL d   1       1.343  -0.574  -3.389  0.00  0.00    -0.096 F 
ATOM      9  I   UNL d   1       0.114   2.196  -4.417  0.00  0.00    -0.060 I 
ATOM     10  F2  UNL d   1       1.423   4.013  -2.130  0.00  0.00    -0.096 F 
ATOM     11  F3  UNL d   1       3.029   3.393  -0.039  0.00  0.00    -0.097 F 
ATOM     12  F4  UNL d   1       3.799   0.812   0.392  0.00  0.00    -0.092 F 
ENDROOT
TORSDOF 0
ENDMDL
