MODEL 1
REMARK minimizedAffinity 19.4687099
REMARK minimizedRMSD -1
REMARK  0 active torsions:
REMARK  status: ('A' for Active; 'I' for Inactive)
ROOT
ATOM      1  C   UNL d   1      -1.311  -2.806   0.048  0.00  0.00     0.124 A 
ATOM      2  C1  UNL d   1      -0.669  -4.035   0.126  0.00  0.00     0.062 A 
ATOM      3  C2  UNL d   1      -0.792  -4.817   1.271  0.00  0.00     0.162 A 
ATOM      4  C3  UNL d   1      -1.562  -4.374   2.346  0.00  0.00    -0.034 A 
ATOM      5  C4  UNL d   1      -2.203  -3.137   2.261  0.00  0.00     0.162 A 
ATOM      6  C5  UNL d   1      -2.077  -2.359   1.115  0.00  0.00     0.062 A 
ATOM      7  F   UNL d   1      -2.698  -1.173   1.041  0.00  0.00    -0.097 F 
ATOM      8  F1  UNL d   1      -2.951  -2.681   3.277  0.00  0.00    -0.096 F 
ATOM      9  I   UNL d   1      -1.748  -5.541   4.060  0.00  0.00    -0.060 I 
ATOM     10  F2  UNL d   1      -0.161  -6.000   1.319  0.00  0.00    -0.096 F 
ATOM     11  F3  UNL d   1       0.073  -4.469  -0.903  0.00  0.00    -0.097 F 
ATOM     12  F4  UNL d   1      -1.190  -2.055  -1.054  0.00  0.00    -0.092 F 
ENDROOT
TORSDOF 0
ENDMDL
