MODEL 1
REMARK minimizedAffinity 22.3266888
REMARK minimizedRMSD -1
REMARK  0 active torsions:
REMARK  status: ('A' for Active; 'I' for Inactive)
ROOT
ATOM      1  C   UNL d   1       0.286  -1.175  -3.157  0.00  0.00     0.124 A 
ATOM      2  C1  UNL d   1      -0.348  -0.585  -2.072  0.00  0.00     0.062 A 
ATOM      3  C2  UNL d   1       0.334   0.332  -1.277  0.00  0.00     0.162 A 
ATOM      4  C3  UNL d   1       1.657   0.665  -1.565  0.00  0.00    -0.034 A 
ATOM      5  C4  UNL d   1       2.288   0.067  -2.657  0.00  0.00     0.162 A 
ATOM      6  C5  UNL d   1       1.602  -0.849  -3.448  0.00  0.00     0.062 A 
ATOM      7  F   UNL d   1       2.216  -1.418  -4.496  0.00  0.00    -0.097 F 
ATOM      8  F1  UNL d   1       3.560   0.365  -2.962  0.00  0.00    -0.096 F 
ATOM      9  I   UNL d   1       2.680   2.036  -0.379  0.00  0.00    -0.060 I 
ATOM     10  F2  UNL d   1      -0.303   0.886  -0.235  0.00  0.00    -0.096 F 
ATOM     11  F3  UNL d   1      -1.620  -0.900  -1.788  0.00  0.00    -0.097 F 
ATOM     12  F4  UNL d   1      -0.372  -2.058  -3.919  0.00  0.00    -0.092 F 
ENDROOT
TORSDOF 0
ENDMDL
