MODEL 1
REMARK minimizedAffinity 28.0624523
REMARK minimizedRMSD -1
REMARK  0 active torsions:
REMARK  status: ('A' for Active; 'I' for Inactive)
ROOT
ATOM      1  C   UNL d   1       4.159   1.595   2.348  0.00  0.00     0.124 A 
ATOM      2  C1  UNL d   1       3.935   2.501   1.320  0.00  0.00     0.062 A 
ATOM      3  C2  UNL d   1       3.394   2.070   0.113  0.00  0.00     0.162 A 
ATOM      4  C3  UNL d   1       3.071   0.726  -0.074  0.00  0.00    -0.034 A 
ATOM      5  C4  UNL d   1       3.299  -0.179   0.964  0.00  0.00     0.162 A 
ATOM      6  C5  UNL d   1       3.841   0.256   2.169  0.00  0.00     0.062 A 
ATOM      7  F   UNL d   1       4.056  -0.620   3.161  0.00  0.00    -0.097 F 
ATOM      8  F1  UNL d   1       3.000  -1.479   0.819  0.00  0.00    -0.096 F 
ATOM      9  I   UNL d   1       2.261   0.077  -1.878  0.00  0.00    -0.060 I 
ATOM     10  F2  UNL d   1       3.189   2.967  -0.863  0.00  0.00    -0.096 F 
ATOM     11  F3  UNL d   1       4.243   3.795   1.490  0.00  0.00    -0.097 F 
ATOM     12  F4  UNL d   1       4.681   2.013   3.508  0.00  0.00    -0.092 F 
ENDROOT
TORSDOF 0
ENDMDL
