MODEL 1
REMARK minimizedAffinity 23.5108662
REMARK minimizedRMSD -1
REMARK  0 active torsions:
REMARK  status: ('A' for Active; 'I' for Inactive)
ROOT
ATOM      1  C   UNL d   1      -1.581  -1.816  -1.589  0.00  0.00     0.124 A 
ATOM      2  C1  UNL d   1      -0.539  -1.447  -0.749  0.00  0.00     0.062 A 
ATOM      3  C2  UNL d   1       0.675  -1.025  -1.284  0.00  0.00     0.162 A 
ATOM      4  C3  UNL d   1       0.853  -0.969  -2.667  0.00  0.00    -0.034 A 
ATOM      5  C4  UNL d   1      -0.199  -1.342  -3.504  0.00  0.00     0.162 A 
ATOM      6  C5  UNL d   1      -1.410  -1.763  -2.965  0.00  0.00     0.062 A 
ATOM      7  F   UNL d   1      -2.416  -2.119  -3.777  0.00  0.00    -0.097 F 
ATOM      8  F1  UNL d   1      -0.062  -1.300  -4.838  0.00  0.00    -0.096 F 
ATOM      9  I   UNL d   1       2.667  -0.339  -3.470  0.00  0.00    -0.060 I 
ATOM     10  F2  UNL d   1       1.665  -0.675  -0.450  0.00  0.00    -0.096 F 
ATOM     11  F3  UNL d   1      -0.701  -1.498   0.581  0.00  0.00    -0.097 F 
ATOM     12  F4  UNL d   1      -2.747  -2.222  -1.071  0.00  0.00    -0.092 F 
ENDROOT
TORSDOF 0
ENDMDL
