MODEL 1
REMARK minimizedAffinity 16.2361012
REMARK minimizedRMSD -1
REMARK  0 active torsions:
REMARK  status: ('A' for Active; 'I' for Inactive)
ROOT
ATOM      1  C   UNL d   1       2.896   1.840   0.369  0.00  0.00     0.124 A 
ATOM      2  C1  UNL d   1       4.074   2.521   0.095  0.00  0.00     0.062 A 
ATOM      3  C2  UNL d   1       4.859   2.151  -0.993  0.00  0.00     0.162 A 
ATOM      4  C3  UNL d   1       4.468   1.096  -1.818  0.00  0.00    -0.034 A 
ATOM      5  C4  UNL d   1       3.282   0.416  -1.536  0.00  0.00     0.162 A 
ATOM      6  C5  UNL d   1       2.501   0.789  -0.447  0.00  0.00     0.062 A 
ATOM      7  F   UNL d   1       1.362   0.130  -0.184  0.00  0.00    -0.097 F 
ATOM      8  F1  UNL d   1       2.876  -0.603  -2.308  0.00  0.00    -0.096 F 
ATOM      9  I   UNL d   1       5.638   0.541  -3.446  0.00  0.00    -0.060 I 
ATOM     10  F2  UNL d   1       5.993   2.827  -1.234  0.00  0.00    -0.096 F 
ATOM     11  F3  UNL d   1       4.458   3.536   0.882  0.00  0.00    -0.097 F 
ATOM     12  F4  UNL d   1       2.143   2.197   1.417  0.00  0.00    -0.092 F 
ENDROOT
TORSDOF 0
ENDMDL
