MODEL 1
REMARK minimizedAffinity 17.0357304
REMARK minimizedRMSD -1
REMARK  0 active torsions:
REMARK  status: ('A' for Active; 'I' for Inactive)
ROOT
ATOM      1  C   UNL d   1       1.387   0.080  -0.718  0.00  0.00     0.124 A 
ATOM      2  C1  UNL d   1       2.418   0.165  -1.643  0.00  0.00     0.062 A 
ATOM      3  C2  UNL d   1       3.353   1.192  -1.557  0.00  0.00     0.162 A 
ATOM      4  C3  UNL d   1       3.262   2.144  -0.541  0.00  0.00    -0.034 A 
ATOM      5  C4  UNL d   1       2.221   2.052   0.385  0.00  0.00     0.162 A 
ATOM      6  C5  UNL d   1       1.289   1.024   0.295  0.00  0.00     0.062 A 
ATOM      7  F   UNL d   1       0.293   0.943   1.189  0.00  0.00    -0.097 F 
ATOM      8  F1  UNL d   1       2.103   2.950   1.375  0.00  0.00    -0.096 F 
ATOM      9  I   UNL d   1       4.657   3.682  -0.408  0.00  0.00    -0.060 I 
ATOM     10  F2  UNL d   1       4.339   1.250  -2.464  0.00  0.00    -0.096 F 
ATOM     11  F3  UNL d   1       2.514  -0.745  -2.623  0.00  0.00    -0.097 F 
ATOM     12  F4  UNL d   1       0.488  -0.909  -0.804  0.00  0.00    -0.092 F 
ENDROOT
TORSDOF 0
ENDMDL
