MODEL 1
REMARK minimizedAffinity 18.8760452
REMARK minimizedRMSD -1
REMARK  0 active torsions:
REMARK  status: ('A' for Active; 'I' for Inactive)
ROOT
ATOM      1  C   UNL d   1      -1.737  -3.181   0.026  0.00  0.00     0.124 A 
ATOM      2  C1  UNL d   1      -0.956  -4.306   0.249  0.00  0.00     0.062 A 
ATOM      3  C2  UNL d   1      -0.946  -4.914   1.501  0.00  0.00     0.162 A 
ATOM      4  C3  UNL d   1      -1.720  -4.398   2.540  0.00  0.00    -0.034 A 
ATOM      5  C4  UNL d   1      -2.503  -3.265   2.308  0.00  0.00     0.162 A 
ATOM      6  C5  UNL d   1      -2.510  -2.662   1.055  0.00  0.00     0.062 A 
ATOM      7  F   UNL d   1      -3.265  -1.575   0.841  0.00  0.00    -0.097 F 
ATOM      8  F1  UNL d   1      -3.260  -2.743   3.285  0.00  0.00    -0.096 F 
ATOM      9  I   UNL d   1      -1.708  -5.304   4.414  0.00  0.00    -0.060 I 
ATOM     10  F2  UNL d   1      -0.181  -6.000   1.689  0.00  0.00    -0.096 F 
ATOM     11  F3  UNL d   1      -0.208  -4.809  -0.744  0.00  0.00    -0.097 F 
ATOM     12  F4  UNL d   1      -1.744  -2.598  -1.180  0.00  0.00    -0.092 F 
ENDROOT
TORSDOF 0
ENDMDL
