MODEL 1
REMARK minimizedAffinity 7.82186508
REMARK minimizedRMSD -1
REMARK  0 active torsions:
REMARK  status: ('A' for Active; 'I' for Inactive)
ROOT
ATOM      1  N1  IND d   1      -5.239  -2.062  -4.046  0.00  0.00    -0.196 N 
ATOM      2  C2  IND d   1      -5.579  -2.068  -2.722  0.00  0.00     0.054 A 
ATOM      3  C3  IND d   1      -5.944  -3.311  -2.335  0.00  0.00    -0.031 A 
ATOM      4  C4  IND d   1      -5.961  -5.504  -3.682  0.00  0.00     0.051 A 
ATOM      5  C5  IND d   1      -5.767  -5.996  -4.943  0.00  0.00    -0.031 A 
ATOM      6  C6  IND d   1      -5.377  -5.185  -5.989  0.00  0.00     0.015 A 
ATOM      7  C7  IND d   1      -5.154  -3.849  -5.811  0.00  0.00    -0.016 A 
ATOM      8  C8  IND d   1      -5.357  -3.345  -4.534  0.00  0.00    -0.047 A 
ATOM      9  C9  IND d   1      -5.794  -4.155  -3.477  0.00  0.00    -0.096 A 
ATOM     10  HN1 IND d   1      -4.994  -1.374  -4.498  0.00  0.00     0.298 HD
ENDROOT
TORSDOF 0
ENDMDL
