MODEL 1
REMARK minimizedAffinity 6.55203247
REMARK minimizedRMSD -1
REMARK  0 active torsions:
REMARK  status: ('A' for Active; 'I' for Inactive)
ROOT
ATOM      1  N1  IND d   1      -6.000  -4.940  -2.124  0.00  0.00    -0.196 N 
ATOM      2  C2  IND d   1      -5.817  -3.675  -1.638  0.00  0.00     0.054 A 
ATOM      3  C3  IND d   1      -5.307  -2.872  -2.598  0.00  0.00    -0.031 A 
ATOM      4  C4  IND d   1      -4.791  -3.396  -5.065  0.00  0.00     0.051 A 
ATOM      5  C5  IND d   1      -4.759  -4.425  -5.964  0.00  0.00    -0.031 A 
ATOM      6  C6  IND d   1      -5.150  -5.704  -5.622  0.00  0.00     0.015 A 
ATOM      7  C7  IND d   1      -5.600  -5.999  -4.367  0.00  0.00    -0.016 A 
ATOM      8  C8  IND d   1      -5.627  -4.958  -3.450  0.00  0.00    -0.047 A 
ATOM      9  C9  IND d   1      -5.191  -3.668  -3.778  0.00  0.00    -0.096 A 
ATOM     10  HN1 IND d   1      -6.298  -5.611  -1.676  0.00  0.00     0.298 HD
ENDROOT
TORSDOF 0
ENDMDL
