MODEL 1
REMARK minimizedAffinity 7.92693615
REMARK minimizedRMSD -1
REMARK  0 active torsions:
REMARK  status: ('A' for Active; 'I' for Inactive)
ROOT
ATOM      1  N1  IND d   1      -3.453  -5.231  -2.505  0.00  0.00    -0.196 N 
ATOM      2  C2  IND d   1      -4.101  -4.343  -1.693  0.00  0.00     0.054 A 
ATOM      3  C3  IND d   1      -5.090  -3.720  -2.373  0.00  0.00    -0.031 A 
ATOM      4  C4  IND d   1      -5.887  -4.077  -4.794  0.00  0.00     0.051 A 
ATOM      5  C5  IND d   1      -5.581  -4.756  -5.940  0.00  0.00    -0.031 A 
ATOM      6  C6  IND d   1      -4.531  -5.648  -6.000  0.00  0.00     0.015 A 
ATOM      7  C7  IND d   1      -3.750  -5.904  -4.908  0.00  0.00    -0.016 A 
ATOM      8  C8  IND d   1      -4.054  -5.211  -3.745  0.00  0.00    -0.047 A 
ATOM      9  C9  IND d   1      -5.092  -4.272  -3.690  0.00  0.00    -0.096 A 
ATOM     10  HN1 IND d   1      -2.782  -5.719  -2.280  0.00  0.00     0.298 HD
ENDROOT
TORSDOF 0
ENDMDL
