MODEL 1
REMARK minimizedAffinity 5.71713543
REMARK minimizedRMSD -1
REMARK  0 active torsions:
REMARK  status: ('A' for Active; 'I' for Inactive)
ROOT
ATOM      1  N1  IND d   1      -5.519  -3.782  -2.142  0.00  0.00    -0.196 N 
ATOM      2  C2  IND d   1      -5.350  -2.434  -2.293  0.00  0.00     0.054 A 
ATOM      3  C3  IND d   1      -5.102  -2.133  -3.588  0.00  0.00    -0.031 A 
ATOM      4  C4  IND d   1      -5.030  -3.683  -5.642  0.00  0.00     0.051 A 
ATOM      5  C5  IND d   1      -5.089  -5.001  -6.000  0.00  0.00    -0.031 A 
ATOM      6  C6  IND d   1      -5.301  -5.999  -5.071  0.00  0.00     0.015 A 
ATOM      7  C7  IND d   1      -5.475  -5.715  -3.746  0.00  0.00    -0.016 A 
ATOM      8  C8  IND d   1      -5.408  -4.379  -3.379  0.00  0.00    -0.047 A 
ATOM      9  C9  IND d   1      -5.151  -3.365  -4.310  0.00  0.00    -0.096 A 
ATOM     10  HN1 IND d   1      -5.669  -4.188  -1.399  0.00  0.00     0.298 HD
ENDROOT
TORSDOF 0
ENDMDL
