MODEL 1
REMARK minimizedAffinity 5.28553247
REMARK minimizedRMSD -1
REMARK  0 active torsions:
REMARK  status: ('A' for Active; 'I' for Inactive)
ROOT
ATOM      1  N1  IND d   1       0.287  -1.378   1.526  0.00  0.00    -0.196 N 
ATOM      2  C2  IND d   1       1.245  -0.443   1.248  0.00  0.00     0.054 A 
ATOM      3  C3  IND d   1       2.438  -0.827   1.755  0.00  0.00    -0.031 A 
ATOM      4  C4  IND d   1       3.069  -2.997   2.987  0.00  0.00     0.051 A 
ATOM      5  C5  IND d   1       2.526  -4.138   3.507  0.00  0.00    -0.031 A 
ATOM      6  C6  IND d   1       1.181  -4.425   3.388  0.00  0.00     0.015 A 
ATOM      7  C7  IND d   1       0.328  -3.582   2.732  0.00  0.00    -0.016 A 
ATOM      8  C8  IND d   1       0.876  -2.419   2.209  0.00  0.00    -0.047 A 
ATOM      9  C9  IND d   1       2.232  -2.103   2.364  0.00  0.00    -0.096 A 
ATOM     10  HN1 IND d   1      -0.544  -1.325   1.310  0.00  0.00     0.298 HD
ENDROOT
TORSDOF 0
ENDMDL
