MODEL 1
REMARK minimizedAffinity 5.91564035
REMARK minimizedRMSD -1
REMARK  0 active torsions:
REMARK  status: ('A' for Active; 'I' for Inactive)
ROOT
ATOM      1  N1  IND d   1      -5.974  -2.377  -3.194  0.00  0.00    -0.196 N 
ATOM      2  C2  IND d   1      -5.960  -2.737  -1.875  0.00  0.00     0.054 A 
ATOM      3  C3  IND d   1      -5.548  -4.018  -1.741  0.00  0.00    -0.031 A 
ATOM      4  C4  IND d   1      -4.748  -5.675  -3.542  0.00  0.00     0.051 A 
ATOM      5  C5  IND d   1      -4.617  -5.815  -4.895  0.00  0.00    -0.031 A 
ATOM      6  C6  IND d   1      -4.935  -4.794  -5.768  0.00  0.00     0.015 A 
ATOM      7  C7  IND d   1      -5.387  -3.586  -5.317  0.00  0.00    -0.016 A 
ATOM      8  C8  IND d   1      -5.529  -3.443  -3.944  0.00  0.00    -0.047 A 
ATOM      9  C9  IND d   1      -5.248  -4.490  -3.056  0.00  0.00    -0.096 A 
ATOM     10  HN1 IND d   1      -6.218  -1.613  -3.503  0.00  0.00     0.298 HD
ENDROOT
TORSDOF 0
ENDMDL
