MODEL 1
REMARK minimizedAffinity -3.46256733
REMARK minimizedRMSD -1
REMARK  0 active torsions:
REMARK  status: ('A' for Active; 'I' for Inactive)
ROOT
ATOM      1  N1  IND d   1       3.830   3.583  -5.539  0.00  0.00    -0.196 N 
ATOM      2  C2  IND d   1       4.972   4.184  -5.991  0.00  0.00     0.054 A 
ATOM      3  C3  IND d   1       5.995   3.301  -6.000  0.00  0.00    -0.031 A 
ATOM      4  C4  IND d   1       5.999   0.795  -5.409  0.00  0.00     0.051 A 
ATOM      5  C5  IND d   1       5.201  -0.195  -4.910  0.00  0.00    -0.031 A 
ATOM      6  C6  IND d   1       3.877   0.027  -4.590  0.00  0.00     0.015 A 
ATOM      7  C7  IND d   1       3.297   1.251  -4.770  0.00  0.00    -0.016 A 
ATOM      8  C8  IND d   1       4.106   2.261  -5.271  0.00  0.00    -0.047 A 
ATOM      9  C9  IND d   1       5.462   2.052  -5.557  0.00  0.00    -0.096 A 
ATOM     10  HN1 IND d   1       3.067   3.967  -5.438  0.00  0.00     0.298 HD
ENDROOT
TORSDOF 0
ENDMDL
