MODEL 1
REMARK minimizedAffinity -1.75022519
REMARK minimizedRMSD -1
REMARK  0 active torsions:
REMARK  status: ('A' for Active; 'I' for Inactive)
ROOT
ATOM      1  N1  IND d   1      -5.996  -4.111  -2.220  0.00  0.00    -0.196 N 
ATOM      2  C2  IND d   1      -5.523  -5.096  -1.399  0.00  0.00     0.054 A 
ATOM      3  C3  IND d   1      -4.804  -5.995  -2.109  0.00  0.00    -0.031 A 
ATOM      4  C4  IND d   1      -4.193  -5.991  -4.610  0.00  0.00     0.051 A 
ATOM      5  C5  IND d   1      -4.426  -5.315  -5.775  0.00  0.00    -0.031 A 
ATOM      6  C6  IND d   1      -5.208  -4.179  -5.815  0.00  0.00     0.015 A 
ATOM      7  C7  IND d   1      -5.779  -3.668  -4.684  0.00  0.00    -0.016 A 
ATOM      8  C8  IND d   1      -5.550  -4.355  -3.500  0.00  0.00    -0.047 A 
ATOM      9  C9  IND d   1      -4.793  -5.533  -3.461  0.00  0.00    -0.096 A 
ATOM     10  HN1 IND d   1      -6.489  -3.450  -1.977  0.00  0.00     0.298 HD
ENDROOT
TORSDOF 0
ENDMDL
