MODEL 1
REMARK minimizedAffinity -3.68136764
REMARK minimizedRMSD -1
REMARK  0 active torsions:
REMARK  status: ('A' for Active; 'I' for Inactive)
ROOT
ATOM      1  C4' PXY d   1       5.948  -4.807   1.973  0.00  0.00     0.077 C 
ATOM      2  C1' PXY d   1       5.940  -4.605  -3.804  0.00  0.00     0.077 C 
ATOM      3  C1  PXY d   1       5.938  -4.670  -2.289  0.00  0.00    -0.082 A 
ATOM      4  C2  PXY d   1       5.899  -3.550  -1.587  0.00  0.00     0.003 A 
ATOM      5  C3  PXY d   1       5.928  -3.589  -0.216  0.00  0.00     0.003 A 
ATOM      6  C4  PXY d   1       5.943  -4.790   0.442  0.00  0.00    -0.082 A 
ATOM      7  C5  PXY d   1       5.972  -5.937  -0.268  0.00  0.00     0.003 A 
ATOM      8  C6  PXY d   1       5.983  -5.875  -1.658  0.00  0.00     0.003 A 
ENDROOT
TORSDOF 0
ENDMDL
