MODEL 1
REMARK minimizedAffinity -1.97168422
REMARK minimizedRMSD -1
REMARK  0 active torsions:
REMARK  status: ('A' for Active; 'I' for Inactive)
ROOT
ATOM      1  C4' PXY d   1       5.998  -5.773   1.692  0.00  0.00     0.077 C 
ATOM      2  C1' PXY d   1       5.757  -1.920   5.994  0.00  0.00     0.077 C 
ATOM      3  C1  PXY d   1       5.816  -2.921   4.857  0.00  0.00    -0.082 A 
ATOM      4  C2  PXY d   1       5.756  -4.216   5.123  0.00  0.00     0.003 A 
ATOM      5  C3  PXY d   1       5.840  -5.136   4.110  0.00  0.00     0.003 A 
ATOM      6  C4  PXY d   1       5.932  -4.726   2.807  0.00  0.00    -0.082 A 
ATOM      7  C5  PXY d   1       5.983  -3.406   2.527  0.00  0.00     0.003 A 
ATOM      8  C6  PXY d   1       5.938  -2.489   3.573  0.00  0.00     0.003 A 
ENDROOT
TORSDOF 0
ENDMDL
