MODEL 1
REMARK minimizedAffinity -0.994304001
REMARK minimizedRMSD -1
REMARK  0 active torsions:
REMARK  status: ('A' for Active; 'I' for Inactive)
ROOT
ATOM      1  C4' PXY d   1       5.243  -5.999  -5.999  0.00  0.00     0.077 C 
ATOM      2  C1' PXY d   1       5.933  -2.920  -1.156  0.00  0.00     0.077 C 
ATOM      3  C1  PXY d   1       5.743  -3.719  -2.430  0.00  0.00    -0.082 A 
ATOM      4  C2  PXY d   1       6.000  -5.017  -2.433  0.00  0.00     0.003 A 
ATOM      5  C3  PXY d   1       5.865  -5.748  -3.585  0.00  0.00     0.003 A 
ATOM      6  C4  PXY d   1       5.411  -5.155  -4.733  0.00  0.00    -0.082 A 
ATOM      7  C5  PXY d   1       5.137  -3.833  -4.735  0.00  0.00     0.003 A 
ATOM      8  C6  PXY d   1       5.320  -3.101  -3.566  0.00  0.00     0.003 A 
ENDROOT
TORSDOF 0
ENDMDL
