MODEL 1
REMARK minimizedAffinity -1.00743008
REMARK minimizedRMSD -1
REMARK  0 active torsions:
REMARK  status: ('A' for Active; 'I' for Inactive)
ROOT
ATOM      1  C4' PXY d   1       5.999  -3.744   0.233  0.00  0.00     0.077 C 
ATOM      2  C1' PXY d   1       5.946  -3.316   5.997  0.00  0.00     0.077 C 
ATOM      3  C1  PXY d   1       5.955  -3.416   4.484  0.00  0.00    -0.082 A 
ATOM      4  C2  PXY d   1       5.929  -4.607   3.908  0.00  0.00     0.003 A 
ATOM      5  C3  PXY d   1       5.969  -4.717   2.541  0.00  0.00     0.003 A 
ATOM      6  C4  PXY d   1       5.982  -3.595   1.756  0.00  0.00    -0.082 A 
ATOM      7  C5  PXY d   1       5.997  -2.376   2.337  0.00  0.00     0.003 A 
ATOM      8  C6  PXY d   1       5.998  -2.287   3.726  0.00  0.00     0.003 A 
ENDROOT
TORSDOF 0
ENDMDL
