MODEL 1
REMARK minimizedAffinity 9.76871872
REMARK minimizedRMSD -1
REMARK  0 active torsions:
REMARK  status: ('A' for Active; 'I' for Inactive)
ROOT
ATOM      1  C4' PXY d   1       2.485  -3.754   1.586  0.00  0.00     0.077 C 
ATOM      2  C1' PXY d   1       6.000  -5.015   5.999  0.00  0.00     0.077 C 
ATOM      3  C1  PXY d   1       5.071  -4.695   4.845  0.00  0.00    -0.082 A 
ATOM      4  C2  PXY d   1       5.520  -3.990   3.819  0.00  0.00     0.003 A 
ATOM      5  C3  PXY d   1       4.685  -3.663   2.782  0.00  0.00     0.003 A 
ATOM      6  C4  PXY d   1       3.390  -4.109   2.769  0.00  0.00    -0.082 A 
ATOM      7  C5  PXY d   1       2.927  -4.838   3.806  0.00  0.00     0.003 A 
ATOM      8  C6  PXY d   1       3.780  -5.124   4.869  0.00  0.00     0.003 A 
ENDROOT
TORSDOF 0
ENDMDL
