MODEL 1
REMARK minimizedAffinity 0.224527061
REMARK minimizedRMSD -1
REMARK  0 active torsions:
REMARK  status: ('A' for Active; 'I' for Inactive)
ROOT
ATOM      1  C4' PXY d   1       5.995  -3.924   4.539  0.00  0.00     0.077 C 
ATOM      2  C1' PXY d   1       5.849  -3.419  -1.218  0.00  0.00     0.077 C 
ATOM      3  C1  PXY d   1       5.893  -3.540   0.292  0.00  0.00    -0.082 A 
ATOM      4  C2  PXY d   1       5.867  -4.738   0.854  0.00  0.00     0.003 A 
ATOM      5  C3  PXY d   1       5.874  -4.864   2.219  0.00  0.00     0.003 A 
ATOM      6  C4  PXY d   1       5.962  -3.754   3.017  0.00  0.00    -0.082 A 
ATOM      7  C5  PXY d   1       6.000  -2.529   2.451  0.00  0.00     0.003 A 
ATOM      8  C6  PXY d   1       5.951  -2.421   1.065  0.00  0.00     0.003 A 
ENDROOT
TORSDOF 0
ENDMDL
