MODEL 1
REMARK minimizedAffinity -0.0824599043
REMARK minimizedRMSD -1
REMARK  0 active torsions:
REMARK  status: ('A' for Active; 'I' for Inactive)
ROOT
ATOM      1  C4' PXY d   1       5.242  -2.265   5.999  0.00  0.00     0.077 C 
ATOM      2  C1' PXY d   1       5.999  -5.585   1.328  0.00  0.00     0.077 C 
ATOM      3  C1  PXY d   1       5.809  -4.706   2.548  0.00  0.00    -0.082 A 
ATOM      4  C2  PXY d   1       5.449  -5.251   3.698  0.00  0.00     0.003 A 
ATOM      5  C3  PXY d   1       5.241  -4.467   4.803  0.00  0.00     0.003 A 
ATOM      6  C4  PXY d   1       5.455  -3.116   4.744  0.00  0.00    -0.082 A 
ATOM      7  C5  PXY d   1       5.833  -2.553   3.577  0.00  0.00     0.003 A 
ATOM      8  C6  PXY d   1       5.999  -3.361   2.456  0.00  0.00     0.003 A 
ENDROOT
TORSDOF 0
ENDMDL
