MODEL 1
REMARK minimizedAffinity -2.9076004
REMARK minimizedRMSD -1
REMARK  0 active torsions:
REMARK  status: ('A' for Active; 'I' for Inactive)
ROOT
ATOM      1  C4' PXY d   1       5.998  -5.901   1.393  0.00  0.00     0.077 C 
ATOM      2  C1' PXY d   1       5.962  -2.407   5.998  0.00  0.00     0.077 C 
ATOM      3  C1  PXY d   1       5.966  -3.314   4.783  0.00  0.00    -0.082 A 
ATOM      4  C2  PXY d   1       5.946  -4.627   4.946  0.00  0.00     0.003 A 
ATOM      5  C3  PXY d   1       5.982  -5.461   3.859  0.00  0.00     0.003 A 
ATOM      6  C4  PXY d   1       5.985  -4.947   2.591  0.00  0.00    -0.082 A 
ATOM      7  C5  PXY d   1       5.995  -3.609   2.415  0.00  0.00     0.003 A 
ATOM      8  C6  PXY d   1       6.000  -2.778   3.532  0.00  0.00     0.003 A 
ENDROOT
TORSDOF 0
ENDMDL
