MODEL 1
REMARK minimizedAffinity -2.45673871
REMARK minimizedRMSD -1
REMARK  0 active torsions:
REMARK  status: ('A' for Active; 'I' for Inactive)
ROOT
ATOM      1  C4' PXY d   1       5.960  -3.555   3.083  0.00  0.00     0.077 C 
ATOM      2  C1' PXY d   1       6.000  -3.251  -2.689  0.00  0.00     0.077 C 
ATOM      3  C1  PXY d   1       5.995  -3.319  -1.175  0.00  0.00    -0.082 A 
ATOM      4  C2  PXY d   1       5.998  -4.497  -0.573  0.00  0.00     0.003 A 
ATOM      5  C3  PXY d   1       5.961  -4.577   0.796  0.00  0.00     0.003 A 
ATOM      6  C4  PXY d   1       5.975  -3.438   1.556  0.00  0.00    -0.082 A 
ATOM      7  C5  PXY d   1       5.983  -2.232   0.950  0.00  0.00     0.003 A 
ATOM      8  C6  PXY d   1       5.979  -2.173  -0.441  0.00  0.00     0.003 A 
ENDROOT
TORSDOF 0
ENDMDL
