MODEL 1
REMARK minimizedAffinity -0.535670996
REMARK minimizedRMSD -1
REMARK  0 active torsions:
REMARK  status: ('A' for Active; 'I' for Inactive)
ROOT
ATOM      1  C4' PXY d   1       5.813  -3.887  -5.766  0.00  0.00     0.077 C 
ATOM      2  C1' PXY d   1       5.998  -5.477  -0.212  0.00  0.00     0.077 C 
ATOM      3  C1  PXY d   1       5.944  -5.049  -1.665  0.00  0.00    -0.082 A 
ATOM      4  C2  PXY d   1       5.998  -5.964  -2.619  0.00  0.00     0.003 A 
ATOM      5  C3  PXY d   1       5.982  -5.592  -3.939  0.00  0.00     0.003 A 
ATOM      6  C4  PXY d   1       5.855  -4.274  -4.286  0.00  0.00    -0.082 A 
ATOM      7  C5  PXY d   1       5.789  -3.335  -3.318  0.00  0.00     0.003 A 
ATOM      8  C6  PXY d   1       5.848  -3.730  -1.985  0.00  0.00     0.003 A 
ENDROOT
TORSDOF 0
ENDMDL
