MODEL 1
REMARK minimizedAffinity -1.52746677
REMARK minimizedRMSD -1
REMARK  0 active torsions:
REMARK  status: ('A' for Active; 'I' for Inactive)
ROOT
ATOM      1  C4' PXY d   1       5.983  -5.986  -5.725  0.00  0.00     0.077 C 
ATOM      2  C1' PXY d   1       3.392  -2.917  -1.568  0.00  0.00     0.077 C 
ATOM      3  C1  PXY d   1       4.061  -3.730  -2.659  0.00  0.00    -0.082 A 
ATOM      4  C2  PXY d   1       5.380  -3.722  -2.765  0.00  0.00     0.003 A 
ATOM      5  C3  PXY d   1       6.000  -4.426  -3.765  0.00  0.00     0.003 A 
ATOM      6  C4  PXY d   1       5.265  -5.188  -4.634  0.00  0.00    -0.082 A 
ATOM      7  C5  PXY d   1       3.920  -5.210  -4.525  0.00  0.00     0.003 A 
ATOM      8  C6  PXY d   1       3.307  -4.456  -3.529  0.00  0.00     0.003 A 
ENDROOT
TORSDOF 0
ENDMDL
