MODEL 1
REMARK minimizedAffinity -2.63437223
REMARK minimizedRMSD -1
REMARK  0 active torsions:
REMARK  status: ('A' for Active; 'I' for Inactive)
ROOT
ATOM      1  C4' PXY d   1       5.994  -4.507   0.662  0.00  0.00     0.077 C 
ATOM      2  C1' PXY d   1       5.002  -2.482   5.985  0.00  0.00     0.077 C 
ATOM      3  C1  PXY d   1       5.263  -3.025   4.594  0.00  0.00    -0.082 A 
ATOM      4  C2  PXY d   1       5.783  -2.234   3.669  0.00  0.00     0.003 A 
ATOM      5  C3  PXY d   1       5.995  -2.700   2.397  0.00  0.00     0.003 A 
ATOM      6  C4  PXY d   1       5.723  -4.004   2.083  0.00  0.00    -0.082 A 
ATOM      7  C5  PXY d   1       5.202  -4.821   3.023  0.00  0.00     0.003 A 
ATOM      8  C6  PXY d   1       4.955  -4.317   4.297  0.00  0.00     0.003 A 
ENDROOT
TORSDOF 0
ENDMDL
