MODEL 1
REMARK minimizedAffinity 5.37627697
REMARK minimizedRMSD -1
REMARK  0 active torsions:
REMARK  status: ('A' for Active; 'I' for Inactive)
ROOT
ATOM      1  C4' PXY d   1       5.478  -1.563   1.461  0.00  0.00     0.077 C 
ATOM      2  C1' PXY d   1       4.130  -4.878   6.000  0.00  0.00     0.077 C 
ATOM      3  C1  PXY d   1       4.474  -4.015   4.802  0.00  0.00    -0.082 A 
ATOM      4  C2  PXY d   1       5.681  -3.481   4.706  0.00  0.00     0.003 A 
ATOM      5  C3  PXY d   1       5.999  -2.672   3.646  0.00  0.00     0.003 A 
ATOM      6  C4  PXY d   1       5.090  -2.449   2.647  0.00  0.00    -0.082 A 
ATOM      7  C5  PXY d   1       3.860  -2.998   2.733  0.00  0.00     0.003 A 
ATOM      8  C6  PXY d   1       3.543  -3.784   3.838  0.00  0.00     0.003 A 
ENDROOT
TORSDOF 0
ENDMDL
