MODEL 1
REMARK minimizedAffinity 2.27712154
REMARK minimizedRMSD -1
REMARK  0 active torsions:
REMARK  status: ('A' for Active; 'I' for Inactive)
ROOT
ATOM      1  C4' PXY d   1       5.973  -3.603   0.890  0.00  0.00     0.077 C 
ATOM      2  C1' PXY d   1       3.487  -4.669   5.999  0.00  0.00     0.077 C 
ATOM      3  C1  PXY d   1       4.130  -4.397   4.653  0.00  0.00    -0.082 A 
ATOM      4  C2  PXY d   1       5.411  -4.069   4.595  0.00  0.00     0.003 A 
ATOM      5  C3  PXY d   1       6.000  -3.788   3.389  0.00  0.00     0.003 A 
ATOM      6  C4  PXY d   1       5.285  -3.896   2.226  0.00  0.00    -0.082 A 
ATOM      7  C5  PXY d   1       3.980  -4.240   2.277  0.00  0.00     0.003 A 
ATOM      8  C6  PXY d   1       3.390  -4.481   3.515  0.00  0.00     0.003 A 
ENDROOT
TORSDOF 0
ENDMDL
