MODEL 1
REMARK minimizedAffinity 4.60864878
REMARK minimizedRMSD -1
REMARK  0 active torsions:
REMARK  status: ('A' for Active; 'I' for Inactive)
ROOT
ATOM      1  C4' PXY d   1       6.000  -3.875   1.398  0.00  0.00     0.077 C 
ATOM      2  C1' PXY d   1       5.979  -4.634  -4.332  0.00  0.00     0.077 C 
ATOM      3  C1  PXY d   1       5.990  -4.423  -2.831  0.00  0.00    -0.082 A 
ATOM      4  C2  PXY d   1       6.000  -5.471  -2.023  0.00  0.00     0.003 A 
ATOM      5  C3  PXY d   1       5.977  -5.299  -0.663  0.00  0.00     0.003 A 
ATOM      6  C4  PXY d   1       5.998  -4.040  -0.124  0.00  0.00    -0.082 A 
ATOM      7  C5  PXY d   1       5.999  -2.966  -0.941  0.00  0.00     0.003 A 
ATOM      8  C6  PXY d   1       5.980  -3.162  -2.319  0.00  0.00     0.003 A 
ENDROOT
TORSDOF 0
ENDMDL
