MODEL 1
REMARK minimizedAffinity -3.92466426
REMARK minimizedRMSD -1
REMARK  0 active torsions:
REMARK  status: ('A' for Active; 'I' for Inactive)
ROOT
ATOM      1  C4' PXY d   1       5.193  -4.584  -1.011  0.00  0.00     0.077 C 
ATOM      2  C1' PXY d   1       5.297  -4.757   4.766  0.00  0.00     0.077 C 
ATOM      3  C1  PXY d   1       5.281  -4.717   3.251  0.00  0.00    -0.082 A 
ATOM      4  C2  PXY d   1       4.559  -3.801   2.628  0.00  0.00     0.003 A 
ATOM      5  C3  PXY d   1       4.508  -3.771   1.258  0.00  0.00     0.003 A 
ATOM      6  C4  PXY d   1       5.246  -4.655   0.518  0.00  0.00    -0.082 A 
ATOM      7  C5  PXY d   1       5.994  -5.587   1.146  0.00  0.00     0.003 A 
ATOM      8  C6  PXY d   1       6.000  -5.626   2.537  0.00  0.00     0.003 A 
ENDROOT
TORSDOF 0
ENDMDL
