MODEL 1
REMARK minimizedAffinity -3.94102311
REMARK minimizedRMSD -1
REMARK  0 active torsions:
REMARK  status: ('A' for Active; 'I' for Inactive)
ROOT
ATOM      1  C4' PXY d   1       5.483  -2.634   5.162  0.00  0.00     0.077 C 
ATOM      2  C1' PXY d   1       5.995  -4.866  -0.146  0.00  0.00     0.077 C 
ATOM      3  C1  PXY d   1       5.854  -4.291   1.250  0.00  0.00    -0.082 A 
ATOM      4  C2  PXY d   1       6.000  -2.989   1.439  0.00  0.00     0.003 A 
ATOM      5  C3  PXY d   1       5.907  -2.457   2.699  0.00  0.00     0.003 A 
ATOM      6  C4  PXY d   1       5.608  -3.257   3.769  0.00  0.00    -0.082 A 
ATOM      7  C5  PXY d   1       5.447  -4.584   3.583  0.00  0.00     0.003 A 
ATOM      8  C6  PXY d   1       5.587  -5.111   2.302  0.00  0.00     0.003 A 
ENDROOT
TORSDOF 0
ENDMDL
