MODEL 1
REMARK minimizedAffinity 19.6420002
REMARK minimizedRMSD -1
REMARK  0 active torsions:
REMARK  status: ('A' for Active; 'I' for Inactive)
ROOT
ATOM      1  C   UNL d   1       0.469   1.091  -0.042  0.00  0.00     0.124 A 
ATOM      2  C1  UNL d   1       0.221   1.758   1.149  0.00  0.00     0.062 A 
ATOM      3  C2  UNL d   1       0.624   1.202   2.360  0.00  0.00     0.162 A 
ATOM      4  C3  UNL d   1       1.280  -0.029   2.385  0.00  0.00    -0.034 A 
ATOM      5  C4  UNL d   1       1.525  -0.694   1.183  0.00  0.00     0.162 A 
ATOM      6  C5  UNL d   1       1.120  -0.134  -0.025  0.00  0.00     0.062 A 
ATOM      7  F   UNL d   1       1.360  -0.780  -1.175  0.00  0.00    -0.097 F 
ATOM      8  F1  UNL d   1       2.154  -1.879   1.171  0.00  0.00    -0.096 F 
ATOM      9  I   UNL d   1       1.885  -0.864   4.193  0.00  0.00    -0.060 I 
ATOM     10  F2  UNL d   1       0.372   1.869   3.496  0.00  0.00    -0.096 F 
ATOM     11  F3  UNL d   1      -0.409   2.942   1.135  0.00  0.00    -0.097 F 
ATOM     12  F4  UNL d   1       0.079   1.628  -1.205  0.00  0.00    -0.092 F 
ENDROOT
TORSDOF 0
ENDMDL
