MODEL 1
REMARK minimizedAffinity 6.07391071
REMARK minimizedRMSD -1
REMARK  0 active torsions:
REMARK  status: ('A' for Active; 'I' for Inactive)
ROOT
ATOM      1  C   UNL d   1      -1.005  -2.811  -3.650  0.00  0.00     0.124 A 
ATOM      2  C1  UNL d   1      -0.793  -2.615  -2.292  0.00  0.00     0.062 A 
ATOM      3  C2  UNL d   1      -0.890  -1.339  -1.745  0.00  0.00     0.162 A 
ATOM      4  C3  UNL d   1      -1.201  -0.248  -2.557  0.00  0.00    -0.034 A 
ATOM      5  C4  UNL d   1      -1.412  -0.452  -3.921  0.00  0.00     0.162 A 
ATOM      6  C5  UNL d   1      -1.314  -1.730  -4.463  0.00  0.00     0.062 A 
ATOM      7  F   UNL d   1      -1.518  -1.917  -5.775  0.00  0.00    -0.097 F 
ATOM      8  F1  UNL d   1      -1.713   0.575  -4.730  0.00  0.00    -0.096 F 
ATOM      9  I   UNL d   1      -1.348   1.662  -1.743  0.00  0.00    -0.060 I 
ATOM     10  F2  UNL d   1      -0.681  -1.179  -0.430  0.00  0.00    -0.096 F 
ATOM     11  F3  UNL d   1      -0.494  -3.658  -1.504  0.00  0.00    -0.097 F 
ATOM     12  F4  UNL d   1      -0.910  -4.040  -4.173  0.00  0.00    -0.092 F 
ENDROOT
TORSDOF 0
ENDMDL
