MODEL 1
REMARK minimizedAffinity 19.9833832
REMARK minimizedRMSD -1
REMARK  0 active torsions:
REMARK  status: ('A' for Active; 'I' for Inactive)
ROOT
ATOM      1  C   UNL d   1       0.407  -2.806  -1.314  0.00  0.00     0.124 A 
ATOM      2  C1  UNL d   1       1.315  -1.815  -0.966  0.00  0.00     0.062 A 
ATOM      3  C2  UNL d   1       2.671  -2.111  -0.870  0.00  0.00     0.162 A 
ATOM      4  C3  UNL d   1       3.129  -3.405  -1.122  0.00  0.00    -0.034 A 
ATOM      5  C4  UNL d   1       2.210  -4.396  -1.470  0.00  0.00     0.162 A 
ATOM      6  C5  UNL d   1       0.855  -4.095  -1.565  0.00  0.00     0.062 A 
ATOM      7  F   UNL d   1      -0.020  -5.053  -1.901  0.00  0.00    -0.097 F 
ATOM      8  F1  UNL d   1       2.616  -5.650  -1.719  0.00  0.00    -0.096 F 
ATOM      9  I   UNL d   1       5.157  -3.852  -0.979  0.00  0.00    -0.060 I 
ATOM     10  F2  UNL d   1       3.526  -1.134  -0.532  0.00  0.00    -0.096 F 
ATOM     11  F3  UNL d   1       0.884  -0.569  -0.722  0.00  0.00    -0.097 F 
ATOM     12  F4  UNL d   1      -0.898  -2.518  -1.405  0.00  0.00    -0.092 F 
ENDROOT
TORSDOF 0
ENDMDL
