MODEL 1
REMARK minimizedAffinity 21.8026695
REMARK minimizedRMSD -1
REMARK  0 active torsions:
REMARK  status: ('A' for Active; 'I' for Inactive)
ROOT
ATOM      1  C   UNL d   1      -1.870   3.855   0.212  0.00  0.00     0.124 A 
ATOM      2  C1  UNL d   1      -2.420   4.738  -0.707  0.00  0.00     0.062 A 
ATOM      3  C2  UNL d   1      -1.681   5.146  -1.814  0.00  0.00     0.162 A 
ATOM      4  C3  UNL d   1      -0.384   4.671  -2.008  0.00  0.00    -0.034 A 
ATOM      5  C4  UNL d   1       0.163   3.785  -1.078  0.00  0.00     0.162 A 
ATOM      6  C5  UNL d   1      -0.580   3.380   0.026  0.00  0.00     0.062 A 
ATOM      7  F   UNL d   1      -0.047   2.527   0.914  0.00  0.00    -0.097 F 
ATOM      8  F1  UNL d   1       1.407   3.309  -1.234  0.00  0.00    -0.096 F 
ATOM      9  I   UNL d   1       0.724   5.279  -3.661  0.00  0.00    -0.060 I 
ATOM     10  F2  UNL d   1      -2.238   5.999  -2.686  0.00  0.00    -0.096 F 
ATOM     11  F3  UNL d   1      -3.666   5.199  -0.529  0.00  0.00    -0.097 F 
ATOM     12  F4  UNL d   1      -2.583   3.465   1.277  0.00  0.00    -0.092 F 
ENDROOT
TORSDOF 0
ENDMDL
