MODEL 1
REMARK minimizedAffinity 12.3330212
REMARK minimizedRMSD -1
REMARK  0 active torsions:
REMARK  status: ('A' for Active; 'I' for Inactive)
ROOT
ATOM      1  C   UNL d   1       1.008   2.423   3.080  0.00  0.00     0.124 A 
ATOM      2  C1  UNL d   1       2.028   3.022   2.354  0.00  0.00     0.062 A 
ATOM      3  C2  UNL d   1       1.821   3.386   1.026  0.00  0.00     0.162 A 
ATOM      4  C3  UNL d   1       0.588   3.153   0.416  0.00  0.00    -0.034 A 
ATOM      5  C4  UNL d   1      -0.433   2.550   1.153  0.00  0.00     0.162 A 
ATOM      6  C5  UNL d   1      -0.221   2.188   2.479  0.00  0.00     0.062 A 
ATOM      7  F   UNL d   1      -1.208   1.609   3.180  0.00  0.00    -0.097 F 
ATOM      8  F1  UNL d   1      -1.630   2.312   0.598  0.00  0.00    -0.096 F 
ATOM      9  I   UNL d   1       0.275   3.697  -1.568  0.00  0.00    -0.060 I 
ATOM     10  F2  UNL d   1       2.824   3.963   0.349  0.00  0.00    -0.096 F 
ATOM     11  F3  UNL d   1       3.216   3.249   2.932  0.00  0.00    -0.097 F 
ATOM     12  F4  UNL d   1       1.209   2.072   4.357  0.00  0.00    -0.092 F 
ENDROOT
TORSDOF 0
ENDMDL
