MODEL 1
REMARK minimizedAffinity 13.0147581
REMARK minimizedRMSD -1
REMARK  0 active torsions:
REMARK  status: ('A' for Active; 'I' for Inactive)
ROOT
ATOM      1  C   UNL d   1      -0.657   4.101  -0.370  0.00  0.00     0.124 A 
ATOM      2  C1  UNL d   1      -1.610   4.339  -1.351  0.00  0.00     0.062 A 
ATOM      3  C2  UNL d   1      -1.232   4.881  -2.576  0.00  0.00     0.162 A 
ATOM      4  C3  UNL d   1       0.105   5.189  -2.827  0.00  0.00    -0.034 A 
ATOM      5  C4  UNL d   1       1.057   4.948  -1.835  0.00  0.00     0.162 A 
ATOM      6  C5  UNL d   1       0.674   4.406  -0.612  0.00  0.00     0.062 A 
ATOM      7  F   UNL d   1       1.596   4.178   0.335  0.00  0.00    -0.097 F 
ATOM      8  F1  UNL d   1       2.351   5.233  -2.043  0.00  0.00    -0.096 F 
ATOM      9  I   UNL d   1       0.674   6.000  -4.658  0.00  0.00    -0.060 I 
ATOM     10  F2  UNL d   1      -2.173   5.100  -3.506  0.00  0.00    -0.096 F 
ATOM     11  F3  UNL d   1      -2.897   4.046  -1.119  0.00  0.00    -0.097 F 
ATOM     12  F4  UNL d   1      -1.024   3.580   0.808  0.00  0.00    -0.092 F 
ENDROOT
TORSDOF 0
ENDMDL
