MODEL 1
REMARK minimizedAffinity 9.08978462
REMARK minimizedRMSD -1
REMARK  0 active torsions:
REMARK  status: ('A' for Active; 'I' for Inactive)
ROOT
ATOM      1  C   UNL d   1       0.752   4.326  -0.698  0.00  0.00     0.124 A 
ATOM      2  C1  UNL d   1       0.043   3.343  -0.022  0.00  0.00     0.062 A 
ATOM      3  C2  UNL d   1      -1.283   3.080  -0.356  0.00  0.00     0.162 A 
ATOM      4  C3  UNL d   1      -1.908   3.802  -1.373  0.00  0.00    -0.034 A 
ATOM      5  C4  UNL d   1      -1.189   4.790  -2.048  0.00  0.00     0.162 A 
ATOM      6  C5  UNL d   1       0.136   5.048  -1.710  0.00  0.00     0.062 A 
ATOM      7  F   UNL d   1       0.819   5.999  -2.365  0.00  0.00    -0.097 F 
ATOM      8  F1  UNL d   1      -1.759   5.502  -3.031  0.00  0.00    -0.096 F 
ATOM      9  I   UNL d   1      -3.890   3.412  -1.876  0.00  0.00    -0.060 I 
ATOM     10  F2  UNL d   1      -1.943   2.124   0.314  0.00  0.00    -0.096 F 
ATOM     11  F3  UNL d   1       0.636   2.644   0.957  0.00  0.00    -0.097 F 
ATOM     12  F4  UNL d   1       2.027   4.577  -0.374  0.00  0.00    -0.092 F 
ENDROOT
TORSDOF 0
ENDMDL
