MODEL 1
REMARK minimizedAffinity 8.76095486
REMARK minimizedRMSD -1
REMARK  0 active torsions:
REMARK  status: ('A' for Active; 'I' for Inactive)
ROOT
ATOM      1  C   UNL d   1       0.342  -2.896  -0.902  0.00  0.00     0.124 A 
ATOM      2  C1  UNL d   1       0.640  -4.187  -1.318  0.00  0.00     0.062 A 
ATOM      3  C2  UNL d   1       1.961  -4.621  -1.363  0.00  0.00     0.162 A 
ATOM      4  C3  UNL d   1       2.996  -3.764  -0.989  0.00  0.00    -0.034 A 
ATOM      5  C4  UNL d   1       2.690  -2.467  -0.573  0.00  0.00     0.162 A 
ATOM      6  C5  UNL d   1       1.367  -2.038  -0.530  0.00  0.00     0.062 A 
ATOM      7  F   UNL d   1       1.082  -0.791  -0.128  0.00  0.00    -0.097 F 
ATOM      8  F1  UNL d   1       3.661  -1.617  -0.207  0.00  0.00    -0.096 F 
ATOM      9  I   UNL d   1       4.974  -4.410  -1.054  0.00  0.00    -0.060 I 
ATOM     10  F2  UNL d   1       2.219  -5.873  -1.768  0.00  0.00    -0.096 F 
ATOM     11  F3  UNL d   1      -0.349  -5.018  -1.679  0.00  0.00    -0.097 F 
ATOM     12  F4  UNL d   1      -0.930  -2.481  -0.861  0.00  0.00    -0.092 F 
ENDROOT
TORSDOF 0
ENDMDL
