MODEL 1
REMARK minimizedAffinity 16.0581303
REMARK minimizedRMSD -1
REMARK  0 active torsions:
REMARK  status: ('A' for Active; 'I' for Inactive)
ROOT
ATOM      1  C   UNL d   1       1.077   2.158   3.478  0.00  0.00     0.124 A 
ATOM      2  C1  UNL d   1      -0.232   1.996   3.045  0.00  0.00     0.062 A 
ATOM      3  C2  UNL d   1      -0.619   2.467   1.794  0.00  0.00     0.162 A 
ATOM      4  C3  UNL d   1       0.304   3.104   0.965  0.00  0.00    -0.034 A 
ATOM      5  C4  UNL d   1       1.618   3.265   1.407  0.00  0.00     0.162 A 
ATOM      6  C5  UNL d   1       2.001   2.792   2.659  0.00  0.00     0.062 A 
ATOM      7  F   UNL d   1       3.266   2.950   3.075  0.00  0.00    -0.097 F 
ATOM      8  F1  UNL d   1       2.532   3.873   0.636  0.00  0.00    -0.096 F 
ATOM      9  I   UNL d   1      -0.271   3.809  -0.906  0.00  0.00    -0.060 I 
ATOM     10  F2  UNL d   1      -1.891   2.296   1.402  0.00  0.00    -0.096 F 
ATOM     11  F3  UNL d   1      -1.126   1.385   3.835  0.00  0.00    -0.097 F 
ATOM     12  F4  UNL d   1       1.447   1.705   4.683  0.00  0.00    -0.092 F 
ENDROOT
TORSDOF 0
ENDMDL
