MODEL 1
REMARK minimizedAffinity -1.68932271
REMARK minimizedRMSD -1
REMARK  0 active torsions:
REMARK  status: ('A' for Active; 'I' for Inactive)
ROOT
ATOM      1  C   UNL d   1       2.821  -1.747   0.667  0.00  0.00     0.023 A 
ATOM      2  C1  UNL d   1       2.245  -0.938   1.647  0.00  0.00     0.003 A 
ATOM      3  C2  UNL d   1       1.091  -0.206   1.360  0.00  0.00     0.048 A 
ATOM      4  C3  UNL d   1       0.518  -0.287   0.092  0.00  0.00     0.023 A 
ATOM      5  C4  UNL d   1       1.090  -1.096  -0.892  0.00  0.00     0.048 A 
ATOM      6  C5  UNL d   1       2.244  -1.826  -0.601  0.00  0.00     0.003 A 
ATOM      7  I   UNL d   1      -1.200   0.802  -0.337  0.00  0.00    -0.146 I 
ENDROOT
TORSDOF 0
ENDMDL
