MODEL 1
REMARK minimizedAffinity -4.52490568
REMARK minimizedRMSD -1
REMARK  0 active torsions:
REMARK  status: ('A' for Active; 'I' for Inactive)
ROOT
ATOM      1  C   UNL d   1       2.574  -1.125   0.750  0.00  0.00     0.023 A 
ATOM      2  C1  UNL d   1       1.626  -1.823   0.002  0.00  0.00     0.003 A 
ATOM      3  C2  UNL d   1       0.351  -1.286  -0.187  0.00  0.00     0.048 A 
ATOM      4  C3  UNL d   1       0.031  -0.051   0.375  0.00  0.00     0.023 A 
ATOM      5  C4  UNL d   1       0.976   0.651   1.124  0.00  0.00     0.048 A 
ATOM      6  C5  UNL d   1       2.250   0.111   1.310  0.00  0.00     0.003 A 
ATOM      7  I   UNL d   1      -1.867   0.750   0.096  0.00  0.00    -0.146 I 
ENDROOT
TORSDOF 0
ENDMDL
