MODEL 1
REMARK minimizedAffinity -2.32012296
REMARK minimizedRMSD -1
REMARK  0 active torsions:
REMARK  status: ('A' for Active; 'I' for Inactive)
ROOT
ATOM      1  C   UNL d   1       2.505  -1.590   0.360  0.00  0.00     0.023 A 
ATOM      2  C1  UNL d   1       1.550  -1.987  -0.577  0.00  0.00     0.003 A 
ATOM      3  C2  UNL d   1       0.280  -1.406  -0.570  0.00  0.00     0.048 A 
ATOM      4  C3  UNL d   1      -0.028  -0.429   0.376  0.00  0.00     0.023 A 
ATOM      5  C4  UNL d   1       0.925  -0.028   1.314  0.00  0.00     0.048 A 
ATOM      6  C5  UNL d   1       2.193  -0.612   1.304  0.00  0.00     0.003 A 
ATOM      7  I   UNL d   1      -1.917   0.438   0.388  0.00  0.00    -0.146 I 
ENDROOT
TORSDOF 0
ENDMDL
