MODEL 1
REMARK minimizedAffinity -4.07514381
REMARK minimizedRMSD -1
REMARK  0 active torsions:
REMARK  status: ('A' for Active; 'I' for Inactive)
ROOT
ATOM      1  C   UNL d   1       3.717  -0.683   0.048  0.00  0.00     0.023 A 
ATOM      2  C1  UNL d   1       2.712  -1.650   0.046  0.00  0.00     0.003 A 
ATOM      3  C2  UNL d   1       1.372  -1.265  -0.036  0.00  0.00     0.048 A 
ATOM      4  C3  UNL d   1       1.045   0.088  -0.116  0.00  0.00     0.023 A 
ATOM      5  C4  UNL d   1       2.047   1.059  -0.116  0.00  0.00     0.048 A 
ATOM      6  C5  UNL d   1       3.386   0.670  -0.033  0.00  0.00     0.003 A 
ATOM      7  I   UNL d   1      -0.949   0.662  -0.239  0.00  0.00    -0.146 I 
ENDROOT
TORSDOF 0
ENDMDL
