MODEL 1
REMARK minimizedAffinity -3.48162293
REMARK minimizedRMSD -1
REMARK  0 active torsions:
REMARK  status: ('A' for Active; 'I' for Inactive)
ROOT
ATOM      1  C   UNL d   1       2.598  -2.164   0.268  0.00  0.00     0.023 A 
ATOM      2  C1  UNL d   1       1.547  -2.538  -0.570  0.00  0.00     0.003 A 
ATOM      3  C2  UNL d   1       0.441  -1.699  -0.722  0.00  0.00     0.048 A 
ATOM      4  C3  UNL d   1       0.393  -0.487  -0.035  0.00  0.00     0.023 A 
ATOM      5  C4  UNL d   1       1.443  -0.108   0.804  0.00  0.00     0.048 A 
ATOM      6  C5  UNL d   1       2.546  -0.950   0.954  0.00  0.00     0.003 A 
ATOM      7  I   UNL d   1      -1.252   0.763  -0.260  0.00  0.00    -0.146 I 
ENDROOT
TORSDOF 0
ENDMDL
