MODEL 1
REMARK minimizedAffinity -2.12642884
REMARK minimizedRMSD -1
REMARK  0 active torsions:
REMARK  status: ('A' for Active; 'I' for Inactive)
ROOT
ATOM      1  C   UNL d   1       2.197  -1.624   0.179  0.00  0.00     0.023 A 
ATOM      2  C1  UNL d   1       1.738  -0.865   1.255  0.00  0.00     0.003 A 
ATOM      3  C2  UNL d   1       0.491  -0.239   1.188  0.00  0.00     0.048 A 
ATOM      4  C3  UNL d   1      -0.291  -0.378   0.042  0.00  0.00     0.023 A 
ATOM      5  C4  UNL d   1       0.164  -1.137  -1.037  0.00  0.00     0.048 A 
ATOM      6  C5  UNL d   1       1.412  -1.760  -0.966  0.00  0.00     0.003 A 
ATOM      7  I   UNL d   1      -2.147   0.552  -0.060  0.00  0.00    -0.146 I 
ENDROOT
TORSDOF 0
ENDMDL
