MODEL 1
REMARK minimizedAffinity -4.27744627
REMARK minimizedRMSD -1
REMARK  0 active torsions:
REMARK  status: ('A' for Active; 'I' for Inactive)
ROOT
ATOM      1  C   UNL d   1       2.969  -0.679   0.474  0.00  0.00     0.023 A 
ATOM      2  C1  UNL d   1       2.704   0.670   0.711  0.00  0.00     0.003 A 
ATOM      3  C2  UNL d   1       1.422   1.180   0.497  0.00  0.00     0.048 A 
ATOM      4  C3  UNL d   1       0.408   0.334   0.046  0.00  0.00     0.023 A 
ATOM      5  C4  UNL d   1       0.668  -1.016  -0.192  0.00  0.00     0.048 A 
ATOM      6  C5  UNL d   1       1.952  -1.521   0.023  0.00  0.00     0.003 A 
ATOM      7  I   UNL d   1      -1.501   1.090  -0.273  0.00  0.00    -0.146 I 
ENDROOT
TORSDOF 0
ENDMDL
