MODEL 1
REMARK minimizedAffinity -2.2974112
REMARK minimizedRMSD -1
REMARK  0 active torsions:
REMARK  status: ('A' for Active; 'I' for Inactive)
ROOT
ATOM      1  C   UNL d   1       2.516  -1.098   0.593  0.00  0.00     0.023 A 
ATOM      2  C1  UNL d   1       1.604  -1.978   0.011  0.00  0.00     0.003 A 
ATOM      3  C2  UNL d   1       0.335  -1.527  -0.358  0.00  0.00     0.048 A 
ATOM      4  C3  UNL d   1      -0.015  -0.195  -0.143  0.00  0.00     0.023 A 
ATOM      5  C4  UNL d   1       0.895   0.690   0.439  0.00  0.00     0.048 A 
ATOM      6  C5  UNL d   1       2.162   0.234   0.807  0.00  0.00     0.003 A 
ATOM      7  I   UNL d   1      -1.903   0.478  -0.691  0.00  0.00    -0.146 I 
ENDROOT
TORSDOF 0
ENDMDL
