MODEL 1
REMARK minimizedAffinity -1.89556563
REMARK minimizedRMSD -1
REMARK  0 active torsions:
REMARK  status: ('A' for Active; 'I' for Inactive)
ROOT
ATOM      1  C   UNL d   1      -5.130   1.226  -2.477  0.00  0.00     0.020 A 
ATOM      2  C1  UNL d   1      -3.808   1.659  -2.568  0.00  0.00     0.020 A 
ATOM      3  C2  UNL d   1      -3.139   2.102  -1.425  0.00  0.00     0.034 A 
ATOM      4  C3  UNL d   1      -3.791   2.113  -0.187  0.00  0.00     0.017 A 
ATOM      5  C4  UNL d   1      -5.118   1.677  -0.097  0.00  0.00     0.017 A 
ATOM      6  C5  UNL d   1      -5.784   1.235  -1.245  0.00  0.00     0.034 A 
ATOM      7 Cl   UNL d   1      -5.990   1.661   1.396  0.00  0.00    -0.070 Cl
ATOM      8 Cl1  UNL d   1      -2.903   2.673   1.185  0.00  0.00    -0.070 Cl
ENDROOT
TORSDOF 0
ENDMDL
