MODEL 1
REMARK minimizedAffinity 2.76270175
REMARK minimizedRMSD -1
REMARK  0 active torsions:
REMARK  status: ('A' for Active; 'I' for Inactive)
ROOT
ATOM      1  C   UNL d   1      -2.499   1.001   0.423  0.00  0.00     0.020 A 
ATOM      2  C1  UNL d   1      -3.049   2.232   0.067  0.00  0.00     0.020 A 
ATOM      3  C2  UNL d   1      -3.450   2.462  -1.251  0.00  0.00     0.034 A 
ATOM      4  C3  UNL d   1      -3.302   1.461  -2.217  0.00  0.00     0.017 A 
ATOM      5  C4  UNL d   1      -2.750   0.226  -1.859  0.00  0.00     0.017 A 
ATOM      6  C5  UNL d   1      -2.350  -0.000  -0.538  0.00  0.00     0.034 A 
ATOM      7 Cl   UNL d   1      -2.537  -1.059  -2.996  0.00  0.00    -0.070 Cl
ATOM      8 Cl1  UNL d   1      -3.821   1.815  -3.827  0.00  0.00    -0.070 Cl
ENDROOT
TORSDOF 0
ENDMDL
