MODEL 1
REMARK minimizedAffinity 2.06506133
REMARK minimizedRMSD -1
REMARK  0 active torsions:
REMARK  status: ('A' for Active; 'I' for Inactive)
ROOT
ATOM      1  C   UNL d   1       5.141  -5.943  -1.897  0.00  0.00     0.020 A 
ATOM      2  C1  UNL d   1       3.757  -5.941  -1.736  0.00  0.00     0.020 A 
ATOM      3  C2  UNL d   1       2.923  -5.958  -2.856  0.00  0.00     0.034 A 
ATOM      4  C3  UNL d   1       3.474  -5.976  -4.143  0.00  0.00     0.017 A 
ATOM      5  C4  UNL d   1       4.864  -5.978  -4.304  0.00  0.00     0.017 A 
ATOM      6  C5  UNL d   1       5.694  -5.961  -3.179  0.00  0.00     0.034 A 
ATOM      7 Cl   UNL d   1       5.617  -6.000  -5.860  0.00  0.00    -0.070 Cl
ATOM      8 Cl1  UNL d   1       2.383  -5.996  -5.483  0.00  0.00    -0.070 Cl
ENDROOT
TORSDOF 0
ENDMDL
