MODEL 1
REMARK minimizedAffinity -1.13545001
REMARK minimizedRMSD -1
REMARK  0 active torsions:
REMARK  status: ('A' for Active; 'I' for Inactive)
ROOT
ATOM      1  C   UNL d   1       4.995  -5.966  -1.145  0.00  0.00     0.020 A 
ATOM      2  C1  UNL d   1       3.601  -5.966  -1.171  0.00  0.00     0.020 A 
ATOM      3  C2  UNL d   1       2.926  -5.976  -2.393  0.00  0.00     0.034 A 
ATOM      4  C3  UNL d   1       3.644  -5.987  -3.594  0.00  0.00     0.017 A 
ATOM      5  C4  UNL d   1       5.043  -5.987  -3.567  0.00  0.00     0.017 A 
ATOM      6  C5  UNL d   1       5.715  -5.977  -2.341  0.00  0.00     0.034 A 
ATOM      7 Cl   UNL d   1       5.998  -6.000  -5.008  0.00  0.00    -0.070 Cl
ATOM      8 Cl1  UNL d   1       2.743  -5.999  -5.069  0.00  0.00    -0.070 Cl
ENDROOT
TORSDOF 0
ENDMDL
