MODEL 1
REMARK minimizedAffinity 7.36304998
REMARK minimizedRMSD -1
REMARK  0 active torsions:
REMARK  status: ('A' for Active; 'I' for Inactive)
ROOT
ATOM      1  C   UNL d   1       2.376  -3.642   2.975  0.00  0.00     0.020 A 
ATOM      2  C1  UNL d   1       1.568  -4.295   2.046  0.00  0.00     0.020 A 
ATOM      3  C2  UNL d   1       0.708  -3.558   1.229  0.00  0.00     0.034 A 
ATOM      4  C3  UNL d   1       0.655  -2.164   1.339  0.00  0.00     0.017 A 
ATOM      5  C4  UNL d   1       1.467  -1.509   2.272  0.00  0.00     0.017 A 
ATOM      6  C5  UNL d   1       2.326  -2.252   3.088  0.00  0.00     0.034 A 
ATOM      7 Cl   UNL d   1       1.457   0.208   2.466  0.00  0.00    -0.070 Cl
ATOM      8 Cl1  UNL d   1      -0.431  -1.316   0.296  0.00  0.00    -0.070 Cl
ENDROOT
TORSDOF 0
ENDMDL
