MODEL 1
REMARK minimizedAffinity 0.809149504
REMARK minimizedRMSD -1
REMARK  0 active torsions:
REMARK  status: ('A' for Active; 'I' for Inactive)
ROOT
ATOM      1  C   UNL d   1       4.708  -5.998  -5.314  0.00  0.00     0.020 A 
ATOM      2  C1  UNL d   1       5.272  -5.998  -4.039  0.00  0.00     0.020 A 
ATOM      3  C2  UNL d   1       4.449  -5.999  -2.911  0.00  0.00     0.034 A 
ATOM      4  C3  UNL d   1       3.057  -5.999  -3.056  0.00  0.00     0.017 A 
ATOM      5  C4  UNL d   1       2.491  -5.998  -4.336  0.00  0.00     0.017 A 
ATOM      6  C5  UNL d   1       3.321  -5.998  -5.462  0.00  0.00     0.034 A 
ATOM      7 Cl   UNL d   1       0.783  -5.999  -4.595  0.00  0.00    -0.070 Cl
ATOM      8 Cl1  UNL d   1       2.099  -6.000  -1.618  0.00  0.00    -0.070 Cl
ENDROOT
TORSDOF 0
ENDMDL
