MODEL 1
REMARK minimizedAffinity 8.04819965
REMARK minimizedRMSD -1
REMARK  0 active torsions:
REMARK  status: ('A' for Active; 'I' for Inactive)
ROOT
ATOM      1  C   UNL d   1       2.147  -4.596   3.114  0.00  0.00     0.020 A 
ATOM      2  C1  UNL d   1       2.315  -4.422   4.487  0.00  0.00     0.020 A 
ATOM      3  C2  UNL d   1       2.169  -3.154   5.053  0.00  0.00     0.034 A 
ATOM      4  C3  UNL d   1       1.854  -2.054   4.245  0.00  0.00     0.017 A 
ATOM      5  C4  UNL d   1       1.687  -2.230   2.867  0.00  0.00     0.017 A 
ATOM      6  C5  UNL d   1       1.834  -3.502   2.306  0.00  0.00     0.034 A 
ATOM      7 Cl   UNL d   1       1.298  -0.922   1.806  0.00  0.00    -0.070 Cl
ATOM      8 Cl1  UNL d   1       1.688  -0.515   5.012  0.00  0.00    -0.070 Cl
ENDROOT
TORSDOF 0
ENDMDL
