MODEL 1
REMARK minimizedAffinity 9.4039011
REMARK minimizedRMSD -1
REMARK  0 active torsions:
REMARK  status: ('A' for Active; 'I' for Inactive)
ROOT
ATOM      1  C   UNL d   1      -5.563   2.082   1.522  0.00  0.00     0.020 A 
ATOM      2  C1  UNL d   1      -5.560   3.321   2.161  0.00  0.00     0.020 A 
ATOM      3  C2  UNL d   1      -5.694   4.493   1.413  0.00  0.00     0.034 A 
ATOM      4  C3  UNL d   1      -5.831   4.428   0.022  0.00  0.00     0.017 A 
ATOM      5  C4  UNL d   1      -5.834   3.184  -0.619  0.00  0.00     0.017 A 
ATOM      6  C5  UNL d   1      -5.700   2.014   0.135  0.00  0.00     0.034 A 
ATOM      7 Cl   UNL d   1      -6.000   3.024  -2.332  0.00  0.00    -0.070 Cl
ATOM      8 Cl1  UNL d   1      -5.992   5.917  -0.840  0.00  0.00    -0.070 Cl
ENDROOT
TORSDOF 0
ENDMDL
