MODEL 1
REMARK minimizedAffinity 9.197999
REMARK minimizedRMSD -1
REMARK  0 active torsions:
REMARK  status: ('A' for Active; 'I' for Inactive)
ROOT
ATOM      1  C   UNL d   1      -3.751  -1.408  -3.637  0.00  0.00     0.020 A 
ATOM      2  C1  UNL d   1      -2.953  -0.449  -3.015  0.00  0.00     0.020 A 
ATOM      3  C2  UNL d   1      -2.265  -0.767  -1.842  0.00  0.00     0.034 A 
ATOM      4  C3  UNL d   1      -2.375  -2.047  -1.287  0.00  0.00     0.017 A 
ATOM      5  C4  UNL d   1      -3.176  -3.009  -1.912  0.00  0.00     0.017 A 
ATOM      6  C5  UNL d   1      -3.862  -2.685  -3.086  0.00  0.00     0.034 A 
ATOM      7 Cl   UNL d   1      -3.361  -4.610  -1.286  0.00  0.00    -0.070 Cl
ATOM      8 Cl1  UNL d   1      -1.497  -2.370   0.166  0.00  0.00    -0.070 Cl
ENDROOT
TORSDOF 0
ENDMDL
