MODEL 1
REMARK minimizedAffinity 7.93585587
REMARK minimizedRMSD -1
REMARK  0 active torsions:
REMARK  status: ('A' for Active; 'I' for Inactive)
ROOT
ATOM      1  C   UNL d   1      -4.855   1.870   1.152  0.00  0.00     0.020 A 
ATOM      2  C1  UNL d   1      -6.000   1.497   0.449  0.00  0.00     0.020 A 
ATOM      3  C2  UNL d   1      -6.000   1.517  -0.947  0.00  0.00     0.034 A 
ATOM      4  C3  UNL d   1      -4.853   1.912  -1.645  0.00  0.00     0.017 A 
ATOM      5  C4  UNL d   1      -3.704   2.287  -0.939  0.00  0.00     0.017 A 
ATOM      6  C5  UNL d   1      -3.709   2.264   0.459  0.00  0.00     0.034 A 
ATOM      7 Cl   UNL d   1      -2.251   2.786  -1.731  0.00  0.00    -0.070 Cl
ATOM      8 Cl1  UNL d   1      -4.924   1.914  -3.371  0.00  0.00    -0.070 Cl
ENDROOT
TORSDOF 0
ENDMDL
