MODEL 1
REMARK minimizedAffinity 2.00133634
REMARK minimizedRMSD -1
REMARK  0 active torsions:
REMARK  status: ('A' for Active; 'I' for Inactive)
ROOT
ATOM      1  C   UNL d   1      -4.878   2.247  -4.171  0.00  0.00     0.020 A 
ATOM      2  C1  UNL d   1      -5.641   1.979  -5.306  0.00  0.00     0.020 A 
ATOM      3  C2  UNL d   1      -5.651   0.695  -5.854  0.00  0.00     0.034 A 
ATOM      4  C3  UNL d   1      -4.895  -0.327  -5.266  0.00  0.00     0.017 A 
ATOM      5  C4  UNL d   1      -4.129  -0.057  -4.126  0.00  0.00     0.017 A 
ATOM      6  C5  UNL d   1      -4.124   1.231  -3.582  0.00  0.00     0.034 A 
ATOM      7 Cl   UNL d   1      -3.172  -1.265  -3.345  0.00  0.00    -0.070 Cl
ATOM      8 Cl1  UNL d   1      -4.954  -1.892  -5.997  0.00  0.00    -0.070 Cl
ENDROOT
TORSDOF 0
ENDMDL
