MODEL 1
REMARK minimizedAffinity 4.08017635
REMARK minimizedRMSD -1
REMARK  0 active torsions:
REMARK  status: ('A' for Active; 'I' for Inactive)
ROOT
ATOM      1  C   UNL d   1       0.506  -3.551  -1.301  0.00  0.00     0.020 A 
ATOM      2  C1  UNL d   1      -0.711  -3.081  -1.792  0.00  0.00     0.020 A 
ATOM      3  C2  UNL d   1      -1.442  -2.141  -1.063  0.00  0.00     0.034 A 
ATOM      4  C3  UNL d   1      -0.956  -1.667   0.161  0.00  0.00     0.017 A 
ATOM      5  C4  UNL d   1       0.267  -2.139   0.653  0.00  0.00     0.017 A 
ATOM      6  C5  UNL d   1       0.994  -3.080  -0.082  0.00  0.00     0.034 A 
ATOM      7 Cl   UNL d   1       0.931  -1.601   2.155  0.00  0.00    -0.070 Cl
ATOM      8 Cl1  UNL d   1      -1.912  -0.504   1.010  0.00  0.00    -0.070 Cl
ENDROOT
TORSDOF 0
ENDMDL
