MODEL 1
REMARK minimizedAffinity 4.65506887
REMARK minimizedRMSD -1
REMARK  0 active torsions:
REMARK  status: ('A' for Active; 'I' for Inactive)
ROOT
ATOM      1  C   UNL d   1       1.010  -3.118   3.557  0.00  0.00     0.020 A 
ATOM      2  C1  UNL d   1       1.869  -4.032   4.166  0.00  0.00     0.020 A 
ATOM      3  C2  UNL d   1       3.245  -3.793   4.184  0.00  0.00     0.034 A 
ATOM      4  C3  UNL d   1       3.766  -2.637   3.591  0.00  0.00     0.017 A 
ATOM      5  C4  UNL d   1       2.903  -1.720   2.980  0.00  0.00     0.017 A 
ATOM      6  C5  UNL d   1       1.526  -1.964   2.966  0.00  0.00     0.034 A 
ATOM      7 Cl   UNL d   1       3.471  -0.271   2.229  0.00  0.00    -0.070 Cl
ATOM      8 Cl1  UNL d   1       5.477  -2.405   3.650  0.00  0.00    -0.070 Cl
ENDROOT
TORSDOF 0
ENDMDL
