MODEL 1
REMARK minimizedAffinity 14.5450964
REMARK minimizedRMSD -1
REMARK  0 active torsions:
REMARK  status: ('A' for Active; 'I' for Inactive)
ROOT
ATOM      1  C   UNL d   1       2.628  -5.618   5.995  0.00  0.00     0.020 A 
ATOM      2  C1  UNL d   1       1.425  -5.319   5.357  0.00  0.00     0.020 A 
ATOM      3  C2  UNL d   1       1.351  -4.236   4.478  0.00  0.00     0.034 A 
ATOM      4  C3  UNL d   1       2.483  -3.449   4.234  0.00  0.00     0.017 A 
ATOM      5  C4  UNL d   1       3.690  -3.750   4.875  0.00  0.00     0.017 A 
ATOM      6  C5  UNL d   1       3.758  -4.835   5.754  0.00  0.00     0.034 A 
ATOM      7 Cl   UNL d   1       5.128  -2.825   4.625  0.00  0.00    -0.070 Cl
ATOM      8 Cl1  UNL d   1       2.319  -2.126   3.135  0.00  0.00    -0.070 Cl
ENDROOT
TORSDOF 0
ENDMDL
