MODEL 1
REMARK minimizedAffinity -1.4402678
REMARK minimizedRMSD -1
REMARK  0 active torsions:
REMARK  status: ('A' for Active; 'I' for Inactive)
ROOT
ATOM      1  C   UNL d   1       2.168  -2.334   4.468  0.00  0.00     0.020 A 
ATOM      2  C1  UNL d   1       1.318  -3.336   4.003  0.00  0.00     0.020 A 
ATOM      3  C2  UNL d   1       0.640  -3.171   2.793  0.00  0.00     0.034 A 
ATOM      4  C3  UNL d   1       0.810  -2.001   2.045  0.00  0.00     0.017 A 
ATOM      5  C4  UNL d   1       1.663  -0.995   2.513  0.00  0.00     0.017 A 
ATOM      6  C5  UNL d   1       2.340  -1.165   3.725  0.00  0.00     0.034 A 
ATOM      7 Cl   UNL d   1       1.924   0.477   1.645  0.00  0.00    -0.070 Cl
ATOM      8 Cl1  UNL d   1      -0.059  -1.864   0.558  0.00  0.00    -0.070 Cl
ENDROOT
TORSDOF 0
ENDMDL
