MODEL 1
REMARK minimizedAffinity 2.09854579
REMARK minimizedRMSD -1
REMARK  0 active torsions:
REMARK  status: ('A' for Active; 'I' for Inactive)
ROOT
ATOM      1  C   UNL d   1       0.888   1.975  -0.109  0.00  0.00     0.020 A 
ATOM      2  C1  UNL d   1       1.970   2.241   0.730  0.00  0.00     0.020 A 
ATOM      3  C2  UNL d   1       2.348   1.309   1.698  0.00  0.00     0.034 A 
ATOM      4  C3  UNL d   1       1.645   0.106   1.830  0.00  0.00     0.017 A 
ATOM      5  C4  UNL d   1       0.559  -0.160   0.988  0.00  0.00     0.017 A 
ATOM      6  C5  UNL d   1       0.185   0.777   0.020  0.00  0.00     0.034 A 
ATOM      7 Cl   UNL d   1      -0.357  -1.621   1.091  0.00  0.00    -0.070 Cl
ATOM      8 Cl1  UNL d   1       2.168  -1.001   3.049  0.00  0.00    -0.070 Cl
ENDROOT
TORSDOF 0
ENDMDL
