MODEL 1
REMARK minimizedAffinity -1.18109059
REMARK minimizedRMSD -1
REMARK  0 active torsions:
REMARK  status: ('A' for Active; 'I' for Inactive)
ROOT
ATOM      1  C   UNL d   1       2.778   0.558   3.097  0.00  0.00     0.020 A 
ATOM      2  C1  UNL d   1       2.248  -0.685   3.438  0.00  0.00     0.020 A 
ATOM      3  C2  UNL d   1       1.298  -1.290   2.612  0.00  0.00     0.034 A 
ATOM      4  C3  UNL d   1       0.876  -0.651   1.440  0.00  0.00     0.017 A 
ATOM      5  C4  UNL d   1       1.408   0.598   1.099  0.00  0.00     0.017 A 
ATOM      6  C5  UNL d   1       2.359   1.198   1.930  0.00  0.00     0.034 A 
ATOM      7 Cl   UNL d   1       0.936   1.448  -0.330  0.00  0.00    -0.070 Cl
ATOM      8 Cl1  UNL d   1      -0.301  -1.456   0.465  0.00  0.00    -0.070 Cl
ENDROOT
TORSDOF 0
ENDMDL
