MODEL 1
REMARK minimizedAffinity 2.13190103
REMARK minimizedRMSD -1
REMARK  0 active torsions:
REMARK  status: ('A' for Active; 'I' for Inactive)
ROOT
ATOM      1  C   UNL d   1      -0.223  -1.380   1.081  0.00  0.00     0.020 A 
ATOM      2  C1  UNL d   1      -1.327  -1.374   0.229  0.00  0.00     0.020 A 
ATOM      3  C2  UNL d   1      -1.388  -2.269  -0.841  0.00  0.00     0.034 A 
ATOM      4  C3  UNL d   1      -0.344  -3.174  -1.062  0.00  0.00     0.017 A 
ATOM      5  C4  UNL d   1       0.764  -3.180  -0.206  0.00  0.00     0.017 A 
ATOM      6  C5  UNL d   1       0.820  -2.281   0.864  0.00  0.00     0.034 A 
ATOM      7 Cl   UNL d   1       2.091  -4.267  -0.415  0.00  0.00    -0.070 Cl
ATOM      8 Cl1  UNL d   1      -0.486  -4.253  -2.404  0.00  0.00    -0.070 Cl
ENDROOT
TORSDOF 0
ENDMDL
