MODEL 1
REMARK minimizedAffinity 3.47408748
REMARK minimizedRMSD -1
REMARK  0 active torsions:
REMARK  status: ('A' for Active; 'I' for Inactive)
ROOT
ATOM      1  C   UNL d   1       2.457   1.531   0.297  0.00  0.00     0.020 A 
ATOM      2  C1  UNL d   1       1.624   2.610   0.005  0.00  0.00     0.020 A 
ATOM      3  C2  UNL d   1       0.241   2.482   0.144  0.00  0.00     0.034 A 
ATOM      4  C3  UNL d   1      -0.314   1.271   0.575  0.00  0.00     0.017 A 
ATOM      5  C4  UNL d   1       0.523   0.188   0.868  0.00  0.00     0.017 A 
ATOM      6  C5  UNL d   1       1.907   0.323   0.727  0.00  0.00     0.034 A 
ATOM      7 Cl   UNL d   1      -0.088  -1.336   1.405  0.00  0.00    -0.070 Cl
ATOM      8 Cl1  UNL d   1      -2.033   1.184   0.725  0.00  0.00    -0.070 Cl
ENDROOT
TORSDOF 0
ENDMDL
