MODEL 1
REMARK minimizedAffinity -1.04818976
REMARK minimizedRMSD -1
REMARK  0 active torsions:
REMARK  status: ('A' for Active; 'I' for Inactive)
ROOT
ATOM      1  C   UNL d   1       2.622  -0.271   5.078  0.00  0.00     0.020 A 
ATOM      2  C1  UNL d   1       3.064   0.991   4.685  0.00  0.00     0.020 A 
ATOM      3  C2  UNL d   1       2.861   1.424   3.373  0.00  0.00     0.034 A 
ATOM      4  C3  UNL d   1       2.216   0.594   2.449  0.00  0.00     0.017 A 
ATOM      5  C4  UNL d   1       1.773  -0.673   2.844  0.00  0.00     0.017 A 
ATOM      6  C5  UNL d   1       1.978  -1.102   4.160  0.00  0.00     0.034 A 
ATOM      7 Cl   UNL d   1       0.969  -1.754   1.761  0.00  0.00    -0.070 Cl
ATOM      8 Cl1  UNL d   1       1.999   1.195   0.843  0.00  0.00    -0.070 Cl
ENDROOT
TORSDOF 0
ENDMDL
