MODEL 1
REMARK minimizedAffinity 2.76254392
REMARK minimizedRMSD -1
REMARK  0 active torsions:
REMARK  status: ('A' for Active; 'I' for Inactive)
ROOT
ATOM      1  C   UNL d   1       1.872  -1.914   4.368  0.00  0.00     0.020 A 
ATOM      2  C1  UNL d   1       0.926  -2.795   3.845  0.00  0.00     0.020 A 
ATOM      3  C2  UNL d   1       0.399  -2.577   2.571  0.00  0.00     0.034 A 
ATOM      4  C3  UNL d   1       0.817  -1.476   1.815  0.00  0.00     0.017 A 
ATOM      5  C4  UNL d   1       1.767  -0.592   2.340  0.00  0.00     0.017 A 
ATOM      6  C5  UNL d   1       2.291  -0.815   3.617  0.00  0.00     0.034 A 
ATOM      7 Cl   UNL d   1       2.332   0.788   1.467  0.00  0.00    -0.070 Cl
ATOM      8 Cl1  UNL d   1       0.124  -1.268   0.246  0.00  0.00    -0.070 Cl
ENDROOT
TORSDOF 0
ENDMDL
