MODEL 1
REMARK minimizedAffinity 0.555574834
REMARK minimizedRMSD -1
REMARK  0 active torsions:
REMARK  status: ('A' for Active; 'I' for Inactive)
ROOT
ATOM      1  C   UNL d   1       1.317  -0.561   3.113  0.00  0.00     0.172 C 
ATOM      2  N   UNL d   1       0.413   0.115   2.211  0.00  0.00    -0.070 N 
ATOM      3  C1  UNL d   1      -0.342  -0.485   1.239  0.00  0.00    -0.004 A 
ATOM      4  C2  UNL d   1      -1.066   0.499   0.600  0.00  0.00    -0.047 A 
ATOM      5  C3  UNL d   1      -0.734   1.732   1.209  0.00  0.00    -0.047 A 
ATOM      6  C4  UNL d   1       0.184   1.466   2.203  0.00  0.00    -0.004 A 
ENDROOT
TORSDOF 0
ENDMDL
