MODEL 1
REMARK minimizedAffinity -2.02433872
REMARK minimizedRMSD -1
REMARK  0 active torsions:
REMARK  status: ('A' for Active; 'I' for Inactive)
ROOT
ATOM      1  C   UNL d   1      -2.856   1.911   3.104  0.00  0.00     0.172 C 
ATOM      2  N   UNL d   1      -1.742   1.432   2.320  0.00  0.00    -0.070 N 
ATOM      3  C1  UNL d   1      -0.717   2.201   1.837  0.00  0.00    -0.004 A 
ATOM      4  C2  UNL d   1       0.140   1.374   1.143  0.00  0.00    -0.047 A 
ATOM      5  C3  UNL d   1      -0.389   0.063   1.211  0.00  0.00    -0.047 A 
ATOM      6  C4  UNL d   1      -1.554   0.128   1.945  0.00  0.00    -0.004 A 
ENDROOT
TORSDOF 0
ENDMDL
