MODEL 1
REMARK minimizedAffinity -2.02010131
REMARK minimizedRMSD -1
REMARK  0 active torsions:
REMARK  status: ('A' for Active; 'I' for Inactive)
ROOT
ATOM      1  C   UNL d   1      -3.783   1.499   3.677  0.00  0.00     0.172 C 
ATOM      2  N   UNL d   1      -2.578   1.513   2.881  0.00  0.00    -0.070 N 
ATOM      3  C1  UNL d   1      -1.840   0.414   2.532  0.00  0.00    -0.004 A 
ATOM      4  C2  UNL d   1      -0.773   0.845   1.774  0.00  0.00    -0.047 A 
ATOM      5  C3  UNL d   1      -0.873   2.253   1.664  0.00  0.00    -0.047 A 
ATOM      6  C4  UNL d   1      -2.000   2.639   2.359  0.00  0.00    -0.004 A 
ENDROOT
TORSDOF 0
ENDMDL
