MODEL 1
REMARK minimizedAffinity -4.12078094
REMARK minimizedRMSD -1
REMARK  0 active torsions:
REMARK  status: ('A' for Active; 'I' for Inactive)
ROOT
ATOM      1  C   UNL d   1      -3.245   1.496   3.299  0.00  0.00     0.172 C 
ATOM      2  N   UNL d   1      -2.146   1.120   2.441  0.00  0.00    -0.070 N 
ATOM      3  C1  UNL d   1      -1.201   1.972   1.934  0.00  0.00    -0.004 A 
ATOM      4  C2  UNL d   1      -0.331   1.229   1.167  0.00  0.00    -0.047 A 
ATOM      5  C3  UNL d   1      -0.768  -0.116   1.213  0.00  0.00    -0.047 A 
ATOM      6  C4  UNL d   1      -1.894  -0.155   2.009  0.00  0.00    -0.004 A 
ENDROOT
TORSDOF 0
ENDMDL
