MODEL 1
REMARK minimizedAffinity 1.3074435
REMARK minimizedRMSD -1
REMARK  0 active torsions:
REMARK  status: ('A' for Active; 'I' for Inactive)
ROOT
ATOM      1  C   UNL d   1      -5.883   5.269   5.999  0.00  0.00     0.172 C 
ATOM      2  N   UNL d   1      -5.505   3.964   5.510  0.00  0.00    -0.070 N 
ATOM      3  C1  UNL d   1      -5.955   2.767   6.000  0.00  0.00    -0.004 A 
ATOM      4  C2  UNL d   1      -5.362   1.761   5.268  0.00  0.00    -0.047 A 
ATOM      5  C3  UNL d   1      -4.525   2.375   4.306  0.00  0.00    -0.047 A 
ATOM      6  C4  UNL d   1      -4.632   3.739   4.478  0.00  0.00    -0.004 A 
ENDROOT
TORSDOF 0
ENDMDL
