MODEL 1
REMARK minimizedAffinity -1.28252244
REMARK minimizedRMSD -1
REMARK  0 active torsions:
REMARK  status: ('A' for Active; 'I' for Inactive)
ROOT
ATOM      1  C   UNL d   1      -2.454  -0.114   2.388  0.00  0.00     0.172 C 
ATOM      2  N   UNL d   1      -1.141   0.463   2.219  0.00  0.00    -0.070 N 
ATOM      3  C1  UNL d   1      -0.010   0.085   2.892  0.00  0.00    -0.004 A 
ATOM      4  C2  UNL d   1       1.029   0.873   2.448  0.00  0.00    -0.047 A 
ATOM      5  C3  UNL d   1       0.504   1.756   1.475  0.00  0.00    -0.047 A 
ATOM      6  C4  UNL d   1      -0.841   1.481   1.353  0.00  0.00    -0.004 A 
ENDROOT
TORSDOF 0
ENDMDL
