MODEL 1
REMARK minimizedAffinity -0.305699974
REMARK minimizedRMSD -1
REMARK  0 active torsions:
REMARK  status: ('A' for Active; 'I' for Inactive)
ROOT
ATOM      1  C   UNL d   1      -0.974  -1.858   3.459  0.00  0.00     0.172 C 
ATOM      2  N   UNL d   1      -0.684  -0.691   2.658  0.00  0.00    -0.070 N 
ATOM      3  C1  UNL d   1       0.564  -0.262   2.295  0.00  0.00    -0.004 A 
ATOM      4  C2  UNL d   1       0.414   0.879   1.537  0.00  0.00    -0.047 A 
ATOM      5  C3  UNL d   1      -0.972   1.146   1.443  0.00  0.00    -0.047 A 
ATOM      6  C4  UNL d   1      -1.629   0.158   2.146  0.00  0.00    -0.004 A 
ENDROOT
TORSDOF 0
ENDMDL
