MODEL 1
REMARK minimizedAffinity -0.462793916
REMARK minimizedRMSD -1
REMARK  0 active torsions:
REMARK  status: ('A' for Active; 'I' for Inactive)
ROOT
ATOM      1  C   UNL d   1       1.083   0.125   2.214  0.00  0.00     0.172 C 
ATOM      2  N   UNL d   1       0.255   1.200   1.721  0.00  0.00    -0.070 N 
ATOM      3  C1  UNL d   1       0.599   2.085   0.734  0.00  0.00    -0.004 A 
ATOM      4  C2  UNL d   1      -0.459   2.951   0.556  0.00  0.00    -0.047 A 
ATOM      5  C3  UNL d   1      -1.473   2.574   1.469  0.00  0.00    -0.047 A 
ATOM      6  C4  UNL d   1      -1.005   1.488   2.177  0.00  0.00    -0.004 A 
ENDROOT
TORSDOF 0
ENDMDL
