MODEL 1
REMARK minimizedAffinity -0.821097791
REMARK minimizedRMSD -1
REMARK  0 active torsions:
REMARK  status: ('A' for Active; 'I' for Inactive)
ROOT
ATOM      1  C   UNL d   1      -4.547   1.843   4.664  0.00  0.00     0.172 C 
ATOM      2  N   UNL d   1      -3.456   1.340   3.862  0.00  0.00    -0.070 N 
ATOM      3  C1  UNL d   1      -2.361   2.058   3.463  0.00  0.00    -0.004 A 
ATOM      4  C2  UNL d   1      -1.557   1.223   2.718  0.00  0.00    -0.047 A 
ATOM      5  C3  UNL d   1      -2.191  -0.041   2.668  0.00  0.00    -0.047 A 
ATOM      6  C4  UNL d   1      -3.365   0.059   3.384  0.00  0.00    -0.004 A 
ENDROOT
TORSDOF 0
ENDMDL
