MODEL 1
REMARK minimizedAffinity -1.72278905
REMARK minimizedRMSD -1
REMARK  0 active torsions:
REMARK  status: ('A' for Active; 'I' for Inactive)
ROOT
ATOM      1  C   UNL d   1      -2.894   1.525   3.227  0.00  0.00     0.172 C 
ATOM      2  N   UNL d   1      -1.733   1.552   2.369  0.00  0.00    -0.070 N 
ATOM      3  C1  UNL d   1      -1.126   2.679   1.882  0.00  0.00    -0.004 A 
ATOM      4  C2  UNL d   1      -0.058   2.282   1.108  0.00  0.00    -0.047 A 
ATOM      5  C3  UNL d   1      -0.021   0.868   1.130  0.00  0.00    -0.047 A 
ATOM      6  C4  UNL d   1      -1.069   0.442   1.918  0.00  0.00    -0.004 A 
ENDROOT
TORSDOF 0
ENDMDL
