MODEL 1
REMARK minimizedAffinity -3.53773141
REMARK minimizedRMSD -1
REMARK  0 active torsions:
REMARK  status: ('A' for Active; 'I' for Inactive)
ROOT
ATOM      1  C   UNL d   1      -1.621   2.242   2.593  0.00  0.00     0.172 C 
ATOM      2  N   UNL d   1      -0.981   1.114   1.957  0.00  0.00    -0.070 N 
ATOM      3  C1  UNL d   1      -1.465  -0.166   1.929  0.00  0.00    -0.004 A 
ATOM      4  C2  UNL d   1      -0.567  -0.941   1.228  0.00  0.00    -0.047 A 
ATOM      5  C3  UNL d   1       0.494  -0.097   0.821  0.00  0.00    -0.047 A 
ATOM      6  C4  UNL d   1       0.212   1.170   1.286  0.00  0.00    -0.004 A 
ENDROOT
TORSDOF 0
ENDMDL
