MODEL 1
REMARK minimizedAffinity -1.22415102
REMARK minimizedRMSD -1
REMARK  0 active torsions:
REMARK  status: ('A' for Active; 'I' for Inactive)
ROOT
ATOM      1  C   UNL d   1      -1.883   2.540   2.419  0.00  0.00     0.172 C 
ATOM      2  N   UNL d   1      -1.136   1.434   1.868  0.00  0.00    -0.070 N 
ATOM      3  C1  UNL d   1       0.088   1.521   1.262  0.00  0.00    -0.004 A 
ATOM      4  C2  UNL d   1       0.459   0.251   0.876  0.00  0.00    -0.047 A 
ATOM      5  C3  UNL d   1      -0.579  -0.630   1.263  0.00  0.00    -0.047 A 
ATOM      6  C4  UNL d   1      -1.554   0.129   1.875  0.00  0.00    -0.004 A 
ENDROOT
TORSDOF 0
ENDMDL
