MODEL 1
REMARK minimizedAffinity -1.10156798
REMARK minimizedRMSD -1
REMARK  0 active torsions:
REMARK  status: ('A' for Active; 'I' for Inactive)
ROOT
ATOM      1  C   UNL d   1      -1.919  -0.937   2.153  0.00  0.00     0.172 C 
ATOM      2  N   UNL d   1      -1.056   0.190   1.888  0.00  0.00    -0.070 N 
ATOM      3  C1  UNL d   1       0.216   0.121   1.385  0.00  0.00    -0.004 A 
ATOM      4  C2  UNL d   1       0.698   1.407   1.280  0.00  0.00    -0.047 A 
ATOM      5  C3  UNL d   1      -0.318   2.280   1.737  0.00  0.00    -0.047 A 
ATOM      6  C4  UNL d   1      -1.393   1.499   2.108  0.00  0.00    -0.004 A 
ENDROOT
TORSDOF 0
ENDMDL
