MODEL 1
REMARK minimizedAffinity -1.57188618
REMARK minimizedRMSD -1
REMARK  0 active torsions:
REMARK  status: ('A' for Active; 'I' for Inactive)
ROOT
ATOM      1  C   UNL d   1      -1.080  -1.924   2.584  0.00  0.00     0.172 C 
ATOM      2  N   UNL d   1      -0.796  -0.588   2.116  0.00  0.00    -0.070 N 
ATOM      3  C1  UNL d   1       0.371  -0.180   1.526  0.00  0.00    -0.004 A 
ATOM      4  C2  UNL d   1       0.246   1.159   1.226  0.00  0.00    -0.047 A 
ATOM      5  C3  UNL d   1      -1.039   1.571   1.650  0.00  0.00    -0.047 A 
ATOM      6  C4  UNL d   1      -1.663   0.469   2.198  0.00  0.00    -0.004 A 
ENDROOT
TORSDOF 0
ENDMDL
