MODEL 1
REMARK minimizedAffinity 0.322171569
REMARK minimizedRMSD -1
REMARK  0 active torsions:
REMARK  status: ('A' for Active; 'I' for Inactive)
ROOT
ATOM      1  C   UNL d   1      -4.238  -3.080   4.428  0.00  0.00     0.172 C 
ATOM      2  N   UNL d   1      -3.095  -2.543   3.727  0.00  0.00    -0.070 N 
ATOM      3  C1  UNL d   1      -1.805  -2.985   3.848  0.00  0.00    -0.004 A 
ATOM      4  C2  UNL d   1      -1.016  -2.218   3.018  0.00  0.00    -0.047 A 
ATOM      5  C3  UNL d   1      -1.862  -1.282   2.377  0.00  0.00    -0.047 A 
ATOM      6  C4  UNL d   1      -3.144  -1.506   2.834  0.00  0.00    -0.004 A 
ENDROOT
TORSDOF 0
ENDMDL
