MODEL 1
REMARK minimizedAffinity 1.3133955
REMARK minimizedRMSD -1
REMARK  0 active torsions:
REMARK  status: ('A' for Active; 'I' for Inactive)
ROOT
ATOM      1  C   UNL d   1      -3.489   1.719   3.866  0.00  0.00     0.172 C 
ATOM      2  N   UNL d   1      -2.358   2.038   3.026  0.00  0.00    -0.070 N 
ATOM      3  C1  UNL d   1      -1.113   1.475   3.116  0.00  0.00    -0.004 A 
ATOM      4  C2  UNL d   1      -0.321   2.045   2.144  0.00  0.00    -0.047 A 
ATOM      5  C3  UNL d   1      -1.117   2.984   1.446  0.00  0.00    -0.047 A 
ATOM      6  C4  UNL d   1      -2.373   2.960   2.013  0.00  0.00    -0.004 A 
ENDROOT
TORSDOF 0
ENDMDL
