MODEL 1
REMARK minimizedAffinity -1.05499494
REMARK minimizedRMSD -1
REMARK  0 active torsions:
REMARK  status: ('A' for Active; 'I' for Inactive)
ROOT
ATOM      1  C   UNL d   1      -2.731  -5.342  -1.092  0.00  0.00     0.172 C 
ATOM      2  N   UNL d   1      -2.934  -3.984  -1.539  0.00  0.00    -0.070 N 
ATOM      3  C1  UNL d   1      -3.398  -2.951  -0.770  0.00  0.00    -0.004 A 
ATOM      4  C2  UNL d   1      -3.448  -1.824  -1.561  0.00  0.00    -0.047 A 
ATOM      5  C3  UNL d   1      -2.999  -2.193  -2.852  0.00  0.00    -0.047 A 
ATOM      6  C4  UNL d   1      -2.687  -3.535  -2.810  0.00  0.00    -0.004 A 
ENDROOT
TORSDOF 0
ENDMDL
