MODEL 1
REMARK minimizedAffinity -3.83791852
REMARK minimizedRMSD -1
REMARK  1 active torsions:
REMARK  status: ('A' for Active; 'I' for Inactive)
REMARK    1  A    between atoms: C1_2  and  C2_3 
ROOT
ATOM      1  C2  UNL d   1      -0.617   6.000  -3.540  0.00  0.00    -0.073 A 
ATOM      2  C3  UNL d   1      -1.333   5.996  -4.743  0.00  0.00    -0.002 A 
ATOM      3  C4  UNL d   1      -0.659   5.999  -5.964  0.00  0.00     0.004 A 
ATOM      4  C5  UNL d   1       0.736   5.999  -5.997  0.00  0.00    -0.004 A 
ATOM      5  C6  UNL d   1       1.469   5.991  -4.806  0.00  0.00    -0.075 A 
ATOM      6  C7  UNL d   1       2.969   5.993  -4.823  0.00  0.00     0.076 C 
ATOM      7  C8  UNL d   1       0.784   5.991  -3.583  0.00  0.00     0.001 A 
ENDROOT
BRANCH   1   8
ATOM      8  C1  UNL d   1      -1.341   5.990  -2.219  0.00  0.00     0.053 C 
ATOM      9  C   UNL d   1      -2.851   5.998  -2.396  0.00  0.00     0.018 C 
ENDBRANCH   1   8
TORSDOF 1
ENDMDL
