MODEL 1
REMARK minimizedAffinity -2.17051625
REMARK minimizedRMSD -1
REMARK  1 active torsions:
REMARK  status: ('A' for Active; 'I' for Inactive)
REMARK    1  A    between atoms: C1_2  and  C2_3 
ROOT
ATOM      1  C2  UNL d   1      -1.584   5.986  -3.951  0.00  0.00    -0.073 A 
ATOM      2  C3  UNL d   1      -1.802   5.983  -2.569  0.00  0.00    -0.002 A 
ATOM      3  C4  UNL d   1      -3.101   5.992  -2.059  0.00  0.00     0.004 A 
ATOM      4  C5  UNL d   1      -4.194   5.997  -2.925  0.00  0.00    -0.004 A 
ATOM      5  C6  UNL d   1      -3.998   5.988  -4.310  0.00  0.00    -0.075 A 
ATOM      6  C7  UNL d   1      -5.163   5.995  -5.255  0.00  0.00     0.076 C 
ATOM      7  C8  UNL d   1      -2.690   5.982  -4.814  0.00  0.00     0.001 A 
ENDROOT
BRANCH   1   8
ATOM      8  C1  UNL d   1      -0.183   5.970  -4.506  0.00  0.00     0.053 C 
ATOM      9  C   UNL d   1      -0.163   5.661  -5.994  0.00  0.00     0.018 C 
ENDBRANCH   1   8
TORSDOF 1
ENDMDL
