MODEL 1
REMARK minimizedAffinity 5.22379971
REMARK minimizedRMSD -1
REMARK  1 active torsions:
REMARK  status: ('A' for Active; 'I' for Inactive)
REMARK    1  A    between atoms: C1_2  and  C2_3 
ROOT
ATOM      1  C2  UNL d   1       1.172   2.119  -0.090  0.00  0.00    -0.073 A 
ATOM      2  C3  UNL d   1       0.535   1.589   1.038  0.00  0.00    -0.002 A 
ATOM      3  C4  UNL d   1       0.200   0.235   1.086  0.00  0.00     0.004 A 
ATOM      4  C5  UNL d   1       0.505  -0.603   0.014  0.00  0.00    -0.004 A 
ATOM      5  C6  UNL d   1       1.152  -0.094  -1.117  0.00  0.00    -0.075 A 
ATOM      6  C7  UNL d   1       1.485  -0.981  -2.280  0.00  0.00     0.076 C 
ATOM      7  C8  UNL d   1       1.483   1.268  -1.160  0.00  0.00     0.001 A 
ENDROOT
BRANCH   1   8
ATOM      8  C1  UNL d   1       1.541   3.579  -0.145  0.00  0.00     0.053 C 
ATOM      9  C   UNL d   1       0.592   4.374  -1.028  0.00  0.00     0.018 C 
ENDBRANCH   1   8
TORSDOF 1
ENDMDL
