MODEL 1
REMARK minimizedAffinity -0.674319565
REMARK minimizedRMSD -1
REMARK  1 active torsions:
REMARK  status: ('A' for Active; 'I' for Inactive)
REMARK    1  A    between atoms: C1_2  and  C2_3 
ROOT
ATOM      1  C2  UNL d   1       2.851   5.931  -4.795  0.00  0.00    -0.073 A 
ATOM      2  C3  UNL d   1       2.142   6.000  -5.999  0.00  0.00    -0.002 A 
ATOM      3  C4  UNL d   1       0.747   5.950  -6.000  0.00  0.00     0.004 A 
ATOM      4  C5  UNL d   1       0.048   5.837  -4.798  0.00  0.00    -0.004 A 
ATOM      5  C6  UNL d   1       0.739   5.779  -3.583  0.00  0.00    -0.075 A 
ATOM      6  C7  UNL d   1       0.001   5.656  -2.282  0.00  0.00     0.076 C 
ATOM      7  C8  UNL d   1       2.139   5.827  -3.591  0.00  0.00     0.001 A 
ENDROOT
BRANCH   1   8
ATOM      8  C1  UNL d   1       4.357   5.992  -4.788  0.00  0.00     0.053 C 
ATOM      9  C   UNL d   1       4.961   5.279  -5.987  0.00  0.00     0.018 C 
ENDBRANCH   1   8
TORSDOF 1
ENDMDL
