MODEL 1
REMARK minimizedAffinity 6.20620155
REMARK minimizedRMSD -1
REMARK  1 active torsions:
REMARK  status: ('A' for Active; 'I' for Inactive)
REMARK    1  A    between atoms: C1_2  and  C2_3 
ROOT
ATOM      1  C2  UNL d   1       3.464   5.454  -5.210  0.00  0.00    -0.073 A 
ATOM      2  C3  UNL d   1       2.320   5.998  -5.805  0.00  0.00    -0.002 A 
ATOM      3  C4  UNL d   1       1.055   5.507  -5.481  0.00  0.00     0.004 A 
ATOM      4  C5  UNL d   1       0.920   4.473  -4.555  0.00  0.00    -0.004 A 
ATOM      5  C6  UNL d   1       2.050   3.924  -3.940  0.00  0.00    -0.075 A 
ATOM      6  C7  UNL d   1       1.922   2.810  -2.943  0.00  0.00     0.076 C 
ATOM      7  C8  UNL d   1       3.317   4.421  -4.273  0.00  0.00     0.001 A 
ENDROOT
BRANCH   1   8
ATOM      8  C1  UNL d   1       4.832   5.987  -5.552  0.00  0.00     0.053 C 
ATOM      9  C   UNL d   1       5.900   5.461  -4.606  0.00  0.00     0.018 C 
ENDBRANCH   1   8
TORSDOF 1
ENDMDL
