MODEL 1
REMARK minimizedAffinity -1.31241882
REMARK minimizedRMSD -1
REMARK  1 active torsions:
REMARK  status: ('A' for Active; 'I' for Inactive)
REMARK    1  A    between atoms: C1_2  and  C2_3 
ROOT
ATOM      1  C2  UNL d   1      -2.201   5.847  -3.237  0.00  0.00    -0.073 A 
ATOM      2  C3  UNL d   1      -1.385   5.862  -2.099  0.00  0.00    -0.002 A 
ATOM      3  C4  UNL d   1       0.000   5.753  -2.224  0.00  0.00     0.004 A 
ATOM      4  C5  UNL d   1       0.585   5.635  -3.485  0.00  0.00    -0.004 A 
ATOM      5  C6  UNL d   1      -0.212   5.630  -4.634  0.00  0.00    -0.075 A 
ATOM      6  C7  UNL d   1       0.401   5.502  -5.998  0.00  0.00     0.076 C 
ATOM      7  C8  UNL d   1      -1.603   5.737  -4.501  0.00  0.00     0.001 A 
ENDROOT
BRANCH   1   8
ATOM      8  C1  UNL d   1      -3.697   5.971  -3.108  0.00  0.00     0.053 C 
ATOM      9  C   UNL d   1      -4.143   6.000  -1.654  0.00  0.00     0.018 C 
ENDBRANCH   1   8
TORSDOF 1
ENDMDL
