MODEL 1
REMARK minimizedAffinity 3.94825673
REMARK minimizedRMSD -1
REMARK  1 active torsions:
REMARK  status: ('A' for Active; 'I' for Inactive)
REMARK    1  A    between atoms: C1_2  and  C2_3 
ROOT
ATOM      1  C2  UNL d   1       0.732   0.076  -1.352  0.00  0.00    -0.073 A 
ATOM      2  C3  UNL d   1       0.188  -0.732  -0.347  0.00  0.00    -0.002 A 
ATOM      3  C4  UNL d   1       0.225  -0.319   0.986  0.00  0.00     0.004 A 
ATOM      4  C5  UNL d   1       0.797   0.907   1.325  0.00  0.00    -0.004 A 
ATOM      5  C6  UNL d   1       1.335   1.733   0.333  0.00  0.00    -0.075 A 
ATOM      6  C7  UNL d   1       1.956   3.054   0.682  0.00  0.00     0.076 C 
ATOM      7  C8  UNL d   1       1.297   1.310  -1.002  0.00  0.00     0.001 A 
ENDROOT
BRANCH   1   8
ATOM      8  C1  UNL d   1       0.689  -0.363  -2.793  0.00  0.00     0.053 C 
ATOM      9  C   UNL d   1      -0.705  -0.238  -3.386  0.00  0.00     0.018 C 
ENDBRANCH   1   8
TORSDOF 1
ENDMDL
