MODEL 1
REMARK minimizedAffinity 6.32371712
REMARK minimizedRMSD -1
REMARK  1 active torsions:
REMARK  status: ('A' for Active; 'I' for Inactive)
REMARK    1  A    between atoms: C1_2  and  C2_3 
ROOT
ATOM      1  C2  UNL d   1      -2.203  -1.171  -1.997  0.00  0.00    -0.073 A 
ATOM      2  C3  UNL d   1      -1.044  -0.601  -1.457  0.00  0.00    -0.002 A 
ATOM      3  C4  UNL d   1       0.073  -0.381  -2.263  0.00  0.00     0.004 A 
ATOM      4  C5  UNL d   1       0.042  -0.721  -3.615  0.00  0.00    -0.004 A 
ATOM      5  C6  UNL d   1      -1.111  -1.280  -4.176  0.00  0.00    -0.075 A 
ATOM      6  C7  UNL d   1      -1.161  -1.653  -5.628  0.00  0.00     0.076 C 
ATOM      7  C8  UNL d   1      -2.229  -1.500  -3.359  0.00  0.00     0.001 A 
ENDROOT
BRANCH   1   8
ATOM      8  C1  UNL d   1      -3.415  -1.404  -1.132  0.00  0.00     0.053 C 
ATOM      9  C   UNL d   1      -3.905  -2.842  -1.213  0.00  0.00     0.018 C 
ENDBRANCH   1   8
TORSDOF 1
ENDMDL
