MODEL 1
REMARK minimizedAffinity -3.17033887
REMARK minimizedRMSD -1
REMARK  1 active torsions:
REMARK  status: ('A' for Active; 'I' for Inactive)
REMARK    1  A    between atoms: C1_2  and  C2_3 
ROOT
ATOM      1  C2  UNL d   1       2.312   5.983  -4.632  0.00  0.00    -0.073 A 
ATOM      2  C3  UNL d   1       1.702   6.000  -5.891  0.00  0.00    -0.002 A 
ATOM      3  C4  UNL d   1       0.311   5.999  -6.000  0.00  0.00     0.004 A 
ATOM      4  C5  UNL d   1      -0.484   5.989  -4.853  0.00  0.00    -0.004 A 
ATOM      5  C6  UNL d   1       0.108   5.985  -3.586  0.00  0.00    -0.075 A 
ATOM      6  C7  UNL d   1      -0.732   5.971  -2.343  0.00  0.00     0.076 C 
ATOM      7  C8  UNL d   1       1.505   5.983  -3.485  0.00  0.00     0.001 A 
ENDROOT
BRANCH   1   8
ATOM      8  C1  UNL d   1       3.814   5.991  -4.509  0.00  0.00     0.053 C 
ATOM      9  C   UNL d   1       4.490   5.445  -5.756  0.00  0.00     0.018 C 
ENDBRANCH   1   8
TORSDOF 1
ENDMDL
