MODEL 1
REMARK minimizedAffinity -2.31924295
REMARK minimizedRMSD -1
REMARK  1 active torsions:
REMARK  status: ('A' for Active; 'I' for Inactive)
REMARK    1  A    between atoms: C1_2  and  C2_3 
ROOT
ATOM      1  C2  UNL d   1      -0.644   5.991  -4.282  0.00  0.00    -0.073 A 
ATOM      2  C3  UNL d   1      -0.224   5.975  -2.947  0.00  0.00    -0.002 A 
ATOM      3  C4  UNL d   1      -1.161   5.968  -1.913  0.00  0.00     0.004 A 
ATOM      4  C5  UNL d   1      -2.525   5.969  -2.202  0.00  0.00    -0.004 A 
ATOM      5  C6  UNL d   1      -2.965   5.973  -3.529  0.00  0.00    -0.075 A 
ATOM      6  C7  UNL d   1      -4.430   5.977  -3.857  0.00  0.00     0.076 C 
ATOM      7  C8  UNL d   1      -2.018   5.983  -4.562  0.00  0.00     0.001 A 
ENDROOT
BRANCH   1   8
ATOM      8  C1  UNL d   1       0.363   5.992  -5.402  0.00  0.00     0.053 C 
ATOM      9  C   UNL d   1       1.793   5.990  -4.883  0.00  0.00     0.018 C 
ENDBRANCH   1   8
TORSDOF 1
ENDMDL
