MODEL 1
REMARK minimizedAffinity 0.430228949
REMARK minimizedRMSD -1
REMARK  1 active torsions:
REMARK  status: ('A' for Active; 'I' for Inactive)
REMARK    1  A    between atoms: C1_2  and  C2_3 
ROOT
ATOM      1  C2  UNL d   1       0.831   0.722  -0.254  0.00  0.00    -0.073 A 
ATOM      2  C3  UNL d   1       1.361   1.940  -0.695  0.00  0.00    -0.002 A 
ATOM      3  C4  UNL d   1       1.468   3.021   0.181  0.00  0.00     0.004 A 
ATOM      4  C5  UNL d   1       1.053   2.894   1.506  0.00  0.00    -0.004 A 
ATOM      5  C6  UNL d   1       0.531   1.681   1.969  0.00  0.00    -0.075 A 
ATOM      6  C7  UNL d   1       0.078   1.529   3.391  0.00  0.00     0.076 C 
ATOM      7  C8  UNL d   1       0.425   0.601   1.082  0.00  0.00     0.001 A 
ENDROOT
BRANCH   1   8
ATOM      8  C1  UNL d   1       0.720  -0.450  -1.195  0.00  0.00     0.053 C 
ATOM      9  C   UNL d   1       2.074  -0.870  -1.745  0.00  0.00     0.018 C 
ENDBRANCH   1   8
TORSDOF 1
ENDMDL
