MODEL 1
REMARK minimizedAffinity 1.26261306
REMARK minimizedRMSD -1
REMARK  1 active torsions:
REMARK  status: ('A' for Active; 'I' for Inactive)
REMARK    1  A    between atoms: C1_2  and  C2_3 
ROOT
ATOM      1  C2  UNL d   1       0.665   2.235   0.695  0.00  0.00    -0.073 A 
ATOM      2  C3  UNL d   1       0.734   1.048  -0.042  0.00  0.00    -0.002 A 
ATOM      3  C4  UNL d   1       0.330  -0.160   0.527  0.00  0.00     0.004 A 
ATOM      4  C5  UNL d   1      -0.154  -0.193   1.835  0.00  0.00    -0.004 A 
ATOM      5  C6  UNL d   1      -0.242   0.985   2.584  0.00  0.00    -0.075 A 
ATOM      6  C7  UNL d   1      -0.757   0.966   3.993  0.00  0.00     0.076 C 
ATOM      7  C8  UNL d   1       0.169   2.194   2.006  0.00  0.00     0.001 A 
ENDROOT
BRANCH   1   8
ATOM      8  C1  UNL d   1       1.094   3.543   0.082  0.00  0.00     0.053 C 
ATOM      9  C   UNL d   1      -0.053   4.243  -0.628  0.00  0.00     0.018 C 
ENDBRANCH   1   8
TORSDOF 1
ENDMDL
