MODEL 1
REMARK minimizedAffinity -2.573493
REMARK minimizedRMSD -1
REMARK  1 active torsions:
REMARK  status: ('A' for Active; 'I' for Inactive)
REMARK    1  A    between atoms: C1_2  and  C2_3 
ROOT
ATOM      1  C2  UNL d   1      -1.005   5.506  -3.727  0.00  0.00    -0.073 A 
ATOM      2  C3  UNL d   1      -2.105   5.644  -4.582  0.00  0.00    -0.002 A 
ATOM      3  C4  UNL d   1      -3.376   5.887  -4.061  0.00  0.00     0.004 A 
ATOM      4  C5  UNL d   1      -3.561   6.000  -2.683  0.00  0.00    -0.004 A 
ATOM      5  C6  UNL d   1      -2.473   5.876  -1.813  0.00  0.00    -0.075 A 
ATOM      6  C7  UNL d   1      -2.655   5.993  -0.328  0.00  0.00     0.076 C 
ATOM      7  C8  UNL d   1      -1.199   5.630  -2.344  0.00  0.00     0.001 A 
ENDROOT
BRANCH   1   8
ATOM      8  C1  UNL d   1       0.371   5.250  -4.285  0.00  0.00     0.053 C 
ATOM      9  C   UNL d   1       0.327   4.866  -5.756  0.00  0.00     0.018 C 
ENDBRANCH   1   8
TORSDOF 1
ENDMDL
