MODEL 1
REMARK minimizedAffinity 10.1512079
REMARK minimizedRMSD -1
REMARK  1 active torsions:
REMARK  status: ('A' for Active; 'I' for Inactive)
REMARK    1  A    between atoms: C1_2  and  C2_3 
ROOT
ATOM      1  C2  UNL d   1      -3.718  -1.782  -1.477  0.00  0.00    -0.073 A 
ATOM      2  C3  UNL d   1      -3.121  -0.829  -0.643  0.00  0.00    -0.002 A 
ATOM      3  C4  UNL d   1      -2.087  -0.023  -1.121  0.00  0.00     0.004 A 
ATOM      4  C5  UNL d   1      -1.644  -0.156  -2.437  0.00  0.00    -0.004 A 
ATOM      5  C6  UNL d   1      -2.235  -1.094  -3.289  0.00  0.00    -0.075 A 
ATOM      6  C7  UNL d   1      -1.769  -1.251  -4.706  0.00  0.00     0.076 C 
ATOM      7  C8  UNL d   1      -3.272  -1.902  -2.801  0.00  0.00     0.001 A 
ENDROOT
BRANCH   1   8
ATOM      8  C1  UNL d   1      -4.839  -2.650  -0.967  0.00  0.00     0.053 C 
ATOM      9  C   UNL d   1      -4.519  -3.257   0.389  0.00  0.00     0.018 C 
ENDBRANCH   1   8
TORSDOF 1
ENDMDL
