MODEL 1
REMARK minimizedAffinity -5.10779476
REMARK minimizedRMSD -1
REMARK  1 active torsions:
REMARK  status: ('A' for Active; 'I' for Inactive)
REMARK    1  A    between atoms: C1_2  and  C2_3 
ROOT
ATOM      1  C2  UNL d   1      -0.410  -0.983  -0.806  0.00  0.00    -0.073 A 
ATOM      2  C3  UNL d   1       0.783  -0.910  -1.532  0.00  0.00    -0.002 A 
ATOM      3  C4  UNL d   1       1.763   0.022  -1.187  0.00  0.00     0.004 A 
ATOM      4  C5  UNL d   1       1.563   0.884  -0.108  0.00  0.00    -0.004 A 
ATOM      5  C6  UNL d   1       0.382   0.818   0.638  0.00  0.00    -0.075 A 
ATOM      6  C7  UNL d   1       0.151   1.739   1.799  0.00  0.00     0.076 C 
ATOM      7  C8  UNL d   1      -0.598  -0.118   0.283  0.00  0.00     0.001 A 
ENDROOT
BRANCH   1   8
ATOM      8  C1  UNL d   1      -1.468  -1.991  -1.171  0.00  0.00     0.053 C 
ATOM      9  C   UNL d   1      -2.220  -1.597  -2.432  0.00  0.00     0.018 C 
ENDBRANCH   1   8
TORSDOF 1
ENDMDL
