MODEL 1
REMARK minimizedAffinity -4.7189312
REMARK minimizedRMSD -1
REMARK  1 active torsions:
REMARK  status: ('A' for Active; 'I' for Inactive)
REMARK    1  A    between atoms: C1_2  and  C2_3 
ROOT
ATOM      1  C2  UNL d   1      -0.407  -0.718  -0.730  0.00  0.00    -0.073 A 
ATOM      2  C3  UNL d   1       0.891  -0.909  -1.217  0.00  0.00    -0.002 A 
ATOM      3  C4  UNL d   1       1.942  -0.118  -0.750  0.00  0.00     0.004 A 
ATOM      4  C5  UNL d   1       1.708   0.865   0.211  0.00  0.00    -0.004 A 
ATOM      5  C6  UNL d   1       0.420   1.063   0.718  0.00  0.00    -0.075 A 
ATOM      6  C7  UNL d   1       0.151   2.118   1.751  0.00  0.00     0.076 C 
ATOM      7  C8  UNL d   1      -0.631   0.267   0.243  0.00  0.00     0.001 A 
ENDROOT
BRANCH   1   8
ATOM      8  C1  UNL d   1      -1.544  -1.573  -1.227  0.00  0.00     0.053 C 
ATOM      9  C   UNL d   1      -1.988  -1.176  -2.626  0.00  0.00     0.018 C 
ENDBRANCH   1   8
TORSDOF 1
ENDMDL
