MODEL 1
REMARK minimizedAffinity -3.77622676
REMARK minimizedRMSD -1
REMARK  1 active torsions:
REMARK  status: ('A' for Active; 'I' for Inactive)
REMARK    1  A    between atoms: C1_2  and  C2_3 
ROOT
ATOM      1  C2  UNL d   1      -1.107  -1.292  -1.043  0.00  0.00    -0.073 A 
ATOM      2  C3  UNL d   1      -0.863  -0.867  -2.354  0.00  0.00    -0.002 A 
ATOM      3  C4  UNL d   1      -1.830  -1.047  -3.345  0.00  0.00     0.004 A 
ATOM      4  C5  UNL d   1      -3.050  -1.646  -3.034  0.00  0.00    -0.004 A 
ATOM      5  C6  UNL d   1      -3.318  -2.066  -1.727  0.00  0.00    -0.075 A 
ATOM      6  C7  UNL d   1      -4.625  -2.713  -1.377  0.00  0.00     0.076 C 
ATOM      7  C8  UNL d   1      -2.341  -1.884  -0.738  0.00  0.00     0.001 A 
ENDROOT
BRANCH   1   8
ATOM      8  C1  UNL d   1      -0.069  -1.094   0.031  0.00  0.00     0.053 C 
ATOM      9  C   UNL d   1      -0.234   0.239   0.744  0.00  0.00     0.018 C 
ENDBRANCH   1   8
TORSDOF 1
ENDMDL
