MODEL 1
REMARK minimizedAffinity -0.940450191
REMARK minimizedRMSD -1
REMARK  1 active torsions:
REMARK  status: ('A' for Active; 'I' for Inactive)
REMARK    1  A    between atoms: C1_2  and  C2_3 
ROOT
ATOM      1  C2  UNL d   1      -1.241  -1.626  -0.769  0.00  0.00    -0.073 A 
ATOM      2  C3  UNL d   1      -1.847  -0.969   0.308  0.00  0.00    -0.002 A 
ATOM      3  C4  UNL d   1      -1.116  -0.075   1.090  0.00  0.00     0.004 A 
ATOM      4  C5  UNL d   1       0.225   0.178   0.800  0.00  0.00    -0.004 A 
ATOM      5  C6  UNL d   1       0.845  -0.460  -0.279  0.00  0.00    -0.075 A 
ATOM      6  C7  UNL d   1       2.287  -0.201  -0.604  0.00  0.00     0.076 C 
ATOM      7  C8  UNL d   1       0.105  -1.359  -1.058  0.00  0.00     0.001 A 
ENDROOT
BRANCH   1   8
ATOM      8  C1  UNL d   1      -2.029  -2.588  -1.620  0.00  0.00     0.053 C 
ATOM      9  C   UNL d   1      -2.447  -1.968  -2.943  0.00  0.00     0.018 C 
ENDBRANCH   1   8
TORSDOF 1
ENDMDL
