MODEL 1
REMARK minimizedAffinity -1.35257769
REMARK minimizedRMSD -1
REMARK  1 active torsions:
REMARK  status: ('A' for Active; 'I' for Inactive)
REMARK    1  A    between atoms: C1_2  and  C2_3 
ROOT
ATOM      1  C2  UNL d   1      -0.820  -1.138  -0.775  0.00  0.00    -0.073 A 
ATOM      2  C3  UNL d   1      -1.670  -2.202  -0.451  0.00  0.00    -0.002 A 
ATOM      3  C4  UNL d   1      -2.460  -2.798  -1.435  0.00  0.00     0.004 A 
ATOM      4  C5  UNL d   1      -2.403  -2.343  -2.752  0.00  0.00    -0.004 A 
ATOM      5  C6  UNL d   1      -1.551  -1.290  -3.098  0.00  0.00    -0.075 A 
ATOM      6  C7  UNL d   1      -1.479  -0.787  -4.510  0.00  0.00     0.076 C 
ATOM      7  C8  UNL d   1      -0.762  -0.694  -2.104  0.00  0.00     0.001 A 
ENDROOT
BRANCH   1   8
ATOM      8  C1  UNL d   1       0.040  -0.496   0.282  0.00  0.00     0.053 C 
ATOM      9  C   UNL d   1      -0.744   0.493   1.131  0.00  0.00     0.018 C 
ENDBRANCH   1   8
TORSDOF 1
ENDMDL
