MODEL 1
REMARK minimizedAffinity -4.40543652
REMARK minimizedRMSD -1
REMARK  1 active torsions:
REMARK  status: ('A' for Active; 'I' for Inactive)
REMARK    1  A    between atoms: C1_2  and  C2_3 
ROOT
ATOM      1  C2  UNL d   1      -0.796  -0.212  -0.091  0.00  0.00    -0.073 A 
ATOM      2  C3  UNL d   1      -1.873  -0.253   0.802  0.00  0.00    -0.002 A 
ATOM      3  C4  UNL d   1      -2.010   0.726   1.787  0.00  0.00     0.004 A 
ATOM      4  C5  UNL d   1      -1.077   1.758   1.885  0.00  0.00    -0.004 A 
ATOM      5  C6  UNL d   1      -0.000   1.823   0.995  0.00  0.00    -0.075 A 
ATOM      6  C7  UNL d   1       1.013   2.926   1.088  0.00  0.00     0.076 C 
ATOM      7  C8  UNL d   1       0.131   0.835   0.010  0.00  0.00     0.001 A 
ENDROOT
BRANCH   1   8
ATOM      8  C1  UNL d   1      -0.648  -1.263  -1.161  0.00  0.00     0.053 C 
ATOM      9  C   UNL d   1      -1.715  -1.135  -2.237  0.00  0.00     0.018 C 
ENDBRANCH   1   8
TORSDOF 1
ENDMDL
