MODEL 1
REMARK minimizedAffinity 6.06547737
REMARK minimizedRMSD -1
REMARK  1 active torsions:
REMARK  status: ('A' for Active; 'I' for Inactive)
REMARK    1  A    between atoms: C1_2  and  C2_3 
ROOT
ATOM      1  C2  UNL d   1      -1.726  -3.481  -0.144  0.00  0.00    -0.073 A 
ATOM      2  C3  UNL d   1      -2.726  -3.113  -1.051  0.00  0.00    -0.002 A 
ATOM      3  C4  UNL d   1      -2.807  -1.800  -1.517  0.00  0.00     0.004 A 
ATOM      4  C5  UNL d   1      -1.886  -0.845  -1.088  0.00  0.00    -0.004 A 
ATOM      5  C6  UNL d   1      -0.871  -1.196  -0.192  0.00  0.00    -0.075 A 
ATOM      6  C7  UNL d   1       0.126  -0.179   0.281  0.00  0.00     0.076 C 
ATOM      7  C8  UNL d   1      -0.798  -2.515   0.274  0.00  0.00     0.001 A 
ENDROOT
BRANCH   1   8
ATOM      8  C1  UNL d   1      -1.630  -4.898   0.357  0.00  0.00     0.053 C 
ATOM      9  C   UNL d   1      -0.839  -4.993   1.652  0.00  0.00     0.018 C 
ENDBRANCH   1   8
TORSDOF 1
ENDMDL
