MODEL 1
REMARK minimizedAffinity 0.908810019
REMARK minimizedRMSD -1
REMARK  2 active torsions:
REMARK  status: ('A' for Active; 'I' for Inactive)
REMARK    1  A    between atoms: C1_2  and  C2_3 
REMARK    2  A    between atoms: C2_3  and  C3_4 
ROOT
ATOM      1  C3  UNL d   1       5.278  -4.051  -4.497  0.00  0.00    -0.075 A 
ATOM      2  C4  UNL d   1       5.994  -5.010  -5.228  0.00  0.00     0.002 A 
ATOM      3  C5  UNL d   1       5.322  -5.975  -5.978  0.00  0.00     0.002 A 
ATOM      4  C6  UNL d   1       3.929  -6.000  -6.000  0.00  0.00    -0.004 A 
ATOM      5  C7  UNL d   1       3.208  -5.062  -5.264  0.00  0.00     0.002 A 
ATOM      6  C8  UNL d   1       3.878  -4.092  -4.516  0.00  0.00     0.002 A 
ENDROOT
BRANCH   1   7
ATOM      7  C2  UNL d   1       6.000  -2.985  -3.706  0.00  0.00     0.056 C 
BRANCH   7   8
ATOM      8  C1  UNL d   1       5.237  -2.504  -2.467  0.00  0.00     0.007 C 
ATOM      9  C   UNL d   1       4.801  -3.640  -1.552  0.00  0.00     0.009 C 
ENDBRANCH   7   8
ENDBRANCH   1   7
TORSDOF 2
ENDMDL
