MODEL 1
REMARK minimizedAffinity 15.7434654
REMARK minimizedRMSD -1
REMARK  2 active torsions:
REMARK  status: ('A' for Active; 'I' for Inactive)
REMARK    1  A    between atoms: C1_2  and  C2_3 
REMARK    2  A    between atoms: C2_3  and  C3_4 
ROOT
ATOM      1  C3  UNL d   1      -0.313   1.684   2.100  0.00  0.00    -0.075 A 
ATOM      2  C4  UNL d   1      -0.631   2.176   0.825  0.00  0.00     0.002 A 
ATOM      3  C5  UNL d   1       0.375   2.442  -0.103  0.00  0.00     0.002 A 
ATOM      4  C6  UNL d   1       1.711   2.232   0.233  0.00  0.00    -0.004 A 
ATOM      5  C7  UNL d   1       2.040   1.760   1.501  0.00  0.00     0.002 A 
ATOM      6  C8  UNL d   1       1.035   1.488   2.431  0.00  0.00     0.002 A 
ENDROOT
BRANCH   1   7
ATOM      7  C2  UNL d   1      -1.399   1.366   3.099  0.00  0.00     0.056 C 
BRANCH   7   8
ATOM      8  C1  UNL d   1      -2.398   0.308   2.618  0.00  0.00     0.007 C 
ATOM      9  C   UNL d   1      -1.740  -1.015   2.248  0.00  0.00     0.009 C 
ENDBRANCH   7   8
ENDBRANCH   1   7
TORSDOF 2
ENDMDL
