MODEL 1
REMARK minimizedAffinity 15.241087
REMARK minimizedRMSD -1
REMARK  2 active torsions:
REMARK  status: ('A' for Active; 'I' for Inactive)
REMARK    1  A    between atoms: C1_2  and  C2_3 
REMARK    2  A    between atoms: C2_3  and  C3_4 
ROOT
ATOM      1  C3  UNL d   1       4.022  -4.046  -4.906  0.00  0.00    -0.075 A 
ATOM      2  C4  UNL d   1       3.170  -4.161  -3.798  0.00  0.00     0.002 A 
ATOM      3  C5  UNL d   1       2.169  -5.132  -3.772  0.00  0.00     0.002 A 
ATOM      4  C6  UNL d   1       2.001  -5.993  -4.855  0.00  0.00    -0.004 A 
ATOM      5  C7  UNL d   1       2.831  -5.877  -5.968  0.00  0.00     0.002 A 
ATOM      6  C8  UNL d   1       3.836  -4.908  -5.995  0.00  0.00     0.002 A 
ENDROOT
BRANCH   1   7
ATOM      7  C2  UNL d   1       5.126  -3.016  -4.929  0.00  0.00     0.056 C 
BRANCH   7   8
ATOM      8  C1  UNL d   1       5.210  -2.164  -3.658  0.00  0.00     0.007 C 
ATOM      9  C   UNL d   1       5.404  -2.990  -2.393  0.00  0.00     0.009 C 
ENDBRANCH   7   8
ENDBRANCH   1   7
TORSDOF 2
ENDMDL
