MODEL 1
REMARK minimizedAffinity 8.40410042
REMARK minimizedRMSD -1
REMARK  2 active torsions:
REMARK  status: ('A' for Active; 'I' for Inactive)
REMARK    1  A    between atoms: C1_2  and  C2_3 
REMARK    2  A    between atoms: C2_3  and  C3_4 
ROOT
ATOM      1  C3  UNL d   1       4.749  -4.474  -3.487  0.00  0.00    -0.075 A 
ATOM      2  C4  UNL d   1       3.572  -5.150  -3.840  0.00  0.00     0.002 A 
ATOM      3  C5  UNL d   1       3.456  -5.766  -5.087  0.00  0.00     0.002 A 
ATOM      4  C6  UNL d   1       4.508  -5.704  -5.998  0.00  0.00    -0.004 A 
ATOM      5  C7  UNL d   1       5.675  -5.020  -5.664  0.00  0.00     0.002 A 
ATOM      6  C8  UNL d   1       5.796  -4.408  -4.416  0.00  0.00     0.002 A 
ENDROOT
BRANCH   1   7
ATOM      7  C2  UNL d   1       4.892  -3.831  -2.128  0.00  0.00     0.056 C 
BRANCH   7   8
ATOM      8  C1  UNL d   1       5.730  -2.548  -2.130  0.00  0.00     0.007 C 
ATOM      9  C   UNL d   1       5.998  -2.009  -3.529  0.00  0.00     0.009 C 
ENDBRANCH   7   8
ENDBRANCH   1   7
TORSDOF 2
ENDMDL
