MODEL 1
REMARK minimizedAffinity -0.390946865
REMARK minimizedRMSD -1
REMARK  2 active torsions:
REMARK  status: ('A' for Active; 'I' for Inactive)
REMARK    1  A    between atoms: C1_2  and  C2_3 
REMARK    2  A    between atoms: C2_3  and  C3_4 
ROOT
ATOM      1  C3  UNL d   1       2.930   2.472   1.053  0.00  0.00    -0.075 A 
ATOM      2  C4  UNL d   1       4.154   2.952   1.541  0.00  0.00     0.002 A 
ATOM      3  C5  UNL d   1       5.284   2.971   0.723  0.00  0.00     0.002 A 
ATOM      4  C6  UNL d   1       5.208   2.503  -0.587  0.00  0.00    -0.004 A 
ATOM      5  C7  UNL d   1       4.001   2.009  -1.077  0.00  0.00     0.002 A 
ATOM      6  C8  UNL d   1       2.867   1.993  -0.262  0.00  0.00     0.002 A 
ENDROOT
BRANCH   1   7
ATOM      7  C2  UNL d   1       1.696   2.476   1.924  0.00  0.00     0.056 C 
BRANCH   7   8
ATOM      8  C1  UNL d   1       0.390   2.247   1.156  0.00  0.00     0.007 C 
ATOM      9  C   UNL d   1      -0.090   3.482   0.406  0.00  0.00     0.009 C 
ENDBRANCH   7   8
ENDBRANCH   1   7
TORSDOF 2
ENDMDL
