MODEL 1
REMARK minimizedAffinity -1.22203219
REMARK minimizedRMSD -1
REMARK  2 active torsions:
REMARK  status: ('A' for Active; 'I' for Inactive)
REMARK    1  A    between atoms: C1_2  and  C2_3 
REMARK    2  A    between atoms: C2_3  and  C3_4 
ROOT
ATOM      1  C3  UNL d   1       3.889  -5.351  -3.387  0.00  0.00    -0.075 A 
ATOM      2  C4  UNL d   1       5.248  -5.362  -3.735  0.00  0.00     0.002 A 
ATOM      3  C5  UNL d   1       5.644  -5.676  -5.035  0.00  0.00     0.002 A 
ATOM      4  C6  UNL d   1       4.690  -5.992  -6.000  0.00  0.00    -0.004 A 
ATOM      5  C7  UNL d   1       3.338  -6.000  -5.662  0.00  0.00     0.002 A 
ATOM      6  C8  UNL d   1       2.939  -5.682  -4.362  0.00  0.00     0.002 A 
ENDROOT
BRANCH   1   7
ATOM      7  C2  UNL d   1       3.452  -4.983  -1.989  0.00  0.00     0.056 C 
BRANCH   7   8
ATOM      8  C1  UNL d   1       2.367  -5.899  -1.414  0.00  0.00     0.007 C 
ATOM      9  C   UNL d   1       0.971  -5.294  -1.486  0.00  0.00     0.009 C 
ENDBRANCH   7   8
ENDBRANCH   1   7
TORSDOF 2
ENDMDL
