MODEL 1
REMARK minimizedAffinity 6.88574505
REMARK minimizedRMSD -1
REMARK  2 active torsions:
REMARK  status: ('A' for Active; 'I' for Inactive)
REMARK    1  A    between atoms: C1_2  and  C2_3 
REMARK    2  A    between atoms: C2_3  and  C3_4 
ROOT
ATOM      1  C3  UNL d   1      -3.661   2.038  -4.464  0.00  0.00    -0.075 A 
ATOM      2  C4  UNL d   1      -3.687   2.821  -5.627  0.00  0.00     0.002 A 
ATOM      3  C5  UNL d   1      -4.848   3.498  -6.000  0.00  0.00     0.002 A 
ATOM      4  C6  UNL d   1      -5.999   3.394  -5.221  0.00  0.00    -0.004 A 
ATOM      5  C7  UNL d   1      -5.989   2.606  -4.072  0.00  0.00     0.002 A 
ATOM      6  C8  UNL d   1      -4.827   1.930  -3.695  0.00  0.00     0.002 A 
ENDROOT
BRANCH   1   7
ATOM      7  C2  UNL d   1      -2.399   1.326  -4.039  0.00  0.00     0.056 C 
BRANCH   7   8
ATOM      8  C1  UNL d   1      -1.343   2.246  -3.417  0.00  0.00     0.007 C 
ATOM      9  C   UNL d   1      -0.052   1.522  -3.057  0.00  0.00     0.009 C 
ENDBRANCH   7   8
ENDBRANCH   1   7
TORSDOF 2
ENDMDL
