MODEL 1
REMARK minimizedAffinity 10.8130817
REMARK minimizedRMSD -1
REMARK  2 active torsions:
REMARK  status: ('A' for Active; 'I' for Inactive)
REMARK    1  A    between atoms: C1_2  and  C2_3 
REMARK    2  A    between atoms: C2_3  and  C3_4 
ROOT
ATOM      1  C3  UNL d   1      -2.142  -3.899  -1.479  0.00  0.00    -0.075 A 
ATOM      2  C4  UNL d   1      -1.313  -3.924  -0.347  0.00  0.00     0.002 A 
ATOM      3  C5  UNL d   1      -1.779  -4.445   0.860  0.00  0.00     0.002 A 
ATOM      4  C6  UNL d   1      -3.080  -4.936   0.955  0.00  0.00    -0.004 A 
ATOM      5  C7  UNL d   1      -3.917  -4.900  -0.158  0.00  0.00     0.002 A 
ATOM      6  C8  UNL d   1      -3.452  -4.383  -1.368  0.00  0.00     0.002 A 
ENDROOT
BRANCH   1   7
ATOM      7  C2  UNL d   1      -1.634  -3.364  -2.796  0.00  0.00     0.056 C 
BRANCH   7   8
ATOM      8  C1  UNL d   1      -2.363  -2.107  -3.282  0.00  0.00     0.007 C 
ATOM      9  C   UNL d   1      -1.479  -0.867  -3.295  0.00  0.00     0.009 C 
ENDBRANCH   7   8
ENDBRANCH   1   7
TORSDOF 2
ENDMDL
