MODEL 1
REMARK minimizedAffinity 1.96427798
REMARK minimizedRMSD -1
REMARK  2 active torsions:
REMARK  status: ('A' for Active; 'I' for Inactive)
REMARK    1  A    between atoms: C1_2  and  C2_3 
REMARK    2  A    between atoms: C2_3  and  C3_4 
ROOT
ATOM      1  C3  UNL d   1       1.828   0.577   0.027  0.00  0.00    -0.075 A 
ATOM      2  C4  UNL d   1       0.709   1.421   0.075  0.00  0.00     0.002 A 
ATOM      3  C5  UNL d   1       0.861   2.784   0.331  0.00  0.00     0.002 A 
ATOM      4  C6  UNL d   1       2.129   3.318   0.552  0.00  0.00    -0.004 A 
ATOM      5  C7  UNL d   1       3.245   2.485   0.523  0.00  0.00     0.002 A 
ATOM      6  C8  UNL d   1       3.097   1.122   0.263  0.00  0.00     0.002 A 
ENDROOT
BRANCH   1   7
ATOM      7  C2  UNL d   1       1.673  -0.894  -0.278  0.00  0.00     0.056 C 
BRANCH   7   8
ATOM      8  C1  UNL d   1       2.286  -1.321  -1.616  0.00  0.00     0.007 C 
ATOM      9  C   UNL d   1       1.344  -1.126  -2.797  0.00  0.00     0.009 C 
ENDBRANCH   7   8
ENDBRANCH   1   7
TORSDOF 2
ENDMDL
