MODEL 1
REMARK minimizedAffinity -4.25366735
REMARK minimizedRMSD -1
REMARK  0 active torsions:
REMARK  status: ('A' for Active; 'I' for Inactive)
ROOT
ATOM      1  C1  DEN d   1      -0.996   0.207  -0.851  0.00  0.00     0.130 A 
ATOM      2  C2  DEN d   1       0.427   0.280  -1.167  0.00  0.00    -0.031 A 
ATOM      3  C3  DEN d   1       1.182   0.190   0.099  0.00  0.00     0.027 A 
ATOM      4  C4  DEN d   1       0.289  -0.060   2.506  0.00  0.00     0.027 A 
ATOM      5  C5  DEN d   1      -0.848  -0.154   3.277  0.00  0.00    -0.003 A 
ATOM      6  C6  DEN d   1      -2.105  -0.100   2.734  0.00  0.00     0.001 A 
ATOM      7  C7  DEN d   1      -2.254   0.006   1.377  0.00  0.00     0.017 A 
ATOM      8  C8  DEN d   1      -1.112   0.109   0.593  0.00  0.00    -0.094 A 
ATOM      9  C9  DEN d   1       0.150   0.040   1.159  0.00  0.00    -0.072 A 
ENDROOT
TORSDOF 0
ENDMDL
