MODEL 1
REMARK minimizedAffinity -2.61851335
REMARK minimizedRMSD -1
REMARK  0 active torsions:
REMARK  status: ('A' for Active; 'I' for Inactive)
ROOT
ATOM      1  C1  DEN d   1      -1.538  -1.019   2.167  0.00  0.00     0.130 A 
ATOM      2  C2  DEN d   1      -1.038  -0.225   3.285  0.00  0.00    -0.031 A 
ATOM      3  C3  DEN d   1      -0.003   0.693   2.766  0.00  0.00     0.027 A 
ATOM      4  C4  DEN d   1       0.864   0.962   0.352  0.00  0.00     0.027 A 
ATOM      5  C5  DEN d   1       0.749   0.498  -0.940  0.00  0.00    -0.003 A 
ATOM      6  C6  DEN d   1      -0.104  -0.518  -1.278  0.00  0.00     0.001 A 
ATOM      7  C7  DEN d   1      -0.910  -1.075  -0.320  0.00  0.00     0.017 A 
ATOM      8  C8  DEN d   1      -0.795  -0.618   0.986  0.00  0.00    -0.094 A 
ATOM      9  C9  DEN d   1       0.065   0.419   1.306  0.00  0.00    -0.072 A 
ENDROOT
TORSDOF 0
ENDMDL
