MODEL 1
REMARK minimizedAffinity -4.47692728
REMARK minimizedRMSD -1
REMARK  0 active torsions:
REMARK  status: ('A' for Active; 'I' for Inactive)
ROOT
ATOM      1  C1  DEN d   1       1.027   1.131   0.110  0.00  0.00     0.130 A 
ATOM      2  C2  DEN d   1       0.933   0.442  -1.174  0.00  0.00    -0.031 A 
ATOM      3  C3  DEN d   1       0.072  -0.745  -0.993  0.00  0.00     0.027 A 
ATOM      4  C4  DEN d   1      -1.120  -1.575   1.138  0.00  0.00     0.027 A 
ATOM      5  C5  DEN d   1      -1.328  -1.327   2.476  0.00  0.00    -0.003 A 
ATOM      6  C6  DEN d   1      -0.743  -0.271   3.123  0.00  0.00     0.001 A 
ATOM      7  C7  DEN d   1       0.043   0.604   2.421  0.00  0.00     0.017 A 
ATOM      8  C8  DEN d   1       0.263   0.356   1.072  0.00  0.00    -0.094 A 
ATOM      9  C9  DEN d   1      -0.347  -0.710   0.434  0.00  0.00    -0.072 A 
ENDROOT
TORSDOF 0
ENDMDL
