MODEL 1
REMARK minimizedAffinity -2.33106589
REMARK minimizedRMSD -1
REMARK  0 active torsions:
REMARK  status: ('A' for Active; 'I' for Inactive)
ROOT
ATOM      1  C1  DEN d   1      -1.568  -0.791   2.069  0.00  0.00     0.130 A 
ATOM      2  C2  DEN d   1      -0.907  -0.586   3.356  0.00  0.00    -0.031 A 
ATOM      3  C3  DEN d   1       0.474  -0.135   3.093  0.00  0.00     0.027 A 
ATOM      4  C4  DEN d   1       1.646   0.271   0.832  0.00  0.00     0.027 A 
ATOM      5  C5  DEN d   1       1.494   0.221  -0.536  0.00  0.00    -0.003 A 
ATOM      6  C6  DEN d   1       0.332  -0.199  -1.127  0.00  0.00     0.001 A 
ATOM      7  C7  DEN d   1      -0.740  -0.542  -0.347  0.00  0.00     0.017 A 
ATOM      8  C8  DEN d   1      -0.592  -0.502   1.034  0.00  0.00    -0.094 A 
ATOM      9  C9  DEN d   1       0.587  -0.063   1.612  0.00  0.00    -0.072 A 
ENDROOT
TORSDOF 0
ENDMDL
