MODEL 1
REMARK minimizedAffinity -5.04287243
REMARK minimizedRMSD -1
REMARK  0 active torsions:
REMARK  status: ('A' for Active; 'I' for Inactive)
ROOT
ATOM      1  C1  DEN d   1      -1.643  -0.523   2.488  0.00  0.00     0.130 A 
ATOM      2  C2  DEN d   1      -0.702  -0.733   3.586  0.00  0.00    -0.031 A 
ATOM      3  C3  DEN d   1       0.663  -0.520   3.064  0.00  0.00     0.027 A 
ATOM      4  C4  DEN d   1       1.407   0.114   0.677  0.00  0.00     0.027 A 
ATOM      5  C5  DEN d   1       0.969   0.387  -0.600  0.00  0.00    -0.003 A 
ATOM      6  C6  DEN d   1      -0.356   0.343  -0.942  0.00  0.00     0.001 A 
ATOM      7  C7  DEN d   1      -1.295   0.063   0.015  0.00  0.00     0.017 A 
ATOM      8  C8  DEN d   1      -0.861  -0.221   1.303  0.00  0.00    -0.094 A 
ATOM      9  C9  DEN d   1       0.482  -0.160   1.632  0.00  0.00    -0.072 A 
ENDROOT
TORSDOF 0
ENDMDL
