MODEL 1
REMARK minimizedAffinity -1.98111081
REMARK minimizedRMSD -1
REMARK  0 active torsions:
REMARK  status: ('A' for Active; 'I' for Inactive)
ROOT
ATOM      1  C1  DEN d   1      -0.668  -0.220  -1.141  0.00  0.00     0.130 A 
ATOM      2  C2  DEN d   1       0.498   0.185  -1.921  0.00  0.00    -0.031 A 
ATOM      3  C3  DEN d   1       1.570   0.561  -0.978  0.00  0.00     0.027 A 
ATOM      4  C4  DEN d   1       1.539   0.552   1.601  0.00  0.00     0.027 A 
ATOM      5  C5  DEN d   1       0.768   0.297   2.713  0.00  0.00    -0.003 A 
ATOM      6  C6  DEN d   1      -0.536  -0.112   2.620  0.00  0.00     0.001 A 
ATOM      7  C7  DEN d   1      -1.095  -0.322   1.387  0.00  0.00     0.017 A 
ATOM      8  C8  DEN d   1      -0.326  -0.060   0.261  0.00  0.00    -0.094 A 
ATOM      9  C9  DEN d   1       0.994   0.341   0.376  0.00  0.00    -0.072 A 
ENDROOT
TORSDOF 0
ENDMDL
