MODEL 1
REMARK minimizedAffinity -4.13169575
REMARK minimizedRMSD -1
REMARK  0 active torsions:
REMARK  status: ('A' for Active; 'I' for Inactive)
ROOT
ATOM      1  C1  DEN d   1      -1.399  -1.150   1.757  0.00  0.00     0.130 A 
ATOM      2  C2  DEN d   1      -0.784  -0.837   3.043  0.00  0.00    -0.031 A 
ATOM      3  C3  DEN d   1       0.312   0.124   2.803  0.00  0.00     0.027 A 
ATOM      4  C4  DEN d   1       1.106   1.155   0.576  0.00  0.00     0.027 A 
ATOM      5  C5  DEN d   1       0.899   1.183  -0.785  0.00  0.00    -0.003 A 
ATOM      6  C6  DEN d   1      -0.059   0.416  -1.394  0.00  0.00     0.001 A 
ATOM      7  C7  DEN d   1      -0.876  -0.379  -0.633  0.00  0.00     0.017 A 
ATOM      8  C8  DEN d   1      -0.668  -0.418   0.739  0.00  0.00    -0.094 A 
ATOM      9  C9  DEN d   1       0.297   0.374   1.337  0.00  0.00    -0.072 A 
ENDROOT
TORSDOF 0
ENDMDL
