MODEL 1
REMARK minimizedAffinity -2.74197745
REMARK minimizedRMSD -1
REMARK  0 active torsions:
REMARK  status: ('A' for Active; 'I' for Inactive)
ROOT
ATOM      1  C1  DEN d   1       1.405   0.548  -1.657  0.00  0.00     0.130 A 
ATOM      2  C2  DEN d   1       0.502   0.241  -2.763  0.00  0.00    -0.031 A 
ATOM      3  C3  DEN d   1      -0.787  -0.196  -2.191  0.00  0.00     0.027 A 
ATOM      4  C4  DEN d   1      -1.472  -0.420   0.285  0.00  0.00     0.027 A 
ATOM      5  C5  DEN d   1      -1.040  -0.284   1.586  0.00  0.00    -0.003 A 
ATOM      6  C6  DEN d   1       0.237   0.103   1.895  0.00  0.00     0.001 A 
ATOM      7  C7  DEN d   1       1.114   0.412   0.889  0.00  0.00     0.017 A 
ATOM      8  C8  DEN d   1       0.688   0.270  -0.425  0.00  0.00    -0.094 A 
ATOM      9  C9  DEN d   1      -0.610  -0.112  -0.717  0.00  0.00    -0.072 A 
ENDROOT
TORSDOF 0
ENDMDL
