MODEL 1
REMARK minimizedAffinity -6.42633438
REMARK minimizedRMSD -1
REMARK  0 active torsions:
REMARK  status: ('A' for Active; 'I' for Inactive)
ROOT
ATOM      1  C1  DEN d   1       1.387   0.361  -0.871  0.00  0.00     0.130 A 
ATOM      2  C2  DEN d   1       0.339   0.656  -1.844  0.00  0.00    -0.031 A 
ATOM      3  C3  DEN d   1      -0.966   0.447  -1.186  0.00  0.00     0.027 A 
ATOM      4  C4  DEN d   1      -1.464  -0.296   1.233  0.00  0.00     0.027 A 
ATOM      5  C5  DEN d   1      -0.897  -0.674   2.430  0.00  0.00    -0.003 A 
ATOM      6  C6  DEN d   1       0.459  -0.766   2.600  0.00  0.00     0.001 A 
ATOM      7  C7  DEN d   1       1.296  -0.432   1.568  0.00  0.00     0.017 A 
ATOM      8  C8  DEN d   1       0.732  -0.057   0.355  0.00  0.00    -0.094 A 
ATOM      9  C9  DEN d   1      -0.641   0.041   0.208  0.00  0.00    -0.072 A 
ENDROOT
TORSDOF 0
ENDMDL
