MODEL 1
REMARK minimizedAffinity -3.71618485
REMARK minimizedRMSD -1
REMARK  0 active torsions:
REMARK  status: ('A' for Active; 'I' for Inactive)
ROOT
ATOM      1  C1  DEN d   1      -0.879  -1.489   2.245  0.00  0.00     0.130 A 
ATOM      2  C2  DEN d   1      -0.097  -0.916   3.337  0.00  0.00    -0.031 A 
ATOM      3  C3  DEN d   1       0.715   0.188   2.787  0.00  0.00     0.027 A 
ATOM      4  C4  DEN d   1       0.831   1.066   0.365  0.00  0.00     0.027 A 
ATOM      5  C5  DEN d   1       0.358   0.891  -0.917  0.00  0.00    -0.003 A 
ATOM      6  C6  DEN d   1      -0.528  -0.103  -1.238  0.00  0.00     0.001 A 
ATOM      7  C7  DEN d   1      -1.003  -0.932  -0.257  0.00  0.00     0.017 A 
ATOM      8  C8  DEN d   1      -0.525  -0.767   1.036  0.00  0.00    -0.094 A 
ATOM      9  C9  DEN d   1       0.361   0.252   1.344  0.00  0.00    -0.072 A 
ENDROOT
TORSDOF 0
ENDMDL
