MODEL 1
REMARK minimizedAffinity -0.989357769
REMARK minimizedRMSD -1
REMARK  0 active torsions:
REMARK  status: ('A' for Active; 'I' for Inactive)
ROOT
ATOM      1  C1  DEN d   1      -1.981  -0.394   2.282  0.00  0.00     0.130 A 
ATOM      2  C2  DEN d   1      -1.128  -0.132   3.437  0.00  0.00    -0.031 A 
ATOM      3  C3  DEN d   1       0.171   0.366   2.941  0.00  0.00     0.027 A 
ATOM      4  C4  DEN d   1       0.937   0.760   0.510  0.00  0.00     0.027 A 
ATOM      5  C5  DEN d   1       0.564   0.669  -0.813  0.00  0.00    -0.003 A 
ATOM      6  C6  DEN d   1      -0.661   0.190  -1.195  0.00  0.00     0.001 A 
ATOM      7  C7  DEN d   1      -1.575  -0.175  -0.242  0.00  0.00     0.017 A 
ATOM      8  C8  DEN d   1      -1.203  -0.094   1.093  0.00  0.00    -0.094 A 
ATOM      9  C9  DEN d   1       0.035   0.405   1.460  0.00  0.00    -0.072 A 
ENDROOT
TORSDOF 0
ENDMDL
