MODEL 1
REMARK minimizedAffinity -6.49904871
REMARK minimizedRMSD -1
REMARK  0 active torsions:
REMARK  status: ('A' for Active; 'I' for Inactive)
ROOT
ATOM      1  C1  DEN d   1      -0.427  -0.280  -0.679  0.00  0.00     0.130 A 
ATOM      2  C2  DEN d   1       1.020  -0.445  -0.570  0.00  0.00    -0.031 A 
ATOM      3  C3  DEN d   1       1.365  -0.508   0.865  0.00  0.00     0.027 A 
ATOM      4  C4  DEN d   1      -0.193  -0.372   2.916  0.00  0.00     0.027 A 
ATOM      5  C5  DEN d   1      -1.499  -0.221   3.325  0.00  0.00    -0.003 A 
ATOM      6  C6  DEN d   1      -2.527  -0.046   2.437  0.00  0.00     0.001 A 
ATOM      7  C7  DEN d   1      -2.271  -0.064   1.091  0.00  0.00     0.017 A 
ATOM      8  C8  DEN d   1      -0.956  -0.208   0.671  0.00  0.00    -0.094 A 
ATOM      9  C9  DEN d   1       0.068  -0.396   1.584  0.00  0.00    -0.072 A 
ENDROOT
TORSDOF 0
ENDMDL
