MODEL 1
REMARK minimizedAffinity 1.64352274
REMARK minimizedRMSD -1
REMARK  0 active torsions:
REMARK  status: ('A' for Active; 'I' for Inactive)
ROOT
ATOM      1  C   UNL d   1       1.394  -1.160  -0.725  0.00  0.00     0.023 A 
ATOM      2  C1  UNL d   1       2.255  -1.011  -1.813  0.00  0.00     0.003 A 
ATOM      3  C2  UNL d   1       3.181   0.033  -1.835  0.00  0.00     0.048 A 
ATOM      4  C3  UNL d   1       3.241   0.926  -0.765  0.00  0.00     0.023 A 
ATOM      5  C4  UNL d   1       2.383   0.781   0.326  0.00  0.00     0.048 A 
ATOM      6  C5  UNL d   1       1.458  -0.265   0.343  0.00  0.00     0.003 A 
ATOM      7  I   UNL d   1       4.619   2.482  -0.795  0.00  0.00    -0.146 I 
ENDROOT
TORSDOF 0
ENDMDL
