MODEL 1
REMARK minimizedAffinity 2.47242522
REMARK minimizedRMSD -1
REMARK  0 active torsions:
REMARK  status: ('A' for Active; 'I' for Inactive)
ROOT
ATOM      1  C   UNL d   1       1.070  -0.600  -0.509  0.00  0.00     0.023 A 
ATOM      2  C1  UNL d   1       2.346  -1.063  -0.830  0.00  0.00     0.003 A 
ATOM      3  C2  UNL d   1       3.424  -0.175  -0.867  0.00  0.00     0.048 A 
ATOM      4  C3  UNL d   1       3.218   1.174  -0.580  0.00  0.00     0.023 A 
ATOM      5  C4  UNL d   1       1.943   1.642  -0.258  0.00  0.00     0.048 A 
ATOM      6  C5  UNL d   1       0.869   0.751  -0.223  0.00  0.00     0.003 A 
ATOM      7  I   UNL d   1       4.820   2.497  -0.633  0.00  0.00    -0.146 I 
ENDROOT
TORSDOF 0
ENDMDL
