MODEL 1
REMARK minimizedAffinity 1.42959809
REMARK minimizedRMSD -1
REMARK  0 active torsions:
REMARK  status: ('A' for Active; 'I' for Inactive)
ROOT
ATOM      1  C   UNL d   1       1.702  -1.992  -1.314  0.00  0.00     0.023 A 
ATOM      2  C1  UNL d   1       1.660  -1.169  -0.188  0.00  0.00     0.003 A 
ATOM      3  C2  UNL d   1       2.401   0.014  -0.159  0.00  0.00     0.048 A 
ATOM      4  C3  UNL d   1       3.180   0.369  -1.259  0.00  0.00     0.023 A 
ATOM      5  C4  UNL d   1       3.225  -0.451  -2.388  0.00  0.00     0.048 A 
ATOM      6  C5  UNL d   1       2.484  -1.633  -2.412  0.00  0.00     0.003 A 
ATOM      7  I   UNL d   1       4.283   2.131  -1.218  0.00  0.00    -0.146 I 
ENDROOT
TORSDOF 0
ENDMDL
