MODEL 1
REMARK minimizedAffinity 4.62404585
REMARK minimizedRMSD -1
REMARK  0 active torsions:
REMARK  status: ('A' for Active; 'I' for Inactive)
ROOT
ATOM      1  C   UNL d   1       2.935  -1.568  -1.796  0.00  0.00     0.023 A 
ATOM      2  C1  UNL d   1       2.622  -0.854  -0.640  0.00  0.00     0.003 A 
ATOM      3  C2  UNL d   1       3.293   0.335  -0.348  0.00  0.00     0.048 A 
ATOM      4  C3  UNL d   1       4.276   0.805  -1.218  0.00  0.00     0.023 A 
ATOM      5  C4  UNL d   1       4.593   0.095  -2.377  0.00  0.00     0.048 A 
ATOM      6  C5  UNL d   1       3.920  -1.094  -2.664  0.00  0.00     0.003 A 
ATOM      7  I   UNL d   1       5.277   2.575  -0.786  0.00  0.00    -0.146 I 
ENDROOT
TORSDOF 0
ENDMDL
