MODEL 1
REMARK minimizedAffinity 11.785533
REMARK minimizedRMSD -1
REMARK  0 active torsions:
REMARK  status: ('A' for Active; 'I' for Inactive)
ROOT
ATOM      1  C   UNL d   1      -0.579  -5.237   6.000  0.00  0.00     0.023 A 
ATOM      2  C1  UNL d   1       0.778  -4.915   5.999  0.00  0.00     0.003 A 
ATOM      3  C2  UNL d   1       1.192  -3.626   5.658  0.00  0.00     0.048 A 
ATOM      4  C3  UNL d   1       0.242  -2.662   5.319  0.00  0.00     0.023 A 
ATOM      5  C4  UNL d   1      -1.117  -2.979   5.320  0.00  0.00     0.048 A 
ATOM      6  C5  UNL d   1      -1.526  -4.270   5.661  0.00  0.00     0.003 A 
ATOM      7  I   UNL d   1       0.855  -0.742   4.811  0.00  0.00    -0.146 I 
ENDROOT
TORSDOF 0
ENDMDL
