MODEL 1
REMARK minimizedAffinity 0.246548995
REMARK minimizedRMSD -1
REMARK  1 active torsions:
REMARK  status: ('A' for Active; 'I' for Inactive)
REMARK    1  A    between atoms: C1_2  and  C2_3 
ROOT
ATOM      1  C2  UNL d   1       0.103  -1.031   0.330  0.00  0.00    -0.081 A 
ATOM      2  C3  UNL d   1       0.822  -0.732  -0.834  0.00  0.00     0.006 A 
ATOM      3  C4  UNL d   1       1.401   0.528  -1.004  0.00  0.00     0.002 A 
ATOM      4  C5  UNL d   1       1.279   1.505  -0.010  0.00  0.00    -0.080 A 
ATOM      5  C6  UNL d   1       1.922   2.851  -0.167  0.00  0.00     0.076 C 
ATOM      6  C7  UNL d   1       0.546   1.212   1.145  0.00  0.00     0.002 A 
ATOM      7  C8  UNL d   1      -0.034  -0.047   1.315  0.00  0.00     0.006 A 
ENDROOT
BRANCH   1   8
ATOM      8  C1  UNL d   1      -0.468  -2.410   0.545  0.00  0.00     0.054 C 
ATOM      9  C   UNL d   1       0.255  -3.446  -0.304  0.00  0.00     0.018 C 
ENDBRANCH   1   8
TORSDOF 1
ENDMDL
