MODEL 1
REMARK minimizedAffinity -0.422130108
REMARK minimizedRMSD -1
REMARK  1 active torsions:
REMARK  status: ('A' for Active; 'I' for Inactive)
REMARK    1  A    between atoms: C1_2  and  C2_3 
ROOT
ATOM      1  C2  UNL d   1      -0.939   0.449   1.456  0.00  0.00    -0.081 A 
ATOM      2  C3  UNL d   1      -0.048   1.528   1.483  0.00  0.00     0.006 A 
ATOM      3  C4  UNL d   1       1.040   1.570   0.608  0.00  0.00     0.002 A 
ATOM      4  C5  UNL d   1       1.250   0.538  -0.313  0.00  0.00    -0.080 A 
ATOM      5  C6  UNL d   1       2.397   0.585  -1.279  0.00  0.00     0.076 C 
ATOM      6  C7  UNL d   1       0.369  -0.549  -0.328  0.00  0.00     0.002 A 
ATOM      7  C8  UNL d   1      -0.719  -0.591   0.547  0.00  0.00     0.006 A 
ENDROOT
BRANCH   1   8
ATOM      8  C1  UNL d   1      -2.150   0.433   2.355  0.00  0.00     0.054 C 
ATOM      9  C   UNL d   1      -3.438   0.379   1.546  0.00  0.00     0.018 C 
ENDBRANCH   1   8
TORSDOF 1
ENDMDL
