MODEL 1
REMARK minimizedAffinity 0.530360162
REMARK minimizedRMSD -1
REMARK  1 active torsions:
REMARK  status: ('A' for Active; 'I' for Inactive)
REMARK    1  A    between atoms: C1_2  and  C2_3 
ROOT
ATOM      1  C2  UNL d   1       1.365   1.011  -1.099  0.00  0.00    -0.081 A 
ATOM      2  C3  UNL d   1       0.719   0.702   0.105  0.00  0.00     0.006 A 
ATOM      3  C4  UNL d   1       0.020  -0.500   0.244  0.00  0.00     0.002 A 
ATOM      4  C5  UNL d   1      -0.038  -1.414  -0.813  0.00  0.00    -0.080 A 
ATOM      5  C6  UNL d   1      -0.759  -2.721  -0.666  0.00  0.00     0.076 C 
ATOM      6  C7  UNL d   1       0.593  -1.097  -2.021  0.00  0.00     0.002 A 
ATOM      7  C8  UNL d   1       1.291   0.104  -2.161  0.00  0.00     0.006 A 
ENDROOT
BRANCH   1   8
ATOM      8  C1  UNL d   1       2.174   2.277  -1.231  0.00  0.00     0.054 C 
ATOM      9  C   UNL d   1       1.731   3.324  -0.219  0.00  0.00     0.018 C 
ENDBRANCH   1   8
TORSDOF 1
ENDMDL
