MODEL 1
REMARK minimizedAffinity -1.78119397
REMARK minimizedRMSD -1
REMARK  1 active torsions:
REMARK  status: ('A' for Active; 'I' for Inactive)
REMARK    1  A    between atoms: C1_2  and  C2_3 
ROOT
ATOM      1  C2  UNL d   1      -3.734   1.731  -5.892  0.00  0.00    -0.081 A 
ATOM      2  C3  UNL d   1      -5.131   1.704  -5.981  0.00  0.00     0.006 A 
ATOM      3  C4  UNL d   1      -5.862   2.895  -6.000  0.00  0.00     0.002 A 
ATOM      4  C5  UNL d   1      -5.208   4.130  -5.939  0.00  0.00    -0.080 A 
ATOM      5  C6  UNL d   1      -5.978   5.416  -5.989  0.00  0.00     0.076 C 
ATOM      6  C7  UNL d   1      -3.813   4.156  -5.833  0.00  0.00     0.002 A 
ATOM      7  C8  UNL d   1      -3.082   2.966  -5.813  0.00  0.00     0.006 A 
ENDROOT
BRANCH   1   8
ATOM      8  C1  UNL d   1      -2.939   0.451  -5.937  0.00  0.00     0.054 C 
ATOM      9  C   UNL d   1      -3.844  -0.767  -5.816  0.00  0.00     0.018 C 
ENDBRANCH   1   8
TORSDOF 1
ENDMDL
