MODEL 1
REMARK minimizedAffinity 7.60956097
REMARK minimizedRMSD -1
REMARK  1 active torsions:
REMARK  status: ('A' for Active; 'I' for Inactive)
REMARK    1  A    between atoms: C1_2  and  C2_3 
ROOT
ATOM      1  C2  UNL d   1       0.954   0.008  -1.923  0.00  0.00    -0.081 A 
ATOM      2  C3  UNL d   1       0.519  -1.110  -1.201  0.00  0.00     0.006 A 
ATOM      3  C4  UNL d   1       0.410  -1.055   0.191  0.00  0.00     0.002 A 
ATOM      4  C5  UNL d   1       0.725   0.119   0.882  0.00  0.00    -0.080 A 
ATOM      5  C6  UNL d   1       0.583   0.201   2.373  0.00  0.00     0.076 C 
ATOM      6  C7  UNL d   1       1.176   1.231   0.162  0.00  0.00     0.002 A 
ATOM      7  C8  UNL d   1       1.287   1.177  -1.229  0.00  0.00     0.006 A 
ENDROOT
BRANCH   1   8
ATOM      8  C1  UNL d   1       1.011  -0.027  -3.429  0.00  0.00     0.054 C 
ATOM      9  C   UNL d   1      -0.212   0.637  -4.045  0.00  0.00     0.018 C 
ENDBRANCH   1   8
TORSDOF 1
ENDMDL
