MODEL 1
REMARK minimizedAffinity 3.4127326
REMARK minimizedRMSD -1
REMARK  1 active torsions:
REMARK  status: ('A' for Active; 'I' for Inactive)
REMARK    1  A    between atoms: C1_2  and  C2_3 
ROOT
ATOM      1  C2  UNL d   1      -3.835  -1.915  -5.950  0.00  0.00    -0.081 A 
ATOM      2  C3  UNL d   1      -2.597  -1.261  -5.971  0.00  0.00     0.006 A 
ATOM      3  C4  UNL d   1      -2.534   0.135  -5.998  0.00  0.00     0.002 A 
ATOM      4  C5  UNL d   1      -3.706   0.899  -5.997  0.00  0.00    -0.080 A 
ATOM      5  C6  UNL d   1      -3.651   2.398  -5.996  0.00  0.00     0.076 C 
ATOM      6  C7  UNL d   1      -4.943   0.245  -5.994  0.00  0.00     0.002 A 
ATOM      7  C8  UNL d   1      -5.007  -1.150  -5.968  0.00  0.00     0.006 A 
ENDROOT
BRANCH   1   8
ATOM      8  C1  UNL d   1      -3.907  -3.417  -5.855  0.00  0.00     0.054 C 
ATOM      9  C   UNL d   1      -2.521  -4.043  -5.930  0.00  0.00     0.018 C 
ENDBRANCH   1   8
TORSDOF 1
ENDMDL
