MODEL 1
REMARK minimizedAffinity -2.96068358
REMARK minimizedRMSD -1
REMARK  1 active torsions:
REMARK  status: ('A' for Active; 'I' for Inactive)
REMARK    1  A    between atoms: C1_2  and  C2_3 
ROOT
ATOM      1  C2  UNL d   1      -3.848  -0.213  -5.941  0.00  0.00    -0.081 A 
ATOM      2  C3  UNL d   1      -2.909  -1.252  -5.922  0.00  0.00     0.006 A 
ATOM      3  C4  UNL d   1      -3.328  -2.584  -5.928  0.00  0.00     0.002 A 
ATOM      4  C5  UNL d   1      -4.690  -2.901  -5.962  0.00  0.00    -0.080 A 
ATOM      5  C6  UNL d   1      -5.152  -4.327  -6.000  0.00  0.00     0.076 C 
ATOM      6  C7  UNL d   1      -5.629  -1.863  -5.964  0.00  0.00     0.002 A 
ATOM      7  C8  UNL d   1      -5.211  -0.530  -5.957  0.00  0.00     0.006 A 
ENDROOT
BRANCH   1   8
ATOM      8  C1  UNL d   1      -3.399   1.225  -6.000  0.00  0.00     0.054 C 
ATOM      9  C   UNL d   1      -4.533   2.174  -5.638  0.00  0.00     0.018 C 
ENDBRANCH   1   8
TORSDOF 1
ENDMDL
