MODEL 1
REMARK minimizedAffinity 11.1532469
REMARK minimizedRMSD -1
REMARK  1 active torsions:
REMARK  status: ('A' for Active; 'I' for Inactive)
REMARK    1  A    between atoms: C1_2  and  C2_3 
ROOT
ATOM      1  C2  UNL d   1      -3.178   1.726  -5.766  0.00  0.00    -0.081 A 
ATOM      2  C3  UNL d   1      -4.497   1.254  -5.773  0.00  0.00     0.006 A 
ATOM      3  C4  UNL d   1      -4.758  -0.116  -5.856  0.00  0.00     0.002 A 
ATOM      4  C5  UNL d   1      -3.706  -1.036  -5.926  0.00  0.00    -0.080 A 
ATOM      5  C6  UNL d   1      -3.972  -2.511  -5.985  0.00  0.00     0.076 C 
ATOM      6  C7  UNL d   1      -2.390  -0.563  -5.937  0.00  0.00     0.002 A 
ATOM      7  C8  UNL d   1      -2.128   0.806  -5.855  0.00  0.00     0.006 A 
ENDROOT
BRANCH   1   8
ATOM      8  C1  UNL d   1      -2.892   3.198  -5.611  0.00  0.00     0.054 C 
ATOM      9  C   UNL d   1      -2.844   3.601  -4.145  0.00  0.00     0.018 C 
ENDBRANCH   1   8
TORSDOF 1
ENDMDL
