MODEL 1
REMARK minimizedAffinity 6.48195696
REMARK minimizedRMSD -1
REMARK  1 active torsions:
REMARK  status: ('A' for Active; 'I' for Inactive)
REMARK    1  A    between atoms: C1_2  and  C2_3 
ROOT
ATOM      1  C2  UNL d   1      -4.118  -0.818   3.288  0.00  0.00    -0.081 A 
ATOM      2  C3  UNL d   1      -4.604   0.227   2.492  0.00  0.00     0.006 A 
ATOM      3  C4  UNL d   1      -4.136   1.531   2.672  0.00  0.00     0.002 A 
ATOM      4  C5  UNL d   1      -3.170   1.810   3.645  0.00  0.00    -0.080 A 
ATOM      5  C6  UNL d   1      -2.638   3.200   3.829  0.00  0.00     0.076 C 
ATOM      6  C7  UNL d   1      -2.698   0.770   4.452  0.00  0.00     0.002 A 
ATOM      7  C8  UNL d   1      -3.166  -0.534   4.273  0.00  0.00     0.006 A 
ENDROOT
BRANCH   1   8
ATOM      8  C1  UNL d   1      -4.573  -2.235   3.053  0.00  0.00     0.054 C 
ATOM      9  C   UNL d   1      -3.560  -3.237   3.589  0.00  0.00     0.018 C 
ENDBRANCH   1   8
TORSDOF 1
ENDMDL
