MODEL 1
REMARK minimizedAffinity 6.78868151
REMARK minimizedRMSD -1
REMARK  1 active torsions:
REMARK  status: ('A' for Active; 'I' for Inactive)
REMARK    1  A    between atoms: C1_2  and  C2_3 
ROOT
ATOM      1  C2  UNL d   1       2.192   4.487   2.113  0.00  0.00    -0.081 A 
ATOM      2  C3  UNL d   1       2.080   3.092   2.166  0.00  0.00     0.006 A 
ATOM      3  C4  UNL d   1       1.485   2.389   1.115  0.00  0.00     0.002 A 
ATOM      4  C5  UNL d   1       1.002   3.067  -0.009  0.00  0.00    -0.080 A 
ATOM      5  C6  UNL d   1       0.389   2.321  -1.157  0.00  0.00     0.076 C 
ATOM      6  C7  UNL d   1       1.098   4.462  -0.054  0.00  0.00     0.002 A 
ATOM      7  C8  UNL d   1       1.692   5.165   0.996  0.00  0.00     0.006 A 
ENDROOT
BRANCH   1   8
ATOM      8  C1  UNL d   1       2.891   5.242   3.214  0.00  0.00     0.054 C 
ATOM      9  C   UNL d   1       4.100   5.999   2.686  0.00  0.00     0.018 C 
ENDBRANCH   1   8
TORSDOF 1
ENDMDL
