MODEL 1
REMARK minimizedAffinity -0.672493458
REMARK minimizedRMSD -1
REMARK  1 active torsions:
REMARK  status: ('A' for Active; 'I' for Inactive)
REMARK    1  A    between atoms: C1_2  and  C2_3 
ROOT
ATOM      1  C2  UNL d   1      -0.003  -0.935  -0.105  0.00  0.00    -0.081 A 
ATOM      2  C3  UNL d   1      -0.359   0.036   0.838  0.00  0.00     0.006 A 
ATOM      3  C4  UNL d   1       0.426   1.178   1.010  0.00  0.00     0.002 A 
ATOM      4  C5  UNL d   1       1.575   1.373   0.236  0.00  0.00    -0.080 A 
ATOM      5  C6  UNL d   1       2.410   2.609   0.390  0.00  0.00     0.076 C 
ATOM      6  C7  UNL d   1       1.941   0.394  -0.694  0.00  0.00     0.002 A 
ATOM      7  C8  UNL d   1       1.157  -0.749  -0.866  0.00  0.00     0.006 A 
ENDROOT
BRANCH   1   8
ATOM      8  C1  UNL d   1      -0.882  -2.137  -0.338  0.00  0.00     0.054 C 
ATOM      9  C   UNL d   1      -1.848  -1.901  -1.491  0.00  0.00     0.018 C 
ENDBRANCH   1   8
TORSDOF 1
ENDMDL
