MODEL 1
REMARK minimizedAffinity 4.43910456
REMARK minimizedRMSD -1
REMARK  0 active torsions:
REMARK  status: ('A' for Active; 'I' for Inactive)
ROOT
ATOM      1  O1  BZF d   1      -3.724  -5.378  -3.902  0.00  0.00    -0.204 OA
ATOM      2  C2  BZF d   1      -4.122  -5.743  -5.173  0.00  0.00     0.174 A 
ATOM      3  C3  BZF d   1      -3.053  -5.987  -5.958  0.00  0.00    -0.012 A 
ATOM      4  C3A BZF d   1      -1.917  -5.849  -5.100  0.00  0.00    -0.107 A 
ATOM      5  C4  BZF d   1      -0.572  -5.985  -5.293  0.00  0.00     0.055 A 
ATOM      6  C5  BZF d   1       0.275  -5.710  -4.266  0.00  0.00    -0.016 A 
ATOM      7  C6  BZF d   1      -0.188  -5.292  -3.036  0.00  0.00     0.022 A 
ATOM      8  C7  BZF d   1      -1.514  -5.148  -2.795  0.00  0.00     0.029 A 
ATOM      9  C7A BZF d   1      -2.374  -5.457  -3.820  0.00  0.00     0.058 A 
ENDROOT
TORSDOF 0
ENDMDL
