MODEL 1
REMARK minimizedAffinity 12.7210073
REMARK minimizedRMSD -1
REMARK  0 active torsions:
REMARK  status: ('A' for Active; 'I' for Inactive)
ROOT
ATOM      1  O1  BZF d   1       5.077   3.001  -5.157  0.00  0.00    -0.204 OA
ATOM      2  C2  BZF d   1       6.000   3.989  -4.872  0.00  0.00     0.174 A 
ATOM      3  C3  BZF d   1       5.591   4.737  -3.827  0.00  0.00    -0.012 A 
ATOM      4  C3A BZF d   1       4.379   4.125  -3.376  0.00  0.00    -0.107 A 
ATOM      5  C4  BZF d   1       3.509   4.401  -2.360  0.00  0.00     0.055 A 
ATOM      6  C5  BZF d   1       2.381   3.653  -2.236  0.00  0.00    -0.016 A 
ATOM      7  C6  BZF d   1       2.089   2.628  -3.111  0.00  0.00     0.022 A 
ATOM      8  C7  BZF d   1       2.924   2.313  -4.131  0.00  0.00     0.029 A 
ATOM      9  C7A BZF d   1       4.081   3.045  -4.240  0.00  0.00     0.058 A 
ENDROOT
TORSDOF 0
ENDMDL
