MODEL 1
REMARK minimizedAffinity 2.57775164
REMARK minimizedRMSD -1
REMARK  0 active torsions:
REMARK  status: ('A' for Active; 'I' for Inactive)
ROOT
ATOM      1  O1  BZF d   1       1.148  -5.997  -5.303  0.00  0.00    -0.204 OA
ATOM      2  C2  BZF d   1       1.822  -5.573  -4.174  0.00  0.00     0.174 A 
ATOM      3  C3  BZF d   1       0.970  -5.021  -3.287  0.00  0.00    -0.012 A 
ATOM      4  C3A BZF d   1      -0.331  -5.187  -3.860  0.00  0.00    -0.107 A 
ATOM      5  C4  BZF d   1      -1.589  -4.857  -3.445  0.00  0.00     0.055 A 
ATOM      6  C5  BZF d   1      -2.640  -5.092  -4.274  0.00  0.00    -0.016 A 
ATOM      7  C6  BZF d   1      -2.470  -5.651  -5.523  0.00  0.00     0.022 A 
ATOM      8  C7  BZF d   1      -1.241  -6.000  -5.977  0.00  0.00     0.029 A 
ATOM      9  C7A BZF d   1      -0.180  -5.794  -5.129  0.00  0.00     0.058 A 
ENDROOT
TORSDOF 0
ENDMDL
