MODEL 1
REMARK minimizedAffinity 16.6059685
REMARK minimizedRMSD -1
REMARK  0 active torsions:
REMARK  status: ('A' for Active; 'I' for Inactive)
ROOT
ATOM      1  O1  BZF d   1      -0.660  -0.442   2.854  0.00  0.00    -0.204 OA
ATOM      2  C2  BZF d   1      -0.417  -1.496   1.995  0.00  0.00     0.174 A 
ATOM      3  C3  BZF d   1      -1.473  -1.704   1.182  0.00  0.00    -0.012 A 
ATOM      4  C3A BZF d   1      -2.400  -0.660   1.495  0.00  0.00    -0.107 A 
ATOM      5  C4  BZF d   1      -3.631  -0.322   1.011  0.00  0.00     0.055 A 
ATOM      6  C5  BZF d   1      -4.304   0.711   1.583  0.00  0.00    -0.016 A 
ATOM      7  C6  BZF d   1      -3.779   1.423   2.641  0.00  0.00     0.022 A 
ATOM      8  C7  BZF d   1      -2.558   1.128   3.151  0.00  0.00     0.029 A 
ATOM      9  C7A BZF d   1      -1.862   0.106   2.554  0.00  0.00     0.058 A 
ENDROOT
TORSDOF 0
ENDMDL
