MODEL 1
REMARK minimizedAffinity 12.9492998
REMARK minimizedRMSD -1
REMARK  0 active torsions:
REMARK  status: ('A' for Active; 'I' for Inactive)
ROOT
ATOM      1  O1  BZF d   1       4.833   3.332   1.890  0.00  0.00    -0.204 OA
ATOM      2  C2  BZF d   1       5.890   3.980   1.281  0.00  0.00     0.174 A 
ATOM      3  C3  BZF d   1       5.827   3.841  -0.059  0.00  0.00    -0.012 A 
ATOM      4  C3A BZF d   1       4.607   3.136  -0.308  0.00  0.00    -0.107 A 
ATOM      5  C4  BZF d   1       3.982   2.714  -1.446  0.00  0.00     0.055 A 
ATOM      6  C5  BZF d   1       2.838   1.988  -1.341  0.00  0.00    -0.016 A 
ATOM      7  C6  BZF d   1       2.295   1.661  -0.115  0.00  0.00     0.022 A 
ATOM      8  C7  BZF d   1       2.877   2.062   1.042  0.00  0.00     0.029 A 
ATOM      9  C7A BZF d   1       4.015   2.824   0.938  0.00  0.00     0.058 A 
ENDROOT
TORSDOF 0
ENDMDL
