MODEL 1
REMARK minimizedAffinity 10.9832382
REMARK minimizedRMSD -1
REMARK  0 active torsions:
REMARK  status: ('A' for Active; 'I' for Inactive)
ROOT
ATOM      1  O1  BZF d   1      -0.115   4.624  -3.235  0.00  0.00    -0.204 OA
ATOM      2  C2  BZF d   1      -0.437   5.550  -2.262  0.00  0.00     0.174 A 
ATOM      3  C3  BZF d   1       0.672   5.983  -1.628  0.00  0.00    -0.012 A 
ATOM      4  C3A BZF d   1       1.763   5.352  -2.306  0.00  0.00    -0.107 A 
ATOM      5  C4  BZF d   1       3.119   5.399  -2.149  0.00  0.00     0.055 A 
ATOM      6  C5  BZF d   1       3.902   4.606  -2.927  0.00  0.00    -0.016 A 
ATOM      7  C6  BZF d   1       3.363   3.753  -3.868  0.00  0.00     0.022 A 
ATOM      8  C7  BZF d   1       2.024   3.676  -4.064  0.00  0.00     0.029 A 
ATOM      9  C7A BZF d   1       1.232   4.500  -3.301  0.00  0.00     0.058 A 
ENDROOT
TORSDOF 0
ENDMDL
