MODEL 1
REMARK minimizedAffinity 17.1315899
REMARK minimizedRMSD -1
REMARK  0 active torsions:
REMARK  status: ('A' for Active; 'I' for Inactive)
ROOT
ATOM      1  O1  BZF d   1       4.213   1.121  -0.243  0.00  0.00    -0.204 OA
ATOM      2  C2  BZF d   1       3.818   0.441   0.892  0.00  0.00     0.174 A 
ATOM      3  C3  BZF d   1       4.227   1.087   2.003  0.00  0.00    -0.012 A 
ATOM      4  C3A BZF d   1       4.841   2.291   1.534  0.00  0.00    -0.107 A 
ATOM      5  C4  BZF d   1       5.426   3.354   2.161  0.00  0.00     0.055 A 
ATOM      6  C5  BZF d   1       5.994   4.333   1.411  0.00  0.00    -0.016 A 
ATOM      7  C6  BZF d   1       6.000   4.281   0.032  0.00  0.00     0.022 A 
ATOM      8  C7  BZF d   1       5.427   3.250  -0.636  0.00  0.00     0.029 A 
ATOM      9  C7A BZF d   1       4.823   2.274   0.120  0.00  0.00     0.058 A 
ENDROOT
TORSDOF 0
ENDMDL
