MODEL 1
REMARK minimizedAffinity 19.1920013
REMARK minimizedRMSD -1
REMARK  0 active torsions:
REMARK  status: ('A' for Active; 'I' for Inactive)
ROOT
ATOM      1  O1  BZF d   1       2.209   2.658  -4.029  0.00  0.00    -0.204 OA
ATOM      2  C2  BZF d   1       1.571   2.868  -2.821  0.00  0.00     0.174 A 
ATOM      3  C3  BZF d   1       2.374   3.532  -1.965  0.00  0.00    -0.012 A 
ATOM      4  C3A BZF d   1       3.556   3.831  -2.713  0.00  0.00    -0.107 A 
ATOM      5  C4  BZF d   1       4.715   4.490  -2.414  0.00  0.00     0.055 A 
ATOM      6  C5  BZF d   1       5.702   4.545  -3.346  0.00  0.00    -0.016 A 
ATOM      7  C6  BZF d   1       5.568   3.949  -4.583  0.00  0.00     0.022 A 
ATOM      8  C7  BZF d   1       4.435   3.289  -4.927  0.00  0.00     0.029 A 
ATOM      9  C7A BZF d   1       3.422   3.260  -4.000  0.00  0.00     0.058 A 
ENDROOT
TORSDOF 0
ENDMDL
