MODEL 1
REMARK minimizedAffinity 20.3399982
REMARK minimizedRMSD -1
REMARK  0 active torsions:
REMARK  status: ('A' for Active; 'I' for Inactive)
ROOT
ATOM      1  O1  BZF d   1       1.052  -1.582   4.388  0.00  0.00    -0.204 OA
ATOM      2  C2  BZF d   1       1.654  -2.582   3.648  0.00  0.00     0.174 A 
ATOM      3  C3  BZF d   1       0.947  -2.841   2.529  0.00  0.00    -0.012 A 
ATOM      4  C3A BZF d   1      -0.117  -1.883   2.526  0.00  0.00    -0.107 A 
ATOM      5  C4  BZF d   1      -1.144  -1.624   1.664  0.00  0.00     0.055 A 
ATOM      6  C5  BZF d   1      -2.053  -0.667   1.989  0.00  0.00    -0.016 A 
ATOM      7  C6  BZF d   1      -1.968   0.045   3.168  0.00  0.00     0.022 A 
ATOM      8  C7  BZF d   1      -0.964  -0.174   4.051  0.00  0.00     0.029 A 
ATOM      9  C7A BZF d   1      -0.026  -1.117   3.711  0.00  0.00     0.058 A 
ENDROOT
TORSDOF 0
ENDMDL
