MODEL 1
REMARK minimizedAffinity 20.5770168
REMARK minimizedRMSD -1
REMARK  0 active torsions:
REMARK  status: ('A' for Active; 'I' for Inactive)
ROOT
ATOM      1  O1  BZF d   1       1.709   3.097  -4.103  0.00  0.00    -0.204 OA
ATOM      2  C2  BZF d   1       0.964   3.430  -2.988  0.00  0.00     0.174 A 
ATOM      3  C3  BZF d   1       1.722   4.082  -2.083  0.00  0.00    -0.012 A 
ATOM      4  C3A BZF d   1       2.999   4.243  -2.709  0.00  0.00    -0.107 A 
ATOM      5  C4  BZF d   1       4.169   4.828  -2.317  0.00  0.00     0.055 A 
ATOM      6  C5  BZF d   1       5.253   4.749  -3.133  0.00  0.00    -0.016 A 
ATOM      7  C6  BZF d   1       5.203   4.089  -4.344  0.00  0.00     0.022 A 
ATOM      8  C7  BZF d   1       4.063   3.497  -4.777  0.00  0.00     0.029 A 
ATOM      9  C7A BZF d   1       2.958   3.604  -3.970  0.00  0.00     0.058 A 
ENDROOT
TORSDOF 0
ENDMDL
