MODEL 1
REMARK minimizedAffinity 21.2546844
REMARK minimizedRMSD -1
REMARK  0 active torsions:
REMARK  status: ('A' for Active; 'I' for Inactive)
ROOT
ATOM      1  O1  BZF d   1      -0.974  -0.339   2.630  0.00  0.00    -0.204 OA
ATOM      2  C2  BZF d   1      -0.748  -1.676   2.363  0.00  0.00     0.174 A 
ATOM      3  C3  BZF d   1      -1.830  -2.238   1.787  0.00  0.00    -0.012 A 
ATOM      4  C3A BZF d   1      -2.759  -1.166   1.604  0.00  0.00    -0.107 A 
ATOM      5  C4  BZF d   1      -4.012  -1.091   1.066  0.00  0.00     0.055 A 
ATOM      6  C5  BZF d   1      -4.678   0.093   1.105  0.00  0.00    -0.016 A 
ATOM      7  C6  BZF d   1      -4.124   1.219   1.679  0.00  0.00     0.022 A 
ATOM      8  C7  BZF d   1      -2.882   1.195   2.221  0.00  0.00     0.029 A 
ATOM      9  C7A BZF d   1      -2.193   0.008   2.153  0.00  0.00     0.058 A 
ENDROOT
TORSDOF 0
ENDMDL
