MODEL 1
REMARK minimizedAffinity 9.54690266
REMARK minimizedRMSD -1
REMARK  0 active torsions:
REMARK  status: ('A' for Active; 'I' for Inactive)
ROOT
ATOM      1  O1  BZF d   1       3.188   3.391  -5.176  0.00  0.00    -0.204 OA
ATOM      2  C2  BZF d   1       4.412   3.430  -5.816  0.00  0.00     0.174 A 
ATOM      3  C3  BZF d   1       5.298   4.162  -5.111  0.00  0.00    -0.012 A 
ATOM      4  C3A BZF d   1       4.610   4.532  -3.912  0.00  0.00    -0.107 A 
ATOM      5  C4  BZF d   1       4.970   5.250  -2.807  0.00  0.00     0.055 A 
ATOM      6  C5  BZF d   1       4.040   5.492  -1.846  0.00  0.00    -0.016 A 
ATOM      7  C6  BZF d   1       2.743   5.036  -1.959  0.00  0.00     0.022 A 
ATOM      8  C7  BZF d   1       2.341   4.315  -3.034  0.00  0.00     0.029 A 
ATOM      9  C7A BZF d   1       3.287   4.041  -3.991  0.00  0.00     0.058 A 
ENDROOT
TORSDOF 0
ENDMDL
