MODEL 1
REMARK minimizedAffinity 18.3301125
REMARK minimizedRMSD -1
REMARK  0 active torsions:
REMARK  status: ('A' for Active; 'I' for Inactive)
ROOT
ATOM      1  O1  BZF d   1      -1.351   0.316   3.909  0.00  0.00    -0.204 OA
ATOM      2  C2  BZF d   1      -2.294   0.394   2.902  0.00  0.00     0.174 A 
ATOM      3  C3  BZF d   1      -2.045  -0.519   1.942  0.00  0.00    -0.012 A 
ATOM      4  C3A BZF d   1      -0.927  -1.273   2.420  0.00  0.00    -0.107 A 
ATOM      5  C4  BZF d   1      -0.224  -2.331   1.917  0.00  0.00     0.055 A 
ATOM      6  C5  BZF d   1       0.860  -2.786   2.598  0.00  0.00    -0.016 A 
ATOM      7  C6  BZF d   1       1.272  -2.205   3.779  0.00  0.00     0.022 A 
ATOM      8  C7  BZF d   1       0.604  -1.157   4.319  0.00  0.00     0.029 A 
ATOM      9  C7A BZF d   1      -0.512  -0.716   3.651  0.00  0.00     0.058 A 
ENDROOT
TORSDOF 0
ENDMDL
