MODEL 1
REMARK minimizedAffinity 13.7334032
REMARK minimizedRMSD -1
REMARK  0 active torsions:
REMARK  status: ('A' for Active; 'I' for Inactive)
ROOT
ATOM      1  O1  BZF d   1      -0.675  -3.744  -3.249  0.00  0.00    -0.204 OA
ATOM      2  C2  BZF d   1      -1.677  -3.012  -2.640  0.00  0.00     0.174 A 
ATOM      3  C3  BZF d   1      -2.865  -3.239  -3.235  0.00  0.00    -0.012 A 
ATOM      4  C3A BZF d   1      -2.605  -4.241  -4.223  0.00  0.00    -0.107 A 
ATOM      5  C4  BZF d   1      -3.392  -4.893  -5.129  0.00  0.00     0.055 A 
ATOM      6  C5  BZF d   1      -2.816  -5.763  -6.000  0.00  0.00    -0.016 A 
ATOM      7  C6  BZF d   1      -1.457  -6.000  -5.997  0.00  0.00     0.022 A 
ATOM      8  C7  BZF d   1      -0.636  -5.381  -5.114  0.00  0.00     0.029 A 
ATOM      9  C7A BZF d   1      -1.220  -4.526  -4.210  0.00  0.00     0.058 A 
ENDROOT
TORSDOF 0
ENDMDL
