MODEL 1
REMARK minimizedAffinity 8.54165459
REMARK minimizedRMSD -1
REMARK  0 active torsions:
REMARK  status: ('A' for Active; 'I' for Inactive)
ROOT
ATOM      1  O1  BZF d   1       2.878   1.380   1.148  0.00  0.00    -0.204 OA
ATOM      2  C2  BZF d   1       3.000   0.496   0.092  0.00  0.00     0.174 A 
ATOM      3  C3  BZF d   1       4.025   0.849  -0.711  0.00  0.00    -0.012 A 
ATOM      4  C3A BZF d   1       4.636   1.973  -0.070  0.00  0.00    -0.107 A 
ATOM      5  C4  BZF d   1       5.711   2.757  -0.375  0.00  0.00     0.055 A 
ATOM      6  C5  BZF d   1       6.000   3.820   0.421  0.00  0.00    -0.016 A 
ATOM      7  C6  BZF d   1       5.233   4.131   1.525  0.00  0.00     0.022 A 
ATOM      8  C7  BZF d   1       4.160   3.379   1.870  0.00  0.00     0.029 A 
ATOM      9  C7A BZF d   1       3.885   2.284   1.087  0.00  0.00     0.058 A 
ENDROOT
TORSDOF 0
ENDMDL
