MODEL 1
REMARK minimizedAffinity 4.01900148
REMARK minimizedRMSD -1
REMARK  0 active torsions:
REMARK  status: ('A' for Active; 'I' for Inactive)
ROOT
ATOM      1  O1  BZF d   1      -3.007   1.513   4.365  0.00  0.00    -0.204 OA
ATOM      2  C2  BZF d   1      -4.297   2.009   4.371  0.00  0.00     0.174 A 
ATOM      3  C3  BZF d   1      -4.994   1.540   3.316  0.00  0.00    -0.012 A 
ATOM      4  C3A BZF d   1      -4.112   0.625   2.658  0.00  0.00    -0.107 A 
ATOM      5  C4  BZF d   1      -4.237  -0.170   1.555  0.00  0.00     0.055 A 
ATOM      6  C5  BZF d   1      -3.163  -0.889   1.134  0.00  0.00    -0.016 A 
ATOM      7  C6  BZF d   1      -1.950  -0.832   1.789  0.00  0.00     0.022 A 
ATOM      8  C7  BZF d   1      -1.779  -0.061   2.890  0.00  0.00     0.029 A 
ATOM      9  C7A BZF d   1      -2.872   0.641   3.337  0.00  0.00     0.058 A 
ENDROOT
TORSDOF 0
ENDMDL
