MODEL 1
REMARK minimizedAffinity 13.6634045
REMARK minimizedRMSD -1
REMARK  0 active torsions:
REMARK  status: ('A' for Active; 'I' for Inactive)
ROOT
ATOM      1  O1  BZF d   1       2.602   1.469   1.531  0.00  0.00    -0.204 OA
ATOM      2  C2  BZF d   1       2.257   0.681   0.451  0.00  0.00     0.174 A 
ATOM      3  C3  BZF d   1       3.132   0.847  -0.562  0.00  0.00    -0.012 A 
ATOM      4  C3A BZF d   1       4.136   1.729  -0.051  0.00  0.00    -0.107 A 
ATOM      5  C4  BZF d   1       5.280   2.256  -0.579  0.00  0.00     0.055 A 
ATOM      6  C5  BZF d   1       6.000   3.143   0.158  0.00  0.00    -0.016 A 
ATOM      7  C6  BZF d   1       5.603   3.528   1.422  0.00  0.00     0.022 A 
ATOM      8  C7  BZF d   1       4.478   3.029   1.990  0.00  0.00     0.029 A 
ATOM      9  C7A BZF d   1       3.766   2.107   1.261  0.00  0.00     0.058 A 
ENDROOT
TORSDOF 0
ENDMDL
