MODEL 1
REMARK minimizedAffinity 9.7075367
REMARK minimizedRMSD -1
REMARK  0 active torsions:
REMARK  status: ('A' for Active; 'I' for Inactive)
ROOT
ATOM      1  O1  BZF d   1       3.599   6.000  -1.831  0.00  0.00    -0.204 OA
ATOM      2  C2  BZF d   1       4.855   5.434  -1.937  0.00  0.00     0.174 A 
ATOM      3  C3  BZF d   1       4.766   4.131  -2.276  0.00  0.00    -0.012 A 
ATOM      4  C3A BZF d   1       3.370   3.891  -2.480  0.00  0.00    -0.107 A 
ATOM      5  C4  BZF d   1       2.651   2.789  -2.848  0.00  0.00     0.055 A 
ATOM      6  C5  BZF d   1       1.295   2.868  -2.884  0.00  0.00    -0.016 A 
ATOM      7  C6  BZF d   1       0.626   4.028  -2.554  0.00  0.00     0.022 A 
ATOM      8  C7  BZF d   1       1.296   5.148  -2.188  0.00  0.00     0.029 A 
ATOM      9  C7A BZF d   1       2.668   5.081  -2.182  0.00  0.00     0.058 A 
ENDROOT
TORSDOF 0
ENDMDL
