MODEL 1
REMARK minimizedAffinity 23.1088562
REMARK minimizedRMSD -1
REMARK  0 active torsions:
REMARK  status: ('A' for Active; 'I' for Inactive)
ROOT
ATOM      1  O1  BZF d   1      -0.825  -0.541   2.817  0.00  0.00    -0.204 OA
ATOM      2  C2  BZF d   1      -0.604  -1.782   2.251  0.00  0.00     0.174 A 
ATOM      3  C3  BZF d   1      -1.642  -2.143   1.471  0.00  0.00    -0.012 A 
ATOM      4  C3A BZF d   1      -2.530  -1.021   1.481  0.00  0.00    -0.107 A 
ATOM      5  C4  BZF d   1      -3.729  -0.767   0.880  0.00  0.00     0.055 A 
ATOM      6  C5  BZF d   1      -4.371   0.399   1.154  0.00  0.00    -0.016 A 
ATOM      7  C6  BZF d   1      -3.847   1.329   2.027  0.00  0.00     0.022 A 
ATOM      8  C7  BZF d   1      -2.657   1.124   2.644  0.00  0.00     0.029 A 
ATOM      9  C7A BZF d   1      -1.990  -0.039   2.343  0.00  0.00     0.058 A 
ENDROOT
TORSDOF 0
ENDMDL
