MODEL 1
REMARK minimizedAffinity -1.22841179
REMARK minimizedRMSD -1
REMARK  1 active torsions:
REMARK  status: ('A' for Active; 'I' for Inactive)
REMARK    1  A    between atoms: N_2  and  C1_3 
ROOT
ATOM      1  C1  UNL d   1      -3.882   5.919   4.035  0.00  0.00     0.143 A 
ATOM      2  C2  UNL d   1      -5.129   5.976   3.402  0.00  0.00    -0.057 A 
ATOM      3  C3  UNL d   1      -5.234   6.000   2.007  0.00  0.00     0.033 A 
ATOM      4  C4  UNL d   1      -4.089   5.996   1.217  0.00  0.00    -0.042 A 
ATOM      5  C5  UNL d   1      -2.839   5.965   1.824  0.00  0.00     0.033 A 
ATOM      6  C6  UNL d   1      -2.741   5.935   3.219  0.00  0.00    -0.057 A 
ENDROOT
BRANCH   1   7
ATOM      7  N   UNL d   1      -3.709   5.993   5.420  0.00  0.00    -0.732 N 
ATOM      8  C   UNL d   1      -2.382   5.999   5.997  0.00  0.00     0.284 C 
ATOM      9  H3  UNL d   1      -4.356   6.644   5.858  0.00  0.00     0.395 HD
ENDBRANCH   1   7
TORSDOF 1
ENDMDL
