MODEL 1
REMARK minimizedAffinity 0.754400074
REMARK minimizedRMSD -1
REMARK  1 active torsions:
REMARK  status: ('A' for Active; 'I' for Inactive)
REMARK    1  A    between atoms: N_2  and  C1_3 
ROOT
ATOM      1  C1  UNL d   1      -3.870   5.996   4.243  0.00  0.00     0.143 A 
ATOM      2  C2  UNL d   1      -2.939   5.996   3.198  0.00  0.00    -0.057 A 
ATOM      3  C3  UNL d   1      -3.348   5.918   1.861  0.00  0.00     0.033 A 
ATOM      4  C4  UNL d   1      -4.698   5.810   1.546  0.00  0.00    -0.042 A 
ATOM      5  C5  UNL d   1      -5.639   5.783   2.568  0.00  0.00     0.033 A 
ATOM      6  C6  UNL d   1      -5.225   5.867   3.901  0.00  0.00    -0.057 A 
ENDROOT
BRANCH   1   7
ATOM      7  N   UNL d   1      -3.522   5.971   5.595  0.00  0.00    -0.732 N 
ATOM      8  C   UNL d   1      -2.132   5.993   5.999  0.00  0.00     0.284 C 
ATOM      9  H3  UNL d   1      -4.129   6.556   6.164  0.00  0.00     0.395 HD
ENDBRANCH   1   7
TORSDOF 1
ENDMDL
