MODEL 1
REMARK minimizedAffinity -1.22012758
REMARK minimizedRMSD -1
REMARK  1 active torsions:
REMARK  status: ('A' for Active; 'I' for Inactive)
REMARK    1  A    between atoms: N_2  and  C1_3 
ROOT
ATOM      1  C1  UNL d   1      -3.475   5.574   2.512  0.00  0.00     0.143 A 
ATOM      2  C2  UNL d   1      -4.859   5.581   2.718  0.00  0.00    -0.057 A 
ATOM      3  C3  UNL d   1      -5.403   5.805   3.989  0.00  0.00     0.033 A 
ATOM      4  C4  UNL d   1      -4.568   5.999   5.085  0.00  0.00    -0.042 A 
ATOM      5  C5  UNL d   1      -3.189   5.972   4.908  0.00  0.00     0.033 A 
ATOM      6  C6  UNL d   1      -2.652   5.754   3.636  0.00  0.00    -0.057 A 
ENDROOT
BRANCH   1   7
ATOM      7  N   UNL d   1      -2.872   5.259   1.293  0.00  0.00    -0.732 N 
ATOM      8  C   UNL d   1      -1.719   6.000   0.827  0.00  0.00     0.284 C 
ATOM      9  H3  UNL d   1      -2.811   4.255   1.137  0.00  0.00     0.395 HD
ENDBRANCH   1   7
TORSDOF 1
ENDMDL
