MODEL 1
REMARK minimizedAffinity 6.52381229
REMARK minimizedRMSD -1
REMARK  1 active torsions:
REMARK  status: ('A' for Active; 'I' for Inactive)
REMARK    1  A    between atoms: N_2  and  C1_3 
ROOT
ATOM      1  C1  UNL d   1      -3.534  -0.571   3.552  0.00  0.00     0.143 A 
ATOM      2  C2  UNL d   1      -2.887   0.568   3.062  0.00  0.00    -0.057 A 
ATOM      3  C3  UNL d   1      -2.217   0.551   1.833  0.00  0.00     0.033 A 
ATOM      4  C4  UNL d   1      -2.157  -0.620   1.083  0.00  0.00    -0.042 A 
ATOM      5  C5  UNL d   1      -2.771  -1.771   1.563  0.00  0.00     0.033 A 
ATOM      6  C6  UNL d   1      -3.445  -1.745   2.788  0.00  0.00    -0.057 A 
ENDROOT
BRANCH   1   7
ATOM      7  N   UNL d   1      -4.132  -0.645   4.812  0.00  0.00    -0.732 N 
ATOM      8  C   UNL d   1      -5.554  -0.882   4.941  0.00  0.00     0.284 C 
ATOM      9  H3  UNL d   1      -3.564  -1.156   5.484  0.00  0.00     0.395 HD
ENDBRANCH   1   7
TORSDOF 1
ENDMDL
