MODEL 1
REMARK minimizedAffinity 3.21343899
REMARK minimizedRMSD -1
REMARK  1 active torsions:
REMARK  status: ('A' for Active; 'I' for Inactive)
REMARK    1  A    between atoms: N_2  and  C1_3 
ROOT
ATOM      1  C1  UNL d   1      -3.900   5.918   2.914  0.00  0.00     0.143 A 
ATOM      2  C2  UNL d   1      -2.508   5.944   3.054  0.00  0.00    -0.057 A 
ATOM      3  C3  UNL d   1      -1.906   5.969   4.318  0.00  0.00     0.033 A 
ATOM      4  C4  UNL d   1      -2.689   5.999   5.467  0.00  0.00    -0.042 A 
ATOM      5  C5  UNL d   1      -4.074   5.999   5.352  0.00  0.00     0.033 A 
ATOM      6  C6  UNL d   1      -4.670   5.966   4.087  0.00  0.00    -0.057 A 
ENDROOT
BRANCH   1   7
ATOM      7  N   UNL d   1      -4.559   5.991   1.684  0.00  0.00    -0.732 N 
ATOM      8  C   UNL d   1      -5.999   5.865   1.611  0.00  0.00     0.284 C 
ATOM      9  H3  UNL d   1      -4.174   6.713   1.079  0.00  0.00     0.395 HD
ENDBRANCH   1   7
TORSDOF 1
ENDMDL
