MODEL 1
REMARK minimizedAffinity 0.55181694
REMARK minimizedRMSD -1
REMARK  1 active torsions:
REMARK  status: ('A' for Active; 'I' for Inactive)
REMARK    1  A    between atoms: N_2  and  C1_3 
ROOT
ATOM      1  C1  UNL d   1      -3.818   5.987   3.870  0.00  0.00     0.143 A 
ATOM      2  C2  UNL d   1      -2.666   5.984   3.076  0.00  0.00    -0.057 A 
ATOM      3  C3  UNL d   1      -2.746   5.999   1.679  0.00  0.00     0.033 A 
ATOM      4  C4  UNL d   1      -3.985   5.989   1.047  0.00  0.00    -0.042 A 
ATOM      5  C5  UNL d   1      -5.144   5.967   1.815  0.00  0.00     0.033 A 
ATOM      6  C6  UNL d   1      -5.057   5.958   3.211  0.00  0.00    -0.057 A 
ENDROOT
BRANCH   1   7
ATOM      7  N   UNL d   1      -3.805   5.873   5.262  0.00  0.00    -0.732 N 
ATOM      8  C   UNL d   1      -2.566   5.999   6.000  0.00  0.00     0.284 C 
ATOM      9  H3  UNL d   1      -4.597   6.339   5.698  0.00  0.00     0.395 HD
ENDBRANCH   1   7
TORSDOF 1
ENDMDL
