MODEL 1
REMARK minimizedAffinity 3.79127955
REMARK minimizedRMSD -1
REMARK  1 active torsions:
REMARK  status: ('A' for Active; 'I' for Inactive)
REMARK    1  A    between atoms: N_2  and  C1_3 
ROOT
ATOM      1  C1  UNL d   1      -2.925   5.917   2.988  0.00  0.00     0.143 A 
ATOM      2  C2  UNL d   1      -2.086   5.944   4.107  0.00  0.00    -0.057 A 
ATOM      3  C3  UNL d   1      -2.608   5.970   5.406  0.00  0.00     0.033 A 
ATOM      4  C4  UNL d   1      -3.984   6.000   5.609  0.00  0.00    -0.042 A 
ATOM      5  C5  UNL d   1      -4.837   5.999   4.511  0.00  0.00     0.033 A 
ATOM      6  C6  UNL d   1      -4.310   5.966   3.216  0.00  0.00    -0.057 A 
ENDROOT
BRANCH   1   7
ATOM      7  N   UNL d   1      -2.468   5.990   1.670  0.00  0.00    -0.732 N 
ATOM      8  C   UNL d   1      -2.349   4.794   0.864  0.00  0.00     0.284 C 
ATOM      9  H3  UNL d   1      -2.846   6.792   1.171  0.00  0.00     0.395 HD
ENDBRANCH   1   7
TORSDOF 1
ENDMDL
