MODEL 1
REMARK minimizedAffinity -0.736798644
REMARK minimizedRMSD -1
REMARK  1 active torsions:
REMARK  status: ('A' for Active; 'I' for Inactive)
REMARK    1  A    between atoms: N_2  and  C1_3 
ROOT
ATOM      1  C1  UNL d   1      -4.247   5.999   3.208  0.00  0.00     0.143 A 
ATOM      2  C2  UNL d   1      -3.782   5.975   4.527  0.00  0.00    -0.057 A 
ATOM      3  C3  UNL d   1      -2.411   5.990   4.814  0.00  0.00     0.033 A 
ATOM      4  C4  UNL d   1      -1.478   6.000   3.782  0.00  0.00    -0.042 A 
ATOM      5  C5  UNL d   1      -1.918   5.999   2.463  0.00  0.00     0.033 A 
ATOM      6  C6  UNL d   1      -3.287   5.990   2.183  0.00  0.00    -0.057 A 
ENDROOT
BRANCH   1   7
ATOM      7  N   UNL d   1      -5.594   5.886   2.856  0.00  0.00    -0.732 N 
ATOM      8  C   UNL d   1      -5.990   5.819   1.466  0.00  0.00     0.284 C 
ATOM      9  H3  UNL d   1      -6.102   5.248   3.464  0.00  0.00     0.395 HD
ENDBRANCH   1   7
TORSDOF 1
ENDMDL
