MODEL 1
REMARK minimizedAffinity -1.11114848
REMARK minimizedRMSD -1
REMARK  1 active torsions:
REMARK  status: ('A' for Active; 'I' for Inactive)
REMARK    1  A    between atoms: N_2  and  C1_3 
ROOT
ATOM      1  C1  UNL d   1      -3.108   5.937   3.284  0.00  0.00     0.143 A 
ATOM      2  C2  UNL d   1      -4.469   5.934   3.607  0.00  0.00    -0.057 A 
ATOM      3  C3  UNL d   1      -4.899   5.980   4.939  0.00  0.00     0.033 A 
ATOM      4  C4  UNL d   1      -3.971   6.000   5.976  0.00  0.00    -0.042 A 
ATOM      5  C5  UNL d   1      -2.613   5.978   5.678  0.00  0.00     0.033 A 
ATOM      6  C6  UNL d   1      -2.190   5.940   4.346  0.00  0.00    -0.057 A 
ENDROOT
BRANCH   1   7
ATOM      7  N   UNL d   1      -2.617   5.794   1.984  0.00  0.00    -0.732 N 
ATOM      8  C   UNL d   1      -2.586   4.495   1.347  0.00  0.00     0.284 C 
ATOM      9  H3  UNL d   1      -2.913   6.550   1.371  0.00  0.00     0.395 HD
ENDBRANCH   1   7
TORSDOF 1
ENDMDL
