MODEL 1
REMARK minimizedAffinity 1.50130844
REMARK minimizedRMSD -1
REMARK  1 active torsions:
REMARK  status: ('A' for Active; 'I' for Inactive)
REMARK    1  A    between atoms: N_2  and  C1_3 
ROOT
ATOM      1  C1  UNL d   1      -3.448   5.908   2.959  0.00  0.00     0.143 A 
ATOM      2  C2  UNL d   1      -4.831   5.905   3.171  0.00  0.00    -0.057 A 
ATOM      3  C3  UNL d   1      -5.368   5.962   4.462  0.00  0.00     0.033 A 
ATOM      4  C4  UNL d   1      -4.528   5.994   5.570  0.00  0.00    -0.042 A 
ATOM      5  C5  UNL d   1      -3.150   5.972   5.385  0.00  0.00     0.033 A 
ATOM      6  C6  UNL d   1      -2.620   5.922   4.092  0.00  0.00    -0.057 A 
ENDROOT
BRANCH   1   7
ATOM      7  N   UNL d   1      -2.853   5.753   1.704  0.00  0.00    -0.732 N 
ATOM      8  C   UNL d   1      -2.824   4.459   1.057  0.00  0.00     0.284 C 
ATOM      9  H3  UNL d   1      -3.061   6.527   1.078  0.00  0.00     0.395 HD
ENDBRANCH   1   7
TORSDOF 1
ENDMDL
