MODEL 1
REMARK minimizedAffinity 0.0438306183
REMARK minimizedRMSD -1
REMARK  1 active torsions:
REMARK  status: ('A' for Active; 'I' for Inactive)
REMARK    1  A    between atoms: N_2  and  C1_3 
ROOT
ATOM      1  C1  UNL d   1      -3.636   5.846   3.559  0.00  0.00     0.143 A 
ATOM      2  C2  UNL d   1      -5.035   5.837   3.575  0.00  0.00    -0.057 A 
ATOM      3  C3  UNL d   1      -5.748   5.927   4.777  0.00  0.00     0.033 A 
ATOM      4  C4  UNL d   1      -5.072   5.999   5.990  0.00  0.00    -0.042 A 
ATOM      5  C5  UNL d   1      -3.682   5.985   6.000  0.00  0.00     0.033 A 
ATOM      6  C6  UNL d   1      -2.975   5.901   4.796  0.00  0.00    -0.057 A 
ENDROOT
BRANCH   1   7
ATOM      7  N   UNL d   1      -2.870   5.661   2.406  0.00  0.00    -0.732 N 
ATOM      8  C   UNL d   1      -2.888   4.395   1.705  0.00  0.00     0.284 C 
ATOM      9  H3  UNL d   1      -2.885   6.474   1.795  0.00  0.00     0.395 HD
ENDBRANCH   1   7
TORSDOF 1
ENDMDL
