MODEL 1
REMARK minimizedAffinity 0.523287773
REMARK minimizedRMSD -1
REMARK  1 active torsions:
REMARK  status: ('A' for Active; 'I' for Inactive)
REMARK    1  A    between atoms: C1_2  and  C2_3 
ROOT
ATOM      1  C2  UNL d   1       1.077   2.311   0.538  0.00  0.00    -0.076 A 
ATOM      2  C3  UNL d   1       0.382   2.245  -0.682  0.00  0.00     0.004 A 
ATOM      3  C4  UNL d   1       0.376   1.077  -1.442  0.00  0.00    -0.003 A 
ATOM      4  C5  UNL d   1       1.066  -0.045  -0.994  0.00  0.00     0.000 A 
ATOM      5  C6  UNL d   1       1.746  -0.003   0.222  0.00  0.00     0.000 A 
ATOM      6  C7  UNL d   1       1.748   1.162   1.009  0.00  0.00    -0.073 A 
ATOM      7  C8  UNL d   1       2.503   1.154   2.309  0.00  0.00     0.078 C 
ENDROOT
BRANCH   1   8
ATOM      8  C1  UNL d   1       1.069   3.613   1.306  0.00  0.00     0.053 C 
ATOM      9  C   UNL d   1       1.067   4.829   0.392  0.00  0.00     0.018 C 
ENDBRANCH   1   8
TORSDOF 1
ENDMDL
