MODEL 1
REMARK minimizedAffinity -0.038298361
REMARK minimizedRMSD -1
REMARK  1 active torsions:
REMARK  status: ('A' for Active; 'I' for Inactive)
REMARK    1  A    between atoms: C1_2  and  C2_3 
ROOT
ATOM      1  C2  UNL d   1       1.420   0.218  -0.705  0.00  0.00    -0.076 A 
ATOM      2  C3  UNL d   1       1.334   1.002  -1.868  0.00  0.00     0.004 A 
ATOM      3  C4  UNL d   1       1.016   2.357  -1.798  0.00  0.00    -0.003 A 
ATOM      4  C5  UNL d   1       0.780   2.950  -0.563  0.00  0.00     0.000 A 
ATOM      5  C6  UNL d   1       0.878   2.192   0.603  0.00  0.00     0.000 A 
ATOM      6  C7  UNL d   1       1.214   0.828   0.551  0.00  0.00    -0.073 A 
ATOM      7  C8  UNL d   1       1.301   0.056   1.839  0.00  0.00     0.078 C 
ENDROOT
BRANCH   1   8
ATOM      8  C1  UNL d   1       1.742  -1.253  -0.845  0.00  0.00     0.053 C 
ATOM      9  C   UNL d   1       0.510  -2.135  -0.708  0.00  0.00     0.018 C 
ENDBRANCH   1   8
TORSDOF 1
ENDMDL
