MODEL 1
REMARK minimizedAffinity -0.374605536
REMARK minimizedRMSD -1
REMARK  1 active torsions:
REMARK  status: ('A' for Active; 'I' for Inactive)
REMARK    1  A    between atoms: C1_2  and  C2_3 
ROOT
ATOM      1  C2  UNL d   1       0.825   1.719  -0.027  0.00  0.00    -0.076 A 
ATOM      2  C3  UNL d   1       1.416   0.633   0.642  0.00  0.00     0.004 A 
ATOM      3  C4  UNL d   1       1.977  -0.428  -0.067  0.00  0.00    -0.003 A 
ATOM      4  C5  UNL d   1       1.957  -0.420  -1.457  0.00  0.00     0.000 A 
ATOM      5  C6  UNL d   1       1.391   0.658  -2.138  0.00  0.00     0.000 A 
ATOM      6  C7  UNL d   1       0.836   1.743  -1.438  0.00  0.00    -0.073 A 
ATOM      7  C8  UNL d   1       0.233   2.876  -2.223  0.00  0.00     0.078 C 
ENDROOT
BRANCH   1   8
ATOM      8  C1  UNL d   1       0.209   2.828   0.795  0.00  0.00     0.053 C 
ATOM      9  C   UNL d   1       1.100   4.058   0.875  0.00  0.00     0.018 C 
ENDBRANCH   1   8
TORSDOF 1
ENDMDL
