MODEL 1
REMARK minimizedAffinity 1.16306221
REMARK minimizedRMSD -1
REMARK  1 active torsions:
REMARK  status: ('A' for Active; 'I' for Inactive)
REMARK    1  A    between atoms: C1_2  and  C2_3 
ROOT
ATOM      1  C2  UNL d   1       1.253   2.751  -0.047  0.00  0.00    -0.076 A 
ATOM      2  C3  UNL d   1       1.570   1.812   0.951  0.00  0.00     0.004 A 
ATOM      3  C4  UNL d   1       1.392   0.447   0.735  0.00  0.00    -0.003 A 
ATOM      4  C5  UNL d   1       0.894  -0.003  -0.483  0.00  0.00     0.000 A 
ATOM      5  C6  UNL d   1       0.591   0.913  -1.491  0.00  0.00     0.000 A 
ATOM      6  C7  UNL d   1       0.780   2.292  -1.295  0.00  0.00    -0.073 A 
ATOM      7  C8  UNL d   1       0.430   3.234  -2.413  0.00  0.00     0.078 C 
ENDROOT
BRANCH   1   8
ATOM      8  C1  UNL d   1       1.441   4.220   0.255  0.00  0.00     0.053 C 
ATOM      9  C   UNL d   1       1.565   5.062  -1.006  0.00  0.00     0.018 C 
ENDBRANCH   1   8
TORSDOF 1
ENDMDL
