MODEL 1
REMARK minimizedAffinity 5.93478394
REMARK minimizedRMSD -1
REMARK  1 active torsions:
REMARK  status: ('A' for Active; 'I' for Inactive)
REMARK    1  A    between atoms: C1_2  and  C2_3 
ROOT
ATOM      1  C2  UNL d   1       2.054   1.426  -1.148  0.00  0.00    -0.076 A 
ATOM      2  C3  UNL d   1       3.409   1.316  -0.790  0.00  0.00     0.004 A 
ATOM      3  C4  UNL d   1       3.794   0.624   0.357  0.00  0.00    -0.003 A 
ATOM      4  C5  UNL d   1       2.830   0.031   1.165  0.00  0.00     0.000 A 
ATOM      5  C6  UNL d   1       1.483   0.116   0.816  0.00  0.00     0.000 A 
ATOM      6  C7  UNL d   1       1.079   0.795  -0.347  0.00  0.00    -0.073 A 
ATOM      7  C8  UNL d   1      -0.388   0.860  -0.672  0.00  0.00     0.078 C 
ENDROOT
BRANCH   1   8
ATOM      8  C1  UNL d   1       1.695   2.211  -2.389  0.00  0.00     0.053 C 
ATOM      9  C   UNL d   1       1.238   3.627  -2.071  0.00  0.00     0.018 C 
ENDBRANCH   1   8
TORSDOF 1
ENDMDL
