MODEL 1
REMARK minimizedAffinity 2.43368268
REMARK minimizedRMSD -1
REMARK  1 active torsions:
REMARK  status: ('A' for Active; 'I' for Inactive)
REMARK    1  A    between atoms: C1_2  and  C2_3 
ROOT
ATOM      1  C2  UNL d   1       0.873   1.882  -0.845  0.00  0.00    -0.076 A 
ATOM      2  C3  UNL d   1       1.355   2.628   0.245  0.00  0.00     0.004 A 
ATOM      3  C4  UNL d   1       1.808   1.997   1.402  0.00  0.00    -0.003 A 
ATOM      4  C5  UNL d   1       1.786   0.609   1.489  0.00  0.00     0.000 A 
ATOM      5  C6  UNL d   1       1.328  -0.147   0.411  0.00  0.00     0.000 A 
ATOM      6  C7  UNL d   1       0.883   0.473  -0.770  0.00  0.00    -0.073 A 
ATOM      7  C8  UNL d   1       0.394  -0.392  -1.899  0.00  0.00     0.078 C 
ENDROOT
BRANCH   1   8
ATOM      8  C1  UNL d   1       0.370   2.622  -2.064  0.00  0.00     0.053 C 
ATOM      9  C   UNL d   1       0.846   4.066  -2.106  0.00  0.00     0.018 C 
ENDBRANCH   1   8
TORSDOF 1
ENDMDL
