MODEL 1
REMARK minimizedAffinity 4.82103062
REMARK minimizedRMSD -1
REMARK  1 active torsions:
REMARK  status: ('A' for Active; 'I' for Inactive)
REMARK    1  A    between atoms: C1_2  and  C2_3 
ROOT
ATOM      1  C2  UNL d   1      -2.394   1.841   3.756  0.00  0.00    -0.076 A 
ATOM      2  C3  UNL d   1      -1.588   2.052   4.888  0.00  0.00     0.004 A 
ATOM      3  C4  UNL d   1      -1.672   1.210   5.995  0.00  0.00    -0.003 A 
ATOM      4  C5  UNL d   1      -2.563   0.143   5.988  0.00  0.00     0.000 A 
ATOM      5  C6  UNL d   1      -3.358  -0.092   4.867  0.00  0.00     0.000 A 
ATOM      6  C7  UNL d   1      -3.274   0.738   3.736  0.00  0.00    -0.073 A 
ATOM      7  C8  UNL d   1      -4.160   0.443   2.557  0.00  0.00     0.078 C 
ENDROOT
BRANCH   1   8
ATOM      8  C1  UNL d   1      -2.279   2.804   2.595  0.00  0.00     0.053 C 
ATOM      9  C   UNL d   1      -3.358   2.582   1.546  0.00  0.00     0.018 C 
ENDBRANCH   1   8
TORSDOF 1
ENDMDL
