MODEL 1
REMARK minimizedAffinity 4.16538048
REMARK minimizedRMSD -1
REMARK  1 active torsions:
REMARK  status: ('A' for Active; 'I' for Inactive)
REMARK    1  A    between atoms: C1_2  and  C2_3 
ROOT
ATOM      1  C2  UNL d   1       1.027   1.569  -0.286  0.00  0.00    -0.076 A 
ATOM      2  C3  UNL d   1       1.100   0.166  -0.243  0.00  0.00     0.004 A 
ATOM      3  C4  UNL d   1       1.177  -0.584  -1.415  0.00  0.00    -0.003 A 
ATOM      4  C5  UNL d   1       1.181   0.057  -2.649  0.00  0.00     0.000 A 
ATOM      5  C6  UNL d   1       1.127   1.449  -2.710  0.00  0.00     0.000 A 
ATOM      6  C7  UNL d   1       1.066   2.221  -1.537  0.00  0.00    -0.073 A 
ATOM      7  C8  UNL d   1       1.002   3.718  -1.661  0.00  0.00     0.078 C 
ENDROOT
BRANCH   1   8
ATOM      8  C1  UNL d   1       0.918   2.328   1.018  0.00  0.00     0.053 C 
ATOM      9  C   UNL d   1       1.613   1.615   2.167  0.00  0.00     0.018 C 
ENDBRANCH   1   8
TORSDOF 1
ENDMDL
