MODEL 1
REMARK minimizedAffinity 2.11249804
REMARK minimizedRMSD -1
REMARK  1 active torsions:
REMARK  status: ('A' for Active; 'I' for Inactive)
REMARK    1  A    between atoms: C1_2  and  C2_3 
ROOT
ATOM      1  C2  UNL d   1       0.718   1.762   0.230  0.00  0.00    -0.076 A 
ATOM      2  C3  UNL d   1       0.838   0.408   0.588  0.00  0.00     0.004 A 
ATOM      3  C4  UNL d   1       1.225  -0.550  -0.347  0.00  0.00    -0.003 A 
ATOM      4  C5  UNL d   1       1.500  -0.169  -1.656  0.00  0.00     0.000 A 
ATOM      5  C6  UNL d   1       1.404   1.173  -2.024  0.00  0.00     0.000 A 
ATOM      6  C7  UNL d   1       1.031   2.153  -1.089  0.00  0.00    -0.073 A 
ATOM      7  C8  UNL d   1       0.937   3.585  -1.543  0.00  0.00     0.078 C 
ENDROOT
BRANCH   1   8
ATOM      8  C1  UNL d   1       0.267   2.752   1.281  0.00  0.00     0.053 C 
ATOM      9  C   UNL d   1      -0.995   2.303   2.000  0.00  0.00     0.018 C 
ENDBRANCH   1   8
TORSDOF 1
ENDMDL
