MODEL 1
REMARK minimizedAffinity 5.1971426
REMARK minimizedRMSD -1
REMARK  1 active torsions:
REMARK  status: ('A' for Active; 'I' for Inactive)
REMARK    1  A    between atoms: C1_2  and  C2_3 
ROOT
ATOM      1  C2  UNL d   1      -3.702   1.188   3.857  0.00  0.00    -0.076 A 
ATOM      2  C3  UNL d   1      -3.743   0.298   4.945  0.00  0.00     0.004 A 
ATOM      3  C4  UNL d   1      -2.839   0.412   5.999  0.00  0.00    -0.003 A 
ATOM      4  C5  UNL d   1      -1.880   1.419   5.984  0.00  0.00     0.000 A 
ATOM      5  C6  UNL d   1      -1.836   2.321   4.922  0.00  0.00     0.000 A 
ATOM      6  C7  UNL d   1      -2.751   2.230   3.858  0.00  0.00    -0.073 A 
ATOM      7  C8  UNL d   1      -2.654   3.226   2.736  0.00  0.00     0.078 C 
ENDROOT
BRANCH   1   8
ATOM      8  C1  UNL d   1      -4.691   0.998   2.729  0.00  0.00     0.053 C 
ATOM      9  C   UNL d   1      -6.000   0.383   3.199  0.00  0.00     0.018 C 
ENDBRANCH   1   8
TORSDOF 1
ENDMDL
