MODEL 1
REMARK minimizedAffinity -3.55616212
REMARK minimizedRMSD -1
REMARK  2 active torsions:
REMARK  status: ('A' for Active; 'I' for Inactive)
REMARK    1  A    between atoms: C1_2  and  C2_3 
REMARK    2  A    between atoms: C2_3  and  C3_4 
ROOT
ATOM      1  C3  UNL d   1      -0.188   0.113   0.862  0.00  0.00    -0.075 A 
ATOM      2  C4  UNL d   1      -1.118   0.631   1.775  0.00  0.00     0.002 A 
ATOM      3  C5  UNL d   1      -0.690   1.340   2.898  0.00  0.00     0.002 A 
ATOM      4  C6  UNL d   1       0.671   1.530   3.128  0.00  0.00    -0.004 A 
ATOM      5  C7  UNL d   1       1.604   1.006   2.237  0.00  0.00     0.002 A 
ATOM      6  C8  UNL d   1       1.179   0.300   1.110  0.00  0.00     0.002 A 
ENDROOT
BRANCH   1   7
ATOM      7  C2  UNL d   1      -0.645  -0.629  -0.371  0.00  0.00     0.056 C 
BRANCH   7   8
ATOM      8  C1  UNL d   1      -1.952  -0.097  -0.969  0.00  0.00     0.007 C 
ATOM      9  C   UNL d   1      -3.191  -0.783  -0.411  0.00  0.00     0.009 C 
ENDBRANCH   7   8
ENDBRANCH   1   7
TORSDOF 2
ENDMDL
