MODEL 1
REMARK minimizedAffinity -5.79949713
REMARK minimizedRMSD -1
REMARK  2 active torsions:
REMARK  status: ('A' for Active; 'I' for Inactive)
REMARK    1  A    between atoms: C1_2  and  C2_3 
REMARK    2  A    between atoms: C2_3  and  C3_4 
ROOT
ATOM      1  C3  UNL d   1       0.112   0.210  -0.117  0.00  0.00    -0.075 A 
ATOM      2  C4  UNL d   1       0.723   0.451   1.122  0.00  0.00     0.002 A 
ATOM      3  C5  UNL d   1       0.005   1.038   2.164  0.00  0.00     0.002 A 
ATOM      4  C6  UNL d   1      -1.327   1.402   1.978  0.00  0.00    -0.004 A 
ATOM      5  C7  UNL d   1      -1.940   1.183   0.746  0.00  0.00     0.002 A 
ATOM      6  C8  UNL d   1      -1.225   0.591  -0.297  0.00  0.00     0.002 A 
ENDROOT
BRANCH   1   7
ATOM      7  C2  UNL d   1       0.874  -0.452  -1.239  0.00  0.00     0.056 C 
BRANCH   7   8
ATOM      8  C1  UNL d   1       1.142   0.464  -2.438  0.00  0.00     0.007 C 
ATOM      9  C   UNL d   1       0.745  -0.158  -3.770  0.00  0.00     0.009 C 
ENDBRANCH   7   8
ENDBRANCH   1   7
TORSDOF 2
ENDMDL
