MODEL 1
REMARK minimizedAffinity -4.08040762
REMARK minimizedRMSD -1
REMARK  2 active torsions:
REMARK  status: ('A' for Active; 'I' for Inactive)
REMARK    1  A    between atoms: C1_2  and  C2_3 
REMARK    2  A    between atoms: C2_3  and  C3_4 
ROOT
ATOM      1  C3  UNL d   1      -0.065  -0.268  -0.859  0.00  0.00    -0.075 A 
ATOM      2  C4  UNL d   1      -1.422  -0.120  -0.538  0.00  0.00     0.002 A 
ATOM      3  C5  UNL d   1      -1.804   0.378   0.708  0.00  0.00     0.002 A 
ATOM      4  C6  UNL d   1      -0.838   0.723   1.650  0.00  0.00    -0.004 A 
ATOM      5  C7  UNL d   1       0.513   0.564   1.348  0.00  0.00     0.002 A 
ATOM      6  C8  UNL d   1       0.898   0.070   0.101  0.00  0.00     0.002 A 
ENDROOT
BRANCH   1   7
ATOM      7  C2  UNL d   1       0.357  -0.779  -2.216  0.00  0.00     0.056 C 
BRANCH   7   8
ATOM      8  C1  UNL d   1       0.438   0.307  -3.294  0.00  0.00     0.007 C 
ATOM      9  C   UNL d   1       1.852   0.822  -3.523  0.00  0.00     0.009 C 
ENDBRANCH   7   8
ENDBRANCH   1   7
TORSDOF 2
ENDMDL
