MODEL 1
REMARK minimizedAffinity -1.68042064
REMARK minimizedRMSD -1
REMARK  2 active torsions:
REMARK  status: ('A' for Active; 'I' for Inactive)
REMARK    1  A    between atoms: C1_2  and  C2_3 
REMARK    2  A    between atoms: C2_3  and  C3_4 
ROOT
ATOM      1  C3  UNL d   1       0.359  -0.196  -0.495  0.00  0.00    -0.075 A 
ATOM      2  C4  UNL d   1       0.427   0.982   0.263  0.00  0.00     0.002 A 
ATOM      3  C5  UNL d   1       1.192   1.031   1.428  0.00  0.00     0.002 A 
ATOM      4  C6  UNL d   1       1.889  -0.097   1.856  0.00  0.00    -0.004 A 
ATOM      5  C7  UNL d   1       1.815  -1.278   1.120  0.00  0.00     0.002 A 
ATOM      6  C8  UNL d   1       1.054  -1.328  -0.050  0.00  0.00     0.002 A 
ENDROOT
BRANCH   1   7
ATOM      7  C2  UNL d   1      -0.443  -0.247  -1.774  0.00  0.00     0.056 C 
BRANCH   7   8
ATOM      8  C1  UNL d   1       0.388  -0.572  -3.019  0.00  0.00     0.007 C 
ATOM      9  C   UNL d   1       1.063   0.651  -3.627  0.00  0.00     0.009 C 
ENDBRANCH   7   8
ENDBRANCH   1   7
TORSDOF 2
ENDMDL
