MODEL 1
REMARK minimizedAffinity -3.67537427
REMARK minimizedRMSD -1
REMARK  0 active torsions:
REMARK  status: ('A' for Active; 'I' for Inactive)
ROOT
ATOM      1  C2' OXE d   1      -1.226   0.063  -0.021  0.00  0.00     0.078 C 
ATOM      2  C1' OXE d   1       0.994  -0.744  -1.538  0.00  0.00     0.078 C 
ATOM      3  C1  OXE d   1       0.974  -1.106  -0.074  0.00  0.00    -0.078 A 
ATOM      4  C2  OXE d   1      -0.094  -0.667   0.671  0.00  0.00    -0.078 A 
ATOM      5  C3  OXE d   1      -0.190  -1.020   2.014  0.00  0.00     0.003 A 
ATOM      6  C4  OXE d   1       0.866  -1.686   2.648  0.00  0.00    -0.002 A 
ATOM      7  C5  OXE d   1       1.981  -2.108   1.917  0.00  0.00    -0.002 A 
ATOM      8  C6  OXE d   1       2.031  -1.864   0.549  0.00  0.00     0.003 A 
ENDROOT
TORSDOF 0
ENDMDL
