MODEL 1
REMARK minimizedAffinity -2.07981825
REMARK minimizedRMSD -1
REMARK  0 active torsions:
REMARK  status: ('A' for Active; 'I' for Inactive)
ROOT
ATOM      1  C2' OXE d   1      -0.311  -0.364  -1.361  0.00  0.00     0.078 C 
ATOM      2  C1' OXE d   1       1.987  -1.487  -0.205  0.00  0.00     0.078 C 
ATOM      3  C1  OXE d   1       0.880  -1.043   0.719  0.00  0.00    -0.078 A 
ATOM      4  C2  OXE d   1      -0.221  -0.452   0.147  0.00  0.00    -0.078 A 
ATOM      5  C3  OXE d   1      -1.294  -0.073   0.949  0.00  0.00     0.003 A 
ATOM      6  C4  OXE d   1      -1.199  -0.148   2.343  0.00  0.00    -0.002 A 
ATOM      7  C5  OXE d   1      -0.069  -0.711   2.948  0.00  0.00    -0.002 A 
ATOM      8  C6  OXE d   1       0.958  -1.201   2.150  0.00  0.00     0.003 A 
ENDROOT
TORSDOF 0
ENDMDL
