MODEL 1
REMARK minimizedAffinity -5.95667219
REMARK minimizedRMSD -1
REMARK  0 active torsions:
REMARK  status: ('A' for Active; 'I' for Inactive)
ROOT
ATOM      1  C2' OXE d   1      -0.023  -0.121  -0.941  0.00  0.00     0.078 C 
ATOM      2  C1' OXE d   1      -1.103   0.307   1.614  0.00  0.00     0.078 C 
ATOM      3  C1  OXE d   1       0.224  -0.403   1.521  0.00  0.00    -0.078 A 
ATOM      4  C2  OXE d   1       0.723  -0.649   0.265  0.00  0.00    -0.078 A 
ATOM      5  C3  OXE d   1       1.970  -1.252   0.124  0.00  0.00     0.003 A 
ATOM      6  C4  OXE d   1       2.648  -1.747   1.244  0.00  0.00    -0.002 A 
ATOM      7  C5  OXE d   1       2.139  -1.542   2.531  0.00  0.00    -0.002 A 
ATOM      8  C6  OXE d   1       0.952  -0.836   2.689  0.00  0.00     0.003 A 
ENDROOT
TORSDOF 0
ENDMDL
