MODEL 1
REMARK minimizedAffinity -4.61635303
REMARK minimizedRMSD -1
REMARK  0 active torsions:
REMARK  status: ('A' for Active; 'I' for Inactive)
ROOT
ATOM      1  C2' OXE d   1      -1.039  -0.170  -0.631  0.00  0.00     0.078 C 
ATOM      2  C1' OXE d   1       1.403  -1.235  -1.516  0.00  0.00     0.078 C 
ATOM      3  C1  OXE d   1       1.078  -1.347  -0.047  0.00  0.00    -0.078 A 
ATOM      4  C2  OXE d   1      -0.098  -0.782   0.384  0.00  0.00    -0.078 A 
ATOM      5  C3  OXE d   1      -0.473  -0.904   1.719  0.00  0.00     0.003 A 
ATOM      6  C4  OXE d   1       0.408  -1.463   2.654  0.00  0.00    -0.002 A 
ATOM      7  C5  OXE d   1       1.628  -2.009   2.242  0.00  0.00    -0.002 A 
ATOM      8  C6  OXE d   1       1.958  -1.997   0.891  0.00  0.00     0.003 A 
ENDROOT
TORSDOF 0
ENDMDL
