MODEL 1
REMARK minimizedAffinity -2.74844027
REMARK minimizedRMSD -1
REMARK  0 active torsions:
REMARK  status: ('A' for Active; 'I' for Inactive)
ROOT
ATOM      1  C2' OXE d   1      -0.563   0.032  -0.418  0.00  0.00     0.078 C 
ATOM      2  C1' OXE d   1      -0.902   0.562   2.318  0.00  0.00     0.078 C 
ATOM      3  C1  OXE d   1       0.323  -0.212   1.897  0.00  0.00    -0.078 A 
ATOM      4  C2  OXE d   1       0.457  -0.507   0.562  0.00  0.00    -0.078 A 
ATOM      5  C3  OXE d   1       1.595  -1.170   0.113  0.00  0.00     0.003 A 
ATOM      6  C4  OXE d   1       2.528  -1.674   1.027  0.00  0.00    -0.002 A 
ATOM      7  C5  OXE d   1       2.391  -1.419   2.396  0.00  0.00    -0.002 A 
ATOM      8  C6  OXE d   1       1.318  -0.655   2.842  0.00  0.00     0.003 A 
ENDROOT
TORSDOF 0
ENDMDL
