MODEL 1
REMARK minimizedAffinity -3.79708695
REMARK minimizedRMSD -1
REMARK  0 active torsions:
REMARK  status: ('A' for Active; 'I' for Inactive)
ROOT
ATOM      1  C2' OXE d   1      -0.473   0.507  -1.358  0.00  0.00     0.078 C 
ATOM      2  C1' OXE d   1       1.377  -1.524  -1.933  0.00  0.00     0.078 C 
ATOM      3  C1  OXE d   1       0.937  -1.358  -0.500  0.00  0.00    -0.078 A 
ATOM      4  C2  OXE d   1       0.068  -0.331  -0.220  0.00  0.00    -0.078 A 
ATOM      5  C3  OXE d   1      -0.412  -0.168   1.076  0.00  0.00     0.003 A 
ATOM      6  C4  OXE d   1       0.101  -0.941   2.125  0.00  0.00    -0.002 A 
ATOM      7  C5  OXE d   1       1.018  -1.966   1.868  0.00  0.00    -0.002 A 
ATOM      8  C6  OXE d   1       1.413  -2.215   0.558  0.00  0.00     0.003 A 
ENDROOT
TORSDOF 0
ENDMDL
