MODEL 1
REMARK minimizedAffinity -2.66202092
REMARK minimizedRMSD -1
REMARK  0 active torsions:
REMARK  status: ('A' for Active; 'I' for Inactive)
ROOT
ATOM      1  C2' OXE d   1       0.416   0.131  -0.463  0.00  0.00     0.078 C 
ATOM      2  C1' OXE d   1       2.680  -1.525  -0.364  0.00  0.00     0.078 C 
ATOM      3  C1  OXE d   1       1.911  -1.308   0.915  0.00  0.00    -0.078 A 
ATOM      4  C2  OXE d   1       0.832  -0.459   0.868  0.00  0.00    -0.078 A 
ATOM      5  C3  OXE d   1       0.055  -0.267   2.007  0.00  0.00     0.003 A 
ATOM      6  C4  OXE d   1       0.453  -0.808   3.235  0.00  0.00    -0.002 A 
ATOM      7  C5  OXE d   1       1.572  -1.643   3.314  0.00  0.00    -0.002 A 
ATOM      8  C6  OXE d   1       2.286  -1.937   2.158  0.00  0.00     0.003 A 
ENDROOT
TORSDOF 0
ENDMDL
