MODEL 1
REMARK minimizedAffinity -4.88947487
REMARK minimizedRMSD -1
REMARK  0 active torsions:
REMARK  status: ('A' for Active; 'I' for Inactive)
ROOT
ATOM      1  C2' OXE d   1       2.302  -0.762   2.597  0.00  0.00     0.078 C 
ATOM      2  C1' OXE d   1       1.894  -2.869   0.788  0.00  0.00     0.078 C 
ATOM      3  C1  OXE d   1       1.362  -1.508   0.414  0.00  0.00    -0.078 A 
ATOM      4  C2  OXE d   1       1.525  -0.494   1.326  0.00  0.00    -0.078 A 
ATOM      5  C3  OXE d   1       1.102   0.794   1.009  0.00  0.00     0.003 A 
ATOM      6  C4  OXE d   1       0.376   1.032  -0.164  0.00  0.00    -0.002 A 
ATOM      7  C5  OXE d   1       0.163   0.004  -1.089  0.00  0.00    -0.002 A 
ATOM      8  C6  OXE d   1       0.686  -1.260  -0.835  0.00  0.00     0.003 A 
ENDROOT
TORSDOF 0
ENDMDL
