MODEL 1
REMARK minimizedAffinity -5.46066904
REMARK minimizedRMSD -1
REMARK  0 active torsions:
REMARK  status: ('A' for Active; 'I' for Inactive)
ROOT
ATOM      1  C4' PXY d   1       1.492   0.326  -1.469  0.00  0.00     0.077 C 
ATOM      2  C1' PXY d   1      -0.329  -2.856   3.000  0.00  0.00     0.077 C 
ATOM      3  C1  PXY d   1       0.136  -2.022   1.823  0.00  0.00    -0.082 A 
ATOM      4  C2  PXY d   1       1.416  -2.021   1.488  0.00  0.00     0.003 A 
ATOM      5  C3  PXY d   1       1.860  -1.247   0.446  0.00  0.00     0.003 A 
ATOM      6  C4  PXY d   1       0.976  -0.508  -0.294  0.00  0.00    -0.082 A 
ATOM      7  C5  PXY d   1      -0.334  -0.513   0.035  0.00  0.00     0.003 A 
ATOM      8  C6  PXY d   1      -0.757  -1.273   1.122  0.00  0.00     0.003 A 
ENDROOT
TORSDOF 0
ENDMDL
