MODEL 1
REMARK minimizedAffinity -5.04075575
REMARK minimizedRMSD -1
REMARK  0 active torsions:
REMARK  status: ('A' for Active; 'I' for Inactive)
ROOT
ATOM      1  C4' PXY d   1      -2.075   1.496  -3.860  0.00  0.00     0.077 C 
ATOM      2  C1' PXY d   1       0.975  -0.445   0.650  0.00  0.00     0.077 C 
ATOM      3  C1  PXY d   1       0.167   0.070  -0.524  0.00  0.00    -0.082 A 
ATOM      4  C2  PXY d   1       0.213  -0.571  -1.681  0.00  0.00     0.003 A 
ATOM      5  C3  PXY d   1      -0.486  -0.100  -2.763  0.00  0.00     0.003 A 
ATOM      6  C4  PXY d   1      -1.283   1.007  -2.644  0.00  0.00    -0.082 A 
ATOM      7  C5  PXY d   1      -1.344   1.659  -1.464  0.00  0.00     0.003 A 
ATOM      8  C6  PXY d   1      -0.594   1.190  -0.390  0.00  0.00     0.003 A 
ENDROOT
TORSDOF 0
ENDMDL
