MODEL 1
REMARK minimizedAffinity -5.41493368
REMARK minimizedRMSD -1
REMARK  0 active torsions:
REMARK  status: ('A' for Active; 'I' for Inactive)
ROOT
ATOM      1  C4' PXY d   1       1.759  -1.212   0.377  0.00  0.00     0.077 C 
ATOM      2  C1' PXY d   1      -2.521   1.630  -2.271  0.00  0.00     0.077 C 
ATOM      3  C1  PXY d   1      -1.396   0.895  -1.569  0.00  0.00    -0.082 A 
ATOM      4  C2  PXY d   1      -0.826  -0.144  -2.158  0.00  0.00     0.003 A 
ATOM      5  C3  PXY d   1       0.171  -0.839  -1.524  0.00  0.00     0.003 A 
ATOM      6  C4  PXY d   1       0.626  -0.435  -0.298  0.00  0.00    -0.082 A 
ATOM      7  C5  PXY d   1       0.057   0.631   0.305  0.00  0.00     0.003 A 
ATOM      8  C6  PXY d   1      -0.982   1.298  -0.337  0.00  0.00     0.003 A 
ENDROOT
TORSDOF 0
ENDMDL
