MODEL 1
REMARK minimizedAffinity -5.26236486
REMARK minimizedRMSD -1
REMARK  0 active torsions:
REMARK  status: ('A' for Active; 'I' for Inactive)
ROOT
ATOM      1  C4' PXY d   1      -0.847   1.387  -0.225  0.00  0.00     0.077 C 
ATOM      2  C1' PXY d   1       1.013  -3.643   1.933  0.00  0.00     0.077 C 
ATOM      3  C1  PXY d   1       0.535  -2.324   1.359  0.00  0.00    -0.082 A 
ATOM      4  C2  PXY d   1      -0.284  -1.562   2.066  0.00  0.00     0.003 A 
ATOM      5  C3  PXY d   1      -0.750  -0.380   1.549  0.00  0.00     0.003 A 
ATOM      6  C4  PXY d   1      -0.332   0.051   0.318  0.00  0.00    -0.082 A 
ATOM      7  C5  PXY d   1       0.512  -0.716  -0.404  0.00  0.00     0.003 A 
ATOM      8  C6  PXY d   1       0.941  -1.932   0.121  0.00  0.00     0.003 A 
ENDROOT
TORSDOF 0
ENDMDL
