MODEL 1
REMARK minimizedAffinity -5.13439512
REMARK minimizedRMSD -1
REMARK  0 active torsions:
REMARK  status: ('A' for Active; 'I' for Inactive)
ROOT
ATOM      1  C4' PXY d   1      -0.833   1.739  -1.536  0.00  0.00     0.077 C 
ATOM      2  C1' PXY d   1       1.583  -2.933   0.861  0.00  0.00     0.077 C 
ATOM      3  C1  PXY d   1       0.938  -1.710   0.239  0.00  0.00    -0.082 A 
ATOM      4  C2  PXY d   1       1.396  -1.243  -0.911  0.00  0.00     0.003 A 
ATOM      5  C3  PXY d   1       0.846  -0.120  -1.472  0.00  0.00     0.003 A 
ATOM      6  C4  PXY d   1      -0.219   0.501  -0.876  0.00  0.00    -0.082 A 
ATOM      7  C5  PXY d   1      -0.699   0.025   0.292  0.00  0.00     0.003 A 
ATOM      8  C6  PXY d   1      -0.099  -1.093   0.866  0.00  0.00     0.003 A 
ENDROOT
TORSDOF 0
ENDMDL
