MODEL 1
REMARK minimizedAffinity -2.88517809
REMARK minimizedRMSD -1
REMARK  0 active torsions:
REMARK  status: ('A' for Active; 'I' for Inactive)
ROOT
ATOM      1  C4' PXY d   1      -1.139   1.863  -1.708  0.00  0.00     0.077 C 
ATOM      2  C1' PXY d   1       2.133  -1.938   1.167  0.00  0.00     0.077 C 
ATOM      3  C1  PXY d   1       1.264  -0.945   0.419  0.00  0.00    -0.082 A 
ATOM      4  C2  PXY d   1       1.654  -0.496  -0.763  0.00  0.00     0.003 A 
ATOM      5  C3  PXY d   1       0.896   0.427  -1.438  0.00  0.00     0.003 A 
ATOM      6  C4  PXY d   1      -0.298   0.853  -0.922  0.00  0.00    -0.082 A 
ATOM      7  C5  PXY d   1      -0.707   0.391   0.279  0.00  0.00     0.003 A 
ATOM      8  C6  PXY d   1       0.096  -0.513   0.967  0.00  0.00     0.003 A 
ENDROOT
TORSDOF 0
ENDMDL
