MODEL 1
REMARK minimizedAffinity -5.03944063
REMARK minimizedRMSD -1
REMARK  0 active torsions:
REMARK  status: ('A' for Active; 'I' for Inactive)
ROOT
ATOM      1  C4' PXY d   1       1.187  -1.062   5.120  0.00  0.00     0.077 C 
ATOM      2  C1' PXY d   1      -0.113  -2.713  -0.265  0.00  0.00     0.077 C 
ATOM      3  C1  PXY d   1       0.216  -2.276   1.149  0.00  0.00    -0.082 A 
ATOM      4  C2  PXY d   1       1.474  -2.040   1.485  0.00  0.00     0.003 A 
ATOM      5  C3  PXY d   1       1.792  -1.674   2.768  0.00  0.00     0.003 A 
ATOM      6  C4  PXY d   1       0.808  -1.497   3.702  0.00  0.00    -0.082 A 
ATOM      7  C5  PXY d   1      -0.479  -1.726   3.364  0.00  0.00     0.003 A 
ATOM      8  C6  PXY d   1      -0.778  -2.136   2.068  0.00  0.00     0.003 A 
ENDROOT
TORSDOF 0
ENDMDL
