MODEL 1
REMARK minimizedAffinity -1.08351874
REMARK minimizedRMSD -1
REMARK  0 active torsions:
REMARK  status: ('A' for Active; 'I' for Inactive)
ROOT
ATOM      1  C4' PXY d   1       2.261  -1.298   0.369  0.00  0.00     0.077 C 
ATOM      2  C1' PXY d   1      -1.676   2.546  -1.401  0.00  0.00     0.077 C 
ATOM      3  C1  PXY d   1      -0.634   1.545  -0.942  0.00  0.00    -0.082 A 
ATOM      4  C2  PXY d   1      -0.996   0.301  -0.674  0.00  0.00     0.003 A 
ATOM      5  C3  PXY d   1      -0.072  -0.609  -0.228  0.00  0.00     0.003 A 
ATOM      6  C4  PXY d   1       1.245  -0.256  -0.106  0.00  0.00    -0.082 A 
ATOM      7  C5  PXY d   1       1.624   1.008  -0.387  0.00  0.00     0.003 A 
ATOM      8  C6  PXY d   1       0.664   1.928  -0.799  0.00  0.00     0.003 A 
ENDROOT
TORSDOF 0
ENDMDL
