MODEL 1
REMARK minimizedAffinity -4.9097743
REMARK minimizedRMSD -1
REMARK  0 active torsions:
REMARK  status: ('A' for Active; 'I' for Inactive)
ROOT
ATOM      1  C4' PXY d   1      -1.596   1.994  -1.920  0.00  0.00     0.077 C 
ATOM      2  C1' PXY d   1       1.406  -1.958   1.044  0.00  0.00     0.077 C 
ATOM      3  C1  PXY d   1       0.611  -0.919   0.277  0.00  0.00    -0.082 A 
ATOM      4  C2  PXY d   1       0.545  -0.990  -1.042  0.00  0.00     0.003 A 
ATOM      5  C3  PXY d   1      -0.143  -0.040  -1.753  0.00  0.00     0.003 A 
ATOM      6  C4  PXY d   1      -0.813   0.962  -1.104  0.00  0.00    -0.082 A 
ATOM      7  C5  PXY d   1      -0.759   1.034   0.243  0.00  0.00     0.003 A 
ATOM      8  C6  PXY d   1      -0.022   0.084   0.944  0.00  0.00     0.003 A 
ENDROOT
TORSDOF 0
ENDMDL
