MODEL 1
REMARK minimizedAffinity -2.09460545
REMARK minimizedRMSD -1
REMARK  0 active torsions:
REMARK  status: ('A' for Active; 'I' for Inactive)
ROOT
ATOM      1  C4' PXY d   1      -1.451   1.076  -1.862  0.00  0.00     0.077 C 
ATOM      2  C1' PXY d   1       1.750  -2.737   1.076  0.00  0.00     0.077 C 
ATOM      3  C1  PXY d   1       0.901  -1.739   0.314  0.00  0.00    -0.082 A 
ATOM      4  C2  PXY d   1       1.150  -1.510  -0.965  0.00  0.00     0.003 A 
ATOM      5  C3  PXY d   1       0.412  -0.587  -1.661  0.00  0.00     0.003 A 
ATOM      6  C4  PXY d   1      -0.625   0.070  -1.056  0.00  0.00    -0.082 A 
ATOM      7  C5  PXY d   1      -0.892  -0.166   0.247  0.00  0.00     0.003 A 
ATOM      8  C6  PXY d   1      -0.106  -1.076   0.946  0.00  0.00     0.003 A 
ENDROOT
TORSDOF 0
ENDMDL
