MODEL 1
REMARK minimizedAffinity -5.03360796
REMARK minimizedRMSD -1
REMARK  0 active torsions:
REMARK  status: ('A' for Active; 'I' for Inactive)
ROOT
ATOM      1  C4' PXY d   1      -1.382   1.498  -1.235  0.00  0.00     0.077 C 
ATOM      2  C1' PXY d   1       1.574  -2.796   1.261  0.00  0.00     0.077 C 
ATOM      3  C1  PXY d   1       0.810  -1.663   0.605  0.00  0.00    -0.082 A 
ATOM      4  C2  PXY d   1      -0.475  -1.497   0.876  0.00  0.00     0.003 A 
ATOM      5  C3  PXY d   1      -1.189  -0.498   0.266  0.00  0.00     0.003 A 
ATOM      6  C4  PXY d   1      -0.569   0.374  -0.588  0.00  0.00    -0.082 A 
ATOM      7  C5  PXY d   1       0.744   0.218  -0.862  0.00  0.00     0.003 A 
ATOM      8  C6  PXY d   1       1.441  -0.829  -0.265  0.00  0.00     0.003 A 
ENDROOT
TORSDOF 0
ENDMDL
