MODEL 1
REMARK minimizedAffinity -4.60902405
REMARK minimizedRMSD -1
REMARK  0 active torsions:
REMARK  status: ('A' for Active; 'I' for Inactive)
ROOT
ATOM      1  C4' PXY d   1       1.464  -2.655   0.750  0.00  0.00     0.077 C 
ATOM      2  C1' PXY d   1      -1.118   2.108  -1.267  0.00  0.00     0.077 C 
ATOM      3  C1  PXY d   1      -0.431   0.860  -0.747  0.00  0.00    -0.082 A 
ATOM      4  C2  PXY d   1      -1.142  -0.069  -0.129  0.00  0.00     0.003 A 
ATOM      5  C3  PXY d   1      -0.532  -1.188   0.375  0.00  0.00     0.003 A 
ATOM      6  C4  PXY d   1       0.812  -1.384   0.200  0.00  0.00    -0.082 A 
ATOM      7  C5  PXY d   1       1.542  -0.445  -0.438  0.00  0.00     0.003 A 
ATOM      8  C6  PXY d   1       0.911   0.703  -0.907  0.00  0.00     0.003 A 
ENDROOT
TORSDOF 0
ENDMDL
