MODEL 1
REMARK minimizedAffinity -2.58977532
REMARK minimizedRMSD -1
REMARK  0 active torsions:
REMARK  status: ('A' for Active; 'I' for Inactive)
ROOT
ATOM      1  C4' PXY d   1       1.483   0.740  -1.201  0.00  0.00     0.077 C 
ATOM      2  C1' PXY d   1      -2.323  -1.605   2.464  0.00  0.00     0.077 C 
ATOM      3  C1  PXY d   1      -1.334  -0.981   1.499  0.00  0.00    -0.082 A 
ATOM      4  C2  PXY d   1      -0.355  -1.718   0.998  0.00  0.00     0.003 A 
ATOM      5  C3  PXY d   1       0.567  -1.161   0.150  0.00  0.00     0.003 A 
ATOM      6  C4  PXY d   1       0.456   0.149  -0.231  0.00  0.00    -0.082 A 
ATOM      7  C5  PXY d   1      -0.546   0.904   0.267  0.00  0.00     0.003 A 
ATOM      8  C6  PXY d   1      -1.448   0.331   1.159  0.00  0.00     0.003 A 
ENDROOT
TORSDOF 0
ENDMDL
