MODEL 1
REMARK minimizedAffinity -2.73011684
REMARK minimizedRMSD -1
REMARK  0 active torsions:
REMARK  status: ('A' for Active; 'I' for Inactive)
ROOT
ATOM      1  C4' PXY d   1       1.134  -1.435   0.956  0.00  0.00     0.077 C 
ATOM      2  C1' PXY d   1      -2.187   1.621  -2.656  0.00  0.00     0.077 C 
ATOM      3  C1  PXY d   1      -1.306   0.828  -1.710  0.00  0.00    -0.082 A 
ATOM      4  C2  PXY d   1      -1.519  -0.468  -1.550  0.00  0.00     0.003 A 
ATOM      5  C3  PXY d   1      -0.753  -1.193  -0.674  0.00  0.00     0.003 A 
ATOM      6  C4  PXY d   1       0.276  -0.597   0.004  0.00  0.00    -0.082 A 
ATOM      7  C5  PXY d   1       0.506   0.723  -0.162  0.00  0.00     0.003 A 
ATOM      8  C6  PXY d   1      -0.309   1.450  -1.024  0.00  0.00     0.003 A 
ENDROOT
TORSDOF 0
ENDMDL
