MODEL 1
REMARK minimizedAffinity -3.57602906
REMARK minimizedRMSD -1
REMARK  0 active torsions:
REMARK  status: ('A' for Active; 'I' for Inactive)
ROOT
ATOM      1  C4' PXY d   1      -2.025   2.119  -2.120  0.00  0.00     0.077 C 
ATOM      2  C1' PXY d   1       1.398  -1.420   0.908  0.00  0.00     0.077 C 
ATOM      3  C1  PXY d   1       0.491  -0.494   0.122  0.00  0.00    -0.082 A 
ATOM      4  C2  PXY d   1       0.746  -0.257  -1.155  0.00  0.00     0.003 A 
ATOM      5  C3  PXY d   1      -0.046   0.603  -1.872  0.00  0.00     0.003 A 
ATOM      6  C4  PXY d   1      -1.141   1.184  -1.290  0.00  0.00    -0.082 A 
ATOM      7  C5  PXY d   1      -1.414   0.939   0.009  0.00  0.00     0.003 A 
ATOM      8  C6  PXY d   1      -0.574   0.096   0.730  0.00  0.00     0.003 A 
ENDROOT
TORSDOF 0
ENDMDL
