MODEL 1
REMARK minimizedAffinity -4.17423534
REMARK minimizedRMSD -1
REMARK  0 active torsions:
REMARK  status: ('A' for Active; 'I' for Inactive)
ROOT
ATOM      1  C4' PXY d   1      -2.337   1.115  -2.105  0.00  0.00     0.077 C 
ATOM      2  C1' PXY d   1       2.183  -1.176   0.675  0.00  0.00     0.077 C 
ATOM      3  C1  PXY d   1       0.992  -0.572  -0.043  0.00  0.00    -0.082 A 
ATOM      4  C2  PXY d   1       0.686  -0.983  -1.262  0.00  0.00     0.003 A 
ATOM      5  C3  PXY d   1      -0.369  -0.425  -1.938  0.00  0.00     0.003 A 
ATOM      6  C4  PXY d   1      -1.150   0.527  -1.339  0.00  0.00    -0.082 A 
ATOM      7  C5  PXY d   1      -0.850   0.944  -0.091  0.00  0.00     0.003 A 
ATOM      8  C6  PXY d   1       0.249   0.394   0.563  0.00  0.00     0.003 A 
ENDROOT
TORSDOF 0
ENDMDL
