MODEL 1
REMARK minimizedAffinity -0.304089427
REMARK minimizedRMSD -1
REMARK  0 active torsions:
REMARK  status: ('A' for Active; 'I' for Inactive)
ROOT
ATOM      1  C4' PXY d   1      -1.793   2.182  -1.496  0.00  0.00     0.077 C 
ATOM      2  C1' PXY d   1       2.137  -1.220   1.032  0.00  0.00     0.077 C 
ATOM      3  C1  PXY d   1       1.111  -0.318   0.375  0.00  0.00    -0.082 A 
ATOM      4  C2  PXY d   1      -0.036  -0.827  -0.043  0.00  0.00     0.003 A 
ATOM      5  C3  PXY d   1      -0.962  -0.031  -0.668  0.00  0.00     0.003 A 
ATOM      6  C4  PXY d   1      -0.733   1.310  -0.819  0.00  0.00    -0.082 A 
ATOM      7  C5  PXY d   1       0.431   1.839  -0.386  0.00  0.00     0.003 A 
ATOM      8  C6  PXY d   1       1.375   1.007   0.209  0.00  0.00     0.003 A 
ENDROOT
TORSDOF 0
ENDMDL
