MODEL 1
REMARK minimizedAffinity -2.29277396
REMARK minimizedRMSD -1
REMARK  0 active torsions:
REMARK  status: ('A' for Active; 'I' for Inactive)
ROOT
ATOM      1  C4' PXY d   1      -1.864   1.260  -1.845  0.00  0.00     0.077 C 
ATOM      2  C1' PXY d   1       1.770  -1.991   1.260  0.00  0.00     0.077 C 
ATOM      3  C1  PXY d   1       0.808  -1.138   0.456  0.00  0.00    -0.082 A 
ATOM      4  C2  PXY d   1       0.828  -1.199  -0.865  0.00  0.00     0.003 A 
ATOM      5  C3  PXY d   1      -0.012  -0.411  -1.609  0.00  0.00     0.003 A 
ATOM      6  C4  PXY d   1      -0.919   0.410  -0.992  0.00  0.00    -0.082 A 
ATOM      7  C5  PXY d   1      -0.952   0.470   0.356  0.00  0.00     0.003 A 
ATOM      8  C6  PXY d   1      -0.063  -0.308   1.092  0.00  0.00     0.003 A 
ENDROOT
TORSDOF 0
ENDMDL
