MODEL 1
REMARK minimizedAffinity -3.53766918
REMARK minimizedRMSD -1
REMARK  0 active torsions:
REMARK  status: ('A' for Active; 'I' for Inactive)
ROOT
ATOM      1  C4' PXY d   1      -2.670   2.110  -2.810  0.00  0.00     0.077 C 
ATOM      2  C1' PXY d   1       0.871  -0.892   0.635  0.00  0.00     0.077 C 
ATOM      3  C1  PXY d   1      -0.062  -0.098  -0.258  0.00  0.00    -0.082 A 
ATOM      4  C2  PXY d   1      -0.423  -0.593  -1.431  0.00  0.00     0.003 A 
ATOM      5  C3  PXY d   1      -1.241   0.126  -2.265  0.00  0.00     0.003 A 
ATOM      6  C4  PXY d   1      -1.737   1.340  -1.871  0.00  0.00    -0.082 A 
ATOM      7  C5  PXY d   1      -1.381   1.847  -0.672  0.00  0.00     0.003 A 
ATOM      8  C6  PXY d   1      -0.517   1.120   0.142  0.00  0.00     0.003 A 
ENDROOT
TORSDOF 0
ENDMDL
