MODEL 1
REMARK minimizedAffinity -3.12809491
REMARK minimizedRMSD -1
REMARK  0 active torsions:
REMARK  status: ('A' for Active; 'I' for Inactive)
ROOT
ATOM      1  C   UNL d   1      -1.242   1.517   1.790  0.00  0.00     0.077 C 
ATOM      2  C1  UNL d   1      -0.763   1.076   0.439  0.00  0.00    -0.074 A 
ATOM      3  C2  UNL d   1      -0.859   1.923  -0.670  0.00  0.00    -0.005 A 
ATOM      4  C3  UNL d   1      -0.401   1.503  -1.918  0.00  0.00     0.006 A 
ATOM      5  C4  UNL d   1       0.157   0.233  -2.071  0.00  0.00    -0.005 A 
ATOM      6  C5  UNL d   1       0.261  -0.628  -0.974  0.00  0.00    -0.074 A 
ATOM      7  C6  UNL d   1       0.867  -1.993  -1.118  0.00  0.00     0.077 C 
ATOM      8  C7  UNL d   1      -0.195  -0.196   0.279  0.00  0.00    -0.001 A 
ENDROOT
TORSDOF 0
ENDMDL
