MODEL 1
REMARK minimizedAffinity -4.43818855
REMARK minimizedRMSD -1
REMARK  0 active torsions:
REMARK  status: ('A' for Active; 'I' for Inactive)
ROOT
ATOM      1  C   UNL d   1       0.218  -1.448  -1.242  0.00  0.00     0.077 C 
ATOM      2  C1  UNL d   1       0.059  -0.290  -0.301  0.00  0.00    -0.074 A 
ATOM      3  C2  UNL d   1       0.529  -0.364   1.014  0.00  0.00    -0.005 A 
ATOM      4  C3  UNL d   1       0.384   0.724   1.875  0.00  0.00     0.006 A 
ATOM      5  C4  UNL d   1      -0.232   1.895   1.430  0.00  0.00    -0.005 A 
ATOM      6  C5  UNL d   1      -0.708   1.987   0.118  0.00  0.00    -0.074 A 
ATOM      7  C6  UNL d   1      -1.364   3.241  -0.379  0.00  0.00     0.077 C 
ATOM      8  C7  UNL d   1      -0.551   0.892  -0.743  0.00  0.00    -0.001 A 
ENDROOT
TORSDOF 0
ENDMDL
