MODEL 1
REMARK minimizedAffinity -4.29590082
REMARK minimizedRMSD -1
REMARK  0 active torsions:
REMARK  status: ('A' for Active; 'I' for Inactive)
ROOT
ATOM      1  C   UNL d   1       0.640   0.441  -1.840  0.00  0.00     0.077 C 
ATOM      2  C1  UNL d   1       0.378   0.828  -0.414  0.00  0.00    -0.074 A 
ATOM      3  C2  UNL d   1       0.891   0.069   0.642  0.00  0.00    -0.005 A 
ATOM      4  C3  UNL d   1       0.647   0.447   1.963  0.00  0.00     0.006 A 
ATOM      5  C4  UNL d   1      -0.111   1.586   2.239  0.00  0.00    -0.005 A 
ATOM      6  C5  UNL d   1      -0.631   2.357   1.196  0.00  0.00    -0.074 A 
ATOM      7  C6  UNL d   1      -1.439   3.589   1.476  0.00  0.00     0.077 C 
ATOM      8  C7  UNL d   1      -0.376   1.975  -0.128  0.00  0.00    -0.001 A 
ENDROOT
TORSDOF 0
ENDMDL
