MODEL 1
REMARK minimizedAffinity -5.1636405
REMARK minimizedRMSD -1
REMARK  0 active torsions:
REMARK  status: ('A' for Active; 'I' for Inactive)
ROOT
ATOM      1  C   UNL d   1       0.418  -1.090  -0.979  0.00  0.00     0.077 C 
ATOM      2  C1  UNL d   1       0.165  -0.300   0.270  0.00  0.00    -0.074 A 
ATOM      3  C2  UNL d   1       0.639  -0.743   1.509  0.00  0.00    -0.005 A 
ATOM      4  C3  UNL d   1       0.404   0.007   2.662  0.00  0.00     0.006 A 
ATOM      5  C4  UNL d   1      -0.306   1.205   2.587  0.00  0.00    -0.005 A 
ATOM      6  C5  UNL d   1      -0.788   1.665   1.357  0.00  0.00    -0.074 A 
ATOM      7  C6  UNL d   1      -1.545   2.956   1.258  0.00  0.00     0.077 C 
ATOM      8  C7  UNL d   1      -0.542   0.909   0.203  0.00  0.00    -0.001 A 
ENDROOT
TORSDOF 0
ENDMDL
