MODEL 1
REMARK minimizedAffinity -3.02619982
REMARK minimizedRMSD -1
REMARK  0 active torsions:
REMARK  status: ('A' for Active; 'I' for Inactive)
ROOT
ATOM      1  C   UNL d   1      -1.785   2.417   1.579  0.00  0.00     0.077 C 
ATOM      2  C1  UNL d   1      -0.758   1.339   1.404  0.00  0.00    -0.074 A 
ATOM      3  C2  UNL d   1       0.218   1.110   2.379  0.00  0.00    -0.005 A 
ATOM      4  C3  UNL d   1       1.161   0.097   2.207  0.00  0.00     0.006 A 
ATOM      5  C4  UNL d   1       1.138  -0.696   1.059  0.00  0.00    -0.005 A 
ATOM      6  C5  UNL d   1       0.169  -0.483   0.073  0.00  0.00    -0.074 A 
ATOM      7  C6  UNL d   1       0.124  -1.333  -1.162  0.00  0.00     0.077 C 
ATOM      8  C7  UNL d   1      -0.779   0.533   0.257  0.00  0.00    -0.001 A 
ENDROOT
TORSDOF 0
ENDMDL
