MODEL 1
REMARK minimizedAffinity -1.11615908
REMARK minimizedRMSD -1
REMARK  0 active torsions:
REMARK  status: ('A' for Active; 'I' for Inactive)
ROOT
ATOM      1  C   UNL d   1       0.586   0.846   2.615  0.00  0.00     0.077 C 
ATOM      2  C1  UNL d   1       0.360   0.360   1.214  0.00  0.00    -0.074 A 
ATOM      3  C2  UNL d   1      -0.078   1.232   0.212  0.00  0.00    -0.005 A 
ATOM      4  C3  UNL d   1      -0.274   0.768  -1.088  0.00  0.00     0.006 A 
ATOM      5  C4  UNL d   1      -0.034  -0.571  -1.400  0.00  0.00    -0.005 A 
ATOM      6  C5  UNL d   1       0.405  -1.458  -0.411  0.00  0.00    -0.074 A 
ATOM      7  C6  UNL d   1       0.676  -2.898  -0.732  0.00  0.00     0.077 C 
ATOM      8  C7  UNL d   1       0.606  -0.982   0.891  0.00  0.00    -0.001 A 
ENDROOT
TORSDOF 0
ENDMDL
