MODEL 1
REMARK minimizedAffinity 4.25136566
REMARK minimizedRMSD -1
REMARK  0 active torsions:
REMARK  status: ('A' for Active; 'I' for Inactive)
ROOT
ATOM      1  C   UNL d   1       0.990   0.511  -1.079  0.00  0.00     0.077 C 
ATOM      2  C1  UNL d   1       2.067  -0.478  -0.744  0.00  0.00    -0.074 A 
ATOM      3  C2  UNL d   1       1.843  -1.498   0.186  0.00  0.00    -0.005 A 
ATOM      4  C3  UNL d   1       2.851  -2.416   0.480  0.00  0.00     0.006 A 
ATOM      5  C4  UNL d   1       4.091  -2.324  -0.153  0.00  0.00    -0.005 A 
ATOM      6  C5  UNL d   1       4.333  -1.312  -1.087  0.00  0.00    -0.074 A 
ATOM      7  C6  UNL d   1       5.657  -1.205  -1.783  0.00  0.00     0.077 C 
ATOM      8  C7  UNL d   1       3.313  -0.397  -1.382  0.00  0.00    -0.001 A 
ENDROOT
TORSDOF 0
ENDMDL
