MODEL 1
REMARK minimizedAffinity 4.39927912
REMARK minimizedRMSD -1
REMARK  0 active torsions:
REMARK  status: ('A' for Active; 'I' for Inactive)
ROOT
ATOM      1  C   UNL d   1      -3.607   2.928  -1.636  0.00  0.00     0.077 C 
ATOM      2  C1  UNL d   1      -2.229   2.496  -1.234  0.00  0.00    -0.074 A 
ATOM      3  C2  UNL d   1      -1.764   1.210  -1.526  0.00  0.00    -0.005 A 
ATOM      4  C3  UNL d   1      -0.476   0.826  -1.154  0.00  0.00     0.006 A 
ATOM      5  C4  UNL d   1       0.359   1.722  -0.487  0.00  0.00    -0.005 A 
ATOM      6  C5  UNL d   1      -0.087   3.013  -0.187  0.00  0.00    -0.074 A 
ATOM      7  C6  UNL d   1       0.801   3.993   0.521  0.00  0.00     0.077 C 
ATOM      8  C7  UNL d   1      -1.380   3.394  -0.571  0.00  0.00    -0.001 A 
ENDROOT
TORSDOF 0
ENDMDL
