MODEL 1
REMARK minimizedAffinity 5.73494053
REMARK minimizedRMSD -1
REMARK  0 active torsions:
REMARK  status: ('A' for Active; 'I' for Inactive)
ROOT
ATOM      1  C   UNL d   1      -4.408   4.737  -3.665  0.00  0.00     0.077 C 
ATOM      2  C1  UNL d   1      -4.345   3.389  -3.011  0.00  0.00    -0.074 A 
ATOM      3  C2  UNL d   1      -5.277   2.394  -3.323  0.00  0.00    -0.005 A 
ATOM      4  C3  UNL d   1      -5.200   1.142  -2.714  0.00  0.00     0.006 A 
ATOM      5  C4  UNL d   1      -4.192   0.872  -1.788  0.00  0.00    -0.005 A 
ATOM      6  C5  UNL d   1      -3.250   1.853  -1.464  0.00  0.00    -0.074 A 
ATOM      7  C6  UNL d   1      -2.153   1.576  -0.479  0.00  0.00     0.077 C 
ATOM      8  C7  UNL d   1      -3.329   3.107  -2.086  0.00  0.00    -0.001 A 
ENDROOT
TORSDOF 0
ENDMDL
