MODEL 1
REMARK minimizedAffinity 17.9420967
REMARK minimizedRMSD -1
REMARK  0 active torsions:
REMARK  status: ('A' for Active; 'I' for Inactive)
ROOT
ATOM      1  C4' PXY d   1       3.073   1.536   1.266  0.00  0.00     0.077 C 
ATOM      2  C1' PXY d   1      -1.606  -1.380   3.004  0.00  0.00     0.077 C 
ATOM      3  C1  PXY d   1      -0.377  -0.624   2.539  0.00  0.00    -0.082 A 
ATOM      4  C2  PXY d   1       0.264   0.166   3.385  0.00  0.00     0.003 A 
ATOM      5  C3  PXY d   1       1.358   0.882   2.972  0.00  0.00     0.003 A 
ATOM      6  C4  PXY d   1       1.833   0.746   1.695  0.00  0.00    -0.082 A 
ATOM      7  C5  PXY d   1       1.190  -0.066   0.829  0.00  0.00     0.003 A 
ATOM      8  C6  PXY d   1       0.057  -0.752   1.256  0.00  0.00     0.003 A 
ENDROOT
TORSDOF 0
ENDMDL
