MODEL 1
REMARK minimizedAffinity 3.75395274
REMARK minimizedRMSD -1
REMARK  0 active torsions:
REMARK  status: ('A' for Active; 'I' for Inactive)
ROOT
ATOM      1  C4' PXY d   1       4.411   5.999   1.183  0.00  0.00     0.077 C 
ATOM      2  C1' PXY d   1       3.785   0.908   3.849  0.00  0.00     0.077 C 
ATOM      3  C1  PXY d   1       3.945   2.249   3.161  0.00  0.00    -0.082 A 
ATOM      4  C2  PXY d   1       3.936   2.312   1.839  0.00  0.00     0.003 A 
ATOM      5  C3  PXY d   1       4.111   3.512   1.200  0.00  0.00     0.003 A 
ATOM      6  C4  PXY d   1       4.244   4.668   1.921  0.00  0.00    -0.082 A 
ATOM      7  C5  PXY d   1       4.243   4.614   3.270  0.00  0.00     0.003 A 
ATOM      8  C6  PXY d   1       4.106   3.381   3.899  0.00  0.00     0.003 A 
ENDROOT
TORSDOF 0
ENDMDL
