MODEL 1
REMARK minimizedAffinity 10.2596455
REMARK minimizedRMSD -1
REMARK  0 active torsions:
REMARK  status: ('A' for Active; 'I' for Inactive)
ROOT
ATOM      1  C4' PXY d   1       4.456   1.264   5.011  0.00  0.00     0.077 C 
ATOM      2  C1' PXY d   1       3.505   4.580   0.373  0.00  0.00     0.077 C 
ATOM      3  C1  PXY d   1       3.760   3.720   1.595  0.00  0.00    -0.082 A 
ATOM      4  C2  PXY d   1       3.841   2.406   1.466  0.00  0.00     0.003 A 
ATOM      5  C3  PXY d   1       4.039   1.611   2.565  0.00  0.00     0.003 A 
ATOM      6  C4  PXY d   1       4.209   2.171   3.803  0.00  0.00    -0.082 A 
ATOM      7  C5  PXY d   1       4.139   3.512   3.942  0.00  0.00     0.003 A 
ATOM      8  C6  PXY d   1       3.896   4.298   2.819  0.00  0.00     0.003 A 
ENDROOT
TORSDOF 0
ENDMDL
