MODEL 1
REMARK minimizedAffinity 10.8711739
REMARK minimizedRMSD -1
REMARK  0 active torsions:
REMARK  status: ('A' for Active; 'I' for Inactive)
ROOT
ATOM      1  C4' PXY d   1      -2.531  -1.403   1.466  0.00  0.00     0.077 C 
ATOM      2  C1' PXY d   1       2.750   0.228   3.156  0.00  0.00     0.077 C 
ATOM      3  C1  PXY d   1       1.369  -0.212   2.713  0.00  0.00    -0.082 A 
ATOM      4  C2  PXY d   1       0.586   0.640   2.071  0.00  0.00     0.003 A 
ATOM      5  C3  PXY d   1      -0.678   0.268   1.691  0.00  0.00     0.003 A 
ATOM      6  C4  PXY d   1      -1.126  -1.005   1.924  0.00  0.00    -0.082 A 
ATOM      7  C5  PXY d   1      -0.329  -1.882   2.569  0.00  0.00     0.003 A 
ATOM      8  C6  PXY d   1       0.936  -1.473   2.983  0.00  0.00     0.003 A 
ENDROOT
TORSDOF 0
ENDMDL
