MODEL 1
REMARK minimizedAffinity 9.9330492
REMARK minimizedRMSD -1
REMARK  0 active torsions:
REMARK  status: ('A' for Active; 'I' for Inactive)
ROOT
ATOM      1  C4' PXY d   1       0.393  -0.338  -5.971  0.00  0.00     0.077 C 
ATOM      2  C1' PXY d   1       1.633  -5.975  -5.650  0.00  0.00     0.077 C 
ATOM      3  C1  PXY d   1       1.297  -4.499  -5.740  0.00  0.00    -0.082 A 
ATOM      4  C2  PXY d   1       2.264  -3.601  -5.648  0.00  0.00     0.003 A 
ATOM      5  C3  PXY d   1       1.974  -2.262  -5.696  0.00  0.00     0.003 A 
ATOM      6  C4  PXY d   1       0.687  -1.839  -5.894  0.00  0.00    -0.082 A 
ATOM      7  C5  PXY d   1      -0.304  -2.749  -6.000  0.00  0.00     0.003 A 
ATOM      8  C6  PXY d   1       0.006  -4.103  -5.907  0.00  0.00     0.003 A 
ENDROOT
TORSDOF 0
ENDMDL
