MODEL 1
REMARK minimizedAffinity 8.50437737
REMARK minimizedRMSD -1
REMARK  0 active torsions:
REMARK  status: ('A' for Active; 'I' for Inactive)
ROOT
ATOM      1  C4' PXY d   1       0.646   1.567   1.060  0.00  0.00     0.077 C 
ATOM      2  C1' PXY d   1       0.497  -3.089   4.484  0.00  0.00     0.077 C 
ATOM      3  C1  PXY d   1       0.525  -1.872   3.579  0.00  0.00    -0.082 A 
ATOM      4  C2  PXY d   1       1.665  -1.229   3.383  0.00  0.00     0.003 A 
ATOM      5  C3  PXY d   1       1.703  -0.108   2.594  0.00  0.00     0.003 A 
ATOM      6  C4  PXY d   1       0.572   0.328   1.957  0.00  0.00    -0.082 A 
ATOM      7  C5  PXY d   1      -0.593  -0.328   2.144  0.00  0.00     0.003 A 
ATOM      8  C6  PXY d   1      -0.618  -1.440   2.981  0.00  0.00     0.003 A 
ENDROOT
TORSDOF 0
ENDMDL
