MODEL 1
REMARK minimizedAffinity 5.6351018
REMARK minimizedRMSD -1
REMARK  0 active torsions:
REMARK  status: ('A' for Active; 'I' for Inactive)
ROOT
ATOM      1  C4' PXY d   1      -0.676   1.671   2.366  0.00  0.00     0.077 C 
ATOM      2  C1' PXY d   1       1.732  -3.132   4.497  0.00  0.00     0.077 C 
ATOM      3  C1  PXY d   1       1.109  -1.866   3.945  0.00  0.00    -0.082 A 
ATOM      4  C2  PXY d   1      -0.134  -1.892   3.491  0.00  0.00     0.003 A 
ATOM      5  C3  PXY d   1      -0.702  -0.763   2.960  0.00  0.00     0.003 A 
ATOM      6  C4  PXY d   1      -0.010   0.418   2.941  0.00  0.00    -0.082 A 
ATOM      7  C5  PXY d   1       1.255   0.456   3.412  0.00  0.00     0.003 A 
ATOM      8  C6  PXY d   1       1.828  -0.711   3.910  0.00  0.00     0.003 A 
ENDROOT
TORSDOF 0
ENDMDL
