MODEL 1
REMARK minimizedAffinity 5.94327116
REMARK minimizedRMSD -1
REMARK  0 active torsions:
REMARK  status: ('A' for Active; 'I' for Inactive)
ROOT
ATOM      1  C4' PXY d   1       1.658  -2.853   4.428  0.00  0.00     0.077 C 
ATOM      2  C1' PXY d   1      -0.345   2.275   2.664  0.00  0.00     0.077 C 
ATOM      3  C1  PXY d   1       0.170   0.924   3.122  0.00  0.00    -0.082 A 
ATOM      4  C2  PXY d   1       1.032   0.858   4.123  0.00  0.00     0.003 A 
ATOM      5  C3  PXY d   1       1.532  -0.353   4.529  0.00  0.00     0.003 A 
ATOM      6  C4  PXY d   1       1.105  -1.512   3.938  0.00  0.00    -0.082 A 
ATOM      7  C5  PXY d   1       0.217  -1.453   2.923  0.00  0.00     0.003 A 
ATOM      8  C6  PXY d   1      -0.247  -0.211   2.499  0.00  0.00     0.003 A 
ENDROOT
TORSDOF 0
ENDMDL
