MODEL 1
REMARK minimizedAffinity -3.71532321
REMARK minimizedRMSD -1
REMARK  0 active torsions:
REMARK  status: ('A' for Active; 'I' for Inactive)
ROOT
ATOM      1  C2' OXE d   1      -0.900   0.793  -0.344  0.00  0.00     0.078 C 
ATOM      2  C1' OXE d   1       1.507   2.008   0.436  0.00  0.00     0.078 C 
ATOM      3  C1  OXE d   1       1.482   0.504   0.327  0.00  0.00    -0.078 A 
ATOM      4  C2  OXE d   1       0.287  -0.085  -0.009  0.00  0.00    -0.078 A 
ATOM      5  C3  OXE d   1       0.221  -1.466  -0.177  0.00  0.00     0.003 A 
ATOM      6  C4  OXE d   1       1.321  -2.271   0.144  0.00  0.00    -0.002 A 
ATOM      7  C5  OXE d   1       2.536  -1.694   0.528  0.00  0.00    -0.002 A 
ATOM      8  C6  OXE d   1       2.645  -0.309   0.583  0.00  0.00     0.003 A 
ENDROOT
TORSDOF 0
ENDMDL
