MODEL 1
REMARK minimizedAffinity -1.53014493
REMARK minimizedRMSD -1
REMARK  0 active torsions:
REMARK  status: ('A' for Active; 'I' for Inactive)
ROOT
ATOM      1  C2' OXE d   1       2.984   0.972  -0.617  0.00  0.00     0.078 C 
ATOM      2  C1' OXE d   1       2.545  -1.799  -0.532  0.00  0.00     0.078 C 
ATOM      3  C1  OXE d   1       1.341  -0.894  -0.464  0.00  0.00    -0.078 A 
ATOM      4  C2  OXE d   1       1.568   0.461  -0.459  0.00  0.00    -0.078 A 
ATOM      5  C3  OXE d   1       0.489   1.341  -0.453  0.00  0.00     0.003 A 
ATOM      6  C4  OXE d   1      -0.816   0.860  -0.297  0.00  0.00    -0.002 A 
ATOM      7  C5  OXE d   1      -1.067  -0.515  -0.260  0.00  0.00    -0.002 A 
ATOM      8  C6  OXE d   1      -0.005  -1.405  -0.385  0.00  0.00     0.003 A 
ENDROOT
TORSDOF 0
ENDMDL
