MODEL 1
REMARK minimizedAffinity -2.44572091
REMARK minimizedRMSD -1
REMARK  0 active torsions:
REMARK  status: ('A' for Active; 'I' for Inactive)
ROOT
ATOM      1  C2' OXE d   1      -1.239   0.184   0.161  0.00  0.00     0.078 C 
ATOM      2  C1' OXE d   1      -0.370  -1.714  -1.715  0.00  0.00     0.078 C 
ATOM      3  C1  OXE d   1       0.590  -1.313  -0.623  0.00  0.00    -0.078 A 
ATOM      4  C2  OXE d   1       0.173  -0.349   0.263  0.00  0.00    -0.078 A 
ATOM      5  C3  OXE d   1       0.999   0.017   1.322  0.00  0.00     0.003 A 
ATOM      6  C4  OXE d   1       2.308  -0.474   1.404  0.00  0.00    -0.002 A 
ATOM      7  C5  OXE d   1       2.767  -1.427   0.488  0.00  0.00    -0.002 A 
ATOM      8  C6  OXE d   1       1.908  -1.888  -0.504  0.00  0.00     0.003 A 
ENDROOT
TORSDOF 0
ENDMDL
