MODEL 1
REMARK minimizedAffinity -1.12574375
REMARK minimizedRMSD -1
REMARK  0 active torsions:
REMARK  status: ('A' for Active; 'I' for Inactive)
ROOT
ATOM      1  C2' OXE d   1      -0.583  -2.058  -0.673  0.00  0.00     0.078 C 
ATOM      2  C1' OXE d   1      -1.190   0.677  -0.481  0.00  0.00     0.078 C 
ATOM      3  C1  OXE d   1       0.265   0.280  -0.531  0.00  0.00    -0.078 A 
ATOM      4  C2  OXE d   1       0.553  -1.062  -0.578  0.00  0.00    -0.078 A 
ATOM      5  C3  OXE d   1       1.877  -1.480  -0.682  0.00  0.00     0.003 A 
ATOM      6  C4  OXE d   1       2.922  -0.554  -0.583  0.00  0.00    -0.002 A 
ATOM      7  C5  OXE d   1       2.651   0.816  -0.495  0.00  0.00    -0.002 A 
ATOM      8  C6  OXE d   1       1.331   1.251  -0.511  0.00  0.00     0.003 A 
ENDROOT
TORSDOF 0
ENDMDL
