MODEL 1
REMARK minimizedAffinity -4.21500778
REMARK minimizedRMSD -1
REMARK  0 active torsions:
REMARK  status: ('A' for Active; 'I' for Inactive)
ROOT
ATOM      1  C2' OXE d   1       2.507  -1.366   1.136  0.00  0.00     0.078 C 
ATOM      2  C1' OXE d   1       0.875  -2.804  -0.639  0.00  0.00     0.078 C 
ATOM      3  C1  OXE d   1       0.587  -1.335  -0.452  0.00  0.00    -0.078 A 
ATOM      4  C2  OXE d   1       1.361  -0.650   0.454  0.00  0.00    -0.078 A 
ATOM      5  C3  OXE d   1       1.173   0.719   0.624  0.00  0.00     0.003 A 
ATOM      6  C4  OXE d   1       0.104   1.371  -0.003  0.00  0.00    -0.002 A 
ATOM      7  C5  OXE d   1      -0.720   0.683  -0.899  0.00  0.00    -0.002 A 
ATOM      8  C6  OXE d   1      -0.467  -0.658  -1.166  0.00  0.00     0.003 A 
ENDROOT
TORSDOF 0
ENDMDL
