MODEL 1
REMARK minimizedAffinity -1.36383426
REMARK minimizedRMSD -1
REMARK  0 active torsions:
REMARK  status: ('A' for Active; 'I' for Inactive)
ROOT
ATOM      1  C2' OXE d   1       2.361  -1.551   0.224  0.00  0.00     0.078 C 
ATOM      2  C1' OXE d   1      -0.211  -2.546  -0.302  0.00  0.00     0.078 C 
ATOM      3  C1  OXE d   1      -0.041  -1.050  -0.206  0.00  0.00    -0.078 A 
ATOM      4  C2  OXE d   1       1.212  -0.574   0.098  0.00  0.00    -0.078 A 
ATOM      5  C3  OXE d   1       1.435   0.799   0.145  0.00  0.00     0.003 A 
ATOM      6  C4  OXE d   1       0.365   1.695   0.037  0.00  0.00    -0.002 A 
ATOM      7  C5  OXE d   1      -0.926   1.230  -0.233  0.00  0.00    -0.002 A 
ATOM      8  C6  OXE d   1      -1.138  -0.134  -0.399  0.00  0.00     0.003 A 
ENDROOT
TORSDOF 0
ENDMDL
