MODEL 1
REMARK minimizedAffinity -1.60198474
REMARK minimizedRMSD -1
REMARK  0 active torsions:
REMARK  status: ('A' for Active; 'I' for Inactive)
ROOT
ATOM      1  C2' OXE d   1       2.327  -0.949   1.139  0.00  0.00     0.078 C 
ATOM      2  C1' OXE d   1       1.919   1.828   1.167  0.00  0.00     0.078 C 
ATOM      3  C1  OXE d   1       0.975   0.987   0.346  0.00  0.00    -0.078 A 
ATOM      4  C2  OXE d   1       1.210  -0.366   0.300  0.00  0.00    -0.078 A 
ATOM      5  C3  OXE d   1       0.337  -1.195  -0.398  0.00  0.00     0.003 A 
ATOM      6  C4  OXE d   1      -0.688  -0.647  -1.179  0.00  0.00    -0.002 A 
ATOM      7  C5  OXE d   1      -0.921   0.732  -1.179  0.00  0.00    -0.002 A 
ATOM      8  C6  OXE d   1      -0.127   1.557  -0.390  0.00  0.00     0.003 A 
ENDROOT
TORSDOF 0
ENDMDL
