MODEL 1
REMARK minimizedAffinity -3.16123796
REMARK minimizedRMSD -1
REMARK  0 active torsions:
REMARK  status: ('A' for Active; 'I' for Inactive)
ROOT
ATOM      1  C2' OXE d   1      -0.122  -1.556  -0.643  0.00  0.00     0.078 C 
ATOM      2  C1' OXE d   1      -0.442   1.187  -0.138  0.00  0.00     0.078 C 
ATOM      3  C1  OXE d   1       0.933   0.594   0.044  0.00  0.00    -0.078 A 
ATOM      4  C2  OXE d   1       1.070  -0.758  -0.161  0.00  0.00    -0.078 A 
ATOM      5  C3  OXE d   1       2.328  -1.346  -0.060  0.00  0.00     0.003 A 
ATOM      6  C4  OXE d   1       3.423  -0.603   0.396  0.00  0.00    -0.002 A 
ATOM      7  C5  OXE d   1       3.297   0.767   0.648  0.00  0.00    -0.002 A 
ATOM      8  C6  OXE d   1       2.071   1.388   0.436  0.00  0.00     0.003 A 
ENDROOT
TORSDOF 0
ENDMDL
