MODEL 1
REMARK minimizedAffinity -5.1481967
REMARK minimizedRMSD -1
REMARK  0 active torsions:
REMARK  status: ('A' for Active; 'I' for Inactive)
ROOT
ATOM      1  C2' OXE d   1       0.367  -2.178  -0.278  0.00  0.00     0.078 C 
ATOM      2  C1' OXE d   1       2.756  -1.457   1.007  0.00  0.00     0.078 C 
ATOM      3  C1  OXE d   1       1.813  -0.351   0.604  0.00  0.00    -0.078 A 
ATOM      4  C2  OXE d   1       0.668  -0.710  -0.066  0.00  0.00    -0.078 A 
ATOM      5  C3  OXE d   1      -0.263   0.265  -0.412  0.00  0.00     0.003 A 
ATOM      6  C4  OXE d   1       0.028   1.621  -0.221  0.00  0.00    -0.002 A 
ATOM      7  C5  OXE d   1       1.206   2.011   0.423  0.00  0.00    -0.002 A 
ATOM      8  C6  OXE d   1       2.088   1.037   0.879  0.00  0.00     0.003 A 
ENDROOT
TORSDOF 0
ENDMDL
