MODEL 1
REMARK minimizedAffinity 1.20514941
REMARK minimizedRMSD -1
REMARK  1 active torsions:
REMARK  status: ('A' for Active; 'I' for Inactive)
REMARK    1  A    between atoms: N_2  and  C1_3 
ROOT
ATOM      1  C1  UNL d   1       1.773   2.096   0.905  0.00  0.00     0.143 A 
ATOM      2  C2  UNL d   1       2.605   2.860   0.079  0.00  0.00    -0.057 A 
ATOM      3  C3  UNL d   1       2.118   3.979  -0.607  0.00  0.00     0.033 A 
ATOM      4  C4  UNL d   1       0.778   4.338  -0.502  0.00  0.00    -0.042 A 
ATOM      5  C5  UNL d   1      -0.073   3.579   0.294  0.00  0.00     0.033 A 
ATOM      6  C6  UNL d   1       0.421   2.466   0.982  0.00  0.00    -0.057 A 
ENDROOT
BRANCH   1   7
ATOM      7  N   UNL d   1       2.173   0.915   1.535  0.00  0.00    -0.732 N 
ATOM      8  C   UNL d   1       1.263  -0.203   1.653  0.00  0.00     0.284 C 
ATOM      9  H3  UNL d   1       3.127   0.652   1.296  0.00  0.00     0.395 HD
ENDBRANCH   1   7
TORSDOF 1
ENDMDL
