MODEL 1
REMARK minimizedAffinity -1.16842639
REMARK minimizedRMSD -1
REMARK  1 active torsions:
REMARK  status: ('A' for Active; 'I' for Inactive)
REMARK    1  A    between atoms: N_2  and  C1_3 
ROOT
ATOM      1  C1  UNL d   1       0.454  -2.052   0.761  0.00  0.00     0.143 A 
ATOM      2  C2  UNL d   1       0.924  -2.761  -0.349  0.00  0.00    -0.057 A 
ATOM      3  C3  UNL d   1       0.342  -2.601  -1.613  0.00  0.00     0.033 A 
ATOM      4  C4  UNL d   1      -0.744  -1.748  -1.782  0.00  0.00    -0.042 A 
ATOM      5  C5  UNL d   1      -1.244  -1.053  -0.686  0.00  0.00     0.033 A 
ATOM      6  C6  UNL d   1      -0.654  -1.212   0.571  0.00  0.00    -0.057 A 
ENDROOT
BRANCH   1   7
ATOM      7  N   UNL d   1       0.927  -2.242   2.062  0.00  0.00    -0.732 N 
ATOM      8  C   UNL d   1       2.090  -1.523   2.536  0.00  0.00     0.284 C 
ATOM      9  H3  UNL d   1       0.174  -2.309   2.743  0.00  0.00     0.395 HD
ENDBRANCH   1   7
TORSDOF 1
ENDMDL
