MODEL 1
REMARK minimizedAffinity 6.4667244
REMARK minimizedRMSD -1
REMARK  1 active torsions:
REMARK  status: ('A' for Active; 'I' for Inactive)
REMARK    1  A    between atoms: N_2  and  C1_3 
ROOT
ATOM      1  C1  UNL d   1      -4.396   2.223  -2.490  0.00  0.00     0.143 A 
ATOM      2  C2  UNL d   1      -3.300   2.113  -1.627  0.00  0.00    -0.057 A 
ATOM      3  C3  UNL d   1      -3.472   1.810  -0.271  0.00  0.00     0.033 A 
ATOM      4  C4  UNL d   1      -4.749   1.639   0.253  0.00  0.00    -0.042 A 
ATOM      5  C5  UNL d   1      -5.854   1.769  -0.581  0.00  0.00     0.033 A 
ATOM      6  C6  UNL d   1      -5.675   2.065  -1.936  0.00  0.00    -0.057 A 
ENDROOT
BRANCH   1   7
ATOM      7  N   UNL d   1      -4.296   2.619  -3.826  0.00  0.00    -0.732 N 
ATOM      8  C   UNL d   1      -5.259   3.537  -4.397  0.00  0.00     0.284 C 
ATOM      9  H3  UNL d   1      -3.335   2.797  -4.108  0.00  0.00     0.395 HD
ENDBRANCH   1   7
TORSDOF 1
ENDMDL
