MODEL 1
REMARK minimizedAffinity 2.71360326
REMARK minimizedRMSD -1
REMARK  1 active torsions:
REMARK  status: ('A' for Active; 'I' for Inactive)
REMARK    1  A    between atoms: N_2  and  C1_3 
ROOT
ATOM      1  C1  UNL d   1       2.828  -0.355   2.006  0.00  0.00     0.143 A 
ATOM      2  C2  UNL d   1       1.532  -0.679   2.423  0.00  0.00    -0.057 A 
ATOM      3  C3  UNL d   1       1.302  -1.706   3.345  0.00  0.00     0.033 A 
ATOM      4  C4  UNL d   1       2.365  -2.450   3.846  0.00  0.00    -0.042 A 
ATOM      5  C5  UNL d   1       3.659  -2.163   3.427  0.00  0.00     0.033 A 
ATOM      6  C6  UNL d   1       3.883  -1.131   2.511  0.00  0.00    -0.057 A 
ENDROOT
BRANCH   1   7
ATOM      7  N   UNL d   1       3.114   0.590   1.017  0.00  0.00    -0.732 N 
ATOM      8  C   UNL d   1       2.567   1.927   1.096  0.00  0.00     0.284 C 
ATOM      9  H3  UNL d   1       4.085   0.555   0.715  0.00  0.00     0.395 HD
ENDBRANCH   1   7
TORSDOF 1
ENDMDL
