MODEL 1
REMARK minimizedAffinity 7.45637465
REMARK minimizedRMSD -1
REMARK  1 active torsions:
REMARK  status: ('A' for Active; 'I' for Inactive)
REMARK    1  A    between atoms: N_2  and  C1_3 
ROOT
ATOM      1  C1  UNL d   1      -0.557  -2.546  -1.965  0.00  0.00     0.143 A 
ATOM      2  C2  UNL d   1      -1.630  -3.348  -2.368  0.00  0.00    -0.057 A 
ATOM      3  C3  UNL d   1      -2.627  -3.735  -1.464  0.00  0.00     0.033 A 
ATOM      4  C4  UNL d   1      -2.553  -3.348  -0.130  0.00  0.00    -0.042 A 
ATOM      5  C5  UNL d   1      -1.482  -2.572   0.298  0.00  0.00     0.033 A 
ATOM      6  C6  UNL d   1      -0.493  -2.184  -0.610  0.00  0.00    -0.057 A 
ENDROOT
BRANCH   1   7
ATOM      7  N   UNL d   1       0.517  -2.211  -2.793  0.00  0.00    -0.732 N 
ATOM      8  C   UNL d   1       1.875  -2.266  -2.297  0.00  0.00     0.284 C 
ATOM      9  H3  UNL d   1       0.405  -2.569  -3.739  0.00  0.00     0.395 HD
ENDBRANCH   1   7
TORSDOF 1
ENDMDL
