MODEL 1
REMARK minimizedAffinity 4.09514093
REMARK minimizedRMSD -1
REMARK  1 active torsions:
REMARK  status: ('A' for Active; 'I' for Inactive)
REMARK    1  A    between atoms: N_2  and  C1_3 
ROOT
ATOM      1  C1  UNL d   1       1.474   0.010   1.844  0.00  0.00     0.143 A 
ATOM      2  C2  UNL d   1       0.587   1.091   1.889  0.00  0.00    -0.057 A 
ATOM      3  C3  UNL d   1       0.915   2.324   1.311  0.00  0.00     0.033 A 
ATOM      4  C4  UNL d   1       2.152   2.506   0.703  0.00  0.00    -0.042 A 
ATOM      5  C5  UNL d   1       3.060   1.454   0.669  0.00  0.00     0.033 A 
ATOM      6  C6  UNL d   1       2.724   0.223   1.241  0.00  0.00    -0.057 A 
ENDROOT
BRANCH   1   7
ATOM      7  N   UNL d   1       1.247  -1.210   2.486  0.00  0.00    -0.732 N 
ATOM      8  C   UNL d   1       2.203  -1.732   3.438  0.00  0.00     0.284 C 
ATOM      9  H3  UNL d   1       0.276  -1.326   2.766  0.00  0.00     0.395 HD
ENDBRANCH   1   7
TORSDOF 1
ENDMDL
