MODEL 1
REMARK minimizedAffinity 5.2058754
REMARK minimizedRMSD -1
REMARK  1 active torsions:
REMARK  status: ('A' for Active; 'I' for Inactive)
REMARK    1  A    between atoms: N_2  and  C1_3 
ROOT
ATOM      1  C1  UNL d   1       2.970  -0.434   1.817  0.00  0.00     0.143 A 
ATOM      2  C2  UNL d   1       4.046  -1.174   2.317  0.00  0.00    -0.057 A 
ATOM      3  C3  UNL d   1       3.850  -2.203   3.247  0.00  0.00     0.033 A 
ATOM      4  C4  UNL d   1       2.572  -2.490   3.716  0.00  0.00    -0.042 A 
ATOM      5  C5  UNL d   1       1.491  -1.751   3.251  0.00  0.00     0.033 A 
ATOM      6  C6  UNL d   1       1.692  -0.729   2.317  0.00  0.00    -0.057 A 
ENDROOT
BRANCH   1   7
ATOM      7  N   UNL d   1       3.111   0.665   0.966  0.00  0.00    -0.732 N 
ATOM      8  C   UNL d   1       2.651   1.976   1.373  0.00  0.00     0.284 C 
ATOM      9  H3  UNL d   1       4.006   0.670   0.483  0.00  0.00     0.395 HD
ENDBRANCH   1   7
TORSDOF 1
ENDMDL
