MODEL 1
REMARK minimizedAffinity 8.42302418
REMARK minimizedRMSD -1
REMARK  1 active torsions:
REMARK  status: ('A' for Active; 'I' for Inactive)
REMARK    1  A    between atoms: C3_4  and  O_7 
ROOT
ATOM      1  C   UNL d   1      -2.133   0.394  -2.041  0.00  0.00    -0.033 A 
ATOM      2  C1  UNL d   1      -1.466   0.892  -3.162  0.00  0.00     0.039 A 
ATOM      3  C2  UNL d   1      -2.001   1.967  -3.875  0.00  0.00    -0.080 A 
ATOM      4  C3  UNL d   1      -3.200   2.536  -3.455  0.00  0.00     0.150 A 
ATOM      5  C4  UNL d   1      -3.867   2.048  -2.337  0.00  0.00    -0.007 A 
ATOM      6  C5  UNL d   1      -3.333   0.974  -1.627  0.00  0.00     0.039 A 
ENDROOT
BRANCH   4   7
ATOM      7  O   UNL d   1      -3.763   3.584  -4.121  0.00  0.00    -0.526 OA
ATOM      8  H5  UNL d   1      -3.206   3.795  -4.889  0.00  0.00     0.418 HD
ENDBRANCH   4   7
TORSDOF 1
ENDMDL
