MODEL 1
REMARK minimizedAffinity 4.59616804
REMARK minimizedRMSD -1
REMARK  1 active torsions:
REMARK  status: ('A' for Active; 'I' for Inactive)
REMARK    1  A    between atoms: C3_4  and  O_7 
ROOT
ATOM      1  C   UNL d   1      -0.331  -1.184   3.180  0.00  0.00    -0.033 A 
ATOM      2  C1  UNL d   1       0.937  -0.919   2.660  0.00  0.00     0.039 A 
ATOM      3  C2  UNL d   1       1.603  -1.892   1.911  0.00  0.00    -0.080 A 
ATOM      4  C3  UNL d   1       0.991  -3.122   1.689  0.00  0.00     0.150 A 
ATOM      5  C4  UNL d   1      -0.274  -3.391   2.202  0.00  0.00    -0.007 A 
ATOM      6  C5  UNL d   1      -0.937  -2.419   2.950  0.00  0.00     0.039 A 
ENDROOT
BRANCH   4   7
ATOM      7  O   UNL d   1       1.603  -4.104   0.969  0.00  0.00    -0.526 OA
ATOM      8  H5  UNL d   1       2.483  -3.787   0.703  0.00  0.00     0.418 HD
ENDBRANCH   4   7
TORSDOF 1
ENDMDL
