MODEL 1
REMARK minimizedAffinity 13.2332048
REMARK minimizedRMSD -1
REMARK  1 active torsions:
REMARK  status: ('A' for Active; 'I' for Inactive)
REMARK    1  A    between atoms: C3_4  and  O_7 
ROOT
ATOM      1  C   UNL d   1       6.000   0.026  -1.795  0.00  0.00    -0.033 A 
ATOM      2  C1  UNL d   1       5.645   1.342  -2.098  0.00  0.00     0.039 A 
ATOM      3  C2  UNL d   1       5.285   2.223  -1.076  0.00  0.00    -0.080 A 
ATOM      4  C3  UNL d   1       5.285   1.776   0.242  0.00  0.00     0.150 A 
ATOM      5  C4  UNL d   1       5.641   0.468   0.552  0.00  0.00    -0.007 A 
ATOM      6  C5  UNL d   1       5.999  -0.410  -0.470  0.00  0.00     0.039 A 
ENDROOT
BRANCH   4   7
ATOM      7  O   UNL d   1       4.936   2.598   1.273  0.00  0.00    -0.526 OA
ATOM      8  H5  UNL d   1       4.686   3.463   0.906  0.00  0.00     0.418 HD
ENDBRANCH   4   7
TORSDOF 1
ENDMDL
