MODEL 1
REMARK minimizedAffinity 6.62364388
REMARK minimizedRMSD -1
REMARK  1 active torsions:
REMARK  status: ('A' for Active; 'I' for Inactive)
REMARK    1  A    between atoms: C3_4  and  O_7 
ROOT
ATOM      1  C   UNL d   1       1.413  -0.927   0.368  0.00  0.00    -0.033 A 
ATOM      2  C1  UNL d   1       2.559  -1.657   0.690  0.00  0.00     0.039 A 
ATOM      3  C2  UNL d   1       2.740  -2.940   0.170  0.00  0.00    -0.080 A 
ATOM      4  C3  UNL d   1       1.770  -3.479  -0.671  0.00  0.00     0.150 A 
ATOM      5  C4  UNL d   1       0.628  -2.756  -0.999  0.00  0.00    -0.007 A 
ATOM      6  C5  UNL d   1       0.449  -1.475  -0.477  0.00  0.00     0.039 A 
ENDROOT
BRANCH   4   7
ATOM      7  O   UNL d   1       1.901  -4.729  -1.199  0.00  0.00    -0.526 OA
ATOM      8  H5  UNL d   1       2.724  -5.121  -0.863  0.00  0.00     0.418 HD
ENDBRANCH   4   7
TORSDOF 1
ENDMDL
