MODEL 1
REMARK minimizedAffinity 5.28022671
REMARK minimizedRMSD -1
REMARK  1 active torsions:
REMARK  status: ('A' for Active; 'I' for Inactive)
REMARK    1  A    between atoms: C3_4  and  O_7 
ROOT
ATOM      1  C   UNL d   1       3.000  -1.359   1.196  0.00  0.00    -0.033 A 
ATOM      2  C1  UNL d   1       2.895  -0.816   2.478  0.00  0.00     0.039 A 
ATOM      3  C2  UNL d   1       1.664  -0.807   3.136  0.00  0.00    -0.080 A 
ATOM      4  C3  UNL d   1       0.547  -1.346   2.503  0.00  0.00     0.150 A 
ATOM      5  C4  UNL d   1       0.645  -1.892   1.228  0.00  0.00    -0.007 A 
ATOM      6  C5  UNL d   1       1.875  -1.899   0.572  0.00  0.00     0.039 A 
ENDROOT
BRANCH   4   7
ATOM      7  O   UNL d   1      -0.676  -1.356   3.104  0.00  0.00    -0.526 OA
ATOM      8  H5  UNL d   1      -0.598  -0.920   3.969  0.00  0.00     0.418 HD
ENDBRANCH   4   7
TORSDOF 1
ENDMDL
