MODEL 1
REMARK minimizedAffinity 7.0599165
REMARK minimizedRMSD -1
REMARK  1 active torsions:
REMARK  status: ('A' for Active; 'I' for Inactive)
REMARK    1  A    between atoms: C3_4  and  O_7 
ROOT
ATOM      1  C   UNL d   1      -4.842   1.854   5.999  0.00  0.00    -0.033 A 
ATOM      2  C1  UNL d   1      -3.704   2.274   5.307  0.00  0.00     0.039 A 
ATOM      3  C2  UNL d   1      -3.712   2.320   3.911  0.00  0.00    -0.080 A 
ATOM      4  C3  UNL d   1      -4.861   1.945   3.221  0.00  0.00     0.150 A 
ATOM      5  C4  UNL d   1      -5.999   1.530   3.905  0.00  0.00    -0.007 A 
ATOM      6  C5  UNL d   1      -5.990   1.484   5.298  0.00  0.00     0.039 A 
ENDROOT
BRANCH   4   7
ATOM      7  O   UNL d   1      -4.915   1.969   1.859  0.00  0.00    -0.526 OA
ATOM      8  H5  UNL d   1      -4.047   2.249   1.522  0.00  0.00     0.418 HD
ENDBRANCH   4   7
TORSDOF 1
ENDMDL
