MODEL 1
REMARK minimizedAffinity 13.8097267
REMARK minimizedRMSD -1
REMARK  0 active torsions:
REMARK  status: ('A' for Active; 'I' for Inactive)
ROOT
ATOM      1  O1  BZF d   1       3.391   3.224   2.521  0.00  0.00    -0.204 OA
ATOM      2  C2  BZF d   1       2.200   2.774   3.056  0.00  0.00     0.174 A 
ATOM      3  C3  BZF d   1       1.688   1.774   2.311  0.00  0.00    -0.012 A 
ATOM      4  C3A BZF d   1       2.663   1.524   1.295  0.00  0.00    -0.107 A 
ATOM      5  C4  BZF d   1       2.736   0.636   0.260  0.00  0.00     0.055 A 
ATOM      6  C5  BZF d   1       3.790   0.701  -0.594  0.00  0.00    -0.016 A 
ATOM      7  C6  BZF d   1       4.786   1.644  -0.448  0.00  0.00     0.022 A 
ATOM      8  C7  BZF d   1       4.760   2.544   0.566  0.00  0.00     0.029 A 
ATOM      9  C7A BZF d   1       3.713   2.459   1.450  0.00  0.00     0.058 A 
ENDROOT
TORSDOF 0
ENDMDL
