MODEL 1
REMARK minimizedAffinity 9.5737524
REMARK minimizedRMSD -1
REMARK  0 active torsions:
REMARK  status: ('A' for Active; 'I' for Inactive)
ROOT
ATOM      1  O1  BZF d   1      -5.403  -1.114   1.488  0.00  0.00    -0.204 OA
ATOM      2  C2  BZF d   1      -5.999  -1.686   2.595  0.00  0.00     0.174 A 
ATOM      3  C3  BZF d   1      -5.200  -1.584   3.677  0.00  0.00    -0.012 A 
ATOM      4  C3A BZF d   1      -4.070  -0.823   3.238  0.00  0.00    -0.107 A 
ATOM      5  C4  BZF d   1      -2.939  -0.377   3.861  0.00  0.00     0.055 A 
ATOM      6  C5  BZF d   1      -1.997   0.276   3.131  0.00  0.00    -0.016 A 
ATOM      7  C6  BZF d   1      -2.150   0.496   1.778  0.00  0.00     0.022 A 
ATOM      8  C7  BZF d   1      -3.257   0.077   1.117  0.00  0.00     0.029 A 
ATOM      9  C7A BZF d   1      -4.226  -0.555   1.858  0.00  0.00     0.058 A 
ENDROOT
TORSDOF 0
ENDMDL
