MODEL 1
REMARK minimizedAffinity 1.66754329
REMARK minimizedRMSD -1
REMARK  0 active torsions:
REMARK  status: ('A' for Active; 'I' for Inactive)
ROOT
ATOM      1  O1  BZF d   1      -5.138  -3.738  -2.328  0.00  0.00    -0.204 OA
ATOM      2  C2  BZF d   1      -4.907  -4.913  -1.639  0.00  0.00     0.174 A 
ATOM      3  C3  BZF d   1      -5.094  -5.982  -2.440  0.00  0.00    -0.012 A 
ATOM      4  C3A BZF d   1      -5.374  -5.439  -3.733  0.00  0.00    -0.107 A 
ATOM      5  C4  BZF d   1      -5.633  -6.000  -4.951  0.00  0.00     0.055 A 
ATOM      6  C5  BZF d   1      -5.939  -5.191  -6.000  0.00  0.00    -0.016 A 
ATOM      7  C6  BZF d   1      -5.999  -3.819  -5.865  0.00  0.00     0.022 A 
ATOM      8  C7  BZF d   1      -5.745  -3.217  -4.678  0.00  0.00     0.029 A 
ATOM      9  C7A BZF d   1      -5.404  -4.029  -3.624  0.00  0.00     0.058 A 
ENDROOT
TORSDOF 0
ENDMDL
