MODEL 1
REMARK minimizedAffinity 8.82403278
REMARK minimizedRMSD -1
REMARK  0 active torsions:
REMARK  status: ('A' for Active; 'I' for Inactive)
ROOT
ATOM      1  O1  BZF d   1      -2.974  -0.717   1.095  0.00  0.00    -0.204 OA
ATOM      2  C2  BZF d   1      -2.297   0.416   1.502  0.00  0.00     0.174 A 
ATOM      3  C3  BZF d   1      -2.940   1.016   2.525  0.00  0.00    -0.012 A 
ATOM      4  C3A BZF d   1      -4.041   0.156   2.833  0.00  0.00    -0.107 A 
ATOM      5  C4  BZF d   1      -5.038   0.204   3.766  0.00  0.00     0.055 A 
ATOM      6  C5  BZF d   1      -6.000  -0.756   3.754  0.00  0.00    -0.016 A 
ATOM      7  C6  BZF d   1      -6.000  -1.773   2.822  0.00  0.00     0.022 A 
ATOM      8  C7  BZF d   1      -5.029  -1.865   1.881  0.00  0.00     0.029 A 
ATOM      9  C7A BZF d   1      -4.037  -0.916   1.910  0.00  0.00     0.058 A 
ENDROOT
TORSDOF 0
ENDMDL
