MODEL 1
REMARK minimizedAffinity 1.45308852
REMARK minimizedRMSD -1
REMARK  0 active torsions:
REMARK  status: ('A' for Active; 'I' for Inactive)
ROOT
ATOM      1  O1  BZF d   1      -4.147  -4.867  -2.700  0.00  0.00    -0.204 OA
ATOM      2  C2  BZF d   1      -4.938  -6.000  -2.709  0.00  0.00     0.174 A 
ATOM      3  C3  BZF d   1      -5.814  -5.964  -3.734  0.00  0.00    -0.012 A 
ATOM      4  C3A BZF d   1      -5.492  -4.775  -4.463  0.00  0.00    -0.107 A 
ATOM      5  C4  BZF d   1      -6.000  -4.200  -5.593  0.00  0.00     0.055 A 
ATOM      6  C5  BZF d   1      -5.510  -3.000  -6.000  0.00  0.00    -0.016 A 
ATOM      7  C6  BZF d   1      -4.518  -2.345  -5.300  0.00  0.00     0.022 A 
ATOM      8  C7  BZF d   1      -3.979  -2.879  -4.176  0.00  0.00     0.029 A 
ATOM      9  C7A BZF d   1      -4.449  -4.107  -3.780  0.00  0.00     0.058 A 
ENDROOT
TORSDOF 0
ENDMDL
