MODEL 1
REMARK minimizedAffinity 0.504686594
REMARK minimizedRMSD -1
REMARK  0 active torsions:
REMARK  status: ('A' for Active; 'I' for Inactive)
ROOT
ATOM      1  O1  BZF d   1      -5.955  -3.814  -2.259  0.00  0.00    -0.204 OA
ATOM      2  C2  BZF d   1      -5.687  -4.948  -1.518  0.00  0.00     0.174 A 
ATOM      3  C3  BZF d   1      -5.397  -5.990  -2.324  0.00  0.00    -0.012 A 
ATOM      4  C3A BZF d   1      -5.401  -5.451  -3.650  0.00  0.00    -0.107 A 
ATOM      5  C4  BZF d   1      -5.168  -5.990  -4.883  0.00  0.00     0.055 A 
ATOM      6  C5  BZF d   1      -5.323  -5.210  -5.985  0.00  0.00    -0.016 A 
ATOM      7  C6  BZF d   1      -5.715  -3.891  -5.891  0.00  0.00     0.022 A 
ATOM      8  C7  BZF d   1      -5.953  -3.311  -4.690  0.00  0.00     0.029 A 
ATOM      9  C7A BZF d   1      -5.765  -4.087  -3.572  0.00  0.00     0.058 A 
ENDROOT
TORSDOF 0
ENDMDL
