MODEL 1
REMARK minimizedAffinity 6.46004009
REMARK minimizedRMSD -1
REMARK  0 active torsions:
REMARK  status: ('A' for Active; 'I' for Inactive)
ROOT
ATOM      1  O1  BZF d   1      -5.986  -1.775   3.363  0.00  0.00    -0.204 OA
ATOM      2  C2  BZF d   1      -6.000  -2.519   2.199  0.00  0.00     0.174 A 
ATOM      3  C3  BZF d   1      -5.009  -2.129   1.371  0.00  0.00    -0.012 A 
ATOM      4  C3A BZF d   1      -4.277  -1.139   2.099  0.00  0.00    -0.107 A 
ATOM      5  C4  BZF d   1      -3.172  -0.390   1.814  0.00  0.00     0.055 A 
ATOM      6  C5  BZF d   1      -2.754   0.540   2.713  0.00  0.00    -0.016 A 
ATOM      7  C6  BZF d   1      -3.420   0.751   3.902  0.00  0.00     0.022 A 
ATOM      8  C7  BZF d   1      -4.519   0.029   4.232  0.00  0.00     0.029 A 
ATOM      9  C7A BZF d   1      -4.924  -0.935   3.340  0.00  0.00     0.058 A 
ENDROOT
TORSDOF 0
ENDMDL
