MODEL 1
REMARK minimizedAffinity 12.8660393
REMARK minimizedRMSD -1
REMARK  0 active torsions:
REMARK  status: ('A' for Active; 'I' for Inactive)
ROOT
ATOM      1  O1  BZF d   1      -5.522   0.013   2.285  0.00  0.00    -0.204 OA
ATOM      2  C2  BZF d   1      -5.999  -0.867   3.237  0.00  0.00     0.174 A 
ATOM      3  C3  BZF d   1      -4.985  -1.402   3.946  0.00  0.00    -0.012 A 
ATOM      4  C3A BZF d   1      -3.805  -0.750   3.466  0.00  0.00    -0.107 A 
ATOM      5  C4  BZF d   1      -2.482  -0.843   3.792  0.00  0.00     0.055 A 
ATOM      6  C5  BZF d   1      -1.575  -0.122   3.082  0.00  0.00    -0.016 A 
ATOM      7  C6  BZF d   1      -1.954   0.696   2.038  0.00  0.00     0.022 A 
ATOM      8  C7  BZF d   1      -3.255   0.825   1.681  0.00  0.00     0.029 A 
ATOM      9  C7A BZF d   1      -4.178   0.123   2.418  0.00  0.00     0.058 A 
ENDROOT
TORSDOF 0
ENDMDL
