MODEL 1
REMARK minimizedAffinity 10.1751099
REMARK minimizedRMSD -1
REMARK  0 active torsions:
REMARK  status: ('A' for Active; 'I' for Inactive)
ROOT
ATOM      1  O1  BZF d   1      -3.503  -2.788  -3.810  0.00  0.00    -0.204 OA
ATOM      2  C2  BZF d   1      -3.309  -2.036  -4.953  0.00  0.00     0.174 A 
ATOM      3  C3  BZF d   1      -3.963  -2.580  -6.000  0.00  0.00    -0.012 A 
ATOM      4  C3A BZF d   1      -4.680  -3.694  -5.458  0.00  0.00    -0.107 A 
ATOM      5  C4  BZF d   1      -5.525  -4.620  -6.000  0.00  0.00     0.055 A 
ATOM      6  C5  BZF d   1      -6.000  -5.621  -5.213  0.00  0.00    -0.016 A 
ATOM      7  C6  BZF d   1      -5.646  -5.730  -3.884  0.00  0.00     0.022 A 
ATOM      8  C7  BZF d   1      -4.815  -4.832  -3.301  0.00  0.00     0.029 A 
ATOM      9  C7A BZF d   1      -4.360  -3.800  -4.085  0.00  0.00     0.058 A 
ENDROOT
TORSDOF 0
ENDMDL
