MODEL 1
REMARK minimizedAffinity 5.22678947
REMARK minimizedRMSD -1
REMARK  0 active torsions:
REMARK  status: ('A' for Active; 'I' for Inactive)
ROOT
ATOM      1  O1  BZF d   1      -4.712  -3.497  -5.986  0.00  0.00    -0.204 OA
ATOM      2  C2  BZF d   1      -3.700  -2.641  -5.595  0.00  0.00     0.174 A 
ATOM      3  C3  BZF d   1      -3.358  -2.861  -4.309  0.00  0.00    -0.012 A 
ATOM      4  C3A BZF d   1      -4.145  -3.984  -3.898  0.00  0.00    -0.107 A 
ATOM      5  C4  BZF d   1      -4.240  -4.685  -2.730  0.00  0.00     0.055 A 
ATOM      6  C5  BZF d   1      -5.159  -5.682  -2.632  0.00  0.00    -0.016 A 
ATOM      7  C6  BZF d   1      -6.000  -6.000  -3.678  0.00  0.00     0.022 A 
ATOM      8  C7  BZF d   1      -5.939  -5.335  -4.857  0.00  0.00     0.029 A 
ATOM      9  C7A BZF d   1      -4.989  -4.349  -4.971  0.00  0.00     0.058 A 
ENDROOT
TORSDOF 0
ENDMDL
