MODEL 1
REMARK minimizedAffinity 8.59112358
REMARK minimizedRMSD -1
REMARK  0 active torsions:
REMARK  status: ('A' for Active; 'I' for Inactive)
ROOT
ATOM      1  O1  BZF d   1      -4.506   2.684   3.770  0.00  0.00    -0.204 OA
ATOM      2  C2  BZF d   1      -3.839   3.669   4.473  0.00  0.00     0.174 A 
ATOM      3  C3  BZF d   1      -2.504   3.503   4.379  0.00  0.00    -0.012 A 
ATOM      4  C3A BZF d   1      -2.324   2.396   3.490  0.00  0.00    -0.107 A 
ATOM      5  C4  BZF d   1      -1.222   1.762   2.991  0.00  0.00     0.055 A 
ATOM      6  C5  BZF d   1      -1.389   0.667   2.204  0.00  0.00    -0.016 A 
ATOM      7  C6  BZF d   1      -2.642   0.177   1.900  0.00  0.00     0.022 A 
ATOM      8  C7  BZF d   1      -3.765   0.775   2.367  0.00  0.00     0.029 A 
ATOM      9  C7A BZF d   1      -3.600   1.901   3.136  0.00  0.00     0.058 A 
ENDROOT
TORSDOF 0
ENDMDL
