MODEL 1
REMARK minimizedAffinity 4.24932575
REMARK minimizedRMSD -1
REMARK  0 active torsions:
REMARK  status: ('A' for Active; 'I' for Inactive)
ROOT
ATOM      1  O1  BZF d   1      -3.918  -2.565  -4.052  0.00  0.00    -0.204 OA
ATOM      2  C2  BZF d   1      -4.300  -1.815  -5.148  0.00  0.00     0.174 A 
ATOM      3  C3  BZF d   1      -5.093  -2.534  -5.967  0.00  0.00    -0.012 A 
ATOM      4  C3A BZF d   1      -5.290  -3.784  -5.299  0.00  0.00    -0.107 A 
ATOM      5  C4  BZF d   1      -5.998  -4.910  -5.604  0.00  0.00     0.055 A 
ATOM      6  C5  BZF d   1      -5.924  -5.983  -4.773  0.00  0.00    -0.016 A 
ATOM      7  C6  BZF d   1      -5.148  -5.965  -3.633  0.00  0.00     0.022 A 
ATOM      8  C7  BZF d   1      -4.431  -4.869  -3.286  0.00  0.00     0.029 A 
ATOM      9  C7A BZF d   1      -4.530  -3.772  -4.106  0.00  0.00     0.058 A 
ENDROOT
TORSDOF 0
ENDMDL
