MODEL 1
REMARK minimizedAffinity 7.37235022
REMARK minimizedRMSD -1
REMARK  0 active torsions:
REMARK  status: ('A' for Active; 'I' for Inactive)
ROOT
ATOM      1  O1  BZF d   1       0.972  -4.673  -2.506  0.00  0.00    -0.204 OA
ATOM      2  C2  BZF d   1       0.218  -4.398  -3.631  0.00  0.00     0.174 A 
ATOM      3  C3  BZF d   1       0.299  -3.091  -3.953  0.00  0.00    -0.012 A 
ATOM      4  C3A BZF d   1       1.231  -2.531  -3.023  0.00  0.00    -0.107 A 
ATOM      5  C4  BZF d   1       1.739  -1.276  -2.844  0.00  0.00     0.055 A 
ATOM      6  C5  BZF d   1       2.574  -1.045  -1.797  0.00  0.00    -0.016 A 
ATOM      7  C6  BZF d   1       2.918  -2.043  -0.909  0.00  0.00     0.022 A 
ATOM      8  C7  BZF d   1       2.443  -3.304  -1.049  0.00  0.00     0.029 A 
ATOM      9  C7A BZF d   1       1.625  -3.549  -2.124  0.00  0.00     0.058 A 
ENDROOT
TORSDOF 0
ENDMDL
