MODEL 1
REMARK minimizedAffinity 10.450386
REMARK minimizedRMSD -1
REMARK  0 active torsions:
REMARK  status: ('A' for Active; 'I' for Inactive)
ROOT
ATOM      1  O1  BZF d   1      -4.698  -3.766  -2.171  0.00  0.00    -0.204 OA
ATOM      2  C2  BZF d   1      -4.273  -4.933  -1.566  0.00  0.00     0.174 A 
ATOM      3  C3  BZF d   1      -4.463  -5.991  -2.380  0.00  0.00    -0.012 A 
ATOM      4  C3A BZF d   1      -4.958  -5.440  -3.604  0.00  0.00    -0.107 A 
ATOM      5  C4  BZF d   1      -5.321  -5.988  -4.802  0.00  0.00     0.055 A 
ATOM      6  C5  BZF d   1      -5.832  -5.182  -5.769  0.00  0.00    -0.016 A 
ATOM      7  C6  BZF d   1      -6.000  -3.827  -5.571  0.00  0.00     0.022 A 
ATOM      8  C7  BZF d   1      -5.650  -3.237  -4.402  0.00  0.00     0.029 A 
ATOM      9  C7A BZF d   1      -5.102  -4.044  -3.434  0.00  0.00     0.058 A 
ENDROOT
TORSDOF 0
ENDMDL
