MODEL 1
REMARK minimizedAffinity 0.647927225
REMARK minimizedRMSD -1
REMARK  0 active torsions:
REMARK  status: ('A' for Active; 'I' for Inactive)
ROOT
ATOM      1  O1  BZF d   1       2.929   0.457  -1.154  0.00  0.00    -0.204 OA
ATOM      2  C2  BZF d   1       2.587   1.268  -2.219  0.00  0.00     0.174 A 
ATOM      3  C3  BZF d   1       1.943   0.561  -3.171  0.00  0.00    -0.012 A 
ATOM      4  C3A BZF d   1       1.797  -0.755  -2.628  0.00  0.00    -0.107 A 
ATOM      5  C4  BZF d   1       1.226  -1.904  -3.094  0.00  0.00     0.055 A 
ATOM      6  C5  BZF d   1       1.317  -3.037  -2.349  0.00  0.00    -0.016 A 
ATOM      7  C6  BZF d   1       1.977  -3.057  -1.137  0.00  0.00     0.022 A 
ATOM      8  C7  BZF d   1       2.555  -1.941  -0.631  0.00  0.00     0.029 A 
ATOM      9  C7A BZF d   1       2.436  -0.787  -1.367  0.00  0.00     0.058 A 
ENDROOT
TORSDOF 0
ENDMDL
