MODEL 1
REMARK minimizedAffinity 12.1837215
REMARK minimizedRMSD -1
REMARK  0 active torsions:
REMARK  status: ('A' for Active; 'I' for Inactive)
ROOT
ATOM      1  O1  BZF d   1      -5.857  -4.335  -5.639  0.00  0.00    -0.204 OA
ATOM      2  C2  BZF d   1      -5.723  -2.966  -5.767  0.00  0.00     0.174 A 
ATOM      3  C3  BZF d   1      -5.256  -2.423  -4.624  0.00  0.00    -0.012 A 
ATOM      4  C3A BZF d   1      -5.001  -3.532  -3.757  0.00  0.00    -0.107 A 
ATOM      5  C4  BZF d   1      -4.512  -3.637  -2.486  0.00  0.00     0.055 A 
ATOM      6  C5  BZF d   1      -4.456  -4.861  -1.899  0.00  0.00    -0.016 A 
ATOM      7  C6  BZF d   1      -4.884  -5.999  -2.551  0.00  0.00     0.022 A 
ATOM      8  C7  BZF d   1      -5.371  -5.946  -3.815  0.00  0.00     0.029 A 
ATOM      9  C7A BZF d   1      -5.399  -4.714  -4.422  0.00  0.00     0.058 A 
ENDROOT
TORSDOF 0
ENDMDL
