MODEL 1
REMARK minimizedAffinity 1.85476947
REMARK minimizedRMSD -1
REMARK  0 active torsions:
REMARK  status: ('A' for Active; 'I' for Inactive)
ROOT
ATOM      1  O1  BZF d   1      -4.883  -5.996  -3.004  0.00  0.00    -0.204 OA
ATOM      2  C2  BZF d   1      -3.894  -5.452  -2.207  0.00  0.00     0.174 A 
ATOM      3  C3  BZF d   1      -3.440  -4.295  -2.731  0.00  0.00    -0.012 A 
ATOM      4  C3A BZF d   1      -4.256  -4.058  -3.882  0.00  0.00    -0.107 A 
ATOM      5  C4  BZF d   1      -4.301  -3.058  -4.811  0.00  0.00     0.055 A 
ATOM      6  C5  BZF d   1      -5.168  -3.162  -5.853  0.00  0.00    -0.016 A 
ATOM      7  C6  BZF d   1      -5.999  -4.253  -5.999  0.00  0.00     0.022 A 
ATOM      8  C7  BZF d   1      -5.994  -5.268  -5.100  0.00  0.00     0.029 A 
ATOM      9  C7A BZF d   1      -5.143  -5.149  -4.029  0.00  0.00     0.058 A 
ENDROOT
TORSDOF 0
ENDMDL
