MODEL 1
REMARK minimizedAffinity 3.4324348
REMARK minimizedRMSD -1
REMARK  0 active torsions:
REMARK  status: ('A' for Active; 'I' for Inactive)
ROOT
ATOM      1  O1  BZF d   1      -3.158  -2.978  -4.125  0.00  0.00    -0.204 OA
ATOM      2  C2  BZF d   1      -1.870  -3.376  -3.825  0.00  0.00     0.174 A 
ATOM      3  C3  BZF d   1      -1.877  -4.515  -3.103  0.00  0.00    -0.012 A 
ATOM      4  C3A BZF d   1      -3.253  -4.900  -3.022  0.00  0.00    -0.107 A 
ATOM      5  C4  BZF d   1      -3.900  -5.956  -2.446  0.00  0.00     0.055 A 
ATOM      6  C5  BZF d   1      -5.257  -5.999  -2.484  0.00  0.00    -0.016 A 
ATOM      7  C6  BZF d   1      -5.999  -5.002  -3.084  0.00  0.00     0.022 A 
ATOM      8  C7  BZF d   1      -5.402  -3.938  -3.673  0.00  0.00     0.029 A 
ATOM      9  C7A BZF d   1      -4.028  -3.908  -3.665  0.00  0.00     0.058 A 
ENDROOT
TORSDOF 0
ENDMDL
