MODEL 1
REMARK minimizedAffinity 2.93283772
REMARK minimizedRMSD -1
REMARK  0 active torsions:
REMARK  status: ('A' for Active; 'I' for Inactive)
ROOT
ATOM      1  O1  BZF d   1      -4.188  -4.783  -2.761  0.00  0.00    -0.204 OA
ATOM      2  C2  BZF d   1      -4.836  -5.998  -2.873  0.00  0.00     0.174 A 
ATOM      3  C3  BZF d   1      -5.671  -5.998  -3.932  0.00  0.00    -0.012 A 
ATOM      4  C3A BZF d   1      -5.468  -4.735  -4.572  0.00  0.00    -0.107 A 
ATOM      5  C4  BZF d   1      -6.000  -4.151  -5.686  0.00  0.00     0.055 A 
ATOM      6  C5  BZF d   1      -5.643  -2.877  -5.998  0.00  0.00    -0.016 A 
ATOM      7  C6  BZF d   1      -4.763  -2.158  -5.217  0.00  0.00     0.022 A 
ATOM      8  C7  BZF d   1      -4.206  -2.696  -4.105  0.00  0.00     0.029 A 
ATOM      9  C7A BZF d   1      -4.539  -3.995  -3.805  0.00  0.00     0.058 A 
ENDROOT
TORSDOF 0
ENDMDL
