MODEL 1
REMARK minimizedAffinity -4.08844042
REMARK minimizedRMSD -1
REMARK  1 active torsions:
REMARK  status: ('A' for Active; 'I' for Inactive)
REMARK    1  A    between atoms: C1_2  and  C2_3 
ROOT
ATOM      1  C2  UNL d   1      -0.021   0.413   0.333  0.00  0.00    -0.077 A 
ATOM      2  C3  UNL d   1       0.563   1.602   0.791  0.00  0.00     0.002 A 
ATOM      3  C4  UNL d   1       0.205   2.134   2.031  0.00  0.00     0.002 A 
ATOM      4  C5  UNL d   1      -0.736   1.481   2.825  0.00  0.00    -0.004 A 
ATOM      5  C6  UNL d   1      -1.324   0.299   2.378  0.00  0.00     0.002 A 
ATOM      6  C7  UNL d   1      -0.968  -0.233   1.138  0.00  0.00     0.002 A 
ENDROOT
BRANCH   1   7
ATOM      7  C1  UNL d   1       0.400  -0.188  -0.982  0.00  0.00     0.055 C 
ATOM      8  C   UNL d   1      -0.490  -1.362  -1.365  0.00  0.00     0.019 C 
ENDBRANCH   1   7
TORSDOF 1
ENDMDL
