MODEL 1
REMARK minimizedAffinity -4.7255578
REMARK minimizedRMSD -1
REMARK  1 active torsions:
REMARK  status: ('A' for Active; 'I' for Inactive)
REMARK    1  A    between atoms: C1_2  and  C2_3 
ROOT
ATOM      1  C2  UNL d   1      -0.154  -0.128  -0.316  0.00  0.00    -0.077 A 
ATOM      2  C3  UNL d   1       0.684   0.697   0.448  0.00  0.00     0.002 A 
ATOM      3  C4  UNL d   1       0.200   1.320   1.601  0.00  0.00     0.002 A 
ATOM      4  C5  UNL d   1      -1.119   1.121   2.001  0.00  0.00    -0.004 A 
ATOM      5  C6  UNL d   1      -1.960   0.304   1.246  0.00  0.00     0.002 A 
ATOM      6  C7  UNL d   1      -1.480  -0.318   0.094  0.00  0.00     0.002 A 
ENDROOT
BRANCH   1   7
ATOM      7  C1  UNL d   1       0.379  -0.841  -1.531  0.00  0.00     0.055 C 
ATOM      8  C   UNL d   1       0.835   0.146  -2.596  0.00  0.00     0.019 C 
ENDBRANCH   1   7
TORSDOF 1
ENDMDL
