MODEL 1
REMARK minimizedAffinity -4.33053207
REMARK minimizedRMSD -1
REMARK  1 active torsions:
REMARK  status: ('A' for Active; 'I' for Inactive)
REMARK    1  A    between atoms: C1_2  and  C2_3 
ROOT
ATOM      1  C2  UNL d   1       0.041   0.043   1.331  0.00  0.00    -0.077 A 
ATOM      2  C3  UNL d   1      -1.298   0.041   0.916  0.00  0.00     0.002 A 
ATOM      3  C4  UNL d   1      -1.632  -0.322  -0.390  0.00  0.00     0.002 A 
ATOM      4  C5  UNL d   1      -0.634  -0.691  -1.289  0.00  0.00    -0.004 A 
ATOM      5  C6  UNL d   1       0.701  -0.691  -0.886  0.00  0.00     0.002 A 
ATOM      6  C7  UNL d   1       1.037  -0.326   0.418  0.00  0.00     0.002 A 
ENDROOT
BRANCH   1   7
ATOM      7  C1  UNL d   1       0.398   0.388   2.753  0.00  0.00     0.055 C 
ATOM      8  C   UNL d   1      -0.836   0.765   3.559  0.00  0.00     0.019 C 
ENDBRANCH   1   7
TORSDOF 1
ENDMDL
