MODEL 1
REMARK minimizedAffinity -3.33061314
REMARK minimizedRMSD -1
REMARK  1 active torsions:
REMARK  status: ('A' for Active; 'I' for Inactive)
REMARK    1  A    between atoms: C1_2  and  C2_3 
ROOT
ATOM      1  C2  UNL d   1      -0.183  -0.004   0.109  0.00  0.00    -0.077 A 
ATOM      2  C3  UNL d   1       0.762   0.340   1.086  0.00  0.00     0.002 A 
ATOM      3  C4  UNL d   1       0.360   0.599   2.398  0.00  0.00     0.002 A 
ATOM      4  C5  UNL d   1      -0.987   0.514   2.745  0.00  0.00    -0.004 A 
ATOM      5  C6  UNL d   1      -1.935   0.175   1.780  0.00  0.00     0.002 A 
ATOM      6  C7  UNL d   1      -1.534  -0.084   0.468  0.00  0.00     0.002 A 
ENDROOT
BRANCH   1   7
ATOM      7  C1  UNL d   1       0.255  -0.333  -1.294  0.00  0.00     0.055 C 
ATOM      8  C   UNL d   1       0.607   0.926  -2.074  0.00  0.00     0.019 C 
ENDBRANCH   1   7
TORSDOF 1
ENDMDL
