MODEL 1
REMARK minimizedAffinity -5.47173548
REMARK minimizedRMSD -1
REMARK  1 active torsions:
REMARK  status: ('A' for Active; 'I' for Inactive)
REMARK    1  A    between atoms: C1_2  and  C2_3 
ROOT
ATOM      1  C2  UNL d   1      -0.154   0.059   0.009  0.00  0.00    -0.077 A 
ATOM      2  C3  UNL d   1       0.806   0.264   1.010  0.00  0.00     0.002 A 
ATOM      3  C4  UNL d   1       0.485   0.991   2.158  0.00  0.00     0.002 A 
ATOM      4  C5  UNL d   1      -0.797   1.515   2.317  0.00  0.00    -0.004 A 
ATOM      5  C6  UNL d   1      -1.758   1.318   1.327  0.00  0.00     0.002 A 
ATOM      6  C7  UNL d   1      -1.438   0.592   0.178  0.00  0.00     0.002 A 
ENDROOT
BRANCH   1   7
ATOM      7  C1  UNL d   1       0.176  -0.767  -1.207  0.00  0.00     0.055 C 
ATOM      8  C   UNL d   1       1.051   0.008  -2.182  0.00  0.00     0.019 C 
ENDBRANCH   1   7
TORSDOF 1
ENDMDL
