MODEL 1
REMARK minimizedAffinity 5.2932682
REMARK minimizedRMSD -1
REMARK  1 active torsions:
REMARK  status: ('A' for Active; 'I' for Inactive)
REMARK    1  A    between atoms: N_2  and  C1_3 
ROOT
ATOM      1  C1  UNL d   1      -0.593   2.596   1.299  0.00  0.00     0.143 A 
ATOM      2  C2  UNL d   1      -1.517   2.826   2.324  0.00  0.00    -0.057 A 
ATOM      3  C3  UNL d   1      -1.172   3.567   3.460  0.00  0.00     0.033 A 
ATOM      4  C4  UNL d   1       0.117   4.069   3.606  0.00  0.00    -0.042 A 
ATOM      5  C5  UNL d   1       1.060   3.831   2.611  0.00  0.00     0.033 A 
ATOM      6  C6  UNL d   1       0.707   3.096   1.476  0.00  0.00    -0.057 A 
ENDROOT
BRANCH   1   7
ATOM      7  N   UNL d   1      -0.846   1.783   0.191  0.00  0.00    -0.732 N 
ATOM      8  C   UNL d   1      -1.289   0.417   0.365  0.00  0.00     0.284 C 
ATOM      9  H3  UNL d   1      -1.322   2.283  -0.556  0.00  0.00     0.395 HD
ENDBRANCH   1   7
TORSDOF 1
ENDMDL
