MODEL 1
REMARK minimizedAffinity -0.686954379
REMARK minimizedRMSD -1
REMARK  1 active torsions:
REMARK  status: ('A' for Active; 'I' for Inactive)
REMARK    1  A    between atoms: N_2  and  C1_3 
ROOT
ATOM      1  C1  UNL d   1      -0.670   2.479  -4.858  0.00  0.00     0.143 A 
ATOM      2  C2  UNL d   1      -0.412   3.263  -3.728  0.00  0.00    -0.057 A 
ATOM      3  C3  UNL d   1      -0.682   4.637  -3.721  0.00  0.00     0.033 A 
ATOM      4  C4  UNL d   1      -1.190   5.258  -4.857  0.00  0.00    -0.042 A 
ATOM      5  C5  UNL d   1      -1.431   4.503  -6.000  0.00  0.00     0.033 A 
ATOM      6  C6  UNL d   1      -1.165   3.130  -5.999  0.00  0.00    -0.057 A 
ENDROOT
BRANCH   1   7
ATOM      7  N   UNL d   1      -0.331   1.127  -4.961  0.00  0.00    -0.732 N 
ATOM      8  C   UNL d   1       1.050   0.705  -4.872  0.00  0.00     0.284 C 
ATOM      9  H3  UNL d   1      -0.983   0.524  -4.463  0.00  0.00     0.395 HD
ENDBRANCH   1   7
TORSDOF 1
ENDMDL
