MODEL 1
REMARK minimizedAffinity 1.76569843
REMARK minimizedRMSD -1
REMARK  1 active torsions:
REMARK  status: ('A' for Active; 'I' for Inactive)
REMARK    1  A    between atoms: N_2  and  C1_3 
ROOT
ATOM      1  C1  UNL d   1      -3.693  -0.086   2.070  0.00  0.00     0.143 A 
ATOM      2  C2  UNL d   1      -4.241   0.561   0.957  0.00  0.00    -0.057 A 
ATOM      3  C3  UNL d   1      -3.442   0.942  -0.128  0.00  0.00     0.033 A 
ATOM      4  C4  UNL d   1      -2.071   0.707  -0.106  0.00  0.00    -0.042 A 
ATOM      5  C5  UNL d   1      -1.501   0.088   1.000  0.00  0.00     0.033 A 
ATOM      6  C6  UNL d   1      -2.305  -0.296   2.078  0.00  0.00    -0.057 A 
ENDROOT
BRANCH   1   7
ATOM      7  N   UNL d   1      -4.418  -0.401   3.222  0.00  0.00    -0.732 N 
ATOM      8  C   UNL d   1      -5.605  -1.225   3.144  0.00  0.00     0.284 C 
ATOM      9  H3  UNL d   1      -3.816  -0.613   4.014  0.00  0.00     0.395 HD
ENDBRANCH   1   7
TORSDOF 1
ENDMDL
