MODEL 1
REMARK minimizedAffinity 1.5429585
REMARK minimizedRMSD -1
REMARK  1 active torsions:
REMARK  status: ('A' for Active; 'I' for Inactive)
REMARK    1  A    between atoms: N_2  and  C1_3 
ROOT
ATOM      1  C1  UNL d   1      -0.144   0.730  -0.825  0.00  0.00     0.143 A 
ATOM      2  C2  UNL d   1      -0.536   1.603  -1.845  0.00  0.00    -0.057 A 
ATOM      3  C3  UNL d   1       0.343   1.958  -2.876  0.00  0.00     0.033 A 
ATOM      4  C4  UNL d   1       1.644   1.466  -2.888  0.00  0.00    -0.042 A 
ATOM      5  C5  UNL d   1       2.064   0.617  -1.870  0.00  0.00     0.033 A 
ATOM      6  C6  UNL d   1       1.179   0.261  -0.848  0.00  0.00    -0.057 A 
ENDROOT
BRANCH   1   7
ATOM      7  N   UNL d   1      -0.940   0.417   0.280  0.00  0.00    -0.732 N 
ATOM      8  C   UNL d   1      -1.665   1.453   0.983  0.00  0.00     0.284 C 
ATOM      9  H3  UNL d   1      -1.467  -0.443   0.148  0.00  0.00     0.395 HD
ENDBRANCH   1   7
TORSDOF 1
ENDMDL
