MODEL 1
REMARK minimizedAffinity 1.13711333
REMARK minimizedRMSD -1
REMARK  1 active torsions:
REMARK  status: ('A' for Active; 'I' for Inactive)
REMARK    1  A    between atoms: N_2  and  C1_3 
ROOT
ATOM      1  C1  UNL d   1       2.190   2.620  -5.283  0.00  0.00     0.143 A 
ATOM      2  C2  UNL d   1       3.088   3.424  -5.993  0.00  0.00    -0.057 A 
ATOM      3  C3  UNL d   1       4.309   3.819  -5.431  0.00  0.00     0.033 A 
ATOM      4  C4  UNL d   1       4.640   3.439  -4.135  0.00  0.00    -0.042 A 
ATOM      5  C5  UNL d   1       3.752   2.660  -3.402  0.00  0.00     0.033 A 
ATOM      6  C6  UNL d   1       2.537   2.264  -3.971  0.00  0.00    -0.057 A 
ENDROOT
BRANCH   1   7
ATOM      7  N   UNL d   1       0.919   2.276  -5.749  0.00  0.00    -0.732 N 
ATOM      8  C   UNL d   1      -0.258   2.950  -5.246  0.00  0.00     0.284 C 
ATOM      9  H3  UNL d   1       0.905   2.109  -6.753  0.00  0.00     0.395 HD
ENDBRANCH   1   7
TORSDOF 1
ENDMDL
