MODEL 1
REMARK minimizedAffinity 0.298870534
REMARK minimizedRMSD -1
REMARK  1 active torsions:
REMARK  status: ('A' for Active; 'I' for Inactive)
REMARK    1  A    between atoms: N_2  and  C1_3 
ROOT
ATOM      1  C1  UNL d   1       0.583  -4.156  -3.155  0.00  0.00     0.143 A 
ATOM      2  C2  UNL d   1       1.665  -3.269  -3.136  0.00  0.00    -0.057 A 
ATOM      3  C3  UNL d   1       2.984  -3.734  -3.076  0.00  0.00     0.033 A 
ATOM      4  C4  UNL d   1       3.244  -5.099  -3.003  0.00  0.00    -0.042 A 
ATOM      5  C5  UNL d   1       2.184  -5.998  -2.995  0.00  0.00     0.033 A 
ATOM      6  C6  UNL d   1       0.869  -5.528  -3.063  0.00  0.00    -0.057 A 
ENDROOT
BRANCH   1   7
ATOM      7  N   UNL d   1      -0.754  -3.753  -3.115  0.00  0.00    -0.732 N 
ATOM      8  C   UNL d   1      -1.491  -3.768  -1.869  0.00  0.00     0.284 C 
ATOM      9  H3  UNL d   1      -0.931  -2.935  -3.693  0.00  0.00     0.395 HD
ENDBRANCH   1   7
TORSDOF 1
ENDMDL
