MODEL 1
REMARK minimizedAffinity -0.831661403
REMARK minimizedRMSD -1
REMARK  1 active torsions:
REMARK  status: ('A' for Active; 'I' for Inactive)
REMARK    1  A    between atoms: N_2  and  C1_3 
ROOT
ATOM      1  C1  UNL d   1       1.147   1.395   1.068  0.00  0.00     0.143 A 
ATOM      2  C2  UNL d   1       0.648   0.168   0.618  0.00  0.00    -0.057 A 
ATOM      3  C3  UNL d   1      -0.719  -0.017   0.378  0.00  0.00     0.033 A 
ATOM      4  C4  UNL d   1      -1.618   1.018   0.611  0.00  0.00    -0.042 A 
ATOM      5  C5  UNL d   1      -1.148   2.239   1.082  0.00  0.00     0.033 A 
ATOM      6  C6  UNL d   1       0.219   2.420   1.314  0.00  0.00    -0.057 A 
ENDROOT
BRANCH   1   7
ATOM      7  N   UNL d   1       2.481   1.611   1.420  0.00  0.00    -0.732 N 
ATOM      8  C   UNL d   1       2.819   2.428   2.565  0.00  0.00     0.284 C 
ATOM      9  H3  UNL d   1       3.048   0.772   1.326  0.00  0.00     0.395 HD
ENDBRANCH   1   7
TORSDOF 1
ENDMDL
