MODEL 1
REMARK minimizedAffinity 0.320462108
REMARK minimizedRMSD -1
REMARK  1 active torsions:
REMARK  status: ('A' for Active; 'I' for Inactive)
REMARK    1  A    between atoms: N_2  and  C1_3 
ROOT
ATOM      1  C1  UNL d   1      -0.133   0.478   0.730  0.00  0.00     0.143 A 
ATOM      2  C2  UNL d   1      -0.498   1.822   0.865  0.00  0.00    -0.057 A 
ATOM      3  C3  UNL d   1      -1.842   2.214   0.855  0.00  0.00     0.033 A 
ATOM      4  C4  UNL d   1      -2.847   1.269   0.679  0.00  0.00    -0.042 A 
ATOM      5  C5  UNL d   1      -2.507  -0.070   0.518  0.00  0.00     0.033 A 
ATOM      6  C6  UNL d   1      -1.163  -0.456   0.536  0.00  0.00    -0.057 A 
ENDROOT
BRANCH   1   7
ATOM      7  N   UNL d   1       1.189   0.037   0.633  0.00  0.00    -0.732 N 
ATOM      8  C   UNL d   1       1.736  -0.379  -0.641  0.00  0.00     0.284 C 
ATOM      9  H3  UNL d   1       1.827   0.594   1.197  0.00  0.00     0.395 HD
ENDBRANCH   1   7
TORSDOF 1
ENDMDL
