MODEL 1
REMARK minimizedAffinity -1.42921638
REMARK minimizedRMSD -1
REMARK  1 active torsions:
REMARK  status: ('A' for Active; 'I' for Inactive)
REMARK    1  A    between atoms: N_2  and  C1_3 
ROOT
ATOM      1  C1  UNL d   1       1.520   1.948   1.491  0.00  0.00     0.143 A 
ATOM      2  C2  UNL d   1       1.188   0.759   0.832  0.00  0.00    -0.057 A 
ATOM      3  C3  UNL d   1      -0.106   0.533   0.348  0.00  0.00     0.033 A 
ATOM      4  C4  UNL d   1      -1.102   1.484   0.540  0.00  0.00    -0.042 A 
ATOM      5  C5  UNL d   1      -0.802   2.663   1.213  0.00  0.00     0.033 A 
ATOM      6  C6  UNL d   1       0.494   2.885   1.689  0.00  0.00    -0.057 A 
ENDROOT
BRANCH   1   7
ATOM      7  N   UNL d   1       2.762   2.189   2.082  0.00  0.00    -0.732 N 
ATOM      8  C   UNL d   1       3.119   3.518   2.530  0.00  0.00     0.284 C 
ATOM      9  H3  UNL d   1       3.040   1.447   2.719  0.00  0.00     0.395 HD
ENDBRANCH   1   7
TORSDOF 1
ENDMDL
