MODEL 1
REMARK minimizedAffinity 3.37937832
REMARK minimizedRMSD -1
REMARK  1 active torsions:
REMARK  status: ('A' for Active; 'I' for Inactive)
REMARK    1  A    between atoms: N_2  and  C1_3 
ROOT
ATOM      1  C1  UNL d   1      -0.861  -1.611  -0.079  0.00  0.00     0.143 A 
ATOM      2  C2  UNL d   1      -1.951  -2.484  -0.167  0.00  0.00    -0.057 A 
ATOM      3  C3  UNL d   1      -2.078  -3.381  -1.234  0.00  0.00     0.033 A 
ATOM      4  C4  UNL d   1      -1.129  -3.401  -2.251  0.00  0.00    -0.042 A 
ATOM      5  C5  UNL d   1      -0.050  -2.526  -2.196  0.00  0.00     0.033 A 
ATOM      6  C6  UNL d   1       0.075  -1.636  -1.125  0.00  0.00    -0.057 A 
ENDROOT
BRANCH   1   7
ATOM      7  N   UNL d   1      -0.729  -0.628   0.905  0.00  0.00    -0.732 N 
ATOM      8  C   UNL d   1      -1.751   0.381   1.080  0.00  0.00     0.284 C 
ATOM      9  H3  UNL d   1      -0.357  -0.999   1.777  0.00  0.00     0.395 HD
ENDBRANCH   1   7
TORSDOF 1
ENDMDL
