MODEL 1
REMARK minimizedAffinity -2.91961956
REMARK minimizedRMSD -1
REMARK  0 active torsions:
REMARK  status: ('A' for Active; 'I' for Inactive)
ROOT
ATOM      1  N1  IND d   1       2.916   1.209   1.604  0.00  0.00    -0.196 N 
ATOM      2  C2  IND d   1       3.612   0.045   1.779  0.00  0.00     0.054 A 
ATOM      3  C3  IND d   1       2.896  -1.005   1.318  0.00  0.00    -0.031 A 
ATOM      4  C4  IND d   1       0.604  -1.033   0.145  0.00  0.00     0.051 A 
ATOM      5  C5  IND d   1      -0.436  -0.219  -0.207  0.00  0.00    -0.031 A 
ATOM      6  C6  IND d   1      -0.410   1.140   0.029  0.00  0.00     0.015 A 
ATOM      7  C7  IND d   1       0.667   1.741   0.618  0.00  0.00    -0.016 A 
ATOM      8  C8  IND d   1       1.721   0.916   0.984  0.00  0.00    -0.047 A 
ATOM      9  C9  IND d   1       1.683  -0.470   0.785  0.00  0.00    -0.096 A 
ATOM     10  HN1 IND d   1       3.180   1.992   1.842  0.00  0.00     0.298 HD
ENDROOT
TORSDOF 0
ENDMDL
