MODEL 1
REMARK minimizedAffinity -2.47769976
REMARK minimizedRMSD -1
REMARK  0 active torsions:
REMARK  status: ('A' for Active; 'I' for Inactive)
ROOT
ATOM      1  N1  IND d   1      -1.536  -1.077   0.457  0.00  0.00    -0.196 N 
ATOM      2  C2  IND d   1      -1.560   0.120  -0.204  0.00  0.00     0.054 A 
ATOM      3  C3  IND d   1      -0.328   0.675  -0.217  0.00  0.00    -0.031 A 
ATOM      4  C4  IND d   1       1.893  -0.252   0.697  0.00  0.00     0.051 A 
ATOM      5  C5  IND d   1       2.412  -1.293   1.415  0.00  0.00    -0.031 A 
ATOM      6  C6  IND d   1       1.625  -2.337   1.858  0.00  0.00     0.015 A 
ATOM      7  C7  IND d   1       0.287  -2.385   1.587  0.00  0.00    -0.016 A 
ATOM      8  C8  IND d   1      -0.244  -1.327   0.864  0.00  0.00    -0.047 A 
ATOM      9  C9  IND d   1       0.541  -0.243   0.449  0.00  0.00    -0.096 A 
ATOM     10  HN1 IND d   1      -2.214  -1.587   0.596  0.00  0.00     0.298 HD
ENDROOT
TORSDOF 0
ENDMDL
