MODEL 1
REMARK minimizedAffinity 1.54810357
REMARK minimizedRMSD -1
REMARK  0 active torsions:
REMARK  status: ('A' for Active; 'I' for Inactive)
ROOT
ATOM      1  N1  IND d   1       1.862   2.078   1.122  0.00  0.00    -0.196 N 
ATOM      2  C2  IND d   1       0.632   2.533   0.737  0.00  0.00     0.054 A 
ATOM      3  C3  IND d   1      -0.158   1.500   0.369  0.00  0.00    -0.031 A 
ATOM      4  C4  IND d   1       0.328  -1.028   0.416  0.00  0.00     0.051 A 
ATOM      5  C5  IND d   1       1.327  -1.929   0.658  0.00  0.00    -0.031 A 
ATOM      6  C6  IND d   1       2.580  -1.532   1.078  0.00  0.00     0.015 A 
ATOM      7  C7  IND d   1       2.879  -0.215   1.283  0.00  0.00    -0.016 A 
ATOM      8  C8  IND d   1       1.869   0.703   1.032  0.00  0.00    -0.047 A 
ATOM      9  C9  IND d   1       0.608   0.310   0.565  0.00  0.00    -0.096 A 
ATOM     10  HN1 IND d   1       2.521   2.568   1.378  0.00  0.00     0.298 HD
ENDROOT
TORSDOF 0
ENDMDL
