MODEL 1
REMARK minimizedAffinity 3.32769489
REMARK minimizedRMSD -1
REMARK  0 active torsions:
REMARK  status: ('A' for Active; 'I' for Inactive)
ROOT
ATOM      1  N1  IND d   1      -2.027  -1.021  -2.642  0.00  0.00    -0.196 N 
ATOM      2  C2  IND d   1      -2.428   0.036  -3.411  0.00  0.00     0.054 A 
ATOM      3  C3  IND d   1      -2.040   1.202  -2.847  0.00  0.00    -0.031 A 
ATOM      4  C4  IND d   1      -0.650   1.606  -0.718  0.00  0.00     0.051 A 
ATOM      5  C5  IND d   1      -0.085   0.951   0.340  0.00  0.00    -0.031 A 
ATOM      6  C6  IND d   1      -0.138  -0.423   0.460  0.00  0.00     0.015 A 
ATOM      7  C7  IND d   1      -0.750  -1.197  -0.485  0.00  0.00    -0.016 A 
ATOM      8  C8  IND d   1      -1.330  -0.535  -1.557  0.00  0.00    -0.047 A 
ATOM      9  C9  IND d   1      -1.317   0.862  -1.662  0.00  0.00    -0.096 A 
ATOM     10  HN1 IND d   1      -2.184  -1.850  -2.807  0.00  0.00     0.298 HD
ENDROOT
TORSDOF 0
ENDMDL
