MODEL 1
REMARK minimizedAffinity -4.3431406
REMARK minimizedRMSD -1
REMARK  0 active torsions:
REMARK  status: ('A' for Active; 'I' for Inactive)
ROOT
ATOM      1  N1  IND d   1      -0.993  -0.693   0.546  0.00  0.00    -0.196 N 
ATOM      2  C2  IND d   1      -1.776   0.396   0.282  0.00  0.00     0.054 A 
ATOM      3  C3  IND d   1      -1.014   1.508   0.176  0.00  0.00    -0.031 A 
ATOM      4  C4  IND d   1       1.545   1.755   0.299  0.00  0.00     0.051 A 
ATOM      5  C5  IND d   1       2.685   1.046   0.559  0.00  0.00    -0.031 A 
ATOM      6  C6  IND d   1       2.656  -0.306   0.831  0.00  0.00     0.015 A 
ATOM      7  C7  IND d   1       1.482  -1.006   0.842  0.00  0.00    -0.016 A 
ATOM      8  C8  IND d   1       0.323  -0.288   0.585  0.00  0.00    -0.047 A 
ATOM      9  C9  IND d   1       0.341   1.093   0.350  0.00  0.00    -0.096 A 
ATOM     10  HN1 IND d   1      -1.276  -1.496   0.667  0.00  0.00     0.298 HD
ENDROOT
TORSDOF 0
ENDMDL
