MODEL 1
REMARK minimizedAffinity -4.77759409
REMARK minimizedRMSD -1
REMARK  0 active torsions:
REMARK  status: ('A' for Active; 'I' for Inactive)
ROOT
ATOM      1  N1  IND d   1       1.679  -1.768   0.454  0.00  0.00    -0.196 N 
ATOM      2  C2  IND d   1       2.933  -1.224   0.495  0.00  0.00     0.054 A 
ATOM      3  C3  IND d   1       2.862   0.125   0.443  0.00  0.00    -0.031 A 
ATOM      4  C4  IND d   1       0.791   1.653   0.392  0.00  0.00     0.051 A 
ATOM      5  C5  IND d   1      -0.573   1.617   0.305  0.00  0.00    -0.031 A 
ATOM      6  C6  IND d   1      -1.270   0.427   0.266  0.00  0.00     0.015 A 
ATOM      7  C7  IND d   1      -0.626  -0.777   0.324  0.00  0.00    -0.016 A 
ATOM      8  C8  IND d   1       0.758  -0.744   0.404  0.00  0.00    -0.047 A 
ATOM      9  C9  IND d   1       1.474   0.460   0.401  0.00  0.00    -0.096 A 
ATOM     10  HN1 IND d   1       1.497  -2.608   0.459  0.00  0.00     0.298 HD
ENDROOT
TORSDOF 0
ENDMDL
