MODEL 1
REMARK minimizedAffinity -3.72420979
REMARK minimizedRMSD -1
REMARK  0 active torsions:
REMARK  status: ('A' for Active; 'I' for Inactive)
ROOT
ATOM      1  N1  IND d   1       2.797  -1.166   0.504  0.00  0.00    -0.196 N 
ATOM      2  C2  IND d   1       3.493  -0.025   0.787  0.00  0.00     0.054 A 
ATOM      3  C3  IND d   1       2.665   1.044   0.783  0.00  0.00    -0.031 A 
ATOM      4  C4  IND d   1       0.116   1.137   0.436  0.00  0.00     0.051 A 
ATOM      5  C5  IND d   1      -0.956   0.355   0.110  0.00  0.00    -0.031 A 
ATOM      6  C6  IND d   1      -0.830  -1.003  -0.102  0.00  0.00     0.015 A 
ATOM      7  C7  IND d   1       0.377  -1.633   0.015  0.00  0.00    -0.016 A 
ATOM      8  C8  IND d   1       1.469  -0.840   0.338  0.00  0.00    -0.047 A 
ATOM      9  C9  IND d   1       1.355   0.545   0.513  0.00  0.00    -0.096 A 
ATOM     10  HN1 IND d   1       3.132  -1.956   0.440  0.00  0.00     0.298 HD
ENDROOT
TORSDOF 0
ENDMDL
