MODEL 1
REMARK minimizedAffinity -2.24430418
REMARK minimizedRMSD -1
REMARK  0 active torsions:
REMARK  status: ('A' for Active; 'I' for Inactive)
ROOT
ATOM      1  N1  IND d   1       2.460  -1.137   0.996  0.00  0.00    -0.196 N 
ATOM      2  C2  IND d   1       3.358  -0.120   1.160  0.00  0.00     0.054 A 
ATOM      3  C3  IND d   1       2.751   1.076   0.985  0.00  0.00    -0.031 A 
ATOM      4  C4  IND d   1       0.273   1.600   0.522  0.00  0.00     0.051 A 
ATOM      5  C5  IND d   1      -0.924   0.997   0.255  0.00  0.00    -0.031 A 
ATOM      6  C6  IND d   1      -1.057  -0.376   0.223  0.00  0.00     0.015 A 
ATOM      7  C7  IND d   1       0.004  -1.201   0.469  0.00  0.00    -0.016 A 
ATOM      8  C8  IND d   1       1.222  -0.592   0.734  0.00  0.00    -0.047 A 
ATOM      9  C9  IND d   1       1.373   0.800   0.726  0.00  0.00    -0.096 A 
ATOM     10  HN1 IND d   1       2.638  -1.977   1.047  0.00  0.00     0.298 HD
ENDROOT
TORSDOF 0
ENDMDL
