MODEL 1
REMARK minimizedAffinity -2.53707743
REMARK minimizedRMSD -1
REMARK  0 active torsions:
REMARK  status: ('A' for Active; 'I' for Inactive)
ROOT
ATOM      1  N1  IND d   1      -1.567  -0.944   1.385  0.00  0.00    -0.196 N 
ATOM      2  C2  IND d   1      -1.882   0.324   0.983  0.00  0.00     0.054 A 
ATOM      3  C3  IND d   1      -0.786   0.949   0.497  0.00  0.00    -0.031 A 
ATOM      4  C4  IND d   1       1.603   0.046   0.175  0.00  0.00     0.051 A 
ATOM      5  C5  IND d   1       2.386  -1.045   0.428  0.00  0.00    -0.031 A 
ATOM      6  C6  IND d   1       1.880  -2.183   1.023  0.00  0.00     0.015 A 
ATOM      7  C7  IND d   1       0.564  -2.276   1.378  0.00  0.00    -0.016 A 
ATOM      8  C8  IND d   1      -0.232  -1.167   1.129  0.00  0.00    -0.047 A 
ATOM      9  C9  IND d   1       0.285   0.006   0.564  0.00  0.00    -0.096 A 
ATOM     10  HN1 IND d   1      -2.111  -1.508   1.739  0.00  0.00     0.298 HD
ENDROOT
TORSDOF 0
ENDMDL
