MODEL 1
REMARK minimizedAffinity -1.45858657
REMARK minimizedRMSD -1
REMARK  0 active torsions:
REMARK  status: ('A' for Active; 'I' for Inactive)
ROOT
ATOM      1  N1  IND d   1      -1.286  -1.699   0.978  0.00  0.00    -0.196 N 
ATOM      2  C2  IND d   1      -0.575  -2.794   1.383  0.00  0.00     0.054 A 
ATOM      3  C3  IND d   1       0.745  -2.606   1.160  0.00  0.00    -0.031 A 
ATOM      4  C4  IND d   1       1.969  -0.538   0.236  0.00  0.00     0.051 A 
ATOM      5  C5  IND d   1       1.742   0.696  -0.305  0.00  0.00    -0.031 A 
ATOM      6  C6  IND d   1       0.468   1.206  -0.447  0.00  0.00     0.015 A 
ATOM      7  C7  IND d   1      -0.631   0.503  -0.040  0.00  0.00    -0.016 A 
ATOM      8  C8  IND d   1      -0.404  -0.754   0.504  0.00  0.00    -0.047 A 
ATOM      9  C9  IND d   1       0.884  -1.294   0.611  0.00  0.00    -0.096 A 
ATOM     10  HN1 IND d   1      -2.141  -1.615   1.014  0.00  0.00     0.298 HD
ENDROOT
TORSDOF 0
ENDMDL
