MODEL 1
REMARK minimizedAffinity -3.70516205
REMARK minimizedRMSD -1
REMARK  0 active torsions:
REMARK  status: ('A' for Active; 'I' for Inactive)
ROOT
ATOM      1  N1  IND d   1       2.437   1.385   0.563  0.00  0.00    -0.196 N 
ATOM      2  C2  IND d   1       3.353   0.371   0.564  0.00  0.00     0.054 A 
ATOM      3  C3  IND d   1       2.728  -0.828   0.539  0.00  0.00    -0.031 A 
ATOM      4  C4  IND d   1       0.214  -1.358   0.391  0.00  0.00     0.051 A 
ATOM      5  C5  IND d   1      -1.016  -0.761   0.401  0.00  0.00    -0.031 A 
ATOM      6  C6  IND d   1      -1.160   0.610   0.465  0.00  0.00     0.015 A 
ATOM      7  C7  IND d   1      -0.075   1.439   0.509  0.00  0.00    -0.016 A 
ATOM      8  C8  IND d   1       1.175   0.836   0.505  0.00  0.00    -0.047 A 
ATOM      9  C9  IND d   1       1.327  -0.557   0.484  0.00  0.00    -0.096 A 
ATOM     10  HN1 IND d   1       2.618   2.225   0.593  0.00  0.00     0.298 HD
ENDROOT
TORSDOF 0
ENDMDL
