MODEL 1
REMARK minimizedAffinity -5.79727697
REMARK minimizedRMSD -1
REMARK  1 active torsions:
REMARK  status: ('A' for Active; 'I' for Inactive)
REMARK    1  A    between atoms: C1_2  and  C2_3 
ROOT
ATOM      1  C2  UNL d   1      -1.523   0.061   1.869  0.00  0.00    -0.077 A 
ATOM      2  C3  UNL d   1      -0.734  -0.238   2.988  0.00  0.00     0.002 A 
ATOM      3  C4  UNL d   1       0.642  -0.432   2.851  0.00  0.00     0.002 A 
ATOM      4  C5  UNL d   1       1.240  -0.325   1.598  0.00  0.00    -0.004 A 
ATOM      5  C6  UNL d   1       0.464  -0.029   0.478  0.00  0.00     0.002 A 
ATOM      6  C7  UNL d   1      -0.912   0.164   0.613  0.00  0.00     0.002 A 
ENDROOT
BRANCH   1   7
ATOM      7  C1  UNL d   1      -2.999   0.319   2.023  0.00  0.00     0.055 C 
ATOM      8  C   UNL d   1      -3.695   0.376   0.671  0.00  0.00     0.019 C 
ENDBRANCH   1   7
TORSDOF 1
ENDMDL
