MODEL 1
REMARK minimizedAffinity -4.27811098
REMARK minimizedRMSD -1
REMARK  1 active torsions:
REMARK  status: ('A' for Active; 'I' for Inactive)
REMARK    1  A    between atoms: C1_2  and  C2_3 
ROOT
ATOM      1  C2  UNL d   1      -0.122  -0.582   1.973  0.00  0.00    -0.077 A 
ATOM      2  C3  UNL d   1       1.126  -0.025   1.660  0.00  0.00     0.002 A 
ATOM      3  C4  UNL d   1       1.309   0.671   0.464  0.00  0.00     0.002 A 
ATOM      4  C5  UNL d   1       0.248   0.820  -0.427  0.00  0.00    -0.004 A 
ATOM      5  C6  UNL d   1      -0.997   0.269  -0.126  0.00  0.00     0.002 A 
ATOM      6  C7  UNL d   1      -1.181  -0.428   1.069  0.00  0.00     0.002 A 
ENDROOT
BRANCH   1   7
ATOM      7  C1  UNL d   1      -0.335  -1.291   3.285  0.00  0.00     0.055 C 
ATOM      8  C   UNL d   1      -1.652  -0.882   3.928  0.00  0.00     0.019 C 
ENDBRANCH   1   7
TORSDOF 1
ENDMDL
