MODEL 1
REMARK minimizedAffinity -4.25559092
REMARK minimizedRMSD -1
REMARK  1 active torsions:
REMARK  status: ('A' for Active; 'I' for Inactive)
REMARK    1  A    between atoms: C1_2  and  C2_3 
ROOT
ATOM      1  C2  UNL d   1       0.509   0.482  -0.209  0.00  0.00    -0.077 A 
ATOM      2  C3  UNL d   1       1.472   0.480   0.810  0.00  0.00     0.002 A 
ATOM      3  C4  UNL d   1       1.113   0.158   2.121  0.00  0.00     0.002 A 
ATOM      4  C5  UNL d   1      -0.208  -0.168   2.423  0.00  0.00    -0.004 A 
ATOM      5  C6  UNL d   1      -1.173  -0.167   1.416  0.00  0.00     0.002 A 
ATOM      6  C7  UNL d   1      -0.816   0.155   0.106  0.00  0.00     0.002 A 
ENDROOT
BRANCH   1   7
ATOM      7  C1  UNL d   1       0.905   0.781  -1.631  0.00  0.00     0.055 C 
ATOM      8  C   UNL d   1       0.954  -0.488  -2.470  0.00  0.00     0.019 C 
ENDBRANCH   1   7
TORSDOF 1
ENDMDL
