MODEL 1
REMARK minimizedAffinity -5.4013114
REMARK minimizedRMSD -1
REMARK  1 active torsions:
REMARK  status: ('A' for Active; 'I' for Inactive)
REMARK    1  A    between atoms: C1_2  and  C2_3 
ROOT
ATOM      1  C2  UNL d   1       0.060   0.221  -0.856  0.00  0.00    -0.077 A 
ATOM      2  C3  UNL d   1       0.492  -0.505   0.263  0.00  0.00     0.002 A 
ATOM      3  C4  UNL d   1      -0.416  -0.885   1.252  0.00  0.00     0.002 A 
ATOM      4  C5  UNL d   1      -1.763  -0.547   1.131  0.00  0.00    -0.004 A 
ATOM      5  C6  UNL d   1      -2.202   0.176   0.024  0.00  0.00     0.002 A 
ATOM      6  C7  UNL d   1      -1.295   0.558  -0.966  0.00  0.00     0.002 A 
ENDROOT
BRANCH   1   7
ATOM      7  C1  UNL d   1       1.029   0.589  -1.948  0.00  0.00     0.055 C 
ATOM      8  C   UNL d   1       1.208  -0.553  -2.938  0.00  0.00     0.019 C 
ENDBRANCH   1   7
TORSDOF 1
ENDMDL
