MODEL 1
REMARK minimizedAffinity -5.92523146
REMARK minimizedRMSD -1
REMARK  1 active torsions:
REMARK  status: ('A' for Active; 'I' for Inactive)
REMARK    1  A    between atoms: C1_2  and  C2_3 
ROOT
ATOM      1  C2  UNL d   1      -1.173   0.037   1.815  0.00  0.00    -0.077 A 
ATOM      2  C3  UNL d   1      -0.133  -0.134   2.740  0.00  0.00     0.002 A 
ATOM      3  C4  UNL d   1       1.192  -0.210   2.306  0.00  0.00     0.002 A 
ATOM      4  C5  UNL d   1       1.489  -0.112   0.949  0.00  0.00    -0.004 A 
ATOM      5  C6  UNL d   1       0.462   0.057   0.021  0.00  0.00     0.002 A 
ATOM      6  C7  UNL d   1      -0.863   0.132   0.452  0.00  0.00     0.002 A 
ENDROOT
BRANCH   1   7
ATOM      7  C1  UNL d   1      -2.598   0.169   2.285  0.00  0.00     0.055 C 
ATOM      8  C   UNL d   1      -3.467   0.844   1.233  0.00  0.00     0.019 C 
ENDBRANCH   1   7
TORSDOF 1
ENDMDL
