MODEL 1
REMARK minimizedAffinity -5.90841484
REMARK minimizedRMSD -1
REMARK  1 active torsions:
REMARK  status: ('A' for Active; 'I' for Inactive)
REMARK    1  A    between atoms: C1_2  and  C2_3 
ROOT
ATOM      1  C2  UNL d   1      -0.763   0.190   0.397  0.00  0.00    -0.077 A 
ATOM      2  C3  UNL d   1      -1.740  -0.651   0.949  0.00  0.00     0.002 A 
ATOM      3  C4  UNL d   1      -1.643  -1.071   2.277  0.00  0.00     0.002 A 
ATOM      4  C5  UNL d   1      -0.573  -0.651   3.065  0.00  0.00    -0.004 A 
ATOM      5  C6  UNL d   1       0.404   0.184   2.525  0.00  0.00     0.002 A 
ATOM      6  C7  UNL d   1       0.309   0.603   1.197  0.00  0.00     0.002 A 
ENDROOT
BRANCH   1   7
ATOM      7  C1  UNL d   1      -0.893   0.683  -1.020  0.00  0.00     0.055 C 
ATOM      8  C   UNL d   1      -2.261   1.302  -1.269  0.00  0.00     0.019 C 
ENDBRANCH   1   7
TORSDOF 1
ENDMDL
