MODEL 1
REMARK minimizedAffinity -3.07464767
REMARK minimizedRMSD -1
REMARK  1 active torsions:
REMARK  status: ('A' for Active; 'I' for Inactive)
REMARK    1  A    between atoms: C1_2  and  C2_3 
ROOT
ATOM      1  C2  UNL d   1       0.275   0.249   1.487  0.00  0.00    -0.077 A 
ATOM      2  C3  UNL d   1       1.443   0.620   0.805  0.00  0.00     0.002 A 
ATOM      3  C4  UNL d   1       1.425   0.802  -0.579  0.00  0.00     0.002 A 
ATOM      4  C5  UNL d   1       0.242   0.620  -1.292  0.00  0.00    -0.004 A 
ATOM      5  C6  UNL d   1      -0.924   0.250  -0.624  0.00  0.00     0.002 A 
ATOM      6  C7  UNL d   1      -0.908   0.066   0.760  0.00  0.00     0.002 A 
ENDROOT
BRANCH   1   7
ATOM      7  C1  UNL d   1       0.281   0.100   2.986  0.00  0.00     0.055 C 
ATOM      8  C   UNL d   1      -0.857  -0.793   3.458  0.00  0.00     0.019 C 
ENDBRANCH   1   7
TORSDOF 1
ENDMDL
