MODEL 1
REMARK minimizedAffinity -1.77270532
REMARK minimizedRMSD -1
REMARK  1 active torsions:
REMARK  status: ('A' for Active; 'I' for Inactive)
REMARK    1  A    between atoms: C1_2  and  C2_3 
ROOT
ATOM      1  C2  UNL d   1      -0.177   0.137   0.234  0.00  0.00    -0.077 A 
ATOM      2  C3  UNL d   1      -0.902  -1.041   0.467  0.00  0.00     0.002 A 
ATOM      3  C4  UNL d   1      -1.292  -1.385   1.763  0.00  0.00     0.002 A 
ATOM      4  C5  UNL d   1      -0.966  -0.556   2.834  0.00  0.00    -0.004 A 
ATOM      5  C6  UNL d   1      -0.243   0.616   2.613  0.00  0.00     0.002 A 
ATOM      6  C7  UNL d   1       0.148   0.961   1.318  0.00  0.00     0.002 A 
ENDROOT
BRANCH   1   7
ATOM      7  C1  UNL d   1       0.201   0.535  -1.169  0.00  0.00     0.055 C 
ATOM      8  C   UNL d   1       0.547  -0.681  -2.015  0.00  0.00     0.019 C 
ENDBRANCH   1   7
TORSDOF 1
ENDMDL
