MODEL 1
REMARK minimizedAffinity -5.73880243
REMARK minimizedRMSD -1
REMARK  1 active torsions:
REMARK  status: ('A' for Active; 'I' for Inactive)
REMARK    1  A    between atoms: C1_2  and  C2_3 
ROOT
ATOM      1  C2  UNL d   1      -1.437   0.282   1.890  0.00  0.00    -0.077 A 
ATOM      2  C3  UNL d   1      -0.929   0.455   0.595  0.00  0.00     0.002 A 
ATOM      3  C4  UNL d   1       0.358   0.016   0.276  0.00  0.00     0.002 A 
ATOM      4  C5  UNL d   1       1.145  -0.603   1.245  0.00  0.00    -0.004 A 
ATOM      5  C6  UNL d   1       0.649  -0.778   2.537  0.00  0.00     0.002 A 
ATOM      6  C7  UNL d   1      -0.636  -0.338   2.858  0.00  0.00     0.002 A 
ENDROOT
BRANCH   1   7
ATOM      7  C1  UNL d   1      -2.842   0.710   2.223  0.00  0.00     0.055 C 
ATOM      8  C   UNL d   1      -3.809   0.353   1.104  0.00  0.00     0.019 C 
ENDBRANCH   1   7
TORSDOF 1
ENDMDL
