MODEL 1
REMARK minimizedAffinity -3.99935198
REMARK minimizedRMSD -1
REMARK  1 active torsions:
REMARK  status: ('A' for Active; 'I' for Inactive)
REMARK    1  A    between atoms: C1_2  and  C2_3 
ROOT
ATOM      1  C2  UNL d   1       0.034   0.190  -0.676  0.00  0.00    -0.077 A 
ATOM      2  C3  UNL d   1      -1.162   0.412   0.021  0.00  0.00     0.002 A 
ATOM      3  C4  UNL d   1      -1.180   0.388   1.417  0.00  0.00     0.002 A 
ATOM      4  C5  UNL d   1      -0.005   0.147   2.127  0.00  0.00    -0.004 A 
ATOM      5  C6  UNL d   1       1.189  -0.076   1.442  0.00  0.00     0.002 A 
ATOM      6  C7  UNL d   1       1.208  -0.054   0.047  0.00  0.00     0.002 A 
ENDROOT
BRANCH   1   7
ATOM      7  C1  UNL d   1       0.065   0.265  -2.180  0.00  0.00     0.055 C 
ATOM      8  C   UNL d   1       1.178  -0.601  -2.754  0.00  0.00     0.019 C 
ENDBRANCH   1   7
TORSDOF 1
ENDMDL
