MODEL 1
REMARK minimizedAffinity -3.11326385
REMARK minimizedRMSD -1
REMARK  1 active torsions:
REMARK  status: ('A' for Active; 'I' for Inactive)
REMARK    1  A    between atoms: C1_2  and  C2_3 
ROOT
ATOM      1  C2  UNL d   1      -0.549  -0.497   1.407  0.00  0.00    -0.077 A 
ATOM      2  C3  UNL d   1       0.718   0.041   1.144  0.00  0.00     0.002 A 
ATOM      3  C4  UNL d   1       0.982   0.661  -0.079  0.00  0.00     0.002 A 
ATOM      4  C5  UNL d   1      -0.017   0.753  -1.045  0.00  0.00    -0.004 A 
ATOM      5  C6  UNL d   1      -1.281   0.219  -0.794  0.00  0.00     0.002 A 
ATOM      6  C7  UNL d   1      -1.546  -0.402   0.428  0.00  0.00     0.002 A 
ENDROOT
BRANCH   1   7
ATOM      7  C1  UNL d   1      -0.851  -1.122   2.744  0.00  0.00     0.055 C 
ATOM      8  C   UNL d   1      -0.538  -0.166   3.886  0.00  0.00     0.019 C 
ENDBRANCH   1   7
TORSDOF 1
ENDMDL
