MODEL 1
REMARK minimizedAffinity -2.1035223
REMARK minimizedRMSD -1
REMARK  1 active torsions:
REMARK  status: ('A' for Active; 'I' for Inactive)
REMARK    1  A    between atoms: C1_2  and  C2_3 
ROOT
ATOM      1  C2  UNL d   1       0.303   0.332  -1.753  0.00  0.00    -0.077 A 
ATOM      2  C3  UNL d   1       0.886   0.083  -0.502  0.00  0.00     0.002 A 
ATOM      3  C4  UNL d   1       0.140   0.237   0.668  0.00  0.00     0.002 A 
ATOM      4  C5  UNL d   1      -1.193   0.636   0.598  0.00  0.00    -0.004 A 
ATOM      5  C6  UNL d   1      -1.781   0.888  -0.640  0.00  0.00     0.002 A 
ATOM      6  C7  UNL d   1      -1.037   0.736  -1.811  0.00  0.00     0.002 A 
ENDROOT
BRANCH   1   7
ATOM      7  C1  UNL d   1       1.092   0.118  -3.018  0.00  0.00     0.055 C 
ATOM      8  C   UNL d   1       1.026  -1.332  -3.474  0.00  0.00     0.019 C 
ENDBRANCH   1   7
TORSDOF 1
ENDMDL
