MODEL 1
REMARK minimizedAffinity -4.77588987
REMARK minimizedRMSD -1
REMARK  0 active torsions:
REMARK  status: ('A' for Active; 'I' for Inactive)
ROOT
ATOM      1  C2' OXE d   1      -0.936   1.491   2.830  0.00  0.00     0.078 C 
ATOM      2  C1' OXE d   1      -2.923   0.399   1.175  0.00  0.00     0.078 C 
ATOM      3  C1  OXE d   1      -1.483   0.134   0.814  0.00  0.00    -0.078 A 
ATOM      4  C2  OXE d   1      -0.517   0.711   1.603  0.00  0.00    -0.078 A 
ATOM      5  C3  OXE d   1       0.827   0.453   1.346  0.00  0.00     0.003 A 
ATOM      6  C4  OXE d   1       1.206  -0.261   0.203  0.00  0.00    -0.002 A 
ATOM      7  C5  OXE d   1       0.239  -0.824  -0.636  0.00  0.00    -0.002 A 
ATOM      8  C6  OXE d   1      -1.107  -0.672  -0.322  0.00  0.00     0.003 A 
ENDROOT
TORSDOF 0
ENDMDL
