MODEL 1
REMARK minimizedAffinity -2.01498365
REMARK minimizedRMSD -1
REMARK  0 active torsions:
REMARK  status: ('A' for Active; 'I' for Inactive)
ROOT
ATOM      1  C2' OXE d   1       2.309  -0.472   0.701  0.00  0.00     0.078 C 
ATOM      2  C1' OXE d   1       0.144  -0.916  -1.029  0.00  0.00     0.078 C 
ATOM      3  C1  OXE d   1      -0.103  -0.093   0.210  0.00  0.00    -0.078 A 
ATOM      4  C2  OXE d   1       0.951   0.080   1.075  0.00  0.00    -0.078 A 
ATOM      5  C3  OXE d   1       0.791   0.877   2.205  0.00  0.00     0.003 A 
ATOM      6  C4  OXE d   1      -0.471   1.376   2.548  0.00  0.00    -0.002 A 
ATOM      7  C5  OXE d   1      -1.567   1.178   1.702  0.00  0.00    -0.002 A 
ATOM      8  C6  OXE d   1      -1.391   0.483   0.510  0.00  0.00     0.003 A 
ENDROOT
TORSDOF 0
ENDMDL
