MODEL 1
REMARK minimizedAffinity -4.79100323
REMARK minimizedRMSD -1
REMARK  0 active torsions:
REMARK  status: ('A' for Active; 'I' for Inactive)
ROOT
ATOM      1  C2' OXE d   1       2.329   0.125   1.630  0.00  0.00     0.078 C 
ATOM      2  C1' OXE d   1       0.683  -0.900  -0.399  0.00  0.00     0.078 C 
ATOM      3  C1  OXE d   1       0.046  -0.016   0.644  0.00  0.00    -0.078 A 
ATOM      4  C2  OXE d   1       0.850   0.443   1.659  0.00  0.00    -0.078 A 
ATOM      5  C3  OXE d   1       0.326   1.307   2.616  0.00  0.00     0.003 A 
ATOM      6  C4  OXE d   1      -1.046   1.589   2.642  0.00  0.00    -0.002 A 
ATOM      7  C5  OXE d   1      -1.890   1.099   1.639  0.00  0.00    -0.002 A 
ATOM      8  C6  OXE d   1      -1.353   0.332   0.611  0.00  0.00     0.003 A 
ENDROOT
TORSDOF 0
ENDMDL
