MODEL 1
REMARK minimizedAffinity -4.26346159
REMARK minimizedRMSD -1
REMARK  0 active torsions:
REMARK  status: ('A' for Active; 'I' for Inactive)
ROOT
ATOM      1  C2' OXE d   1      -0.855   1.298   3.231  0.00  0.00     0.078 C 
ATOM      2  C1' OXE d   1      -3.002   0.619   1.554  0.00  0.00     0.078 C 
ATOM      3  C1  OXE d   1      -1.607   0.317   1.068  0.00  0.00    -0.078 A 
ATOM      4  C2  OXE d   1      -0.560   0.695   1.874  0.00  0.00    -0.078 A 
ATOM      5  C3  OXE d   1       0.745   0.390   1.499  0.00  0.00     0.003 A 
ATOM      6  C4  OXE d   1       1.010  -0.159   0.238  0.00  0.00    -0.002 A 
ATOM      7  C5  OXE d   1      -0.040  -0.515  -0.616  0.00  0.00    -0.002 A 
ATOM      8  C6  OXE d   1      -1.352  -0.324  -0.199  0.00  0.00     0.003 A 
ENDROOT
TORSDOF 0
ENDMDL
