MODEL 1
REMARK minimizedAffinity -4.68638182
REMARK minimizedRMSD -1
REMARK  0 active torsions:
REMARK  status: ('A' for Active; 'I' for Inactive)
ROOT
ATOM      1  C2' OXE d   1      -2.131  -1.217   0.166  0.00  0.00     0.078 C 
ATOM      2  C1' OXE d   1       0.504  -0.538  -0.522  0.00  0.00     0.078 C 
ATOM      3  C1  OXE d   1      -0.110   0.149   0.672  0.00  0.00    -0.078 A 
ATOM      4  C2  OXE d   1      -1.416  -0.155   0.973  0.00  0.00    -0.078 A 
ATOM      5  C3  OXE d   1      -2.014   0.409   2.096  0.00  0.00     0.003 A 
ATOM      6  C4  OXE d   1      -1.349   1.398   2.832  0.00  0.00    -0.002 A 
ATOM      7  C5  OXE d   1      -0.032   1.751   2.518  0.00  0.00    -0.002 A 
ATOM      8  C6  OXE d   1       0.615   1.107   1.470  0.00  0.00     0.003 A 
ENDROOT
TORSDOF 0
ENDMDL
