MODEL 1
REMARK minimizedAffinity -4.30654287
REMARK minimizedRMSD -1
REMARK  0 active torsions:
REMARK  status: ('A' for Active; 'I' for Inactive)
ROOT
ATOM      1  C2' OXE d   1      -0.477   1.525   2.869  0.00  0.00     0.078 C 
ATOM      2  C1' OXE d   1       2.129   0.759   2.159  0.00  0.00     0.078 C 
ATOM      3  C1  OXE d   1       1.000   0.337   1.252  0.00  0.00    -0.078 A 
ATOM      4  C2  OXE d   1      -0.277   0.677   1.632  0.00  0.00    -0.078 A 
ATOM      5  C3  OXE d   1      -1.350   0.360   0.804  0.00  0.00     0.003 A 
ATOM      6  C4  OXE d   1      -1.157  -0.434  -0.333  0.00  0.00    -0.002 A 
ATOM      7  C5  OXE d   1       0.131  -0.824  -0.717  0.00  0.00    -0.002 A 
ATOM      8  C6  OXE d   1       1.221  -0.412   0.040  0.00  0.00     0.003 A 
ENDROOT
TORSDOF 0
ENDMDL
