MODEL 1
REMARK minimizedAffinity -2.50189042
REMARK minimizedRMSD -1
REMARK  0 active torsions:
REMARK  status: ('A' for Active; 'I' for Inactive)
ROOT
ATOM      1  C2' OXE d   1      -0.441   1.531   3.025  0.00  0.00     0.078 C 
ATOM      2  C1' OXE d   1       2.157   0.608   2.500  0.00  0.00     0.078 C 
ATOM      3  C1  OXE d   1       1.123   0.455   1.413  0.00  0.00    -0.078 A 
ATOM      4  C2  OXE d   1      -0.157   0.867   1.695  0.00  0.00    -0.078 A 
ATOM      5  C3  OXE d   1      -1.137   0.798   0.709  0.00  0.00     0.003 A 
ATOM      6  C4  OXE d   1      -0.868   0.173  -0.515  0.00  0.00    -0.002 A 
ATOM      7  C5  OXE d   1       0.419  -0.289  -0.808  0.00  0.00    -0.002 A 
ATOM      8  C6  OXE d   1       1.434  -0.118   0.126  0.00  0.00     0.003 A 
ENDROOT
TORSDOF 0
ENDMDL
