MODEL 1
REMARK minimizedAffinity -5.32276058
REMARK minimizedRMSD -1
REMARK  0 active torsions:
REMARK  status: ('A' for Active; 'I' for Inactive)
ROOT
ATOM      1  C2' OXE d   1      -0.688   1.789   2.980  0.00  0.00     0.078 C 
ATOM      2  C1' OXE d   1      -2.818   0.292   1.931  0.00  0.00     0.078 C 
ATOM      3  C1  OXE d   1      -1.499   0.246   1.200  0.00  0.00    -0.078 A 
ATOM      4  C2  OXE d   1      -0.475   1.019   1.695  0.00  0.00    -0.078 A 
ATOM      5  C3  OXE d   1       0.778   0.971   1.091  0.00  0.00     0.003 A 
ATOM      6  C4  OXE d   1       0.963   0.264  -0.103  0.00  0.00    -0.002 A 
ATOM      7  C5  OXE d   1      -0.077  -0.498  -0.646  0.00  0.00    -0.002 A 
ATOM      8  C6  OXE d   1      -1.300  -0.551   0.016  0.00  0.00     0.003 A 
ENDROOT
TORSDOF 0
ENDMDL
