MODEL 1
REMARK minimizedAffinity -2.5889039
REMARK minimizedRMSD -1
REMARK  0 active torsions:
REMARK  status: ('A' for Active; 'I' for Inactive)
ROOT
ATOM      1  C2' OXE d   1      -0.896   2.339   3.145  0.00  0.00     0.078 C 
ATOM      2  C1' OXE d   1      -2.825   0.771   1.842  0.00  0.00     0.078 C 
ATOM      3  C1  OXE d   1      -1.384   0.596   1.434  0.00  0.00    -0.078 A 
ATOM      4  C2  OXE d   1      -0.452   1.401   2.044  0.00  0.00    -0.078 A 
ATOM      5  C3  OXE d   1       0.898   1.242   1.744  0.00  0.00     0.003 A 
ATOM      6  C4  OXE d   1       1.299   0.379   0.717  0.00  0.00    -0.002 A 
ATOM      7  C5  OXE d   1       0.361  -0.421   0.055  0.00  0.00    -0.002 A 
ATOM      8  C6  OXE d   1      -0.976  -0.356   0.431  0.00  0.00     0.003 A 
ENDROOT
TORSDOF 0
ENDMDL
