MODEL 1
REMARK minimizedAffinity -3.85399365
REMARK minimizedRMSD -1
REMARK  0 active torsions:
REMARK  status: ('A' for Active; 'I' for Inactive)
ROOT
ATOM      1  C2' OXE d   1       1.820   2.138  -3.710  0.00  0.00     0.078 C 
ATOM      2  C1' OXE d   1       0.464   0.759  -1.675  0.00  0.00     0.078 C 
ATOM      3  C1  OXE d   1       0.204   0.343  -3.101  0.00  0.00    -0.078 A 
ATOM      4  C2  OXE d   1       0.836   1.054  -4.093  0.00  0.00    -0.078 A 
ATOM      5  C3  OXE d   1       0.673   0.676  -5.423  0.00  0.00     0.003 A 
ATOM      6  C4  OXE d   1      -0.247  -0.322  -5.769  0.00  0.00    -0.002 A 
ATOM      7  C5  OXE d   1      -0.931  -1.032  -4.776  0.00  0.00    -0.002 A 
ATOM      8  C6  OXE d   1      -0.686  -0.741  -3.439  0.00  0.00     0.003 A 
ENDROOT
TORSDOF 0
ENDMDL
