MODEL 1
REMARK minimizedAffinity -5.17574453
REMARK minimizedRMSD -1
REMARK  0 active torsions:
REMARK  status: ('A' for Active; 'I' for Inactive)
ROOT
ATOM      1  C2' OXE d   1       0.570  -0.640  -0.989  0.00  0.00     0.078 C 
ATOM      2  C1' OXE d   1       2.614  -1.361   0.795  0.00  0.00     0.078 C 
ATOM      3  C1  OXE d   1       1.429  -0.611   1.349  0.00  0.00    -0.078 A 
ATOM      4  C2  OXE d   1       0.456  -0.221   0.461  0.00  0.00    -0.078 A 
ATOM      5  C3  OXE d   1      -0.685   0.426   0.928  0.00  0.00     0.003 A 
ATOM      6  C4  OXE d   1      -0.778   0.819   2.269  0.00  0.00    -0.002 A 
ATOM      7  C5  OXE d   1       0.221   0.467   3.183  0.00  0.00    -0.002 A 
ATOM      8  C6  OXE d   1       1.309  -0.283   2.748  0.00  0.00     0.003 A 
ENDROOT
TORSDOF 0
ENDMDL
