MODEL 1
REMARK minimizedAffinity 3.22627878
REMARK minimizedRMSD -1
REMARK  1 active torsions:
REMARK  status: ('A' for Active; 'I' for Inactive)
REMARK    1  A    between atoms: C1_2  and  C2_3 
ROOT
ATOM      1  C2  UNL d   1       0.657   1.140   1.348  0.00  0.00    -0.077 A 
ATOM      2  C3  UNL d   1       0.422   0.371   0.199  0.00  0.00     0.002 A 
ATOM      3  C4  UNL d   1      -0.872  -0.047  -0.118  0.00  0.00     0.002 A 
ATOM      4  C5  UNL d   1      -1.941   0.304   0.704  0.00  0.00    -0.004 A 
ATOM      5  C6  UNL d   1      -1.717   1.067   1.849  0.00  0.00     0.002 A 
ATOM      6  C7  UNL d   1      -0.424   1.484   2.169  0.00  0.00     0.002 A 
ENDROOT
BRANCH   1   7
ATOM      7  C1  UNL d   1       2.044   1.633   1.665  0.00  0.00     0.055 C 
ATOM      8  C   UNL d   1       2.442   2.789   0.759  0.00  0.00     0.019 C 
ENDBRANCH   1   7
TORSDOF 1
ENDMDL
