MODEL 1
REMARK minimizedAffinity 4.40067101
REMARK minimizedRMSD -1
REMARK  1 active torsions:
REMARK  status: ('A' for Active; 'I' for Inactive)
REMARK    1  A    between atoms: C1_2  and  C2_3 
ROOT
ATOM      1  C2  UNL d   1      -3.638  -3.875   1.014  0.00  0.00    -0.077 A 
ATOM      2  C3  UNL d   1      -4.980  -3.480   1.108  0.00  0.00     0.002 A 
ATOM      3  C4  UNL d   1      -6.000  -4.339   0.694  0.00  0.00     0.002 A 
ATOM      4  C5  UNL d   1      -5.689  -5.599   0.187  0.00  0.00    -0.004 A 
ATOM      5  C6  UNL d   1      -4.357  -6.000   0.087  0.00  0.00     0.002 A 
ATOM      6  C7  UNL d   1      -3.336  -5.142   0.499  0.00  0.00     0.002 A 
ENDROOT
BRANCH   1   7
ATOM      7  C1  UNL d   1      -2.539  -2.969   1.506  0.00  0.00     0.055 C 
ATOM      8  C   UNL d   1      -2.655  -1.578   0.900  0.00  0.00     0.019 C 
ENDBRANCH   1   7
TORSDOF 1
ENDMDL
