MODEL 1
REMARK minimizedAffinity 1.63897371
REMARK minimizedRMSD -1
REMARK  1 active torsions:
REMARK  status: ('A' for Active; 'I' for Inactive)
REMARK    1  A    between atoms: C1_2  and  C2_3 
ROOT
ATOM      1  C2  UNL d   1      -0.801   0.669   0.134  0.00  0.00    -0.077 A 
ATOM      2  C3  UNL d   1      -1.391  -0.506   0.621  0.00  0.00     0.002 A 
ATOM      3  C4  UNL d   1      -1.546  -0.702   1.994  0.00  0.00     0.002 A 
ATOM      4  C5  UNL d   1      -1.119   0.274   2.892  0.00  0.00    -0.004 A 
ATOM      5  C6  UNL d   1      -0.529   1.445   2.418  0.00  0.00     0.002 A 
ATOM      6  C7  UNL d   1      -0.372   1.642   1.046  0.00  0.00     0.002 A 
ENDROOT
BRANCH   1   7
ATOM      7  C1  UNL d   1      -0.678   0.904  -1.349  0.00  0.00     0.055 C 
ATOM      8  C   UNL d   1       0.335   1.999  -1.653  0.00  0.00     0.019 C 
ENDBRANCH   1   7
TORSDOF 1
ENDMDL
