MODEL 1
REMARK minimizedAffinity -0.519896328
REMARK minimizedRMSD -1
REMARK  1 active torsions:
REMARK  status: ('A' for Active; 'I' for Inactive)
REMARK    1  A    between atoms: C1_2  and  C2_3 
ROOT
ATOM      1  C2  UNL d   1      -1.600  -5.998   2.526  0.00  0.00    -0.077 A 
ATOM      2  C3  UNL d   1      -1.352  -5.996   3.905  0.00  0.00     0.002 A 
ATOM      3  C4  UNL d   1      -0.041  -5.995   4.387  0.00  0.00     0.002 A 
ATOM      4  C5  UNL d   1       1.030  -5.991   3.497  0.00  0.00    -0.004 A 
ATOM      5  C6  UNL d   1       0.794  -5.995   2.123  0.00  0.00     0.002 A 
ATOM      6  C7  UNL d   1      -0.515  -5.998   1.639  0.00  0.00     0.002 A 
ENDROOT
BRANCH   1   7
ATOM      7  C1  UNL d   1      -3.012  -5.950   2.004  0.00  0.00     0.055 C 
ATOM      8  C   UNL d   1      -4.024  -5.992   3.140  0.00  0.00     0.019 C 
ENDBRANCH   1   7
TORSDOF 1
ENDMDL
