MODEL 1
REMARK minimizedAffinity 5.94786072
REMARK minimizedRMSD -1
REMARK  1 active torsions:
REMARK  status: ('A' for Active; 'I' for Inactive)
REMARK    1  A    between atoms: C1_2  and  C2_3 
ROOT
ATOM      1  C2  UNL d   1      -0.161  -0.092   1.183  0.00  0.00    -0.077 A 
ATOM      2  C3  UNL d   1      -0.584   0.483   2.389  0.00  0.00     0.002 A 
ATOM      3  C4  UNL d   1      -1.340  -0.260   3.299  0.00  0.00     0.002 A 
ATOM      4  C5  UNL d   1      -1.674  -1.582   3.013  0.00  0.00    -0.004 A 
ATOM      5  C6  UNL d   1      -1.259  -2.162   1.815  0.00  0.00     0.002 A 
ATOM      6  C7  UNL d   1      -0.505  -1.421   0.904  0.00  0.00     0.002 A 
ENDROOT
BRANCH   1   7
ATOM      7  C1  UNL d   1       0.695   0.692   0.223  0.00  0.00     0.055 C 
ATOM      8  C   UNL d   1       1.640  -0.219  -0.548  0.00  0.00     0.019 C 
ENDBRANCH   1   7
TORSDOF 1
ENDMDL
