MODEL 1
REMARK minimizedAffinity 5.34310722
REMARK minimizedRMSD -1
REMARK  1 active torsions:
REMARK  status: ('A' for Active; 'I' for Inactive)
REMARK    1  A    between atoms: C1_2  and  C2_3 
ROOT
ATOM      1  C2  UNL d   1      -0.625  -6.000   2.021  0.00  0.00    -0.077 A 
ATOM      2  C3  UNL d   1      -0.536  -5.997   3.420  0.00  0.00     0.002 A 
ATOM      3  C4  UNL d   1       0.711  -5.982   4.049  0.00  0.00     0.002 A 
ATOM      4  C5  UNL d   1       1.877  -5.966   3.286  0.00  0.00    -0.004 A 
ATOM      5  C6  UNL d   1       1.799  -5.971   1.894  0.00  0.00     0.002 A 
ATOM      6  C7  UNL d   1       0.553  -5.987   1.264  0.00  0.00     0.002 A 
ENDROOT
BRANCH   1   7
ATOM      7  C1  UNL d   1      -1.969  -5.966   1.342  0.00  0.00     0.055 C 
ATOM      8  C   UNL d   1      -2.473  -4.539   1.183  0.00  0.00     0.019 C 
ENDBRANCH   1   7
TORSDOF 1
ENDMDL
