MODEL 1
REMARK minimizedAffinity 5.79694462
REMARK minimizedRMSD -1
REMARK  1 active torsions:
REMARK  status: ('A' for Active; 'I' for Inactive)
REMARK    1  A    between atoms: C1_2  and  C2_3 
ROOT
ATOM      1  C2  UNL d   1      -0.464  -0.565   1.693  0.00  0.00    -0.077 A 
ATOM      2  C3  UNL d   1       0.241  -1.073   0.593  0.00  0.00     0.002 A 
ATOM      3  C4  UNL d   1       1.045  -0.232  -0.179  0.00  0.00     0.002 A 
ATOM      4  C5  UNL d   1       1.155   1.119   0.143  0.00  0.00    -0.004 A 
ATOM      5  C6  UNL d   1       0.456   1.634   1.234  0.00  0.00     0.002 A 
ATOM      6  C7  UNL d   1      -0.349   0.795   2.006  0.00  0.00     0.002 A 
ENDROOT
BRANCH   1   7
ATOM      7  C1  UNL d   1      -1.293  -1.480   2.557  0.00  0.00     0.055 C 
ATOM      8  C   UNL d   1      -2.339  -0.702   3.342  0.00  0.00     0.019 C 
ENDBRANCH   1   7
TORSDOF 1
ENDMDL
