MODEL 1
REMARK minimizedAffinity 4.60234213
REMARK minimizedRMSD -1
REMARK  1 active torsions:
REMARK  status: ('A' for Active; 'I' for Inactive)
REMARK    1  A    between atoms: C1_2  and  C2_3 
ROOT
ATOM      1  C2  UNL d   1      -0.647  -2.401  -3.535  0.00  0.00    -0.077 A 
ATOM      2  C3  UNL d   1      -1.406  -3.572  -3.673  0.00  0.00     0.002 A 
ATOM      3  C4  UNL d   1      -2.692  -3.647  -3.135  0.00  0.00     0.002 A 
ATOM      4  C5  UNL d   1      -3.232  -2.554  -2.460  0.00  0.00    -0.004 A 
ATOM      5  C6  UNL d   1      -2.484  -1.386  -2.316  0.00  0.00     0.002 A 
ATOM      6  C7  UNL d   1      -1.198  -1.310  -2.852  0.00  0.00     0.002 A 
ENDROOT
BRANCH   1   7
ATOM      7  C1  UNL d   1       0.722  -2.300  -4.157  0.00  0.00     0.055 C 
ATOM      8  C   UNL d   1       1.680  -1.527  -3.263  0.00  0.00     0.019 C 
ENDBRANCH   1   7
TORSDOF 1
ENDMDL
