MODEL 1
REMARK minimizedAffinity 6.4185729
REMARK minimizedRMSD -1
REMARK  1 active torsions:
REMARK  status: ('A' for Active; 'I' for Inactive)
REMARK    1  A    between atoms: C1_2  and  C2_3 
ROOT
ATOM      1  C2  UNL d   1      -0.336   0.397   1.880  0.00  0.00    -0.077 A 
ATOM      2  C3  UNL d   1      -0.445   0.137   0.507  0.00  0.00     0.002 A 
ATOM      3  C4  UNL d   1       0.599   0.466  -0.359  0.00  0.00     0.002 A 
ATOM      4  C5  UNL d   1       1.760   1.053   0.138  0.00  0.00    -0.004 A 
ATOM      5  C6  UNL d   1       1.878   1.318   1.502  0.00  0.00     0.002 A 
ATOM      6  C7  UNL d   1       0.834   0.991   2.369  0.00  0.00     0.002 A 
ENDROOT
BRANCH   1   7
ATOM      7  C1  UNL d   1      -1.441  -0.002   2.823  0.00  0.00     0.055 C 
ATOM      8  C   UNL d   1      -1.866  -1.446   2.598  0.00  0.00     0.019 C 
ENDBRANCH   1   7
TORSDOF 1
ENDMDL
