MODEL 1
REMARK minimizedAffinity 10.5511065
REMARK minimizedRMSD -1
REMARK  1 active torsions:
REMARK  status: ('A' for Active; 'I' for Inactive)
REMARK    1  A    between atoms: C1_2  and  C2_3 
ROOT
ATOM      1  C2  UNL d   1      -0.800  -0.048  -0.355  0.00  0.00    -0.077 A 
ATOM      2  C3  UNL d   1      -1.275   0.220  -1.647  0.00  0.00     0.002 A 
ATOM      3  C4  UNL d   1      -2.333  -0.519  -2.177  0.00  0.00     0.002 A 
ATOM      4  C5  UNL d   1      -2.929  -1.528  -1.423  0.00  0.00    -0.004 A 
ATOM      5  C6  UNL d   1      -2.462  -1.804  -0.138  0.00  0.00     0.002 A 
ATOM      6  C7  UNL d   1      -1.403  -1.066   0.394  0.00  0.00     0.002 A 
ENDROOT
BRANCH   1   7
ATOM      7  C1  UNL d   1       0.309   0.781   0.238  0.00  0.00     0.055 C 
ATOM      8  C   UNL d   1       0.087   1.021   1.724  0.00  0.00     0.019 C 
ENDBRANCH   1   7
TORSDOF 1
ENDMDL
