MODEL 1
REMARK minimizedAffinity 7.48641872
REMARK minimizedRMSD -1
REMARK  1 active torsions:
REMARK  status: ('A' for Active; 'I' for Inactive)
REMARK    1  A    between atoms: C1_2  and  C2_3 
ROOT
ATOM      1  C2  UNL d   1       1.012  -5.939   3.882  0.00  0.00    -0.077 A 
ATOM      2  C3  UNL d   1      -0.379  -5.972   3.712  0.00  0.00     0.002 A 
ATOM      3  C4  UNL d   1      -0.933  -6.000   2.431  0.00  0.00     0.002 A 
ATOM      4  C5  UNL d   1      -0.104  -6.000   1.311  0.00  0.00    -0.004 A 
ATOM      5  C6  UNL d   1       1.280  -5.965   1.469  0.00  0.00     0.002 A 
ATOM      6  C7  UNL d   1       1.836  -5.936   2.749  0.00  0.00     0.002 A 
ENDROOT
BRANCH   1   7
ATOM      7  C1  UNL d   1       1.613  -5.959   5.263  0.00  0.00     0.055 C 
ATOM      8  C   UNL d   1       1.886  -4.549   5.768  0.00  0.00     0.019 C 
ENDBRANCH   1   7
TORSDOF 1
ENDMDL
