MODEL 1
REMARK minimizedAffinity 8.91469765
REMARK minimizedRMSD -1
REMARK  1 active torsions:
REMARK  status: ('A' for Active; 'I' for Inactive)
REMARK    1  A    between atoms: C1_2  and  C2_3 
ROOT
ATOM      1  C2  UNL d   1      -2.413  -3.189  -3.398  0.00  0.00    -0.077 A 
ATOM      2  C3  UNL d   1      -1.160  -2.620  -3.667  0.00  0.00     0.002 A 
ATOM      3  C4  UNL d   1      -0.640  -2.639  -4.963  0.00  0.00     0.002 A 
ATOM      4  C5  UNL d   1      -1.367  -3.221  -5.999  0.00  0.00    -0.004 A 
ATOM      5  C6  UNL d   1      -2.613  -3.791  -5.741  0.00  0.00     0.002 A 
ATOM      6  C7  UNL d   1      -3.134  -3.775  -4.447  0.00  0.00     0.002 A 
ENDROOT
BRANCH   1   7
ATOM      7  C1  UNL d   1      -2.998  -3.127  -2.011  0.00  0.00     0.055 C 
ATOM      8  C   UNL d   1      -2.631  -1.825  -1.314  0.00  0.00     0.019 C 
ENDBRANCH   1   7
TORSDOF 1
ENDMDL
