MODEL 1
REMARK minimizedAffinity 0.128601164
REMARK minimizedRMSD -1
REMARK  1 active torsions:
REMARK  status: ('A' for Active; 'I' for Inactive)
REMARK    1  A    between atoms: C1_2  and  C2_3 
ROOT
ATOM      1  C2  UNL d   1      -0.667  -5.997   1.732  0.00  0.00    -0.077 A 
ATOM      2  C3  UNL d   1      -0.987  -5.996   3.097  0.00  0.00     0.002 A 
ATOM      3  C4  UNL d   1       0.025  -5.995   4.059  0.00  0.00     0.002 A 
ATOM      4  C5  UNL d   1       1.362  -5.991   3.668  0.00  0.00    -0.004 A 
ATOM      5  C6  UNL d   1       1.690  -5.994   2.312  0.00  0.00     0.002 A 
ATOM      6  C7  UNL d   1       0.681  -5.996   1.349  0.00  0.00     0.002 A 
ENDROOT
BRANCH   1   7
ATOM      7  C1  UNL d   1      -1.756  -5.948   0.692  0.00  0.00     0.055 C 
ATOM      8  C   UNL d   1      -3.135  -5.994   1.333  0.00  0.00     0.019 C 
ENDBRANCH   1   7
TORSDOF 1
ENDMDL
