MODEL 1
REMARK minimizedAffinity 4.93112564
REMARK minimizedRMSD -1
REMARK  1 active torsions:
REMARK  status: ('A' for Active; 'I' for Inactive)
REMARK    1  A    between atoms: C1_2  and  C2_3 
ROOT
ATOM      1  C2  UNL d   1      -1.880  -2.579  -3.652  0.00  0.00    -0.077 A 
ATOM      2  C3  UNL d   1      -3.043  -3.045  -4.281  0.00  0.00     0.002 A 
ATOM      3  C4  UNL d   1      -4.286  -2.495  -3.962  0.00  0.00     0.002 A 
ATOM      4  C5  UNL d   1      -4.377  -1.475  -3.018  0.00  0.00    -0.004 A 
ATOM      5  C6  UNL d   1      -3.226  -1.006  -2.386  0.00  0.00     0.002 A 
ATOM      6  C7  UNL d   1      -1.983  -1.555  -2.702  0.00  0.00     0.002 A 
ENDROOT
BRANCH   1   7
ATOM      7  C1  UNL d   1      -0.532  -3.137  -4.030  0.00  0.00     0.055 C 
ATOM      8  C   UNL d   1      -0.010  -2.503  -5.311  0.00  0.00     0.019 C 
ENDBRANCH   1   7
TORSDOF 1
ENDMDL
