MODEL 1
REMARK minimizedAffinity 4.27327394
REMARK minimizedRMSD -1
REMARK  1 active torsions:
REMARK  status: ('A' for Active; 'I' for Inactive)
REMARK    1  A    between atoms: C1_2  and  C2_3 
ROOT
ATOM      1  C2  UNL d   1       0.652  -5.966   3.979  0.00  0.00    -0.077 A 
ATOM      2  C3  UNL d   1      -0.684  -5.968   3.555  0.00  0.00     0.002 A 
ATOM      3  C4  UNL d   1      -0.993  -5.982   2.194  0.00  0.00     0.002 A 
ATOM      4  C5  UNL d   1       0.028  -5.998   1.246  0.00  0.00    -0.004 A 
ATOM      5  C6  UNL d   1       1.360  -5.994   1.657  0.00  0.00     0.002 A 
ATOM      6  C7  UNL d   1       1.671  -5.979   3.018  0.00  0.00     0.002 A 
ENDROOT
BRANCH   1   7
ATOM      7  C1  UNL d   1       0.988  -6.000   5.447  0.00  0.00     0.055 C 
ATOM      8  C   UNL d   1       1.214  -4.599   5.996  0.00  0.00     0.019 C 
ENDBRANCH   1   7
TORSDOF 1
ENDMDL
