MODEL 1
REMARK minimizedAffinity 7.51144648
REMARK minimizedRMSD -1
REMARK  1 active torsions:
REMARK  status: ('A' for Active; 'I' for Inactive)
REMARK    1  A    between atoms: C1_2  and  C2_3 
ROOT
ATOM      1  C2  UNL d   1      -0.964  -2.207  -4.101  0.00  0.00    -0.077 A 
ATOM      2  C3  UNL d   1      -1.174  -1.453  -2.938  0.00  0.00     0.002 A 
ATOM      3  C4  UNL d   1      -2.470  -1.134  -2.528  0.00  0.00     0.002 A 
ATOM      4  C5  UNL d   1      -3.565  -1.567  -3.273  0.00  0.00    -0.004 A 
ATOM      5  C6  UNL d   1      -3.366  -2.315  -4.432  0.00  0.00     0.002 A 
ATOM      6  C7  UNL d   1      -2.072  -2.635  -4.844  0.00  0.00     0.002 A 
ENDROOT
BRANCH   1   7
ATOM      7  C1  UNL d   1       0.431  -2.594  -4.518  0.00  0.00     0.055 C 
ATOM      8  C   UNL d   1       1.479  -1.877  -3.680  0.00  0.00     0.019 C 
ENDBRANCH   1   7
TORSDOF 1
ENDMDL
