MODEL 1
REMARK minimizedAffinity 2.63556147
REMARK minimizedRMSD -1
REMARK  0 active torsions:
REMARK  status: ('A' for Active; 'I' for Inactive)
ROOT
ATOM      1  C   UNL d   1      -0.771  -2.561  -0.121  0.00  0.00     0.078 C 
ATOM      2  C1  UNL d   1       0.312  -2.691   0.908  0.00  0.00    -0.077 A 
ATOM      3  C2  UNL d   1       1.073  -3.862   1.010  0.00  0.00    -0.001 A 
ATOM      4  C3  UNL d   1       2.071  -3.973   1.978  0.00  0.00     0.003 A 
ATOM      5  C4  UNL d   1       2.318  -2.916   2.853  0.00  0.00    -0.005 A 
ATOM      6  C5  UNL d   1       1.565  -1.748   2.761  0.00  0.00     0.003 A 
ATOM      7  C6  UNL d   1       0.566  -1.635   1.793  0.00  0.00    -0.001 A 
ENDROOT
TORSDOF 0
ENDMDL
