MODEL 1
REMARK minimizedAffinity 8.4265995
REMARK minimizedRMSD -1
REMARK  0 active torsions:
REMARK  status: ('A' for Active; 'I' for Inactive)
ROOT
ATOM      1  C   UNL d   1       2.000  -0.751   2.277  0.00  0.00     0.078 C 
ATOM      2  C1  UNL d   1       1.042  -1.194   1.211  0.00  0.00    -0.077 A 
ATOM      3  C2  UNL d   1       1.470  -1.992   0.144  0.00  0.00    -0.001 A 
ATOM      4  C3  UNL d   1       0.570  -2.388  -0.846  0.00  0.00     0.003 A 
ATOM      5  C4  UNL d   1      -0.764  -1.990  -0.779  0.00  0.00    -0.005 A 
ATOM      6  C5  UNL d   1      -1.199  -1.194   0.278  0.00  0.00     0.003 A 
ATOM      7  C6  UNL d   1      -0.300  -0.797   1.269  0.00  0.00    -0.001 A 
ENDROOT
TORSDOF 0
ENDMDL
