MODEL 1
REMARK minimizedAffinity 3.62114382
REMARK minimizedRMSD -1
REMARK  0 active torsions:
REMARK  status: ('A' for Active; 'I' for Inactive)
ROOT
ATOM      1  C   UNL d   1       5.675  -2.177   4.760  0.00  0.00     0.078 C 
ATOM      2  C1  UNL d   1       4.228  -2.569   4.697  0.00  0.00    -0.077 A 
ATOM      3  C2  UNL d   1       3.839  -3.909   4.805  0.00  0.00    -0.001 A 
ATOM      4  C3  UNL d   1       2.490  -4.260   4.735  0.00  0.00     0.003 A 
ATOM      5  C4  UNL d   1       1.519  -3.277   4.555  0.00  0.00    -0.005 A 
ATOM      6  C5  UNL d   1       1.897  -1.940   4.445  0.00  0.00     0.003 A 
ATOM      7  C6  UNL d   1       3.246  -1.587   4.515  0.00  0.00    -0.001 A 
ENDROOT
TORSDOF 0
ENDMDL
