MODEL 1
REMARK minimizedAffinity -0.794253051
REMARK minimizedRMSD -1
REMARK  0 active torsions:
REMARK  status: ('A' for Active; 'I' for Inactive)
ROOT
ATOM      1  C   UNL d   1       5.857  -1.812   4.416  0.00  0.00     0.078 C 
ATOM      2  C1  UNL d   1       4.428  -1.785   3.963  0.00  0.00    -0.077 A 
ATOM      3  C2  UNL d   1       3.533  -2.795   4.337  0.00  0.00    -0.001 A 
ATOM      4  C3  UNL d   1       2.208  -2.762   3.899  0.00  0.00     0.003 A 
ATOM      5  C4  UNL d   1       1.766  -1.722   3.083  0.00  0.00    -0.005 A 
ATOM      6  C5  UNL d   1       2.650  -0.714   2.704  0.00  0.00     0.003 A 
ATOM      7  C6  UNL d   1       3.975  -0.745   3.140  0.00  0.00    -0.001 A 
ENDROOT
TORSDOF 0
ENDMDL
