MODEL 1
REMARK minimizedAffinity -2.71560693
REMARK minimizedRMSD -1
REMARK  0 active torsions:
REMARK  status: ('A' for Active; 'I' for Inactive)
ROOT
ATOM      1  C   UNL d   1       5.997  -2.244   5.744  0.00  0.00     0.078 C 
ATOM      2  C1  UNL d   1       4.696  -2.034   5.029  0.00  0.00    -0.077 A 
ATOM      3  C2  UNL d   1       3.482  -2.409   5.617  0.00  0.00    -0.001 A 
ATOM      4  C3  UNL d   1       2.279  -2.217   4.936  0.00  0.00     0.003 A 
ATOM      5  C4  UNL d   1       2.278  -1.650   3.663  0.00  0.00    -0.005 A 
ATOM      6  C5  UNL d   1       3.482  -1.275   3.069  0.00  0.00     0.003 A 
ATOM      7  C6  UNL d   1       4.686  -1.467   3.749  0.00  0.00    -0.001 A 
ENDROOT
TORSDOF 0
ENDMDL
