MODEL 1
REMARK minimizedAffinity 2.54149175
REMARK minimizedRMSD -1
REMARK  0 active torsions:
REMARK  status: ('A' for Active; 'I' for Inactive)
ROOT
ATOM      1  C   UNL d   1       1.675  -1.227   2.697  0.00  0.00     0.078 C 
ATOM      2  C1  UNL d   1       2.482  -1.750   3.848  0.00  0.00    -0.077 A 
ATOM      3  C2  UNL d   1       1.869  -2.418   4.914  0.00  0.00    -0.001 A 
ATOM      4  C3  UNL d   1       2.632  -2.891   5.983  0.00  0.00     0.003 A 
ATOM      5  C4  UNL d   1       4.012  -2.700   5.996  0.00  0.00    -0.005 A 
ATOM      6  C5  UNL d   1       4.631  -2.034   4.940  0.00  0.00     0.003 A 
ATOM      7  C6  UNL d   1       3.870  -1.560   3.871  0.00  0.00    -0.001 A 
ENDROOT
TORSDOF 0
ENDMDL
