MODEL 1
REMARK minimizedAffinity 0.637236297
REMARK minimizedRMSD -1
REMARK  0 active torsions:
REMARK  status: ('A' for Active; 'I' for Inactive)
ROOT
ATOM      1  C   UNL d   1       2.307  -1.860   3.273  0.00  0.00     0.078 C 
ATOM      2  C1  UNL d   1       3.600  -2.189   3.959  0.00  0.00    -0.077 A 
ATOM      3  C2  UNL d   1       4.787  -2.330   3.230  0.00  0.00    -0.001 A 
ATOM      4  C3  UNL d   1       5.981  -2.647   3.880  0.00  0.00     0.003 A 
ATOM      5  C4  UNL d   1       5.999  -2.827   5.262  0.00  0.00    -0.005 A 
ATOM      6  C5  UNL d   1       4.822  -2.691   5.995  0.00  0.00     0.003 A 
ATOM      7  C6  UNL d   1       3.627  -2.374   5.347  0.00  0.00    -0.001 A 
ENDROOT
TORSDOF 0
ENDMDL
