MODEL 1
REMARK minimizedAffinity 4.71620607
REMARK minimizedRMSD -1
REMARK  0 active torsions:
REMARK  status: ('A' for Active; 'I' for Inactive)
ROOT
ATOM      1  C   UNL d   1      -5.975  -1.227  -5.643  0.00  0.00     0.078 C 
ATOM      2  C1  UNL d   1      -5.964  -0.021  -4.751  0.00  0.00    -0.077 A 
ATOM      3  C2  UNL d   1      -5.999  -0.154  -3.358  0.00  0.00    -0.001 A 
ATOM      4  C3  UNL d   1      -5.998   0.977  -2.541  0.00  0.00     0.003 A 
ATOM      5  C4  UNL d   1      -5.962   2.250  -3.108  0.00  0.00    -0.005 A 
ATOM      6  C5  UNL d   1      -5.929   2.392  -4.493  0.00  0.00     0.003 A 
ATOM      7  C6  UNL d   1      -5.930   1.262  -5.312  0.00  0.00    -0.001 A 
ENDROOT
TORSDOF 0
ENDMDL
