MODEL 1
REMARK minimizedAffinity 0.322559774
REMARK minimizedRMSD -1
REMARK  0 active torsions:
REMARK  status: ('A' for Active; 'I' for Inactive)
ROOT
ATOM      1  C   UNL d   1       2.585  -0.349   0.481  0.00  0.00     0.020 A 
ATOM      2  C1  UNL d   1       2.252  -1.145  -0.614  0.00  0.00     0.020 A 
ATOM      3  C2  UNL d   1       1.021  -0.977  -1.252  0.00  0.00     0.034 A 
ATOM      4  C3  UNL d   1       0.119  -0.010  -0.794  0.00  0.00     0.017 A 
ATOM      5  C4  UNL d   1       0.454   0.789   0.305  0.00  0.00     0.017 A 
ATOM      6  C5  UNL d   1       1.688   0.616   0.939  0.00  0.00     0.034 A 
ATOM      7 Cl   UNL d   1      -0.608   2.003   0.926  0.00  0.00    -0.070 Cl
ATOM      8 Cl1  UNL d   1      -1.385   0.145  -1.631  0.00  0.00    -0.070 Cl
ENDROOT
TORSDOF 0
ENDMDL
