MODEL 1
REMARK minimizedAffinity 6.81996679
REMARK minimizedRMSD -1
REMARK  0 active torsions:
REMARK  status: ('A' for Active; 'I' for Inactive)
ROOT
ATOM      1  C   UNL d   1      -0.915   3.228  -2.438  0.00  0.00     0.020 A 
ATOM      2  C1  UNL d   1       0.155   4.086  -2.190  0.00  0.00     0.020 A 
ATOM      3  C2  UNL d   1       1.211   4.167  -3.101  0.00  0.00     0.034 A 
ATOM      4  C3  UNL d   1       1.198   3.388  -4.264  0.00  0.00     0.017 A 
ATOM      5  C4  UNL d   1       0.123   2.526  -4.512  0.00  0.00     0.017 A 
ATOM      6  C5  UNL d   1      -0.931   2.449  -3.596  0.00  0.00     0.034 A 
ATOM      7 Cl   UNL d   1       0.037   1.534  -5.924  0.00  0.00    -0.070 Cl
ATOM      8 Cl1  UNL d   1       2.536   3.538  -5.347  0.00  0.00    -0.070 Cl
ENDROOT
TORSDOF 0
ENDMDL
