MODEL 1
REMARK minimizedAffinity -4.81345654
REMARK minimizedRMSD -1
REMARK  0 active torsions:
REMARK  status: ('A' for Active; 'I' for Inactive)
ROOT
ATOM      1  C   UNL d   1       1.869  -1.579   2.767  0.00  0.00     0.020 A 
ATOM      2  C1  UNL d   1       2.501  -1.616   1.524  0.00  0.00     0.020 A 
ATOM      3  C2  UNL d   1       1.880  -1.049   0.409  0.00  0.00     0.034 A 
ATOM      4  C3  UNL d   1       0.625  -0.443   0.534  0.00  0.00     0.017 A 
ATOM      5  C4  UNL d   1      -0.008  -0.406   1.781  0.00  0.00     0.017 A 
ATOM      6  C5  UNL d   1       0.618  -0.975   2.895  0.00  0.00     0.034 A 
ATOM      7 Cl   UNL d   1      -1.557   0.324   2.014  0.00  0.00    -0.070 Cl
ATOM      8 Cl1  UNL d   1      -0.083   0.238  -0.888  0.00  0.00    -0.070 Cl
ENDROOT
TORSDOF 0
ENDMDL
