MODEL 1
REMARK minimizedAffinity -0.852026105
REMARK minimizedRMSD -1
REMARK  0 active torsions:
REMARK  status: ('A' for Active; 'I' for Inactive)
ROOT
ATOM      1  C   UNL d   1       1.405  -0.575  -0.418  0.00  0.00     0.020 A 
ATOM      2  C1  UNL d   1       0.022  -0.435  -0.533  0.00  0.00     0.020 A 
ATOM      3  C2  UNL d   1      -0.780  -0.465   0.610  0.00  0.00     0.034 A 
ATOM      4  C3  UNL d   1      -0.201  -0.637   1.872  0.00  0.00     0.017 A 
ATOM      5  C4  UNL d   1       1.187  -0.778   1.986  0.00  0.00     0.017 A 
ATOM      6  C5  UNL d   1       1.986  -0.747   0.839  0.00  0.00     0.034 A 
ATOM      7 Cl   UNL d   1       1.975  -0.994   3.510  0.00  0.00    -0.070 Cl
ATOM      8 Cl1  UNL d   1      -1.253  -0.665   3.242  0.00  0.00    -0.070 Cl
ENDROOT
TORSDOF 0
ENDMDL
