MODEL 1
REMARK minimizedAffinity -1.08966291
REMARK minimizedRMSD -1
REMARK  0 active torsions:
REMARK  status: ('A' for Active; 'I' for Inactive)
ROOT
ATOM      1  C   UNL d   1       1.668  -0.411   1.054  0.00  0.00     0.020 A 
ATOM      2  C1  UNL d   1       0.919   0.234   0.071  0.00  0.00     0.020 A 
ATOM      3  C2  UNL d   1      -0.469   0.086   0.042  0.00  0.00     0.034 A 
ATOM      4  C3  UNL d   1      -1.113  -0.709   0.997  0.00  0.00     0.017 A 
ATOM      5  C4  UNL d   1      -0.360  -1.357   1.983  0.00  0.00     0.017 A 
ATOM      6  C5  UNL d   1       1.030  -1.205   2.008  0.00  0.00     0.034 A 
ATOM      7 Cl   UNL d   1      -1.083  -2.355   3.195  0.00  0.00    -0.070 Cl
ATOM      8 Cl1  UNL d   1      -2.832  -0.847   0.900  0.00  0.00    -0.070 Cl
ENDROOT
TORSDOF 0
ENDMDL
