MODEL 1
REMARK minimizedAffinity -1.30431378
REMARK minimizedRMSD -1
REMARK  0 active torsions:
REMARK  status: ('A' for Active; 'I' for Inactive)
ROOT
ATOM      1  C   UNL d   1       0.230   0.245  -0.762  0.00  0.00     0.020 A 
ATOM      2  C1  UNL d   1       1.290  -0.277  -0.021  0.00  0.00     0.020 A 
ATOM      3  C2  UNL d   1       1.048  -0.876   1.217  0.00  0.00     0.034 A 
ATOM      4  C3  UNL d   1      -0.257  -0.955   1.718  0.00  0.00     0.017 A 
ATOM      5  C4  UNL d   1      -1.320  -0.431   0.973  0.00  0.00     0.017 A 
ATOM      6  C5  UNL d   1      -1.072   0.168  -0.266  0.00  0.00     0.034 A 
ATOM      7 Cl   UNL d   1      -2.956  -0.491   1.525  0.00  0.00    -0.070 Cl
ATOM      8 Cl1  UNL d   1      -0.482  -1.710   3.255  0.00  0.00    -0.070 Cl
ENDROOT
TORSDOF 0
ENDMDL
