MODEL 1
REMARK minimizedAffinity -0.114264324
REMARK minimizedRMSD -1
REMARK  0 active torsions:
REMARK  status: ('A' for Active; 'I' for Inactive)
ROOT
ATOM      1  C   UNL d   1       1.731  -0.300   0.678  0.00  0.00     0.020 A 
ATOM      2  C1  UNL d   1       1.090   0.321  -0.394  0.00  0.00     0.020 A 
ATOM      3  C2  UNL d   1      -0.287   0.171  -0.566  0.00  0.00     0.034 A 
ATOM      4  C3  UNL d   1      -1.029  -0.602   0.335  0.00  0.00     0.017 A 
ATOM      5  C4  UNL d   1      -0.386  -1.224   1.410  0.00  0.00     0.017 A 
ATOM      6  C5  UNL d   1       0.994  -1.071   1.578  0.00  0.00     0.034 A 
ATOM      7 Cl   UNL d   1      -1.234  -2.193   2.563  0.00  0.00    -0.070 Cl
ATOM      8 Cl1  UNL d   1      -2.729  -0.744   0.061  0.00  0.00    -0.070 Cl
ENDROOT
TORSDOF 0
ENDMDL
