MODEL 1
REMARK minimizedAffinity 10.657896
REMARK minimizedRMSD -1
REMARK  0 active torsions:
REMARK  status: ('A' for Active; 'I' for Inactive)
ROOT
ATOM      1  C   UNL d   1       2.292  -4.394   0.170  0.00  0.00     0.078 C 
ATOM      2  C1  UNL d   1       1.798  -3.121   0.788  0.00  0.00    -0.077 A 
ATOM      3  C2  UNL d   1       2.667  -2.273   1.485  0.00  0.00    -0.001 A 
ATOM      4  C3  UNL d   1       2.191  -1.095   2.064  0.00  0.00     0.003 A 
ATOM      5  C4  UNL d   1       0.845  -0.755   1.951  0.00  0.00    -0.005 A 
ATOM      6  C5  UNL d   1      -0.028  -1.593   1.261  0.00  0.00     0.003 A 
ATOM      7  C6  UNL d   1       0.446  -2.771   0.683  0.00  0.00    -0.001 A 
ENDROOT
TORSDOF 0
ENDMDL
