MODEL 1
REMARK minimizedAffinity 5.79429626
REMARK minimizedRMSD -1
REMARK  0 active torsions:
REMARK  status: ('A' for Active; 'I' for Inactive)
ROOT
ATOM      1  C   UNL d   1       2.259  -4.950  -0.085  0.00  0.00     0.078 C 
ATOM      2  C1  UNL d   1       1.959  -3.603   0.500  0.00  0.00    -0.077 A 
ATOM      3  C2  UNL d   1       2.971  -2.827   1.080  0.00  0.00    -0.001 A 
ATOM      4  C3  UNL d   1       2.676  -1.579   1.630  0.00  0.00     0.003 A 
ATOM      5  C4  UNL d   1       1.370  -1.095   1.607  0.00  0.00    -0.005 A 
ATOM      6  C5  UNL d   1       0.356  -1.860   1.034  0.00  0.00     0.003 A 
ATOM      7  C6  UNL d   1       0.649  -3.109   0.484  0.00  0.00    -0.001 A 
ENDROOT
TORSDOF 0
ENDMDL
