MODEL 1
REMARK minimizedAffinity 7.72974777
REMARK minimizedRMSD -1
REMARK  0 active torsions:
REMARK  status: ('A' for Active; 'I' for Inactive)
ROOT
ATOM      1  C   UNL d   1       2.716  -5.735   0.167  0.00  0.00     0.078 C 
ATOM      2  C1  UNL d   1       2.379  -4.311   0.493  0.00  0.00    -0.077 A 
ATOM      3  C2  UNL d   1       3.387  -3.356   0.679  0.00  0.00    -0.001 A 
ATOM      4  C3  UNL d   1       3.059  -2.036   0.992  0.00  0.00     0.003 A 
ATOM      5  C4  UNL d   1       1.724  -1.658   1.122  0.00  0.00    -0.005 A 
ATOM      6  C5  UNL d   1       0.715  -2.602   0.940  0.00  0.00     0.003 A 
ATOM      7  C6  UNL d   1       1.041  -3.923   0.628  0.00  0.00    -0.001 A 
ENDROOT
TORSDOF 0
ENDMDL
