MODEL 1
REMARK minimizedAffinity 4.67477751
REMARK minimizedRMSD -1
REMARK  0 active torsions:
REMARK  status: ('A' for Active; 'I' for Inactive)
ROOT
ATOM      1  C   UNL d   1       4.343  -3.027   3.400  0.00  0.00     0.078 C 
ATOM      2  C1  UNL d   1       3.376  -2.733   2.292  0.00  0.00    -0.077 A 
ATOM      3  C2  UNL d   1       2.533  -1.617   2.348  0.00  0.00    -0.001 A 
ATOM      4  C3  UNL d   1       1.631  -1.361   1.314  0.00  0.00     0.003 A 
ATOM      5  C4  UNL d   1       1.563  -2.217   0.217  0.00  0.00    -0.005 A 
ATOM      6  C5  UNL d   1       2.396  -3.332   0.153  0.00  0.00     0.003 A 
ATOM      7  C6  UNL d   1       3.299  -3.589   1.186  0.00  0.00    -0.001 A 
ENDROOT
TORSDOF 0
ENDMDL
