MODEL 1
REMARK minimizedAffinity 6.07197714
REMARK minimizedRMSD -1
REMARK  0 active torsions:
REMARK  status: ('A' for Active; 'I' for Inactive)
ROOT
ATOM      1  C   UNL d   1       2.235  -5.136   0.382  0.00  0.00     0.078 C 
ATOM      2  C1  UNL d   1       1.960  -3.729   0.823  0.00  0.00    -0.077 A 
ATOM      3  C2  UNL d   1       3.007  -2.848   1.120  0.00  0.00    -0.001 A 
ATOM      4  C3  UNL d   1       2.736  -1.544   1.538  0.00  0.00     0.003 A 
ATOM      5  C4  UNL d   1       1.418  -1.110   1.665  0.00  0.00    -0.005 A 
ATOM      6  C5  UNL d   1       0.369  -1.980   1.374  0.00  0.00     0.003 A 
ATOM      7  C6  UNL d   1       0.638  -3.284   0.955  0.00  0.00    -0.001 A 
ENDROOT
TORSDOF 0
ENDMDL
