MODEL 1
REMARK minimizedAffinity 2.63963675
REMARK minimizedRMSD -1
REMARK  0 active torsions:
REMARK  status: ('A' for Active; 'I' for Inactive)
ROOT
ATOM      1  C   UNL d   1       1.886  -5.327   0.125  0.00  0.00     0.078 C 
ATOM      2  C1  UNL d   1       1.836  -3.913   0.623  0.00  0.00    -0.077 A 
ATOM      3  C2  UNL d   1       0.687  -3.130   0.457  0.00  0.00    -0.001 A 
ATOM      4  C3  UNL d   1       0.658  -1.812   0.916  0.00  0.00     0.003 A 
ATOM      5  C4  UNL d   1       1.776  -1.265   1.543  0.00  0.00    -0.005 A 
ATOM      6  C5  UNL d   1       2.925  -2.036   1.710  0.00  0.00     0.003 A 
ATOM      7  C6  UNL d   1       2.955  -3.354   1.251  0.00  0.00    -0.001 A 
ENDROOT
TORSDOF 0
ENDMDL
