MODEL 1
REMARK minimizedAffinity 10.4650993
REMARK minimizedRMSD -1
REMARK  0 active torsions:
REMARK  status: ('A' for Active; 'I' for Inactive)
ROOT
ATOM      1  C   UNL d   1       4.935  -5.312   5.892  0.00  0.00     0.078 C 
ATOM      2  C1  UNL d   1       4.837  -3.817   5.821  0.00  0.00    -0.077 A 
ATOM      3  C2  UNL d   1       3.609  -3.185   5.589  0.00  0.00    -0.001 A 
ATOM      4  C3  UNL d   1       3.535  -1.793   5.516  0.00  0.00     0.003 A 
ATOM      5  C4  UNL d   1       4.685  -1.022   5.673  0.00  0.00    -0.005 A 
ATOM      6  C5  UNL d   1       5.911  -1.642   5.902  0.00  0.00     0.003 A 
ATOM      7  C6  UNL d   1       5.988  -3.034   5.975  0.00  0.00    -0.001 A 
ENDROOT
TORSDOF 0
ENDMDL
