MODEL 1
REMARK minimizedAffinity 3.82958937
REMARK minimizedRMSD -1
REMARK  0 active torsions:
REMARK  status: ('A' for Active; 'I' for Inactive)
ROOT
ATOM      1  C   UNL d   1       5.988  -0.181   0.911  0.00  0.00     0.078 C 
ATOM      2  C1  UNL d   1       5.998   1.301   0.682  0.00  0.00    -0.077 A 
ATOM      3  C2  UNL d   1       5.994   2.197   1.758  0.00  0.00    -0.001 A 
ATOM      4  C3  UNL d   1       5.994   3.574   1.530  0.00  0.00     0.003 A 
ATOM      5  C4  UNL d   1       5.996   4.068   0.227  0.00  0.00    -0.005 A 
ATOM      6  C5  UNL d   1       5.999   3.184  -0.850  0.00  0.00     0.003 A 
ATOM      7  C6  UNL d   1       5.999   1.807  -0.624  0.00  0.00    -0.001 A 
ENDROOT
TORSDOF 0
ENDMDL
