MODEL 1
REMARK minimizedAffinity 5.73275948
REMARK minimizedRMSD -1
REMARK  0 active torsions:
REMARK  status: ('A' for Active; 'I' for Inactive)
ROOT
ATOM      1  C1  DEN d   1       5.809   4.049  -6.000  0.00  0.00     0.130 A 
ATOM      2  C2  DEN d   1       5.155   5.355  -5.999  0.00  0.00    -0.031 A 
ATOM      3  C3  DEN d   1       3.718   5.146  -5.733  0.00  0.00     0.027 A 
ATOM      4  C4  DEN d   1       2.449   2.939  -5.320  0.00  0.00     0.027 A 
ATOM      5  C5  DEN d   1       2.576   1.570  -5.235  0.00  0.00    -0.003 A 
ATOM      6  C6  DEN d   1       3.773   0.934  -5.431  0.00  0.00     0.001 A 
ATOM      7  C7  DEN d   1       4.901   1.671  -5.678  0.00  0.00     0.017 A 
ATOM      8  C8  DEN d   1       4.779   3.051  -5.772  0.00  0.00    -0.094 A 
ATOM      9  C9  DEN d   1       3.563   3.676  -5.558  0.00  0.00    -0.072 A 
ENDROOT
TORSDOF 0
ENDMDL
