MODEL 1
REMARK minimizedAffinity -1.4510653
REMARK minimizedRMSD -1
REMARK  0 active torsions:
REMARK  status: ('A' for Active; 'I' for Inactive)
ROOT
ATOM      1  C1  DEN d   1       1.132   3.790  -5.517  0.00  0.00     0.130 A 
ATOM      2  C2  DEN d   1       0.741   5.195  -5.583  0.00  0.00    -0.031 A 
ATOM      3  C3  DEN d   1       1.964   6.000  -5.783  0.00  0.00     0.027 A 
ATOM      4  C4  DEN d   1       4.409   5.208  -6.000  0.00  0.00     0.027 A 
ATOM      5  C5  DEN d   1       5.237   4.108  -5.996  0.00  0.00    -0.003 A 
ATOM      6  C6  DEN d   1       4.763   2.838  -5.800  0.00  0.00     0.001 A 
ATOM      7  C7  DEN d   1       3.418   2.632  -5.644  0.00  0.00     0.017 A 
ATOM      8  C8  DEN d   1       2.577   3.737  -5.640  0.00  0.00    -0.094 A 
ATOM      9  C9  DEN d   1       3.074   5.012  -5.852  0.00  0.00    -0.072 A 
ENDROOT
TORSDOF 0
ENDMDL
