MODEL 1
REMARK minimizedAffinity -1.3441596
REMARK minimizedRMSD -1
REMARK  0 active torsions:
REMARK  status: ('A' for Active; 'I' for Inactive)
ROOT
ATOM      1  C1  DEN d   1       2.499   6.000  -5.694  0.00  0.00     0.130 A 
ATOM      2  C2  DEN d   1       1.361   5.085  -5.703  0.00  0.00    -0.031 A 
ATOM      3  C3  DEN d   1       1.883   3.708  -5.809  0.00  0.00     0.027 A 
ATOM      4  C4  DEN d   1       4.331   2.908  -5.956  0.00  0.00     0.027 A 
ATOM      5  C5  DEN d   1       5.645   3.317  -5.996  0.00  0.00    -0.003 A 
ATOM      6  C6  DEN d   1       5.999   4.640  -5.973  0.00  0.00     0.001 A 
ATOM      7  C7  DEN d   1       5.028   5.601  -5.862  0.00  0.00     0.017 A 
ATOM      8  C8  DEN d   1       3.700   5.196  -5.828  0.00  0.00    -0.094 A 
ATOM      9  C9  DEN d   1       3.363   3.852  -5.840  0.00  0.00    -0.072 A 
ENDROOT
TORSDOF 0
ENDMDL
