MODEL 1
REMARK minimizedAffinity -4.64221859
REMARK minimizedRMSD -1
REMARK  0 active torsions:
REMARK  status: ('A' for Active; 'I' for Inactive)
ROOT
ATOM      1  C1  DEN d   1       1.627   5.958  -5.992  0.00  0.00     0.130 A 
ATOM      2  C2  DEN d   1       0.386   5.393  -5.471  0.00  0.00    -0.031 A 
ATOM      3  C3  DEN d   1       0.704   4.099  -4.836  0.00  0.00     0.027 A 
ATOM      4  C4  DEN d   1       2.989   2.924  -4.604  0.00  0.00     0.027 A 
ATOM      5  C5  DEN d   1       4.331   3.012  -4.899  0.00  0.00    -0.003 A 
ATOM      6  C6  DEN d   1       4.857   4.062  -5.604  0.00  0.00     0.001 A 
ATOM      7  C7  DEN d   1       4.042   5.091  -5.997  0.00  0.00     0.017 A 
ATOM      8  C8  DEN d   1       2.686   5.006  -5.709  0.00  0.00    -0.094 A 
ATOM      9  C9  DEN d   1       2.176   3.941  -4.986  0.00  0.00    -0.072 A 
ENDROOT
TORSDOF 0
ENDMDL
