MODEL 1
REMARK minimizedAffinity -2.47541928
REMARK minimizedRMSD -1
REMARK  0 active torsions:
REMARK  status: ('A' for Active; 'I' for Inactive)
ROOT
ATOM      1  C1  DEN d   1       1.802   5.634  -4.679  0.00  0.00     0.130 A 
ATOM      2  C2  DEN d   1       0.685   4.985  -5.359  0.00  0.00    -0.031 A 
ATOM      3  C3  DEN d   1       1.193   3.753  -5.996  0.00  0.00     0.027 A 
ATOM      4  C4  DEN d   1       3.586   2.791  -5.991  0.00  0.00     0.027 A 
ATOM      5  C5  DEN d   1       4.877   2.995  -5.557  0.00  0.00    -0.003 A 
ATOM      6  C6  DEN d   1       5.238   4.101  -4.834  0.00  0.00     0.001 A 
ATOM      7  C7  DEN d   1       4.287   5.024  -4.486  0.00  0.00     0.017 A 
ATOM      8  C8  DEN d   1       2.985   4.828  -4.926  0.00  0.00    -0.094 A 
ATOM      9  C9  DEN d   1       2.637   3.697  -5.645  0.00  0.00    -0.072 A 
ENDROOT
TORSDOF 0
ENDMDL
