MODEL 1
REMARK minimizedAffinity 1.9422462
REMARK minimizedRMSD -1
REMARK  0 active torsions:
REMARK  status: ('A' for Active; 'I' for Inactive)
ROOT
ATOM      1  C1  DEN d   1       5.833   4.207  -6.000  0.00  0.00     0.130 A 
ATOM      2  C2  DEN d   1       5.703   5.662  -6.000  0.00  0.00    -0.031 A 
ATOM      3  C3  DEN d   1       4.270   5.992  -5.858  0.00  0.00     0.027 A 
ATOM      4  C4  DEN d   1       2.253   4.400  -5.635  0.00  0.00     0.027 A 
ATOM      5  C5  DEN d   1       1.864   3.080  -5.595  0.00  0.00    -0.003 A 
ATOM      6  C6  DEN d   1       2.760   2.051  -5.720  0.00  0.00     0.001 A 
ATOM      7  C7  DEN d   1       4.096   2.325  -5.846  0.00  0.00     0.017 A 
ATOM      8  C8  DEN d   1       4.495   3.655  -5.895  0.00  0.00    -0.094 A 
ATOM      9  C9  DEN d   1       3.576   4.680  -5.755  0.00  0.00    -0.072 A 
ENDROOT
TORSDOF 0
ENDMDL
