MODEL 1
REMARK minimizedAffinity -2.32864213
REMARK minimizedRMSD -1
REMARK  0 active torsions:
REMARK  status: ('A' for Active; 'I' for Inactive)
ROOT
ATOM      1  C1  DEN d   1       1.559   3.375  -5.630  0.00  0.00     0.130 A 
ATOM      2  C2  DEN d   1       0.795   4.619  -5.674  0.00  0.00    -0.031 A 
ATOM      3  C3  DEN d   1       1.749   5.735  -5.825  0.00  0.00     0.027 A 
ATOM      4  C4  DEN d   1       4.322   5.660  -6.000  0.00  0.00     0.027 A 
ATOM      5  C5  DEN d   1       5.423   4.832  -6.000  0.00  0.00    -0.003 A 
ATOM      6  C6  DEN d   1       5.317   3.475  -5.844  0.00  0.00     0.001 A 
ATOM      7  C7  DEN d   1       4.079   2.900  -5.727  0.00  0.00     0.017 A 
ATOM      8  C8  DEN d   1       2.965   3.729  -5.718  0.00  0.00    -0.094 A 
ATOM      9  C9  DEN d   1       3.092   5.097  -5.889  0.00  0.00    -0.072 A 
ENDROOT
TORSDOF 0
ENDMDL
