MODEL 1
REMARK minimizedAffinity 7.68150139
REMARK minimizedRMSD -1
REMARK  0 active torsions:
REMARK  status: ('A' for Active; 'I' for Inactive)
ROOT
ATOM      1  C1  DEN d   1       3.095   1.440  -5.987  0.00  0.00     0.130 A 
ATOM      2  C2  DEN d   1       4.550   1.565  -6.000  0.00  0.00    -0.031 A 
ATOM      3  C3  DEN d   1       4.884   3.003  -5.985  0.00  0.00     0.027 A 
ATOM      4  C4  DEN d   1       3.300   5.038  -5.939  0.00  0.00     0.027 A 
ATOM      5  C5  DEN d   1       1.980   5.433  -5.932  0.00  0.00    -0.003 A 
ATOM      6  C6  DEN d   1       0.948   4.534  -5.977  0.00  0.00     0.001 A 
ATOM      7  C7  DEN d   1       1.219   3.191  -5.985  0.00  0.00     0.017 A 
ATOM      8  C8  DEN d   1       2.546   2.785  -6.000  0.00  0.00    -0.094 A 
ATOM      9  C9  DEN d   1       3.575   3.709  -5.942  0.00  0.00    -0.072 A 
ENDROOT
TORSDOF 0
ENDMDL
