MODEL 1
REMARK minimizedAffinity -2.64754534
REMARK minimizedRMSD -1
REMARK  0 active torsions:
REMARK  status: ('A' for Active; 'I' for Inactive)
ROOT
ATOM      1  C1  DEN d   1       1.137   4.048  -5.061  0.00  0.00     0.130 A 
ATOM      2  C2  DEN d   1       0.889   5.402  -5.547  0.00  0.00    -0.031 A 
ATOM      3  C3  DEN d   1       2.176   5.967  -6.000  0.00  0.00     0.027 A 
ATOM      4  C4  DEN d   1       4.515   4.880  -6.000  0.00  0.00     0.027 A 
ATOM      5  C5  DEN d   1       5.226   3.747  -5.672  0.00  0.00    -0.003 A 
ATOM      6  C6  DEN d   1       4.635   2.657  -5.091  0.00  0.00     0.001 A 
ATOM      7  C7  DEN d   1       3.285   2.659  -4.861  0.00  0.00     0.017 A 
ATOM      8  C8  DEN d   1       2.562   3.800  -5.182  0.00  0.00    -0.094 A 
ATOM      9  C9  DEN d   1       3.176   4.888  -5.780  0.00  0.00    -0.072 A 
ENDROOT
TORSDOF 0
ENDMDL
