MODEL 1
REMARK minimizedAffinity -2.77282286
REMARK minimizedRMSD -1
REMARK  0 active torsions:
REMARK  status: ('A' for Active; 'I' for Inactive)
ROOT
ATOM      1  C1  DEN d   1       3.788   2.270  -5.076  0.00  0.00     0.130 A 
ATOM      2  C2  DEN d   1       5.064   2.815  -5.530  0.00  0.00    -0.031 A 
ATOM      3  C3  DEN d   1       4.836   4.204  -5.975  0.00  0.00     0.027 A 
ATOM      4  C4  DEN d   1       2.642   5.560  -6.000  0.00  0.00     0.027 A 
ATOM      5  C5  DEN d   1       1.293   5.518  -5.721  0.00  0.00    -0.003 A 
ATOM      6  C6  DEN d   1       0.681   4.390  -5.243  0.00  0.00     0.001 A 
ATOM      7  C7  DEN d   1       1.426   3.270  -4.987  0.00  0.00     0.017 A 
ATOM      8  C8  DEN d   1       2.785   3.301  -5.273  0.00  0.00    -0.094 A 
ATOM      9  C9  DEN d   1       3.388   4.455  -5.744  0.00  0.00    -0.072 A 
ENDROOT
TORSDOF 0
ENDMDL
