MODEL 1
REMARK minimizedAffinity -1.90215588
REMARK minimizedRMSD -1
REMARK  0 active torsions:
REMARK  status: ('A' for Active; 'I' for Inactive)
ROOT
ATOM      1  C1  DEN d   1       4.643   5.998  -5.881  0.00  0.00     0.130 A 
ATOM      2  C2  DEN d   1       5.998   5.459  -5.954  0.00  0.00    -0.031 A 
ATOM      3  C3  DEN d   1       5.902   3.986  -5.995  0.00  0.00     0.027 A 
ATOM      4  C4  DEN d   1       3.798   2.495  -5.959  0.00  0.00     0.027 A 
ATOM      5  C5  DEN d   1       2.422   2.497  -5.890  0.00  0.00    -0.003 A 
ATOM      6  C6  DEN d   1       1.698   3.654  -5.781  0.00  0.00     0.001 A 
ATOM      7  C7  DEN d   1       2.344   4.862  -5.782  0.00  0.00     0.017 A 
ATOM      8  C8  DEN d   1       3.732   4.868  -5.843  0.00  0.00    -0.094 A 
ATOM      9  C9  DEN d   1       4.445   3.688  -5.966  0.00  0.00    -0.072 A 
ENDROOT
TORSDOF 0
ENDMDL
