MODEL 1
REMARK minimizedAffinity 11.5949545
REMARK minimizedRMSD -1
REMARK  0 active torsions:
REMARK  status: ('A' for Active; 'I' for Inactive)
ROOT
ATOM      1  C1  DEN d   1      -3.742  -4.586   5.546  0.00  0.00     0.130 A 
ATOM      2  C2  DEN d   1      -3.462  -5.867   4.903  0.00  0.00    -0.031 A 
ATOM      3  C3  DEN d   1      -2.486  -5.630   3.821  0.00  0.00     0.027 A 
ATOM      4  C4  DEN d   1      -1.384  -3.417   3.085  0.00  0.00     0.027 A 
ATOM      5  C5  DEN d   1      -1.318  -2.062   3.324  0.00  0.00    -0.003 A 
ATOM      6  C6  DEN d   1      -2.074  -1.453   4.290  0.00  0.00     0.001 A 
ATOM      7  C7  DEN d   1      -2.897  -2.208   5.084  0.00  0.00     0.017 A 
ATOM      8  C8  DEN d   1      -2.975  -3.574   4.844  0.00  0.00    -0.094 A 
ATOM      9  C9  DEN d   1      -2.193  -4.172   3.871  0.00  0.00    -0.072 A 
ENDROOT
TORSDOF 0
ENDMDL
