MODEL 1
REMARK minimizedAffinity 0.231891304
REMARK minimizedRMSD -1
REMARK  0 active torsions:
REMARK  status: ('A' for Active; 'I' for Inactive)
ROOT
ATOM      1  C1  DEN d   1       5.953   3.211   1.317  0.00  0.00     0.130 A 
ATOM      2  C2  DEN d   1       4.956   4.185   0.882  0.00  0.00    -0.031 A 
ATOM      3  C3  DEN d   1       3.650   3.501   0.812  0.00  0.00     0.027 A 
ATOM      4  C4  DEN d   1       3.076   1.041   1.337  0.00  0.00     0.027 A 
ATOM      5  C5  DEN d   1       3.594  -0.172   1.732  0.00  0.00    -0.003 A 
ATOM      6  C6  DEN d   1       4.929  -0.350   1.982  0.00  0.00     0.001 A 
ATOM      7  C7  DEN d   1       5.786   0.714   1.883  0.00  0.00     0.017 A 
ATOM      8  C8  DEN d   1       5.272   1.939   1.478  0.00  0.00    -0.094 A 
ATOM      9  C9  DEN d   1       3.918   2.102   1.242  0.00  0.00    -0.072 A 
ENDROOT
TORSDOF 0
ENDMDL
