MODEL 1
REMARK minimizedAffinity 0.160818279
REMARK minimizedRMSD -1
REMARK  0 active torsions:
REMARK  status: ('A' for Active; 'I' for Inactive)
ROOT
ATOM      1  C1  DEN d   1       2.831   1.915  -5.235  0.00  0.00     0.130 A 
ATOM      2  C2  DEN d   1       4.152   1.432  -5.630  0.00  0.00    -0.031 A 
ATOM      3  C3  DEN d   1       4.974   2.602  -6.000  0.00  0.00     0.027 A 
ATOM      4  C4  DEN d   1       4.336   5.101  -5.996  0.00  0.00     0.027 A 
ATOM      5  C5  DEN d   1       3.322   6.000  -5.749  0.00  0.00    -0.003 A 
ATOM      6  C6  DEN d   1       2.074   5.601  -5.350  0.00  0.00     0.001 A 
ATOM      7  C7  DEN d   1       1.820   4.271  -5.142  0.00  0.00     0.017 A 
ATOM      8  C8  DEN d   1       2.835   3.358  -5.396  0.00  0.00    -0.094 A 
ATOM      9  C9  DEN d   1       4.094   3.782  -5.787  0.00  0.00    -0.072 A 
ENDROOT
TORSDOF 0
ENDMDL
