MODEL 1
REMARK minimizedAffinity -3.86955428
REMARK minimizedRMSD -1
REMARK  0 active torsions:
REMARK  status: ('A' for Active; 'I' for Inactive)
ROOT
ATOM      1  C1  DEN d   1       5.277   3.767  -5.503  0.00  0.00     0.130 A 
ATOM      2  C2  DEN d   1       5.148   2.335  -5.760  0.00  0.00    -0.031 A 
ATOM      3  C3  DEN d   1       3.720   2.042  -5.999  0.00  0.00     0.027 A 
ATOM      4  C4  DEN d   1       1.709   3.657  -6.000  0.00  0.00     0.027 A 
ATOM      5  C5  DEN d   1       1.321   4.967  -5.821  0.00  0.00    -0.003 A 
ATOM      6  C6  DEN d   1       2.212   5.954  -5.492  0.00  0.00     0.001 A 
ATOM      7  C7  DEN d   1       3.544   5.655  -5.377  0.00  0.00     0.017 A 
ATOM      8  C8  DEN d   1       3.942   4.336  -5.549  0.00  0.00    -0.094 A 
ATOM      9  C9  DEN d   1       3.028   3.354  -5.893  0.00  0.00    -0.072 A 
ENDROOT
TORSDOF 0
ENDMDL
