MODEL 1
REMARK minimizedAffinity -2.868186
REMARK minimizedRMSD -1
REMARK  0 active torsions:
REMARK  status: ('A' for Active; 'I' for Inactive)
ROOT
ATOM      1  C1  DEN d   1       4.306   1.852  -5.994  0.00  0.00     0.130 A 
ATOM      2  C2  DEN d   1       5.598   2.237  -5.433  0.00  0.00    -0.031 A 
ATOM      3  C3  DEN d   1       5.431   3.535  -4.749  0.00  0.00     0.027 A 
ATOM      4  C4  DEN d   1       3.306   4.976  -4.502  0.00  0.00     0.027 A 
ATOM      5  C5  DEN d   1       1.969   5.068  -4.820  0.00  0.00    -0.003 A 
ATOM      6  C6  DEN d   1       1.330   4.120  -5.574  0.00  0.00     0.001 A 
ATOM      7  C7  DEN d   1       2.018   3.014  -5.998  0.00  0.00     0.017 A 
ATOM      8  C8  DEN d   1       3.369   2.917  -5.688  0.00  0.00    -0.094 A 
ATOM      9  C9  DEN d   1       3.993   3.881  -4.914  0.00  0.00    -0.072 A 
ENDROOT
TORSDOF 0
ENDMDL
