MODEL 1
REMARK minimizedAffinity 0.104027711
REMARK minimizedRMSD -1
REMARK  0 active torsions:
REMARK  status: ('A' for Active; 'I' for Inactive)
ROOT
ATOM      1  C1  BNZ d   1       2.596  -1.762  -0.257  0.00  0.00     0.000 A 
ATOM      2  C2  BNZ d   1       1.855  -0.703   0.195  0.00  0.00     0.000 A 
ATOM      3  C3  BNZ d   1       0.695  -0.907   0.890  0.00  0.00     0.000 A 
ATOM      4  C4  BNZ d   1       0.258  -2.166   1.096  0.00  0.00     0.000 A 
ATOM      5  C5  BNZ d   1       0.990  -3.243   0.639  0.00  0.00     0.000 A 
ATOM      6  C6  BNZ d   1       2.177  -3.036  -0.026  0.00  0.00     0.000 A 
ENDROOT
TORSDOF 0
ENDMDL
