MODEL 1
REMARK minimizedAffinity 5.71572638
REMARK minimizedRMSD -1
REMARK  0 active torsions:
REMARK  status: ('A' for Active; 'I' for Inactive)
ROOT
ATOM      1  C1  BNZ d   1      -0.355  -0.816   1.853  0.00  0.00     0.000 A 
ATOM      2  C2  BNZ d   1      -0.410  -1.998   1.164  0.00  0.00     0.000 A 
ATOM      3  C3  BNZ d   1       0.656  -2.428   0.424  0.00  0.00     0.000 A 
ATOM      4  C4  BNZ d   1       1.759  -1.657   0.342  0.00  0.00     0.000 A 
ATOM      5  C5  BNZ d   1       1.827  -0.458   1.023  0.00  0.00     0.000 A 
ATOM      6  C6  BNZ d   1       0.767  -0.047   1.798  0.00  0.00     0.000 A 
ENDROOT
TORSDOF 0
ENDMDL
