MODEL 1
REMARK minimizedAffinity -3.30761504
REMARK minimizedRMSD -1
REMARK  0 active torsions:
REMARK  status: ('A' for Active; 'I' for Inactive)
ROOT
ATOM      1  C1  BNZ d   1       2.060  -3.977   0.738  0.00  0.00     0.000 A 
ATOM      2  C2  BNZ d   1       1.141  -3.281   1.477  0.00  0.00     0.000 A 
ATOM      3  C3  BNZ d   1       0.750  -2.025   1.104  0.00  0.00     0.000 A 
ATOM      4  C4  BNZ d   1       1.308  -1.452   0.018  0.00  0.00     0.000 A 
ATOM      5  C5  BNZ d   1       2.242  -2.138  -0.732  0.00  0.00     0.000 A 
ATOM      6  C6  BNZ d   1       2.604  -3.417  -0.376  0.00  0.00     0.000 A 
ENDROOT
TORSDOF 0
ENDMDL
