MODEL 1
REMARK minimizedAffinity 6.04716444
REMARK minimizedRMSD -1
REMARK  0 active torsions:
REMARK  status: ('A' for Active; 'I' for Inactive)
ROOT
ATOM      1  C1  BNZ d   1       3.961  -3.361   0.167  0.00  0.00     0.000 A 
ATOM      2  C2  BNZ d   1       3.191  -2.237   0.035  0.00  0.00     0.000 A 
ATOM      3  C3  BNZ d   1       1.833  -2.297   0.185  0.00  0.00     0.000 A 
ATOM      4  C4  BNZ d   1       1.245  -3.486   0.427  0.00  0.00     0.000 A 
ATOM      5  C5  BNZ d   1       2.008  -4.630   0.553  0.00  0.00     0.000 A 
ATOM      6  C6  BNZ d   1       3.377  -4.559   0.440  0.00  0.00     0.000 A 
ENDROOT
TORSDOF 0
ENDMDL
