MODEL 1
REMARK minimizedAffinity -2.86037207
REMARK minimizedRMSD -1
REMARK  0 active torsions:
REMARK  status: ('A' for Active; 'I' for Inactive)
ROOT
ATOM      1  C1  BNZ d   1      -5.576   3.761   5.997  0.00  0.00     0.000 A 
ATOM      2  C2  BNZ d   1      -4.450   4.540   5.999  0.00  0.00     0.000 A 
ATOM      3  C3  BNZ d   1      -3.358   4.194   5.255  0.00  0.00     0.000 A 
ATOM      4  C4  BNZ d   1      -3.377   3.050   4.541  0.00  0.00     0.000 A 
ATOM      5  C5  BNZ d   1      -4.501   2.248   4.536  0.00  0.00     0.000 A 
ATOM      6  C6  BNZ d   1      -5.613   2.620   5.255  0.00  0.00     0.000 A 
ENDROOT
TORSDOF 0
ENDMDL
