MODEL 1
REMARK minimizedAffinity -0.693032265
REMARK minimizedRMSD -1
REMARK  0 active torsions:
REMARK  status: ('A' for Active; 'I' for Inactive)
ROOT
ATOM      1  C1  BNZ d   1      -5.999   2.234   5.060  0.00  0.00     0.000 A 
ATOM      2  C2  BNZ d   1      -5.926   3.228   5.999  0.00  0.00     0.000 A 
ATOM      3  C3  BNZ d   1      -4.885   4.114   6.000  0.00  0.00     0.000 A 
ATOM      4  C4  BNZ d   1      -3.900   3.981   5.089  0.00  0.00     0.000 A 
ATOM      5  C5  BNZ d   1      -3.955   2.978   4.141  0.00  0.00     0.000 A 
ATOM      6  C6  BNZ d   1      -5.024   2.112   4.119  0.00  0.00     0.000 A 
ENDROOT
TORSDOF 0
ENDMDL
