MODEL 1
REMARK minimizedAffinity -1.48154879
REMARK minimizedRMSD -1
REMARK  1 active torsions:
REMARK  status: ('A' for Active; 'I' for Inactive)
REMARK    1  A    between atoms: C1_2  and  C2_3 
ROOT
ATOM      1  C2  UNL d   1      -0.114  -0.354  -0.229  0.00  0.00    -0.076 A 
ATOM      2  C3  UNL d   1      -0.518  -0.671   1.079  0.00  0.00     0.004 A 
ATOM      3  C4  UNL d   1      -0.969  -1.950   1.401  0.00  0.00    -0.003 A 
ATOM      4  C5  UNL d   1      -1.022  -2.933   0.420  0.00  0.00     0.000 A 
ATOM      5  C6  UNL d   1      -0.609  -2.641  -0.880  0.00  0.00     0.000 A 
ATOM      6  C7  UNL d   1      -0.136  -1.361  -1.217  0.00  0.00    -0.073 A 
ATOM      7  C8  UNL d   1       0.292  -1.101  -2.635  0.00  0.00     0.078 C 
ENDROOT
BRANCH   1   8
ATOM      8  C1  UNL d   1       0.340   1.058  -0.525  0.00  0.00     0.053 C 
ATOM      9  C   UNL d   1       1.538   1.473   0.315  0.00  0.00     0.018 C 
ENDBRANCH   1   8
TORSDOF 1
ENDMDL
