MODEL 1
REMARK minimizedAffinity -4.7642622
REMARK minimizedRMSD -1
REMARK  1 active torsions:
REMARK  status: ('A' for Active; 'I' for Inactive)
REMARK    1  A    between atoms: C1_2  and  C2_3 
ROOT
ATOM      1  C2  UNL d   1      -0.562  -0.821   0.496  0.00  0.00    -0.076 A 
ATOM      2  C3  UNL d   1      -0.614   0.373  -0.243  0.00  0.00     0.004 A 
ATOM      3  C4  UNL d   1       0.019   0.480  -1.480  0.00  0.00    -0.003 A 
ATOM      4  C5  UNL d   1       0.715  -0.607  -1.999  0.00  0.00     0.000 A 
ATOM      5  C6  UNL d   1       0.762  -1.805  -1.287  0.00  0.00     0.000 A 
ATOM      6  C7  UNL d   1       0.116  -1.934  -0.046  0.00  0.00    -0.073 A 
ATOM      7  C8  UNL d   1       0.204  -3.248   0.681  0.00  0.00     0.078 C 
ENDROOT
BRANCH   1   8
ATOM      8  C1  UNL d   1      -1.245  -0.869   1.844  0.00  0.00     0.053 C 
ATOM      9  C   UNL d   1      -2.513  -0.030   1.885  0.00  0.00     0.018 C 
ENDBRANCH   1   8
TORSDOF 1
ENDMDL
