MODEL 1
REMARK minimizedAffinity -0.830051184
REMARK minimizedRMSD -1
REMARK  1 active torsions:
REMARK  status: ('A' for Active; 'I' for Inactive)
REMARK    1  A    between atoms: C1_2  and  C2_3 
ROOT
ATOM      1  C2  UNL d   1       0.913   3.318   0.276  0.00  0.00    -0.076 A 
ATOM      2  C3  UNL d   1      -0.300   3.896   0.689  0.00  0.00     0.004 A 
ATOM      3  C4  UNL d   1      -0.327   4.872   1.684  0.00  0.00    -0.003 A 
ATOM      4  C5  UNL d   1       0.859   5.286   2.281  0.00  0.00     0.000 A 
ATOM      5  C6  UNL d   1       2.073   4.735   1.871  0.00  0.00     0.000 A 
ATOM      6  C7  UNL d   1       2.119   3.762   0.858  0.00  0.00    -0.073 A 
ATOM      7  C8  UNL d   1       3.455   3.198   0.460  0.00  0.00     0.078 C 
ENDROOT
BRANCH   1   8
ATOM      8  C1  UNL d   1       0.878   2.244  -0.788  0.00  0.00     0.053 C 
ATOM      9  C   UNL d   1       0.023   1.052  -0.386  0.00  0.00     0.018 C 
ENDBRANCH   1   8
TORSDOF 1
ENDMDL
