MODEL 1
REMARK minimizedAffinity -0.880277991
REMARK minimizedRMSD -1
REMARK  1 active torsions:
REMARK  status: ('A' for Active; 'I' for Inactive)
REMARK    1  A    between atoms: C1_2  and  C2_3 
ROOT
ATOM      1  C2  UNL d   1       0.796   1.767   0.194  0.00  0.00    -0.076 A 
ATOM      2  C3  UNL d   1       2.200   1.808   0.142  0.00  0.00     0.004 A 
ATOM      3  C4  UNL d   1       2.897   2.963   0.494  0.00  0.00    -0.003 A 
ATOM      4  C5  UNL d   1       2.201   4.094   0.905  0.00  0.00     0.000 A 
ATOM      5  C6  UNL d   1       0.809   4.065   0.980  0.00  0.00     0.000 A 
ATOM      6  C7  UNL d   1       0.092   2.904   0.644  0.00  0.00    -0.073 A 
ATOM      7  C8  UNL d   1      -1.409   2.930   0.737  0.00  0.00     0.078 C 
ENDROOT
BRANCH   1   8
ATOM      8  C1  UNL d   1       0.093   0.495  -0.226  0.00  0.00     0.053 C 
ATOM      9  C   UNL d   1       0.144   0.271  -1.729  0.00  0.00     0.018 C 
ENDBRANCH   1   8
TORSDOF 1
ENDMDL
