MODEL 1
REMARK minimizedAffinity -3.13852954
REMARK minimizedRMSD -1
REMARK  1 active torsions:
REMARK  status: ('A' for Active; 'I' for Inactive)
REMARK    1  A    between atoms: C1_2  and  C2_3 
ROOT
ATOM      1  C2  UNL d   1      -0.875   0.420   0.357  0.00  0.00    -0.076 A 
ATOM      2  C3  UNL d   1      -1.511   1.620  -0.007  0.00  0.00     0.004 A 
ATOM      3  C4  UNL d   1      -2.626   2.081   0.691  0.00  0.00    -0.003 A 
ATOM      4  C5  UNL d   1      -3.123   1.350   1.765  0.00  0.00     0.000 A 
ATOM      5  C6  UNL d   1      -2.494   0.167   2.151  0.00  0.00     0.000 A 
ATOM      6  C7  UNL d   1      -1.359  -0.304   1.468  0.00  0.00    -0.073 A 
ATOM      7  C8  UNL d   1      -0.724  -1.589   1.923  0.00  0.00     0.078 C 
ENDROOT
BRANCH   1   8
ATOM      8  C1  UNL d   1       0.314  -0.045  -0.454  0.00  0.00     0.053 C 
ATOM      9  C   UNL d   1      -0.058  -0.392  -1.887  0.00  0.00     0.018 C 
ENDBRANCH   1   8
TORSDOF 1
ENDMDL
