MODEL 1
REMARK minimizedAffinity -3.49138618
REMARK minimizedRMSD -1
REMARK  1 active torsions:
REMARK  status: ('A' for Active; 'I' for Inactive)
REMARK    1  A    between atoms: C1_2  and  C2_3 
ROOT
ATOM      1  C2  UNL d   1       0.457  -0.291   0.111  0.00  0.00    -0.076 A 
ATOM      2  C3  UNL d   1       0.574  -1.138   1.227  0.00  0.00     0.004 A 
ATOM      3  C4  UNL d   1       0.510  -2.523   1.086  0.00  0.00    -0.003 A 
ATOM      4  C5  UNL d   1       0.329  -3.084  -0.174  0.00  0.00     0.000 A 
ATOM      5  C6  UNL d   1       0.229  -2.260  -1.294  0.00  0.00     0.000 A 
ATOM      6  C7  UNL d   1       0.308  -0.862  -1.171  0.00  0.00    -0.073 A 
ATOM      7  C8  UNL d   1       0.188  -0.020  -2.412  0.00  0.00     0.078 C 
ENDROOT
BRANCH   1   8
ATOM      8  C1  UNL d   1       0.507   1.204   0.328  0.00  0.00     0.053 C 
ATOM      9  C   UNL d   1       1.884   1.685   0.760  0.00  0.00     0.018 C 
ENDBRANCH   1   8
TORSDOF 1
ENDMDL
