MODEL 1
REMARK minimizedAffinity -0.0994308069
REMARK minimizedRMSD -1
REMARK  1 active torsions:
REMARK  status: ('A' for Active; 'I' for Inactive)
REMARK    1  A    between atoms: C1_2  and  C2_3 
ROOT
ATOM      1  C2  UNL d   1      -0.437  -1.579   0.364  0.00  0.00    -0.076 A 
ATOM      2  C3  UNL d   1       0.018  -1.517  -0.965  0.00  0.00     0.004 A 
ATOM      3  C4  UNL d   1       0.375  -0.301  -1.544  0.00  0.00    -0.003 A 
ATOM      4  C5  UNL d   1       0.283   0.873  -0.804  0.00  0.00     0.000 A 
ATOM      5  C6  UNL d   1      -0.151   0.828   0.520  0.00  0.00     0.000 A 
ATOM      6  C7  UNL d   1      -0.499  -0.393   1.125  0.00  0.00    -0.073 A 
ATOM      7  C8  UNL d   1      -0.965  -0.383   2.555  0.00  0.00     0.078 C 
ENDROOT
BRANCH   1   8
ATOM      8  C1  UNL d   1      -0.836  -2.924   0.930  0.00  0.00     0.053 C 
ATOM      9  C   UNL d   1       0.092  -4.043   0.483  0.00  0.00     0.018 C 
ENDBRANCH   1   8
TORSDOF 1
ENDMDL
