MODEL 1
REMARK minimizedAffinity 4.14574003
REMARK minimizedRMSD -1
REMARK  1 active torsions:
REMARK  status: ('A' for Active; 'I' for Inactive)
REMARK    1  A    between atoms: C1_2  and  C2_3 
ROOT
ATOM      1  C2  UNL d   1       0.085   2.463   1.990  0.00  0.00    -0.076 A 
ATOM      2  C3  UNL d   1      -0.256   3.290   0.905  0.00  0.00     0.004 A 
ATOM      3  C4  UNL d   1      -1.082   2.827  -0.118  0.00  0.00    -0.003 A 
ATOM      4  C5  UNL d   1      -1.581   1.530  -0.072  0.00  0.00     0.000 A 
ATOM      5  C6  UNL d   1      -1.267   0.702   1.005  0.00  0.00     0.000 A 
ATOM      6  C7  UNL d   1      -0.449   1.159   2.053  0.00  0.00    -0.073 A 
ATOM      7  C8  UNL d   1      -0.138   0.221   3.187  0.00  0.00     0.078 C 
ENDROOT
BRANCH   1   8
ATOM      8  C1  UNL d   1       1.007   3.011   3.056  0.00  0.00     0.053 C 
ATOM      9  C   UNL d   1       0.590   4.394   3.533  0.00  0.00     0.018 C 
ENDBRANCH   1   8
TORSDOF 1
ENDMDL
