MODEL 1
REMARK minimizedAffinity 9.60615158
REMARK minimizedRMSD -1
REMARK  1 active torsions:
REMARK  status: ('A' for Active; 'I' for Inactive)
REMARK    1  A    between atoms: C1_2  and  C2_3 
ROOT
ATOM      1  C2  UNL d   1      -3.035  -3.916  -2.246  0.00  0.00    -0.076 A 
ATOM      2  C3  UNL d   1      -2.356  -2.799  -1.729  0.00  0.00     0.004 A 
ATOM      3  C4  UNL d   1      -1.019  -2.564  -2.042  0.00  0.00    -0.003 A 
ATOM      4  C5  UNL d   1      -0.338  -3.443  -2.877  0.00  0.00     0.000 A 
ATOM      5  C6  UNL d   1      -1.000  -4.546  -3.414  0.00  0.00     0.000 A 
ATOM      6  C7  UNL d   1      -2.354  -4.789  -3.121  0.00  0.00    -0.073 A 
ATOM      7  C8  UNL d   1      -3.017  -5.997  -3.722  0.00  0.00     0.078 C 
ENDROOT
BRANCH   1   8
ATOM      8  C1  UNL d   1      -4.478  -4.134  -1.850  0.00  0.00     0.053 C 
ATOM      9  C   UNL d   1      -4.850  -3.395  -0.574  0.00  0.00     0.018 C 
ENDBRANCH   1   8
TORSDOF 1
ENDMDL
