MODEL 1
REMARK minimizedAffinity -6.190588
REMARK minimizedRMSD -1
REMARK  1 active torsions:
REMARK  status: ('A' for Active; 'I' for Inactive)
REMARK    1  A    between atoms: C1_2  and  C2_3 
ROOT
ATOM      1  C2  UNL d   1      -0.063  -2.291  -1.786  0.00  0.00    -0.076 A 
ATOM      2  C3  UNL d   1      -0.834  -1.149  -1.507  0.00  0.00     0.004 A 
ATOM      3  C4  UNL d   1      -0.230   0.057  -1.156  0.00  0.00    -0.003 A 
ATOM      4  C5  UNL d   1       1.156   0.141  -1.080  0.00  0.00     0.000 A 
ATOM      5  C6  UNL d   1       1.938  -0.977  -1.371  0.00  0.00     0.000 A 
ATOM      6  C7  UNL d   1       1.344  -2.196  -1.742  0.00  0.00    -0.073 A 
ATOM      7  C8  UNL d   1       2.235  -3.371  -2.039  0.00  0.00     0.078 C 
ENDROOT
BRANCH   1   8
ATOM      8  C1  UNL d   1      -0.775  -3.578  -2.134  0.00  0.00     0.053 C 
ATOM      9  C   UNL d   1      -2.279  -3.395  -2.266  0.00  0.00     0.018 C 
ENDBRANCH   1   8
TORSDOF 1
ENDMDL
