MODEL 1
REMARK minimizedAffinity 3.31225991
REMARK minimizedRMSD -1
REMARK  1 active torsions:
REMARK  status: ('A' for Active; 'I' for Inactive)
REMARK    1  A    between atoms: C1_2  and  C2_3 
ROOT
ATOM      1  C2  UNL d   1      -1.179   2.889   1.574  0.00  0.00    -0.076 A 
ATOM      2  C3  UNL d   1      -1.604   3.974   2.361  0.00  0.00     0.004 A 
ATOM      3  C4  UNL d   1      -0.748   4.569   3.286  0.00  0.00    -0.003 A 
ATOM      4  C5  UNL d   1       0.548   4.089   3.438  0.00  0.00     0.000 A 
ATOM      5  C6  UNL d   1       0.993   3.026   2.654  0.00  0.00     0.000 A 
ATOM      6  C7  UNL d   1       0.148   2.425   1.705  0.00  0.00    -0.073 A 
ATOM      7  C8  UNL d   1       0.678   1.278   0.890  0.00  0.00     0.078 C 
ENDROOT
BRANCH   1   8
ATOM      8  C1  UNL d   1      -2.160   2.267   0.607  0.00  0.00     0.053 C 
ATOM      9  C   UNL d   1      -3.378   1.684   1.307  0.00  0.00     0.018 C 
ENDBRANCH   1   8
TORSDOF 1
ENDMDL
