MODEL 1
REMARK minimizedAffinity 8.82775974
REMARK minimizedRMSD -1
REMARK  1 active torsions:
REMARK  status: ('A' for Active; 'I' for Inactive)
REMARK    1  A    between atoms: C1_2  and  C2_3 
ROOT
ATOM      1  C2  UNL d   1      -0.512  -3.452  -2.116  0.00  0.00    -0.076 A 
ATOM      2  C3  UNL d   1      -1.083  -4.676  -2.506  0.00  0.00     0.004 A 
ATOM      3  C4  UNL d   1      -2.406  -4.982  -2.192  0.00  0.00    -0.003 A 
ATOM      4  C5  UNL d   1      -3.179  -4.069  -1.483  0.00  0.00     0.000 A 
ATOM      5  C6  UNL d   1      -2.635  -2.843  -1.104  0.00  0.00     0.000 A 
ATOM      6  C7  UNL d   1      -1.308  -2.511  -1.427  0.00  0.00    -0.073 A 
ATOM      7  C8  UNL d   1      -0.769  -1.177  -0.988  0.00  0.00     0.078 C 
ENDROOT
BRANCH   1   8
ATOM      8  C1  UNL d   1       0.936  -3.186  -2.461  0.00  0.00     0.053 C 
ATOM      9  C   UNL d   1       1.873  -3.459  -1.295  0.00  0.00     0.018 C 
ENDBRANCH   1   8
TORSDOF 1
ENDMDL
