MODEL 1
REMARK minimizedAffinity 6.35810184
REMARK minimizedRMSD -1
REMARK  1 active torsions:
REMARK  status: ('A' for Active; 'I' for Inactive)
REMARK    1  A    between atoms: C1_2  and  C2_3 
ROOT
ATOM      1  C2  UNL d   1       4.739  -3.337   4.738  0.00  0.00    -0.076 A 
ATOM      2  C3  UNL d   1       3.534  -3.511   5.441  0.00  0.00     0.004 A 
ATOM      3  C4  UNL d   1       2.348  -3.806   4.770  0.00  0.00    -0.003 A 
ATOM      4  C5  UNL d   1       2.348  -3.932   3.386  0.00  0.00     0.000 A 
ATOM      5  C6  UNL d   1       3.537  -3.779   2.674  0.00  0.00     0.000 A 
ATOM      6  C7  UNL d   1       4.745  -3.498   3.336  0.00  0.00    -0.073 A 
ATOM      7  C8  UNL d   1       5.996  -3.338   2.517  0.00  0.00     0.078 C 
ENDROOT
BRANCH   1   8
ATOM      8  C1  UNL d   1       5.988  -2.991   5.516  0.00  0.00     0.053 C 
ATOM      9  C   UNL d   1       5.994  -1.549   5.999  0.00  0.00     0.018 C 
ENDBRANCH   1   8
TORSDOF 1
ENDMDL
