MODEL 1
REMARK minimizedAffinity 0.817787051
REMARK minimizedRMSD -1
REMARK  0 active torsions:
REMARK  status: ('A' for Active; 'I' for Inactive)
ROOT
ATOM      1  C2' OXE d   1       1.136  -1.858   3.714  0.00  0.00     0.078 C 
ATOM      2  C1' OXE d   1       2.263  -0.157   1.786  0.00  0.00     0.078 C 
ATOM      3  C1  OXE d   1       0.759  -0.194   1.899  0.00  0.00    -0.078 A 
ATOM      4  C2  OXE d   1       0.215  -1.064   2.814  0.00  0.00    -0.078 A 
ATOM      5  C3  OXE d   1      -1.165  -1.097   2.997  0.00  0.00     0.003 A 
ATOM      6  C4  OXE d   1      -2.010  -0.366   2.153  0.00  0.00    -0.002 A 
ATOM      7  C5  OXE d   1      -1.477   0.496   1.189  0.00  0.00    -0.002 A 
ATOM      8  C6  OXE d   1      -0.097   0.626   1.078  0.00  0.00     0.003 A 
ENDROOT
TORSDOF 0
ENDMDL
