MODEL 1
REMARK minimizedAffinity 6.64621449
REMARK minimizedRMSD -1
REMARK  0 active torsions:
REMARK  status: ('A' for Active; 'I' for Inactive)
ROOT
ATOM      1  C2' OXE d   1      -2.042  -0.770   2.604  0.00  0.00     0.078 C 
ATOM      2  C1' OXE d   1       0.040  -0.016   0.879  0.00  0.00     0.078 C 
ATOM      3  C1  OXE d   1       0.402  -0.787   2.123  0.00  0.00    -0.078 A 
ATOM      4  C2  OXE d   1      -0.618  -1.112   2.985  0.00  0.00    -0.078 A 
ATOM      5  C3  OXE d   1      -0.346  -1.870   4.120  0.00  0.00     0.003 A 
ATOM      6  C4  OXE d   1       0.976  -2.173   4.470  0.00  0.00    -0.002 A 
ATOM      7  C5  OXE d   1       2.033  -1.818   3.626  0.00  0.00    -0.002 A 
ATOM      8  C6  OXE d   1       1.760  -1.163   2.430  0.00  0.00     0.003 A 
ENDROOT
TORSDOF 0
ENDMDL
