MODEL 1
REMARK minimizedAffinity -3.86339664
REMARK minimizedRMSD -1
REMARK  0 active torsions:
REMARK  status: ('A' for Active; 'I' for Inactive)
ROOT
ATOM      1  C2' OXE d   1      -2.672  -1.425   3.036  0.00  0.00     0.078 C 
ATOM      2  C1' OXE d   1      -1.332   0.408   1.386  0.00  0.00     0.078 C 
ATOM      3  C1  OXE d   1      -0.498  -0.578   2.165  0.00  0.00    -0.078 A 
ATOM      4  C2  OXE d   1      -1.159  -1.440   3.006  0.00  0.00    -0.078 A 
ATOM      5  C3  OXE d   1      -0.442  -2.406   3.707  0.00  0.00     0.003 A 
ATOM      6  C4  OXE d   1       0.958  -2.406   3.681  0.00  0.00    -0.002 A 
ATOM      7  C5  OXE d   1       1.653  -1.511   2.862  0.00  0.00    -0.002 A 
ATOM      8  C6  OXE d   1       0.941  -0.620   2.067  0.00  0.00     0.003 A 
ENDROOT
TORSDOF 0
ENDMDL
