MODEL 1
REMARK minimizedAffinity -2.77715349
REMARK minimizedRMSD -1
REMARK  0 active torsions:
REMARK  status: ('A' for Active; 'I' for Inactive)
ROOT
ATOM      1  C2' OXE d   1       1.980  -5.668  -1.965  0.00  0.00     0.078 C 
ATOM      2  C1' OXE d   1      -0.800  -5.702  -2.356  0.00  0.00     0.078 C 
ATOM      3  C1  OXE d   1       0.083  -5.761  -3.578  0.00  0.00    -0.078 A 
ATOM      4  C2  OXE d   1       1.442  -5.696  -3.379  0.00  0.00    -0.078 A 
ATOM      5  C3  OXE d   1       2.303  -5.802  -4.468  0.00  0.00     0.003 A 
ATOM      6  C4  OXE d   1       1.797  -5.818  -5.773  0.00  0.00    -0.002 A 
ATOM      7  C5  OXE d   1       0.417  -5.844  -5.999  0.00  0.00    -0.002 A 
ATOM      8  C6  OXE d   1      -0.451  -5.859  -4.913  0.00  0.00     0.003 A 
ENDROOT
TORSDOF 0
ENDMDL
