MODEL 1
REMARK minimizedAffinity 0.786163986
REMARK minimizedRMSD -1
REMARK  0 active torsions:
REMARK  status: ('A' for Active; 'I' for Inactive)
ROOT
ATOM      1  C2' OXE d   1      -0.743   0.003   3.240  0.00  0.00     0.078 C 
ATOM      2  C1' OXE d   1      -2.523  -1.970   2.334  0.00  0.00     0.078 C 
ATOM      3  C1  OXE d   1      -2.135  -0.876   1.370  0.00  0.00    -0.078 A 
ATOM      4  C2  OXE d   1      -1.301   0.110   1.837  0.00  0.00    -0.078 A 
ATOM      5  C3  OXE d   1      -0.868   1.113   0.973  0.00  0.00     0.003 A 
ATOM      6  C4  OXE d   1      -1.396   1.211  -0.320  0.00  0.00    -0.002 A 
ATOM      7  C5  OXE d   1      -2.279   0.238  -0.802  0.00  0.00    -0.002 A 
ATOM      8  C6  OXE d   1      -2.624  -0.833   0.015  0.00  0.00     0.003 A 
ENDROOT
TORSDOF 0
ENDMDL
