MODEL 1
REMARK minimizedAffinity -1.63904202
REMARK minimizedRMSD -1
REMARK  0 active torsions:
REMARK  status: ('A' for Active; 'I' for Inactive)
ROOT
ATOM      1  C2' OXE d   1      -2.945  -1.341   3.022  0.00  0.00     0.078 C 
ATOM      2  C1' OXE d   1      -1.243  -2.784   4.725  0.00  0.00     0.078 C 
ATOM      3  C1  OXE d   1      -0.611  -1.824   3.748  0.00  0.00    -0.078 A 
ATOM      4  C2  OXE d   1      -1.449  -1.156   2.887  0.00  0.00    -0.078 A 
ATOM      5  C3  OXE d   1      -0.923  -0.218   2.003  0.00  0.00     0.003 A 
ATOM      6  C4  OXE d   1       0.462  -0.061   1.878  0.00  0.00    -0.002 A 
ATOM      7  C5  OXE d   1       1.335  -0.760   2.718  0.00  0.00    -0.002 A 
ATOM      8  C6  OXE d   1       0.814  -1.612   3.685  0.00  0.00     0.003 A 
ENDROOT
TORSDOF 0
ENDMDL
