MODEL 1
REMARK minimizedAffinity 6.65071011
REMARK minimizedRMSD -1
REMARK  0 active torsions:
REMARK  status: ('A' for Active; 'I' for Inactive)
ROOT
ATOM      1  C2' OXE d   1      -1.523  -0.623   2.679  0.00  0.00     0.078 C 
ATOM      2  C1' OXE d   1       0.914  -0.179   1.358  0.00  0.00     0.078 C 
ATOM      3  C1  OXE d   1       0.957  -0.861   2.703  0.00  0.00    -0.078 A 
ATOM      4  C2  OXE d   1      -0.236  -1.033   3.363  0.00  0.00    -0.078 A 
ATOM      5  C3  OXE d   1      -0.260  -1.705   4.581  0.00  0.00     0.003 A 
ATOM      6  C4  OXE d   1       0.936  -2.071   5.212  0.00  0.00    -0.002 A 
ATOM      7  C5  OXE d   1       2.165  -1.870   4.575  0.00  0.00    -0.002 A 
ATOM      8  C6  OXE d   1       2.190  -1.306   3.304  0.00  0.00     0.003 A 
ENDROOT
TORSDOF 0
ENDMDL
