MODEL 1
REMARK minimizedAffinity -2.03445101
REMARK minimizedRMSD -1
REMARK  0 active torsions:
REMARK  status: ('A' for Active; 'I' for Inactive)
ROOT
ATOM      1  C2' OXE d   1       0.509  -0.826   1.495  0.00  0.00     0.078 C 
ATOM      2  C1' OXE d   1      -1.186  -2.292   3.186  0.00  0.00     0.078 C 
ATOM      3  C1  OXE d   1       0.143  -1.841   3.740  0.00  0.00    -0.078 A 
ATOM      4  C2  OXE d   1       0.985  -1.164   2.891  0.00  0.00    -0.078 A 
ATOM      5  C3  OXE d   1       2.199  -0.678   3.367  0.00  0.00     0.003 A 
ATOM      6  C4  OXE d   1       2.637  -1.004   4.656  0.00  0.00    -0.002 A 
ATOM      7  C5  OXE d   1       1.811  -1.726   5.525  0.00  0.00    -0.002 A 
ATOM      8  C6  OXE d   1       0.546  -2.115   5.097  0.00  0.00     0.003 A 
ENDROOT
TORSDOF 0
ENDMDL
