MODEL 1
REMARK minimizedAffinity -5.87249422
REMARK minimizedRMSD -1
REMARK  0 active torsions:
REMARK  status: ('A' for Active; 'I' for Inactive)
ROOT
ATOM      1  C2' OXE d   1       2.446  -1.452   3.859  0.00  0.00     0.078 C 
ATOM      2  C1' OXE d   1       1.274   0.262   1.970  0.00  0.00     0.078 C 
ATOM      3  C1  OXE d   1       0.358  -0.481   2.910  0.00  0.00    -0.078 A 
ATOM      4  C2  OXE d   1       0.937  -1.353   3.800  0.00  0.00    -0.078 A 
ATOM      5  C3  OXE d   1       0.142  -2.023   4.726  0.00  0.00     0.003 A 
ATOM      6  C4  OXE d   1      -1.253  -1.934   4.658  0.00  0.00    -0.002 A 
ATOM      7  C5  OXE d   1      -1.866  -1.082   3.733  0.00  0.00    -0.002 A 
ATOM      8  C6  OXE d   1      -1.075  -0.318   2.882  0.00  0.00     0.003 A 
ENDROOT
TORSDOF 0
ENDMDL
