MODEL 1
REMARK minimizedAffinity 0.189797416
REMARK minimizedRMSD -1
REMARK  0 active torsions:
REMARK  status: ('A' for Active; 'I' for Inactive)
ROOT
ATOM      1  C2' OXE d   1       2.011  -1.265   3.762  0.00  0.00     0.078 C 
ATOM      2  C1' OXE d   1       1.266  -0.495   1.167  0.00  0.00     0.078 C 
ATOM      3  C1  OXE d   1       0.167  -0.750   2.168  0.00  0.00    -0.078 A 
ATOM      4  C2  OXE d   1       0.539  -1.171   3.422  0.00  0.00    -0.078 A 
ATOM      5  C3  OXE d   1      -0.432  -1.368   4.399  0.00  0.00     0.003 A 
ATOM      6  C4  OXE d   1      -1.792  -1.289   4.074  0.00  0.00    -0.002 A 
ATOM      7  C5  OXE d   1      -2.193  -0.899   2.791  0.00  0.00    -0.002 A 
ATOM      8  C6  OXE d   1      -1.228  -0.585   1.841  0.00  0.00     0.003 A 
ENDROOT
TORSDOF 0
ENDMDL
