MODEL 1
REMARK minimizedAffinity -3.72480774
REMARK minimizedRMSD -1
REMARK  0 active torsions:
REMARK  status: ('A' for Active; 'I' for Inactive)
ROOT
ATOM      1  C2' OXE d   1       1.487  -1.490   3.847  0.00  0.00     0.078 C 
ATOM      2  C1' OXE d   1       1.227  -0.178   1.379  0.00  0.00     0.078 C 
ATOM      3  C1  OXE d   1      -0.034  -0.626   2.074  0.00  0.00    -0.078 A 
ATOM      4  C2  OXE d   1       0.104  -1.308   3.258  0.00  0.00    -0.078 A 
ATOM      5  C3  OXE d   1      -1.029  -1.696   3.968  0.00  0.00     0.003 A 
ATOM      6  C4  OXE d   1      -2.303  -1.533   3.411  0.00  0.00    -0.002 A 
ATOM      7  C5  OXE d   1      -2.465  -0.876   2.186  0.00  0.00    -0.002 A 
ATOM      8  C6  OXE d   1      -1.346  -0.380   1.527  0.00  0.00     0.003 A 
ENDROOT
TORSDOF 0
ENDMDL
