MODEL 1
REMARK minimizedAffinity -0.559548557
REMARK minimizedRMSD -1
REMARK  0 active torsions:
REMARK  status: ('A' for Active; 'I' for Inactive)
ROOT
ATOM      1  C2' OXE d   1      -2.114  -0.056   2.635  0.00  0.00     0.078 C 
ATOM      2  C1' OXE d   1      -0.114   0.207   0.683  0.00  0.00     0.078 C 
ATOM      3  C1  OXE d   1       0.262  -0.440   1.992  0.00  0.00    -0.078 A 
ATOM      4  C2  OXE d   1      -0.711  -0.523   2.959  0.00  0.00    -0.078 A 
ATOM      5  C3  OXE d   1      -0.432  -1.160   4.165  0.00  0.00     0.003 A 
ATOM      6  C4  OXE d   1       0.870  -1.580   4.460  0.00  0.00    -0.002 A 
ATOM      7  C5  OXE d   1       1.886  -1.469   3.505  0.00  0.00    -0.002 A 
ATOM      8  C6  OXE d   1       1.589  -0.941   2.253  0.00  0.00     0.003 A 
ENDROOT
TORSDOF 0
ENDMDL
