MODEL 1
REMARK minimizedAffinity 10.4200439
REMARK minimizedRMSD -1
REMARK  0 active torsions:
REMARK  status: ('A' for Active; 'I' for Inactive)
ROOT
ATOM      1  C   UNL d   1      -0.337  -0.000   0.855  0.00  0.00    -0.002 A 
ATOM      2  C1  UNL d   1      -1.469  -0.222   1.626  0.00  0.00     0.010 A 
ATOM      3  C2  UNL d   1      -1.376  -0.887   2.850  0.00  0.00     0.041 A 
ATOM      4  C3  UNL d   1      -0.113  -1.327   3.292  0.00  0.00    -0.075 A 
ATOM      5  S   UNL d   1       0.243  -2.162   4.758  0.00  0.00     0.015 SA
ATOM      6  C4  UNL d   1       1.906  -2.242   4.396  0.00  0.00     0.022 A 
ATOM      7  C5  UNL d   1       2.201  -1.652   3.190  0.00  0.00     0.026 A 
ATOM      8  C6  UNL d   1       1.042  -1.114   2.534  0.00  0.00    -0.082 A 
ATOM      9  C7  UNL d   1       0.914  -0.438   1.297  0.00  0.00     0.045 A 
ENDROOT
TORSDOF 0
ENDMDL
