MODEL 1
REMARK minimizedAffinity -1.53553867
REMARK minimizedRMSD -1
REMARK  0 active torsions:
REMARK  status: ('A' for Active; 'I' for Inactive)
ROOT
ATOM      1  C   UNL d   1       0.723  -2.590   3.841  0.00  0.00    -0.002 A 
ATOM      2  C1  UNL d   1      -0.622  -2.918   3.939  0.00  0.00     0.010 A 
ATOM      3  C2  UNL d   1      -1.588  -2.158   3.277  0.00  0.00     0.041 A 
ATOM      4  C3  UNL d   1      -1.176  -1.053   2.506  0.00  0.00    -0.075 A 
ATOM      5  S   UNL d   1      -2.182   0.021   1.608  0.00  0.00     0.015 SA
ATOM      6  C4  UNL d   1      -0.850   0.940   1.072  0.00  0.00     0.022 A 
ATOM      7  C5  UNL d   1       0.341   0.454   1.558  0.00  0.00     0.026 A 
ATOM      8  C6  UNL d   1       0.173  -0.703   2.392  0.00  0.00    -0.082 A 
ATOM      9  C7  UNL d   1       1.128  -1.493   3.076  0.00  0.00     0.045 A 
ENDROOT
TORSDOF 0
ENDMDL
