MODEL 1
REMARK minimizedAffinity 3.86773396
REMARK minimizedRMSD -1
REMARK  0 active torsions:
REMARK  status: ('A' for Active; 'I' for Inactive)
ROOT
ATOM      1  C   UNL d   1      -2.638  -1.034   3.061  0.00  0.00    -0.002 A 
ATOM      2  C1  UNL d   1      -1.998  -1.372   4.245  0.00  0.00     0.010 A 
ATOM      3  C2  UNL d   1      -0.604  -1.380   4.321  0.00  0.00     0.041 A 
ATOM      4  C3  UNL d   1       0.143  -1.038   3.177  0.00  0.00    -0.075 A 
ATOM      5  S   UNL d   1       1.861  -0.979   3.036  0.00  0.00     0.015 SA
ATOM      6  C4  UNL d   1       1.785  -0.503   1.402  0.00  0.00     0.022 A 
ATOM      7  C5  UNL d   1       0.489  -0.387   0.958  0.00  0.00     0.026 A 
ATOM      8  C6  UNL d   1      -0.479  -0.693   1.974  0.00  0.00    -0.082 A 
ATOM      9  C7  UNL d   1      -1.894  -0.695   1.928  0.00  0.00     0.045 A 
ENDROOT
TORSDOF 0
ENDMDL
