MODEL 1
REMARK minimizedAffinity 0.177423716
REMARK minimizedRMSD -1
REMARK  0 active torsions:
REMARK  status: ('A' for Active; 'I' for Inactive)
ROOT
ATOM      1  C   UNL d   1       2.481  -0.484   1.862  0.00  0.00    -0.002 A 
ATOM      2  C1  UNL d   1       1.500   0.039   1.032  0.00  0.00     0.010 A 
ATOM      3  C2  UNL d   1       0.148  -0.157   1.319  0.00  0.00     0.041 A 
ATOM      4  C3  UNL d   1      -0.206  -0.893   2.467  0.00  0.00    -0.075 A 
ATOM      5  S   UNL d   1      -1.798  -1.259   3.017  0.00  0.00     0.015 SA
ATOM      6  C4  UNL d   1      -1.214  -2.117   4.369  0.00  0.00     0.022 A 
ATOM      7  C5  UNL d   1       0.160  -2.134   4.414  0.00  0.00     0.026 A 
ATOM      8  C6  UNL d   1       0.764  -1.429   3.319  0.00  0.00    -0.082 A 
ATOM      9  C7  UNL d   1       2.126  -1.214   3.000  0.00  0.00     0.045 A 
ENDROOT
TORSDOF 0
ENDMDL
