MODEL 1
REMARK minimizedAffinity 9.27307034
REMARK minimizedRMSD -1
REMARK  0 active torsions:
REMARK  status: ('A' for Active; 'I' for Inactive)
ROOT
ATOM      1  C   UNL d   1      -0.661  -0.216   1.698  0.00  0.00    -0.002 A 
ATOM      2  C1  UNL d   1       0.634  -0.211   1.200  0.00  0.00     0.010 A 
ATOM      3  C2  UNL d   1       1.693  -0.693   1.972  0.00  0.00     0.041 A 
ATOM      4  C3  UNL d   1       1.425  -1.187   3.264  0.00  0.00    -0.075 A 
ATOM      5  S   UNL d   1       2.564  -1.828   4.389  0.00  0.00     0.015 SA
ATOM      6  C4  UNL d   1       1.358  -2.124   5.555  0.00  0.00     0.022 A 
ATOM      7  C5  UNL d   1       0.111  -1.748   5.115  0.00  0.00     0.026 A 
ATOM      8  C6  UNL d   1       0.129  -1.203   3.787  0.00  0.00    -0.082 A 
ATOM      9  C7  UNL d   1      -0.923  -0.706   2.980  0.00  0.00     0.045 A 
ENDROOT
TORSDOF 0
ENDMDL
