MODEL 1
REMARK minimizedAffinity 11.5560856
REMARK minimizedRMSD -1
REMARK  0 active torsions:
REMARK  status: ('A' for Active; 'I' for Inactive)
ROOT
ATOM      1  C   UNL d   1       2.167  -5.049  -5.998  0.00  0.00    -0.002 A 
ATOM      2  C1  UNL d   1       3.034  -4.592  -5.016  0.00  0.00     0.010 A 
ATOM      3  C2  UNL d   1       2.648  -4.587  -3.674  0.00  0.00     0.041 A 
ATOM      4  C3  UNL d   1       1.364  -5.055  -3.333  0.00  0.00    -0.075 A 
ATOM      5  S   UNL d   1       0.675  -5.142  -1.755  0.00  0.00     0.015 SA
ATOM      6  C4  UNL d   1      -0.787  -5.789  -2.347  0.00  0.00     0.022 A 
ATOM      7  C5  UNL d   1      -0.767  -5.941  -3.714  0.00  0.00     0.026 A 
ATOM      8  C6  UNL d   1       0.473  -5.520  -4.304  0.00  0.00    -0.082 A 
ATOM      9  C7  UNL d   1       0.894  -5.512  -5.656  0.00  0.00     0.045 A 
ENDROOT
TORSDOF 0
ENDMDL
