MODEL 1
REMARK minimizedAffinity -1.47204268
REMARK minimizedRMSD -1
REMARK  0 active torsions:
REMARK  status: ('A' for Active; 'I' for Inactive)
ROOT
ATOM      1  C   UNL d   1      -0.922  -0.394   0.663  0.00  0.00    -0.002 A 
ATOM      2  C1  UNL d   1      -1.993  -0.361   1.544  0.00  0.00     0.010 A 
ATOM      3  C2  UNL d   1      -1.802  -0.614   2.904  0.00  0.00     0.041 A 
ATOM      4  C3  UNL d   1      -0.503  -0.902   3.368  0.00  0.00    -0.075 A 
ATOM      5  S   UNL d   1      -0.031  -1.243   4.991  0.00  0.00     0.015 SA
ATOM      6  C4  UNL d   1       1.605  -1.439   4.552  0.00  0.00     0.022 A 
ATOM      7  C5  UNL d   1       1.803  -1.252   3.205  0.00  0.00     0.026 A 
ATOM      8  C6  UNL d   1       0.592  -0.939   2.500  0.00  0.00    -0.082 A 
ATOM      9  C7  UNL d   1       0.365  -0.679   1.127  0.00  0.00     0.045 A 
ENDROOT
TORSDOF 0
ENDMDL
