MODEL 1
REMARK minimizedAffinity 5.5261817
REMARK minimizedRMSD -1
REMARK  0 active torsions:
REMARK  status: ('A' for Active; 'I' for Inactive)
ROOT
ATOM      1  C   UNL d   1       0.952   0.418   0.992  0.00  0.00    -0.002 A 
ATOM      2  C1  UNL d   1      -0.379   0.067   0.819  0.00  0.00     0.010 A 
ATOM      3  C2  UNL d   1      -0.977  -0.882   1.650  0.00  0.00     0.041 A 
ATOM      4  C3  UNL d   1      -0.208  -1.478   2.668  0.00  0.00    -0.075 A 
ATOM      5  S   UNL d   1      -0.728  -2.664   3.806  0.00  0.00     0.015 SA
ATOM      6  C4  UNL d   1       0.804  -2.733   4.549  0.00  0.00     0.022 A 
ATOM      7  C5  UNL d   1       1.703  -1.878   3.956  0.00  0.00     0.026 A 
ATOM      8  C6  UNL d   1       1.135  -1.141   2.863  0.00  0.00    -0.082 A 
ATOM      9  C7  UNL d   1       1.712  -0.175   2.003  0.00  0.00     0.045 A 
ENDROOT
TORSDOF 0
ENDMDL
