MODEL 1
REMARK minimizedAffinity 6.07044172
REMARK minimizedRMSD -1
REMARK  0 active torsions:
REMARK  status: ('A' for Active; 'I' for Inactive)
ROOT
ATOM      1  C   UNL d   1      -0.462  -2.834   4.510  0.00  0.00    -0.002 A 
ATOM      2  C1  UNL d   1       0.836  -2.603   4.945  0.00  0.00     0.010 A 
ATOM      3  C2  UNL d   1       1.675  -1.735   4.245  0.00  0.00     0.041 A 
ATOM      4  C3  UNL d   1       1.183  -1.095   3.090  0.00  0.00    -0.075 A 
ATOM      5  S   UNL d   1       2.030   0.010   2.073  0.00  0.00     0.015 SA
ATOM      6  C4  UNL d   1       0.690   0.202   1.039  0.00  0.00     0.022 A 
ATOM      7  C5  UNL d   1      -0.386  -0.551   1.444  0.00  0.00     0.026 A 
ATOM      8  C6  UNL d   1      -0.120  -1.311   2.633  0.00  0.00    -0.082 A 
ATOM      9  C7  UNL d   1      -0.946  -2.198   3.365  0.00  0.00     0.045 A 
ENDROOT
TORSDOF 0
ENDMDL
