MODEL 1
REMARK minimizedAffinity 6.64292049
REMARK minimizedRMSD -1
REMARK  0 active torsions:
REMARK  status: ('A' for Active; 'I' for Inactive)
ROOT
ATOM      1  C   UNL d   1       0.746  -5.878  -5.999  0.00  0.00    -0.002 A 
ATOM      2  C1  UNL d   1       2.016  -5.318  -5.998  0.00  0.00     0.010 A 
ATOM      3  C2  UNL d   1       2.573  -4.826  -4.816  0.00  0.00     0.041 A 
ATOM      4  C3  UNL d   1       1.827  -4.909  -3.624  0.00  0.00    -0.075 A 
ATOM      5  S   UNL d   1       2.307  -4.372  -2.057  0.00  0.00     0.015 SA
ATOM      6  C4  UNL d   1       0.838  -4.874  -1.354  0.00  0.00     0.022 A 
ATOM      7  C5  UNL d   1      -0.009  -5.439  -2.277  0.00  0.00     0.026 A 
ATOM      8  C6  UNL d   1       0.547  -5.469  -3.600  0.00  0.00    -0.082 A 
ATOM      9  C7  UNL d   1       0.009  -5.959  -4.815  0.00  0.00     0.045 A 
ENDROOT
TORSDOF 0
ENDMDL
