MODEL 1
REMARK minimizedAffinity -4.32836056
REMARK minimizedRMSD -1
REMARK  1 active torsions:
REMARK  status: ('A' for Active; 'I' for Inactive)
REMARK    1  A    between atoms: N_2  and  C1_3 
ROOT
ATOM      1  C1  UNL d   1      -0.207  -0.442  -0.279  0.00  0.00     0.143 A 
ATOM      2  C2  UNL d   1       1.017  -0.502   0.394  0.00  0.00    -0.057 A 
ATOM      3  C3  UNL d   1       1.075  -0.631   1.787  0.00  0.00     0.033 A 
ATOM      4  C4  UNL d   1      -0.096  -0.672   2.537  0.00  0.00    -0.042 A 
ATOM      5  C5  UNL d   1      -1.325  -0.589   1.891  0.00  0.00     0.033 A 
ATOM      6  C6  UNL d   1      -1.376  -0.467   0.499  0.00  0.00    -0.057 A 
ENDROOT
BRANCH   1   7
ATOM      7  N   UNL d   1      -0.330  -0.215  -1.652  0.00  0.00    -0.732 N 
ATOM      8  C   UNL d   1      -1.105   0.901  -2.148  0.00  0.00     0.284 C 
ATOM      9  H3  UNL d   1       0.544  -0.369  -2.150  0.00  0.00     0.395 HD
ENDBRANCH   1   7
TORSDOF 1
ENDMDL
