MODEL 1
REMARK minimizedAffinity -0.608113647
REMARK minimizedRMSD -1
REMARK  1 active torsions:
REMARK  status: ('A' for Active; 'I' for Inactive)
REMARK    1  A    between atoms: N_2  and  C1_3 
ROOT
ATOM      1  C1  UNL d   1       0.085   0.131   0.291  0.00  0.00     0.143 A 
ATOM      2  C2  UNL d   1      -0.729  -0.665   1.105  0.00  0.00    -0.057 A 
ATOM      3  C3  UNL d   1      -0.261  -1.177   2.321  0.00  0.00     0.033 A 
ATOM      4  C4  UNL d   1       1.044  -0.925   2.733  0.00  0.00    -0.042 A 
ATOM      5  C5  UNL d   1       1.878  -0.158   1.928  0.00  0.00     0.033 A 
ATOM      6  C6  UNL d   1       1.403   0.356   0.718  0.00  0.00    -0.057 A 
ENDROOT
BRANCH   1   7
ATOM      7  N   UNL d   1      -0.290   0.587  -0.975  0.00  0.00    -0.732 N 
ATOM      8  C   UNL d   1      -0.130   1.980  -1.333  0.00  0.00     0.284 C 
ATOM      9  H3  UNL d   1      -0.034  -0.064  -1.714  0.00  0.00     0.395 HD
ENDBRANCH   1   7
TORSDOF 1
ENDMDL
