MODEL 1
REMARK minimizedAffinity -1.89903569
REMARK minimizedRMSD -1
REMARK  1 active torsions:
REMARK  status: ('A' for Active; 'I' for Inactive)
REMARK    1  A    between atoms: N_2  and  C1_3 
ROOT
ATOM      1  C1  UNL d   1      -0.302   0.339  -1.196  0.00  0.00     0.143 A 
ATOM      2  C2  UNL d   1       0.785  -0.176  -1.911  0.00  0.00    -0.057 A 
ATOM      3  C3  UNL d   1       1.933  -0.636  -1.255  0.00  0.00     0.033 A 
ATOM      4  C4  UNL d   1       2.026  -0.562   0.131  0.00  0.00    -0.042 A 
ATOM      5  C5  UNL d   1       0.968  -0.031   0.860  0.00  0.00     0.033 A 
ATOM      6  C6  UNL d   1      -0.178   0.421   0.200  0.00  0.00    -0.057 A 
ENDROOT
BRANCH   1   7
ATOM      7  N   UNL d   1      -1.430   0.904  -1.796  0.00  0.00    -0.732 N 
ATOM      8  C   UNL d   1      -1.444   2.301  -2.173  0.00  0.00     0.284 C 
ATOM      9  H3  UNL d   1      -1.856   0.284  -2.482  0.00  0.00     0.395 HD
ENDBRANCH   1   7
TORSDOF 1
ENDMDL
