MODEL 1
REMARK minimizedAffinity -2.71863651
REMARK minimizedRMSD -1
REMARK  1 active torsions:
REMARK  status: ('A' for Active; 'I' for Inactive)
REMARK    1  A    between atoms: N_2  and  C1_3 
ROOT
ATOM      1  C1  UNL d   1      -0.420   0.264  -0.697  0.00  0.00     0.143 A 
ATOM      2  C2  UNL d   1      -1.332  -0.252   0.229  0.00  0.00    -0.057 A 
ATOM      3  C3  UNL d   1      -0.907  -0.760   1.463  0.00  0.00     0.033 A 
ATOM      4  C4  UNL d   1       0.447  -0.787   1.781  0.00  0.00    -0.042 A 
ATOM      5  C5  UNL d   1       1.375  -0.302   0.865  0.00  0.00     0.033 A 
ATOM      6  C6  UNL d   1       0.943   0.210  -0.362  0.00  0.00    -0.057 A 
ENDROOT
BRANCH   1   7
ATOM      7  N   UNL d   1      -0.771   0.692  -1.979  0.00  0.00    -0.732 N 
ATOM      8  C   UNL d   1      -0.715   2.095  -2.329  0.00  0.00     0.284 C 
ATOM      9  H3  UNL d   1      -0.425   0.068  -2.705  0.00  0.00     0.395 HD
ENDBRANCH   1   7
TORSDOF 1
ENDMDL
