MODEL 1
REMARK minimizedAffinity -2.80147147
REMARK minimizedRMSD -1
REMARK  1 active torsions:
REMARK  status: ('A' for Active; 'I' for Inactive)
REMARK    1  A    between atoms: N_2  and  C1_3 
ROOT
ATOM      1  C1  UNL d   1      -0.805  -1.227   2.347  0.00  0.00     0.143 A 
ATOM      2  C2  UNL d   1       0.569  -1.000   2.481  0.00  0.00    -0.057 A 
ATOM      3  C3  UNL d   1       1.259  -0.171   1.588  0.00  0.00     0.033 A 
ATOM      4  C4  UNL d   1       0.589   0.425   0.524  0.00  0.00    -0.042 A 
ATOM      5  C5  UNL d   1      -0.771   0.194   0.357  0.00  0.00     0.033 A 
ATOM      6  C6  UNL d   1      -1.456  -0.630   1.256  0.00  0.00    -0.057 A 
ENDROOT
BRANCH   1   7
ATOM      7  N   UNL d   1      -1.527  -2.119   3.143  0.00  0.00    -0.732 N 
ATOM      8  C   UNL d   1      -1.249  -3.538   3.100  0.00  0.00     0.284 C 
ATOM      9  H3  UNL d   1      -1.694  -1.756   4.079  0.00  0.00     0.395 HD
ENDBRANCH   1   7
TORSDOF 1
ENDMDL
