MODEL 1
REMARK minimizedAffinity -1.97829378
REMARK minimizedRMSD -1
REMARK  1 active torsions:
REMARK  status: ('A' for Active; 'I' for Inactive)
REMARK    1  A    between atoms: N_2  and  C1_3 
ROOT
ATOM      1  C1  UNL d   1      -0.252   0.306  -1.516  0.00  0.00     0.143 A 
ATOM      2  C2  UNL d   1       0.767  -0.560  -1.928  0.00  0.00    -0.057 A 
ATOM      3  C3  UNL d   1       1.712  -1.053  -1.021  0.00  0.00     0.033 A 
ATOM      4  C4  UNL d   1       1.673  -0.664   0.314  0.00  0.00    -0.042 A 
ATOM      5  C5  UNL d   1       0.684   0.215   0.741  0.00  0.00     0.033 A 
ATOM      6  C6  UNL d   1      -0.261   0.699  -0.169  0.00  0.00    -0.057 A 
ENDROOT
BRANCH   1   7
ATOM      7  N   UNL d   1      -1.162   0.907  -2.389  0.00  0.00    -0.732 N 
ATOM      8  C   UNL d   1      -0.903   2.223  -2.932  0.00  0.00     0.284 C 
ATOM      9  H3  UNL d   1      -1.548   0.249  -3.061  0.00  0.00     0.395 HD
ENDBRANCH   1   7
TORSDOF 1
ENDMDL
