MODEL 1
REMARK minimizedAffinity -4.91085434
REMARK minimizedRMSD -1
REMARK  1 active torsions:
REMARK  status: ('A' for Active; 'I' for Inactive)
REMARK    1  A    between atoms: N_2  and  C1_3 
ROOT
ATOM      1  C1  UNL d   1       0.387  -0.689   0.885  0.00  0.00     0.143 A 
ATOM      2  C2  UNL d   1       0.488  -1.120   2.212  0.00  0.00    -0.057 A 
ATOM      3  C3  UNL d   1       1.511  -1.985   2.619  0.00  0.00     0.033 A 
ATOM      4  C4  UNL d   1       2.437  -2.459   1.696  0.00  0.00    -0.042 A 
ATOM      5  C5  UNL d   1       2.341  -2.064   0.366  0.00  0.00     0.033 A 
ATOM      6  C6  UNL d   1       1.321  -1.195  -0.033  0.00  0.00    -0.057 A 
ENDROOT
BRANCH   1   7
ATOM      7  N   UNL d   1      -0.665   0.092   0.399  0.00  0.00    -0.732 N 
ATOM      8  C   UNL d   1      -0.763   0.400  -1.012  0.00  0.00     0.284 C 
ATOM      9  H3  UNL d   1      -1.554  -0.137   0.837  0.00  0.00     0.395 HD
ENDBRANCH   1   7
TORSDOF 1
ENDMDL
