MODEL 1
REMARK minimizedAffinity -2.30237508
REMARK minimizedRMSD -1
REMARK  1 active torsions:
REMARK  status: ('A' for Active; 'I' for Inactive)
REMARK    1  A    between atoms: N_2  and  C1_3 
ROOT
ATOM      1  C1  UNL d   1      -0.212  -0.324  -0.140  0.00  0.00     0.143 A 
ATOM      2  C2  UNL d   1       0.929  -0.647   0.603  0.00  0.00    -0.057 A 
ATOM      3  C3  UNL d   1       0.859  -0.854   1.986  0.00  0.00     0.033 A 
ATOM      4  C4  UNL d   1      -0.352  -0.713   2.657  0.00  0.00    -0.042 A 
ATOM      5  C5  UNL d   1      -1.493  -0.368   1.942  0.00  0.00     0.033 A 
ATOM      6  C6  UNL d   1      -1.419  -0.170   0.560  0.00  0.00    -0.057 A 
ENDROOT
BRANCH   1   7
ATOM      7  N   UNL d   1      -0.190  -0.010  -1.501  0.00  0.00    -0.732 N 
ATOM      8  C   UNL d   1      -1.115   0.958  -2.049  0.00  0.00     0.284 C 
ATOM      9  H3  UNL d   1       0.757   0.066  -1.867  0.00  0.00     0.395 HD
ENDBRANCH   1   7
TORSDOF 1
ENDMDL
