MODEL 1
REMARK minimizedAffinity 0.095849067
REMARK minimizedRMSD -1
REMARK  1 active torsions:
REMARK  status: ('A' for Active; 'I' for Inactive)
REMARK    1  A    between atoms: C3_4  and  O_7 
ROOT
ATOM      1  C   UNL d   1       6.000   4.849  -5.412  0.00  0.00    -0.033 A 
ATOM      2  C1  UNL d   1       5.349   5.955  -5.961  0.00  0.00     0.039 A 
ATOM      3  C2  UNL d   1       3.954   6.000  -5.998  0.00  0.00    -0.080 A 
ATOM      4  C3  UNL d   1       3.222   4.934  -5.481  0.00  0.00     0.150 A 
ATOM      5  C4  UNL d   1       3.864   3.830  -4.929  0.00  0.00    -0.007 A 
ATOM      6  C5  UNL d   1       5.257   3.787  -4.895  0.00  0.00     0.039 A 
ENDROOT
BRANCH   4   7
ATOM      7  O   UNL d   1       1.859   4.930  -5.499  0.00  0.00    -0.526 OA
ATOM      8  H5  UNL d   1       1.555   5.743  -5.936  0.00  0.00     0.418 HD
ENDBRANCH   4   7
TORSDOF 1
ENDMDL
