MODEL 1
REMARK minimizedAffinity -0.15919365
REMARK minimizedRMSD -1
REMARK  1 active torsions:
REMARK  status: ('A' for Active; 'I' for Inactive)
REMARK    1  A    between atoms: C3_4  and  O_7 
ROOT
ATOM      1  C   UNL d   1      -0.392   5.984  -3.183  0.00  0.00    -0.033 A 
ATOM      2  C1  UNL d   1      -0.476   5.979  -1.789  0.00  0.00     0.039 A 
ATOM      3  C2  UNL d   1      -1.724   5.983  -1.163  0.00  0.00    -0.080 A 
ATOM      4  C3  UNL d   1      -2.879   5.991  -1.941  0.00  0.00     0.150 A 
ATOM      5  C4  UNL d   1      -2.803   5.992  -3.330  0.00  0.00    -0.007 A 
ATOM      6  C5  UNL d   1      -1.556   5.990  -3.953  0.00  0.00     0.039 A 
ENDROOT
BRANCH   4   7
ATOM      7  O   UNL d   1      -4.119   5.999  -1.375  0.00  0.00    -0.526 OA
ATOM      8  H5  UNL d   1      -4.016   6.026  -0.409  0.00  0.00     0.418 HD
ENDBRANCH   4   7
TORSDOF 1
ENDMDL
