MODEL 1
REMARK minimizedAffinity 6.41916132
REMARK minimizedRMSD -1
REMARK  1 active torsions:
REMARK  status: ('A' for Active; 'I' for Inactive)
REMARK    1  A    between atoms: C3_4  and  O_7 
ROOT
ATOM      1  C   UNL d   1      -1.076  -0.720   1.864  0.00  0.00    -0.033 A 
ATOM      2  C1  UNL d   1       0.046  -0.157   2.476  0.00  0.00     0.039 A 
ATOM      3  C2  UNL d   1       0.775   0.838   1.821  0.00  0.00    -0.080 A 
ATOM      4  C3  UNL d   1       0.373   1.260   0.557  0.00  0.00     0.150 A 
ATOM      5  C4  UNL d   1      -0.746   0.706  -0.057  0.00  0.00    -0.007 A 
ATOM      6  C5  UNL d   1      -1.472  -0.287   0.598  0.00  0.00     0.039 A 
ENDROOT
BRANCH   4   7
ATOM      7  O   UNL d   1       1.056   2.224  -0.123  0.00  0.00    -0.526 OA
ATOM      8  H5  UNL d   1       1.822   2.494   0.411  0.00  0.00     0.418 HD
ENDBRANCH   4   7
TORSDOF 1
ENDMDL
