MODEL 1
REMARK minimizedAffinity -1.03514731
REMARK minimizedRMSD -1
REMARK  1 active torsions:
REMARK  status: ('A' for Active; 'I' for Inactive)
REMARK    1  A    between atoms: C3_4  and  O_7 
ROOT
ATOM      1  C   UNL d   1       0.392   5.990  -3.318  0.00  0.00    -0.033 A 
ATOM      2  C1  UNL d   1      -0.120   5.985  -4.617  0.00  0.00     0.039 A 
ATOM      3  C2  UNL d   1      -1.501   5.985  -4.825  0.00  0.00    -0.080 A 
ATOM      4  C3  UNL d   1      -2.357   5.991  -3.728  0.00  0.00     0.150 A 
ATOM      5  C4  UNL d   1      -1.854   6.000  -2.431  0.00  0.00    -0.007 A 
ATOM      6  C5  UNL d   1      -0.475   5.999  -2.225  0.00  0.00     0.039 A 
ENDROOT
BRANCH   4   7
ATOM      7  O   UNL d   1      -3.712   5.986  -3.881  0.00  0.00    -0.526 OA
ATOM      8  H5  UNL d   1      -3.914   5.950  -4.831  0.00  0.00     0.418 HD
ENDBRANCH   4   7
TORSDOF 1
ENDMDL
