MODEL 1
REMARK minimizedAffinity -0.452313125
REMARK minimizedRMSD -1
REMARK  1 active torsions:
REMARK  status: ('A' for Active; 'I' for Inactive)
REMARK    1  A    between atoms: C3_4  and  O_7 
ROOT
ATOM      1  C   UNL d   1      -1.347   5.983  -1.645  0.00  0.00    -0.033 A 
ATOM      2  C1  UNL d   1      -1.594   5.984  -3.020  0.00  0.00     0.039 A 
ATOM      3  C2  UNL d   1      -2.906   5.989  -3.495  0.00  0.00    -0.080 A 
ATOM      4  C3  UNL d   1      -3.962   5.996  -2.588  0.00  0.00     0.150 A 
ATOM      5  C4  UNL d   1      -3.724   5.999  -1.217  0.00  0.00    -0.007 A 
ATOM      6  C5  UNL d   1      -2.412   5.993  -0.744  0.00  0.00     0.039 A 
ENDROOT
BRANCH   4   7
ATOM      7  O   UNL d   1      -5.260   5.997  -3.005  0.00  0.00    -0.526 OA
ATOM      8  H5  UNL d   1      -5.271   5.965  -3.976  0.00  0.00     0.418 HD
ENDBRANCH   4   7
TORSDOF 1
ENDMDL
