MODEL 1
REMARK minimizedAffinity 0.302200675
REMARK minimizedRMSD -1
REMARK  1 active torsions:
REMARK  status: ('A' for Active; 'I' for Inactive)
REMARK    1  A    between atoms: C3_4  and  O_7 
ROOT
ATOM      1  C   UNL d   1       1.122   2.914   1.721  0.00  0.00    -0.033 A 
ATOM      2  C1  UNL d   1       1.375   2.597   0.385  0.00  0.00     0.039 A 
ATOM      3  C2  UNL d   1       1.215   1.285  -0.066  0.00  0.00    -0.080 A 
ATOM      4  C3  UNL d   1       0.801   0.301   0.827  0.00  0.00     0.150 A 
ATOM      5  C4  UNL d   1       0.544   0.610   2.159  0.00  0.00    -0.007 A 
ATOM      6  C5  UNL d   1       0.705   1.920   2.607  0.00  0.00     0.039 A 
ENDROOT
BRANCH   4   7
ATOM      7  O   UNL d   1       0.636  -0.994   0.434  0.00  0.00    -0.526 OA
ATOM      8  H5  UNL d   1       0.878  -1.064  -0.504  0.00  0.00     0.418 HD
ENDBRANCH   4   7
TORSDOF 1
ENDMDL
