MODEL 1
REMARK minimizedAffinity 7.20703602
REMARK minimizedRMSD -1
REMARK  1 active torsions:
REMARK  status: ('A' for Active; 'I' for Inactive)
REMARK    1  A    between atoms: C3_4  and  O_7 
ROOT
ATOM      1  C   UNL d   1       4.223   4.853  -5.295  0.00  0.00    -0.033 A 
ATOM      2  C1  UNL d   1       3.449   3.863  -4.687  0.00  0.00     0.039 A 
ATOM      3  C2  UNL d   1       2.055   3.939  -4.731  0.00  0.00    -0.080 A 
ATOM      4  C3  UNL d   1       1.449   5.007  -5.386  0.00  0.00     0.150 A 
ATOM      5  C4  UNL d   1       2.215   5.995  -5.998  0.00  0.00    -0.007 A 
ATOM      6  C5  UNL d   1       3.606   5.918  -5.952  0.00  0.00     0.039 A 
ENDROOT
BRANCH   4   7
ATOM      7  O   UNL d   1       0.093   5.127  -5.451  0.00  0.00    -0.526 OA
ATOM      8  H5  UNL d   1      -0.305   4.388  -4.961  0.00  0.00     0.418 HD
ENDBRANCH   4   7
TORSDOF 1
ENDMDL
