MODEL 1
REMARK minimizedAffinity -1.29188406
REMARK minimizedRMSD -1
REMARK  1 active torsions:
REMARK  status: ('A' for Active; 'I' for Inactive)
REMARK    1  A    between atoms: C3_4  and  O_7 
ROOT
ATOM      1  C   UNL d   1       0.147   5.994  -3.975  0.00  0.00    -0.033 A 
ATOM      2  C1  UNL d   1      -0.521   5.993  -2.748  0.00  0.00     0.039 A 
ATOM      3  C2  UNL d   1      -1.917   5.991  -2.711  0.00  0.00    -0.080 A 
ATOM      4  C3  UNL d   1      -2.632   5.988  -3.905  0.00  0.00     0.150 A 
ATOM      5  C4  UNL d   1      -1.974   5.986  -5.131  0.00  0.00    -0.007 A 
ATOM      6  C5  UNL d   1      -0.580   5.989  -5.166  0.00  0.00     0.039 A 
ENDROOT
BRANCH   4   7
ATOM      7  O   UNL d   1      -3.995   5.991  -3.919  0.00  0.00    -0.526 OA
ATOM      8  H5  UNL d   1      -4.312   6.022  -3.001  0.00  0.00     0.418 HD
ENDBRANCH   4   7
TORSDOF 1
ENDMDL
