MODEL 1
REMARK minimizedAffinity 0.264051557
REMARK minimizedRMSD -1
REMARK  1 active torsions:
REMARK  status: ('A' for Active; 'I' for Inactive)
REMARK    1  A    between atoms: C3_4  and  O_7 
ROOT
ATOM      1  C   UNL d   1       0.010  -0.262   2.358  0.00  0.00    -0.033 A 
ATOM      2  C1  UNL d   1       0.675  -0.320   1.131  0.00  0.00     0.039 A 
ATOM      3  C2  UNL d   1       1.108   0.856   0.514  0.00  0.00    -0.080 A 
ATOM      4  C3  UNL d   1       0.870   2.080   1.133  0.00  0.00     0.150 A 
ATOM      5  C4  UNL d   1       0.211   2.144   2.356  0.00  0.00    -0.007 A 
ATOM      6  C5  UNL d   1      -0.221   0.970   2.971  0.00  0.00     0.039 A 
ENDROOT
BRANCH   4   7
ATOM      7  O   UNL d   1       1.269   3.254   0.567  0.00  0.00    -0.526 OA
ATOM      8  H5  UNL d   1       1.685   3.057  -0.290  0.00  0.00     0.418 HD
ENDBRANCH   4   7
TORSDOF 1
ENDMDL
