MODEL 1
REMARK minimizedAffinity -0.363377452
REMARK minimizedRMSD -1
REMARK  1 active torsions:
REMARK  status: ('A' for Active; 'I' for Inactive)
REMARK    1  A    between atoms: C3_4  and  O_7 
ROOT
ATOM      1  C   UNL d   1      -1.527   5.953  -3.389  0.00  0.00    -0.033 A 
ATOM      2  C1  UNL d   1      -1.232   5.929  -2.025  0.00  0.00     0.039 A 
ATOM      3  C2  UNL d   1      -2.264   5.944  -1.084  0.00  0.00    -0.080 A 
ATOM      4  C3  UNL d   1      -3.585   5.980  -1.521  0.00  0.00     0.150 A 
ATOM      5  C4  UNL d   1      -3.887   5.999  -2.879  0.00  0.00    -0.007 A 
ATOM      6  C5  UNL d   1      -2.855   5.986  -3.816  0.00  0.00     0.039 A 
ENDROOT
BRANCH   4   7
ATOM      7  O   UNL d   1      -4.626   6.000  -0.641  0.00  0.00    -0.526 OA
ATOM      8  H5  UNL d   1      -4.266   6.012   0.262  0.00  0.00     0.418 HD
ENDBRANCH   4   7
TORSDOF 1
ENDMDL
