MODEL 1
REMARK minimizedAffinity -2.17561817
REMARK minimizedRMSD -1
REMARK  1 active torsions:
REMARK  status: ('A' for Active; 'I' for Inactive)
REMARK    1  A    between atoms: C3_4  and  O_7 
ROOT
ATOM      1  C   UNL d   1       0.554   5.248  -4.972  0.00  0.00    -0.033 A 
ATOM      2  C1  UNL d   1       1.202   4.473  -5.936  0.00  0.00     0.039 A 
ATOM      3  C2  UNL d   1       2.597   4.452  -5.995  0.00  0.00    -0.080 A 
ATOM      4  C3  UNL d   1       3.331   5.209  -5.086  0.00  0.00     0.150 A 
ATOM      5  C4  UNL d   1       2.692   5.980  -4.121  0.00  0.00    -0.007 A 
ATOM      6  C5  UNL d   1       1.299   6.000  -4.063  0.00  0.00     0.039 A 
ENDROOT
BRANCH   4   7
ATOM      7  O   UNL d   1       4.694   5.224  -5.108  0.00  0.00    -0.526 OA
ATOM      8  H5  UNL d   1       4.996   4.668  -5.846  0.00  0.00     0.418 HD
ENDBRANCH   4   7
TORSDOF 1
ENDMDL
