MODEL 1
REMARK minimizedAffinity -0.361462623
REMARK minimizedRMSD -1
REMARK  1 active torsions:
REMARK  status: ('A' for Active; 'I' for Inactive)
REMARK    1  A    between atoms: C3_4  and  O_7 
ROOT
ATOM      1  C   UNL d   1       5.471   4.340  -4.367  0.00  0.00    -0.033 A 
ATOM      2  C1  UNL d   1       5.578   5.423  -5.242  0.00  0.00     0.039 A 
ATOM      3  C2  UNL d   1       4.429   5.995  -5.791  0.00  0.00    -0.080 A 
ATOM      4  C3  UNL d   1       3.181   5.477  -5.456  0.00  0.00     0.150 A 
ATOM      5  C4  UNL d   1       3.066   4.401  -4.582  0.00  0.00    -0.007 A 
ATOM      6  C5  UNL d   1       4.215   3.830  -4.036  0.00  0.00     0.039 A 
ENDROOT
BRANCH   4   7
ATOM      7  O   UNL d   1       2.031   6.000  -5.971  0.00  0.00    -0.526 OA
ATOM      8  H5  UNL d   1       2.266   6.719  -6.581  0.00  0.00     0.418 HD
ENDBRANCH   4   7
TORSDOF 1
ENDMDL
