MODEL 1
REMARK minimizedAffinity 1.69813073
REMARK minimizedRMSD -1
REMARK  1 active torsions:
REMARK  status: ('A' for Active; 'I' for Inactive)
REMARK    1  A    between atoms: C3_4  and  O_7 
ROOT
ATOM      1  C   UNL d   1      -0.812   5.972  -3.803  0.00  0.00    -0.033 A 
ATOM      2  C1  UNL d   1       0.274   5.988  -2.926  0.00  0.00     0.039 A 
ATOM      3  C2  UNL d   1       1.577   5.999  -3.426  0.00  0.00    -0.080 A 
ATOM      4  C3  UNL d   1       1.781   5.994  -4.803  0.00  0.00     0.150 A 
ATOM      5  C4  UNL d   1       0.703   5.982  -5.683  0.00  0.00    -0.007 A 
ATOM      6  C5  UNL d   1      -0.598   5.970  -5.182  0.00  0.00     0.039 A 
ENDROOT
BRANCH   4   7
ATOM      7  O   UNL d   1       3.035   6.000  -5.338  0.00  0.00    -0.526 OA
ATOM      8  H5  UNL d   1       3.679   5.979  -4.611  0.00  0.00     0.418 HD
ENDBRANCH   4   7
TORSDOF 1
ENDMDL
