MODEL 1
REMARK minimizedAffinity -0.872999847
REMARK minimizedRMSD -1
REMARK  1 active torsions:
REMARK  status: ('A' for Active; 'I' for Inactive)
REMARK    1  A    between atoms: C3_4  and  O_7 
ROOT
ATOM      1  C   UNL d   1       1.396  -0.057  -0.857  0.00  0.00    -0.033 A 
ATOM      2  C1  UNL d   1       1.056   0.135   0.484  0.00  0.00     0.039 A 
ATOM      3  C2  UNL d   1       1.197   1.395   1.068  0.00  0.00    -0.080 A 
ATOM      4  C3  UNL d   1       1.678   2.453   0.303  0.00  0.00     0.150 A 
ATOM      5  C4  UNL d   1       2.016   2.270  -1.034  0.00  0.00    -0.007 A 
ATOM      6  C5  UNL d   1       1.875   1.011  -1.616  0.00  0.00     0.039 A 
ENDROOT
BRANCH   4   7
ATOM      7  O   UNL d   1       1.837   3.700   0.831  0.00  0.00    -0.526 OA
ATOM      8  H5  UNL d   1       1.592   3.670   1.771  0.00  0.00     0.418 HD
ENDBRANCH   4   7
TORSDOF 1
ENDMDL
