MODEL 1
REMARK minimizedAffinity 6.68280792
REMARK minimizedRMSD -1
REMARK  0 active torsions:
REMARK  status: ('A' for Active; 'I' for Inactive)
ROOT
ATOM      1  N1  IND d   1       3.754  -0.418  -3.073  0.00  0.00    -0.196 N 
ATOM      2  C2  IND d   1       3.163  -1.631  -2.856  0.00  0.00     0.054 A 
ATOM      3  C3  IND d   1       2.676  -1.698  -1.596  0.00  0.00    -0.031 A 
ATOM      4  C4  IND d   1       2.646   0.103   0.243  0.00  0.00     0.051 A 
ATOM      5  C5  IND d   1       3.098   1.362   0.526  0.00  0.00    -0.031 A 
ATOM      6  C6  IND d   1       3.803   2.107  -0.396  0.00  0.00     0.015 A 
ATOM      7  C7  IND d   1       4.075   1.624  -1.645  0.00  0.00    -0.016 A 
ATOM      8  C8  IND d   1       3.624   0.344  -1.933  0.00  0.00    -0.047 A 
ATOM      9  C9  IND d   1       2.944  -0.433  -0.987  0.00  0.00    -0.096 A 
ATOM     10  HN1 IND d   1       4.142  -0.172  -3.800  0.00  0.00     0.298 HD
ENDROOT
TORSDOF 0
ENDMDL
