MODEL 1
REMARK minimizedAffinity 11.7950106
REMARK minimizedRMSD -1
REMARK  0 active torsions:
REMARK  status: ('A' for Active; 'I' for Inactive)
ROOT
ATOM      1  N1  IND d   1      -5.513   4.734   2.607  0.00  0.00    -0.196 N 
ATOM      2  C2  IND d   1      -5.594   5.980   3.164  0.00  0.00     0.054 A 
ATOM      3  C3  IND d   1      -5.811   5.886   4.495  0.00  0.00    -0.031 A 
ATOM      4  C4  IND d   1      -5.967   3.792   5.984  0.00  0.00     0.051 A 
ATOM      5  C5  IND d   1      -5.991   2.427   5.924  0.00  0.00    -0.031 A 
ATOM      6  C6  IND d   1      -5.851   1.747   4.731  0.00  0.00     0.015 A 
ATOM      7  C7  IND d   1      -5.670   2.410   3.550  0.00  0.00    -0.016 A 
ATOM      8  C8  IND d   1      -5.653   3.797   3.607  0.00  0.00    -0.047 A 
ATOM      9  C9  IND d   1      -5.836   4.493   4.808  0.00  0.00    -0.096 A 
ATOM     10  HN1 IND d   1      -5.396   4.565   1.772  0.00  0.00     0.298 HD
ENDROOT
TORSDOF 0
ENDMDL
