MODEL 1
REMARK minimizedAffinity 18.6559391
REMARK minimizedRMSD -1
REMARK  0 active torsions:
REMARK  status: ('A' for Active; 'I' for Inactive)
ROOT
ATOM      1  N1  IND d   1       2.627   1.116  -0.992  0.00  0.00    -0.196 N 
ATOM      2  C2  IND d   1       1.949   0.506   0.026  0.00  0.00     0.054 A 
ATOM      3  C3  IND d   1       2.439   0.902   1.222  0.00  0.00    -0.031 A 
ATOM      4  C4  IND d   1       4.283   2.620   1.745  0.00  0.00     0.051 A 
ATOM      5  C5  IND d   1       5.219   3.414   1.142  0.00  0.00    -0.031 A 
ATOM      6  C6  IND d   1       5.339   3.485  -0.231  0.00  0.00     0.015 A 
ATOM      7  C7  IND d   1       4.516   2.772  -1.056  0.00  0.00    -0.016 A 
ATOM      8  C8  IND d   1       3.570   1.959  -0.447  0.00  0.00    -0.047 A 
ATOM      9  C9  IND d   1       3.472   1.850   0.946  0.00  0.00    -0.096 A 
ATOM     10  HN1 IND d   1       2.488   0.993  -1.832  0.00  0.00     0.298 HD
ENDROOT
TORSDOF 0
ENDMDL
