MODEL 1
REMARK minimizedAffinity 14.6325026
REMARK minimizedRMSD -1
REMARK  0 active torsions:
REMARK  status: ('A' for Active; 'I' for Inactive)
ROOT
ATOM      1  N1  IND d   1       2.761   3.035   1.871  0.00  0.00    -0.196 N 
ATOM      2  C2  IND d   1       2.232   2.229   2.840  0.00  0.00     0.054 A 
ATOM      3  C3  IND d   1       2.066   0.973   2.367  0.00  0.00    -0.031 A 
ATOM      4  C4  IND d   1       2.689  -0.005   0.069  0.00  0.00     0.051 A 
ATOM      5  C5  IND d   1       3.167   0.353  -1.161  0.00  0.00    -0.031 A 
ATOM      6  C6  IND d   1       3.543   1.649  -1.448  0.00  0.00     0.015 A 
ATOM      7  C7  IND d   1       3.467   2.637  -0.507  0.00  0.00    -0.016 A 
ATOM      8  C8  IND d   1       2.976   2.279   0.740  0.00  0.00    -0.047 A 
ATOM      9  C9  IND d   1       2.553   0.974   1.024  0.00  0.00    -0.096 A 
ATOM     10  HN1 IND d   1       2.932   3.874   1.955  0.00  0.00     0.298 HD
ENDROOT
TORSDOF 0
ENDMDL
