MODEL 1
REMARK minimizedAffinity 11.0193653
REMARK minimizedRMSD -1
REMARK  0 active torsions:
REMARK  status: ('A' for Active; 'I' for Inactive)
ROOT
ATOM      1  N1  IND d   1       4.559   3.126   3.650  0.00  0.00    -0.196 N 
ATOM      2  C2  IND d   1       3.431   2.698   4.294  0.00  0.00     0.054 A 
ATOM      3  C3  IND d   1       2.510   2.278   3.399  0.00  0.00    -0.031 A 
ATOM      4  C4  IND d   1       2.677   2.111   0.835  0.00  0.00     0.051 A 
ATOM      5  C5  IND d   1       3.498   2.419  -0.213  0.00  0.00    -0.031 A 
ATOM      6  C6  IND d   1       4.741   2.987  -0.023  0.00  0.00     0.015 A 
ATOM      7  C7  IND d   1       5.216   3.260   1.229  0.00  0.00    -0.016 A 
ATOM      8  C8  IND d   1       4.382   2.955   2.295  0.00  0.00    -0.047 A 
ATOM      9  C9  IND d   1       3.102   2.417   2.106  0.00  0.00    -0.096 A 
ATOM     10  HN1 IND d   1       5.261   3.449   4.029  0.00  0.00     0.298 HD
ENDROOT
TORSDOF 0
ENDMDL
