MODEL 1
REMARK minimizedAffinity 8.44182682
REMARK minimizedRMSD -1
REMARK  0 active torsions:
REMARK  status: ('A' for Active; 'I' for Inactive)
ROOT
ATOM      1  N1  IND d   1       2.105   1.706  -0.275  0.00  0.00    -0.196 N 
ATOM      2  C2  IND d   1       1.657   0.422  -0.143  0.00  0.00     0.054 A 
ATOM      3  C3  IND d   1       2.666  -0.392   0.242  0.00  0.00    -0.031 A 
ATOM      4  C4  IND d   1       5.109   0.189   0.809  0.00  0.00     0.051 A 
ATOM      5  C5  IND d   1       5.999   1.226   0.802  0.00  0.00    -0.031 A 
ATOM      6  C6  IND d   1       5.629   2.503   0.430  0.00  0.00     0.015 A 
ATOM      7  C7  IND d   1       4.346   2.793   0.061  0.00  0.00    -0.016 A 
ATOM      8  C8  IND d   1       3.441   1.741   0.061  0.00  0.00    -0.047 A 
ATOM      9  C9  IND d   1       3.821   0.435   0.396  0.00  0.00    -0.096 A 
ATOM     10  HN1 IND d   1       1.633   2.379  -0.526  0.00  0.00     0.298 HD
ENDROOT
TORSDOF 0
ENDMDL
