MODEL 1
REMARK minimizedAffinity 3.15042281
REMARK minimizedRMSD -1
REMARK  0 active torsions:
REMARK  status: ('A' for Active; 'I' for Inactive)
ROOT
ATOM      1  N1  IND d   1       6.000   3.182   1.480  0.00  0.00    -0.196 N 
ATOM      2  C2  IND d   1       5.222   3.167   2.604  0.00  0.00     0.054 A 
ATOM      3  C3  IND d   1       4.017   2.616   2.334  0.00  0.00    -0.031 A 
ATOM      4  C4  IND d   1       3.146   1.580   0.144  0.00  0.00     0.051 A 
ATOM      5  C5  IND d   1       3.481   1.394  -1.168  0.00  0.00    -0.031 A 
ATOM      6  C6  IND d   1       4.699   1.800  -1.674  0.00  0.00     0.015 A 
ATOM      7  C7  IND d   1       5.636   2.400  -0.880  0.00  0.00    -0.016 A 
ATOM      8  C8  IND d   1       5.296   2.597   0.451  0.00  0.00    -0.047 A 
ATOM      9  C9  IND d   1       4.045   2.226   0.960  0.00  0.00    -0.096 A 
ATOM     10  HN1 IND d   1       6.796   3.504   1.425  0.00  0.00     0.298 HD
ENDROOT
TORSDOF 0
ENDMDL
