MODEL 1
REMARK minimizedAffinity 15.4486084
REMARK minimizedRMSD -1
REMARK  0 active torsions:
REMARK  status: ('A' for Active; 'I' for Inactive)
ROOT
ATOM      1  N1  IND d   1       5.792   4.718  -2.151  0.00  0.00    -0.196 N 
ATOM      2  C2  IND d   1       5.926   5.995  -1.682  0.00  0.00     0.054 A 
ATOM      3  C3  IND d   1       5.991   5.996  -0.332  0.00  0.00    -0.031 A 
ATOM      4  C4  IND d   1       5.999   4.011   1.307  0.00  0.00     0.051 A 
ATOM      5  C5  IND d   1       5.860   2.652   1.353  0.00  0.00    -0.031 A 
ATOM      6  C6  IND d   1       5.691   1.897   0.211  0.00  0.00     0.015 A 
ATOM      7  C7  IND d   1       5.666   2.474  -1.027  0.00  0.00    -0.016 A 
ATOM      8  C8  IND d   1       5.799   3.854  -1.078  0.00  0.00    -0.047 A 
ATOM      9  C9  IND d   1       5.928   4.630   0.081  0.00  0.00    -0.096 A 
ATOM     10  HN1 IND d   1       5.716   4.492  -2.977  0.00  0.00     0.298 HD
ENDROOT
TORSDOF 0
ENDMDL
