MODEL 1
REMARK minimizedAffinity 19.6573582
REMARK minimizedRMSD -1
REMARK  2 active torsions:
REMARK  status: ('A' for Active; 'I' for Inactive)
REMARK    1  A    between atoms: C1_2  and  C2_3 
REMARK    2  A    between atoms: C2_3  and  C3_4 
ROOT
ATOM      1  C3  UNL d   1       4.949   2.039  -5.908  0.00  0.00    -0.075 A 
ATOM      2  C4  UNL d   1       3.625   2.500  -5.866  0.00  0.00     0.002 A 
ATOM      3  C5  UNL d   1       3.350   3.867  -5.904  0.00  0.00     0.002 A 
ATOM      4  C6  UNL d   1       4.392   4.789  -5.974  0.00  0.00    -0.004 A 
ATOM      5  C7  UNL d   1       5.711   4.343  -5.999  0.00  0.00     0.002 A 
ATOM      6  C8  UNL d   1       5.990   2.976  -5.965  0.00  0.00     0.002 A 
ENDROOT
BRANCH   1   7
ATOM      7  C2  UNL d   1       5.253   0.560  -5.896  0.00  0.00     0.056 C 
BRANCH   7   8
ATOM      8  C1  UNL d   1       4.196  -0.288  -5.181  0.00  0.00     0.007 C 
ATOM      9  C   UNL d   1       4.766  -1.124  -4.043  0.00  0.00     0.009 C 
ENDBRANCH   7   8
ENDBRANCH   1   7
TORSDOF 2
ENDMDL
