MODEL 1
REMARK minimizedAffinity 7.75179672
REMARK minimizedRMSD -1
REMARK  2 active torsions:
REMARK  status: ('A' for Active; 'I' for Inactive)
REMARK    1  A    between atoms: C1_2  and  C2_3 
REMARK    2  A    between atoms: C2_3  and  C3_4 
ROOT
ATOM      1  C3  UNL d   1      -0.056  -0.848  -4.585  0.00  0.00    -0.075 A 
ATOM      2  C4  UNL d   1       0.551  -2.091  -4.815  0.00  0.00     0.002 A 
ATOM      3  C5  UNL d   1       1.925  -2.179  -5.037  0.00  0.00     0.002 A 
ATOM      4  C6  UNL d   1       2.708  -1.027  -5.042  0.00  0.00    -0.004 A 
ATOM      5  C7  UNL d   1       2.114   0.216  -4.832  0.00  0.00     0.002 A 
ATOM      6  C8  UNL d   1       0.739   0.306  -4.605  0.00  0.00     0.002 A 
ENDROOT
BRANCH   1   7
ATOM      7  C2  UNL d   1      -1.538  -0.749  -4.315  0.00  0.00     0.056 C 
BRANCH   7   8
ATOM      8  C1  UNL d   1      -2.064  -1.798  -3.329  0.00  0.00     0.007 C 
ATOM      9  C   UNL d   1      -1.437  -1.688  -1.946  0.00  0.00     0.009 C 
ENDBRANCH   7   8
ENDBRANCH   1   7
TORSDOF 2
ENDMDL
