MODEL 1
REMARK minimizedAffinity 6.58802843
REMARK minimizedRMSD -1
REMARK  2 active torsions:
REMARK  status: ('A' for Active; 'I' for Inactive)
REMARK    1  A    between atoms: C1_2  and  C2_3 
REMARK    2  A    between atoms: C2_3  and  C3_4 
ROOT
ATOM      1  C3  UNL d   1       5.321   3.613   3.372  0.00  0.00    -0.075 A 
ATOM      2  C4  UNL d   1       5.544   4.937   3.777  0.00  0.00     0.002 A 
ATOM      3  C5  UNL d   1       4.993   6.000   3.060  0.00  0.00     0.002 A 
ATOM      4  C6  UNL d   1       4.223   5.753   1.926  0.00  0.00    -0.004 A 
ATOM      5  C7  UNL d   1       4.009   4.442   1.505  0.00  0.00     0.002 A 
ATOM      6  C8  UNL d   1       4.555   3.377   2.223  0.00  0.00     0.002 A 
ENDROOT
BRANCH   1   7
ATOM      7  C2  UNL d   1       5.889   2.458   4.161  0.00  0.00     0.056 C 
BRANCH   7   8
ATOM      8  C1  UNL d   1       5.001   1.210   4.168  0.00  0.00     0.007 C 
ATOM      9  C   UNL d   1       5.436   0.168   5.189  0.00  0.00     0.009 C 
ENDBRANCH   7   8
ENDBRANCH   1   7
TORSDOF 2
ENDMDL
