MODEL 1
REMARK minimizedAffinity 12.6740475
REMARK minimizedRMSD -1
REMARK  2 active torsions:
REMARK  status: ('A' for Active; 'I' for Inactive)
REMARK    1  A    between atoms: C1_2  and  C2_3 
REMARK    2  A    between atoms: C2_3  and  C3_4 
ROOT
ATOM      1  C3  UNL d   1       0.310   1.077   3.369  0.00  0.00    -0.075 A 
ATOM      2  C4  UNL d   1      -0.420   2.221   3.721  0.00  0.00     0.002 A 
ATOM      3  C5  UNL d   1      -0.385   2.709   5.028  0.00  0.00     0.002 A 
ATOM      4  C6  UNL d   1       0.372   2.056   5.998  0.00  0.00    -0.004 A 
ATOM      5  C7  UNL d   1       1.088   0.909   5.663  0.00  0.00     0.002 A 
ATOM      6  C8  UNL d   1       1.058   0.421   4.356  0.00  0.00     0.002 A 
ENDROOT
BRANCH   1   7
ATOM      7  C2  UNL d   1       0.299   0.561   1.950  0.00  0.00     0.056 C 
BRANCH   7   8
ATOM      8  C1  UNL d   1      -0.081  -0.919   1.827  0.00  0.00     0.007 C 
ATOM      9  C   UNL d   1       0.307  -1.530   0.487  0.00  0.00     0.009 C 
ENDBRANCH   7   8
ENDBRANCH   1   7
TORSDOF 2
ENDMDL
