MODEL 1
REMARK minimizedAffinity 16.769495
REMARK minimizedRMSD -1
REMARK  2 active torsions:
REMARK  status: ('A' for Active; 'I' for Inactive)
REMARK    1  A    between atoms: C1_2  and  C2_3 
REMARK    2  A    between atoms: C2_3  and  C3_4 
ROOT
ATOM      1  C3  UNL d   1       1.758   0.310   3.012  0.00  0.00    -0.075 A 
ATOM      2  C4  UNL d   1       1.458  -0.935   2.441  0.00  0.00     0.002 A 
ATOM      3  C5  UNL d   1       0.215  -1.161   1.847  0.00  0.00     0.002 A 
ATOM      4  C6  UNL d   1      -0.744  -0.150   1.826  0.00  0.00    -0.004 A 
ATOM      5  C7  UNL d   1      -0.462   1.085   2.405  0.00  0.00     0.002 A 
ATOM      6  C8  UNL d   1       0.782   1.315   2.996  0.00  0.00     0.002 A 
ENDROOT
BRANCH   1   7
ATOM      7  C2  UNL d   1       3.111   0.570   3.630  0.00  0.00     0.056 C 
BRANCH   7   8
ATOM      8  C1  UNL d   1       3.996   1.522   2.817  0.00  0.00     0.007 C 
ATOM      9  C   UNL d   1       4.890   0.802   1.816  0.00  0.00     0.009 C 
ENDBRANCH   7   8
ENDBRANCH   1   7
TORSDOF 2
ENDMDL
