MODEL 1
REMARK minimizedAffinity 3.61888242
REMARK minimizedRMSD -1
REMARK  2 active torsions:
REMARK  status: ('A' for Active; 'I' for Inactive)
REMARK    1  A    between atoms: C1_2  and  C2_3 
REMARK    2  A    between atoms: C2_3  and  C3_4 
ROOT
ATOM      1  C3  UNL d   1       3.773   1.714   3.640  0.00  0.00    -0.075 A 
ATOM      2  C4  UNL d   1       4.238   2.556   4.661  0.00  0.00     0.002 A 
ATOM      3  C5  UNL d   1       4.593   3.876   4.384  0.00  0.00     0.002 A 
ATOM      4  C6  UNL d   1       4.497   4.369   3.084  0.00  0.00    -0.004 A 
ATOM      5  C7  UNL d   1       4.052   3.537   2.059  0.00  0.00     0.002 A 
ATOM      6  C8  UNL d   1       3.692   2.217   2.334  0.00  0.00     0.002 A 
ENDROOT
BRANCH   1   7
ATOM      7  C2  UNL d   1       3.359   0.293   3.938  0.00  0.00     0.056 C 
BRANCH   7   8
ATOM      8  C1  UNL d   1       2.185  -0.206   3.090  0.00  0.00     0.007 C 
ATOM      9  C   UNL d   1       1.477  -1.411   3.694  0.00  0.00     0.009 C 
ENDBRANCH   7   8
ENDBRANCH   1   7
TORSDOF 2
ENDMDL
