MODEL 1
REMARK minimizedAffinity 10.7307796
REMARK minimizedRMSD -1
REMARK  2 active torsions:
REMARK  status: ('A' for Active; 'I' for Inactive)
REMARK    1  A    between atoms: C1_2  and  C2_3 
REMARK    2  A    between atoms: C2_3  and  C3_4 
ROOT
ATOM      1  C3  UNL d   1       1.126  -1.423   4.116  0.00  0.00    -0.075 A 
ATOM      2  C4  UNL d   1       1.482  -0.128   4.521  0.00  0.00     0.002 A 
ATOM      3  C5  UNL d   1       1.055   0.983   3.793  0.00  0.00     0.002 A 
ATOM      4  C6  UNL d   1       0.279   0.815   2.649  0.00  0.00    -0.004 A 
ATOM      5  C7  UNL d   1      -0.065  -0.468   2.228  0.00  0.00     0.002 A 
ATOM      6  C8  UNL d   1       0.356  -1.582   2.956  0.00  0.00     0.002 A 
ENDROOT
BRANCH   1   7
ATOM      7  C2  UNL d   1       1.560  -2.629   4.915  0.00  0.00     0.056 C 
BRANCH   7   8
ATOM      8  C1  UNL d   1       3.026  -3.022   4.705  0.00  0.00     0.007 C 
ATOM      9  C   UNL d   1       3.739  -3.390   5.999  0.00  0.00     0.009 C 
ENDBRANCH   7   8
ENDBRANCH   1   7
TORSDOF 2
ENDMDL
