MODEL 1
REMARK minimizedAffinity -2.0117619
REMARK minimizedRMSD -1
REMARK  0 active torsions:
REMARK  status: ('A' for Active; 'I' for Inactive)
ROOT
ATOM      1  C2' OXE d   1       0.038   1.613  -0.186  0.00  0.00     0.078 C 
ATOM      2  C1' OXE d   1       0.468  -0.354  -2.141  0.00  0.00     0.078 C 
ATOM      3  C1  OXE d   1      -0.054  -0.799  -0.798  0.00  0.00    -0.078 A 
ATOM      4  C2  OXE d   1      -0.217   0.164   0.168  0.00  0.00    -0.078 A 
ATOM      5  C3  OXE d   1      -0.748  -0.185   1.407  0.00  0.00     0.003 A 
ATOM      6  C4  OXE d   1      -0.971  -1.529   1.729  0.00  0.00    -0.002 A 
ATOM      7  C5  OXE d   1      -0.774  -2.531   0.773  0.00  0.00    -0.002 A 
ATOM      8  C6  OXE d   1      -0.357  -2.179  -0.506  0.00  0.00     0.003 A 
ENDROOT
TORSDOF 0
ENDMDL
