MODEL 1
REMARK minimizedAffinity 6.95369577
REMARK minimizedRMSD -1
REMARK  0 active torsions:
REMARK  status: ('A' for Active; 'I' for Inactive)
ROOT
ATOM      1  C2' OXE d   1      -1.882  -3.340  -1.726  0.00  0.00     0.078 C 
ATOM      2  C1' OXE d   1       0.141  -1.411  -1.978  0.00  0.00     0.078 C 
ATOM      3  C1  OXE d   1      -0.526  -1.559  -0.633  0.00  0.00    -0.078 A 
ATOM      4  C2  OXE d   1      -1.547  -2.473  -0.532  0.00  0.00    -0.078 A 
ATOM      5  C3  OXE d   1      -2.160  -2.688   0.699  0.00  0.00     0.003 A 
ATOM      6  C4  OXE d   1      -1.851  -1.875   1.796  0.00  0.00    -0.002 A 
ATOM      7  C5  OXE d   1      -0.842  -0.911   1.704  0.00  0.00    -0.002 A 
ATOM      8  C6  OXE d   1      -0.142  -0.769   0.511  0.00  0.00     0.003 A 
ENDROOT
TORSDOF 0
ENDMDL
