MODEL 1
REMARK minimizedAffinity -2.35329223
REMARK minimizedRMSD -1
REMARK  0 active torsions:
REMARK  status: ('A' for Active; 'I' for Inactive)
ROOT
ATOM      1  C2' OXE d   1       2.283   0.022   0.320  0.00  0.00     0.078 C 
ATOM      2  C1' OXE d   1      -0.224   0.888  -0.599  0.00  0.00     0.078 C 
ATOM      3  C1  OXE d   1       0.596   1.852   0.220  0.00  0.00    -0.078 A 
ATOM      4  C2  OXE d   1       1.801   1.404   0.705  0.00  0.00    -0.078 A 
ATOM      5  C3  OXE d   1       2.622   2.271   1.420  0.00  0.00     0.003 A 
ATOM      6  C4  OXE d   1       2.165   3.544   1.781  0.00  0.00    -0.002 A 
ATOM      7  C5  OXE d   1       0.924   4.007   1.331  0.00  0.00    -0.002 A 
ATOM      8  C6  OXE d   1       0.147   3.191   0.516  0.00  0.00     0.003 A 
ENDROOT
TORSDOF 0
ENDMDL
