MODEL 1
REMARK minimizedAffinity -0.246956989
REMARK minimizedRMSD -1
REMARK  0 active torsions:
REMARK  status: ('A' for Active; 'I' for Inactive)
ROOT
ATOM      1  C2' OXE d   1       0.146   1.573   1.037  0.00  0.00     0.078 C 
ATOM      2  C1' OXE d   1      -1.152  -0.401   2.552  0.00  0.00     0.078 C 
ATOM      3  C1  OXE d   1      -0.808  -0.726   1.120  0.00  0.00    -0.078 A 
ATOM      4  C2  OXE d   1      -0.215   0.262   0.373  0.00  0.00    -0.078 A 
ATOM      5  C3  OXE d   1       0.173  -0.004  -0.938  0.00  0.00     0.003 A 
ATOM      6  C4  OXE d   1      -0.174  -1.215  -1.548  0.00  0.00    -0.002 A 
ATOM      7  C5  OXE d   1      -0.814  -2.221  -0.815  0.00  0.00    -0.002 A 
ATOM      8  C6  OXE d   1      -1.099  -2.009   0.529  0.00  0.00     0.003 A 
ENDROOT
TORSDOF 0
ENDMDL
