MODEL 1
REMARK minimizedAffinity -1.61756706
REMARK minimizedRMSD -1
REMARK  0 active torsions:
REMARK  status: ('A' for Active; 'I' for Inactive)
ROOT
ATOM      1  C2' OXE d   1       0.266  -0.005  -2.181  0.00  0.00     0.078 C 
ATOM      2  C1' OXE d   1       0.376   1.542   0.158  0.00  0.00     0.078 C 
ATOM      3  C1  OXE d   1      -0.193   0.149   0.262  0.00  0.00    -0.078 A 
ATOM      4  C2  OXE d   1      -0.287  -0.583  -0.897  0.00  0.00    -0.078 A 
ATOM      5  C3  OXE d   1      -0.754  -1.894  -0.848  0.00  0.00     0.003 A 
ATOM      6  C4  OXE d   1      -1.273  -2.418   0.342  0.00  0.00    -0.002 A 
ATOM      7  C5  OXE d   1      -1.224  -1.674   1.526  0.00  0.00    -0.002 A 
ATOM      8  C6  OXE d   1      -0.650  -0.407   1.512  0.00  0.00     0.003 A 
ENDROOT
TORSDOF 0
ENDMDL
