MODEL 1
REMARK minimizedAffinity 2.80856276
REMARK minimizedRMSD -1
REMARK  0 active torsions:
REMARK  status: ('A' for Active; 'I' for Inactive)
ROOT
ATOM      1  C2' OXE d   1       1.133   0.047  -2.077  0.00  0.00     0.078 C 
ATOM      2  C1' OXE d   1       0.516  -2.338  -0.731  0.00  0.00     0.078 C 
ATOM      3  C1  OXE d   1      -0.359  -1.137  -0.471  0.00  0.00    -0.078 A 
ATOM      4  C2  OXE d   1      -0.022   0.039  -1.098  0.00  0.00    -0.078 A 
ATOM      5  C3  OXE d   1      -0.828   1.162  -0.937  0.00  0.00     0.003 A 
ATOM      6  C4  OXE d   1      -1.888   1.148  -0.022  0.00  0.00    -0.002 A 
ATOM      7  C5  OXE d   1      -2.224  -0.027   0.657  0.00  0.00    -0.002 A 
ATOM      8  C6  OXE d   1      -1.498  -1.188   0.412  0.00  0.00     0.003 A 
ENDROOT
TORSDOF 0
ENDMDL
