MODEL 1
REMARK minimizedAffinity -2.03568554
REMARK minimizedRMSD -1
REMARK  0 active torsions:
REMARK  status: ('A' for Active; 'I' for Inactive)
ROOT
ATOM      1  C2' OXE d   1       0.334   1.493   0.380  0.00  0.00     0.078 C 
ATOM      2  C1' OXE d   1      -0.877  -0.054   2.384  0.00  0.00     0.078 C 
ATOM      3  C1  OXE d   1      -0.637  -0.703   1.044  0.00  0.00    -0.078 A 
ATOM      4  C2  OXE d   1      -0.087   0.076   0.055  0.00  0.00    -0.078 A 
ATOM      5  C3  OXE d   1       0.206  -0.488  -1.184  0.00  0.00     0.003 A 
ATOM      6  C4  OXE d   1      -0.195  -1.796  -1.480  0.00  0.00    -0.002 A 
ATOM      7  C5  OXE d   1      -0.793  -2.594  -0.499  0.00  0.00    -0.002 A 
ATOM      8  C6  OXE d   1      -0.982  -2.077   0.778  0.00  0.00     0.003 A 
ENDROOT
TORSDOF 0
ENDMDL
