MODEL 1
REMARK minimizedAffinity -3.61369729
REMARK minimizedRMSD -1
REMARK  0 active torsions:
REMARK  status: ('A' for Active; 'I' for Inactive)
ROOT
ATOM      1  C2' OXE d   1       0.336  -2.394   0.188  0.00  0.00     0.078 C 
ATOM      2  C1' OXE d   1       0.048  -3.368  -2.429  0.00  0.00     0.078 C 
ATOM      3  C1  OXE d   1      -1.136  -3.480  -1.502  0.00  0.00    -0.078 A 
ATOM      4  C2  OXE d   1      -0.971  -3.044  -0.209  0.00  0.00    -0.078 A 
ATOM      5  C3  OXE d   1      -2.049  -3.074   0.671  0.00  0.00     0.003 A 
ATOM      6  C4  OXE d   1      -3.252  -3.686   0.299  0.00  0.00    -0.002 A 
ATOM      7  C5  OXE d   1      -3.428  -4.173  -1.001  0.00  0.00    -0.002 A 
ATOM      8  C6  OXE d   1      -2.396  -4.040  -1.924  0.00  0.00     0.003 A 
ENDROOT
TORSDOF 0
ENDMDL
