MODEL 1
REMARK minimizedAffinity -2.4392159
REMARK minimizedRMSD -1
REMARK  0 active torsions:
REMARK  status: ('A' for Active; 'I' for Inactive)
ROOT
ATOM      1  C2' OXE d   1      -0.163   1.115  -0.219  0.00  0.00     0.078 C 
ATOM      2  C1' OXE d   1       2.335   0.080   0.536  0.00  0.00     0.078 C 
ATOM      3  C1  OXE d   1       2.084   1.550   0.765  0.00  0.00    -0.078 A 
ATOM      4  C2  OXE d   1       0.876   2.057   0.350  0.00  0.00    -0.078 A 
ATOM      5  C3  OXE d   1       0.572   3.395   0.586  0.00  0.00     0.003 A 
ATOM      6  C4  OXE d   1       1.543   4.261   1.104  0.00  0.00    -0.002 A 
ATOM      7  C5  OXE d   1       2.794   3.773   1.496  0.00  0.00    -0.002 A 
ATOM      8  C6  OXE d   1       3.064   2.415   1.373  0.00  0.00     0.003 A 
ENDROOT
TORSDOF 0
ENDMDL
