MODEL 1
REMARK minimizedAffinity -3.094069
REMARK minimizedRMSD -1
REMARK  0 active torsions:
REMARK  status: ('A' for Active; 'I' for Inactive)
ROOT
ATOM      1  C2' OXE d   1       0.312   1.335  -0.030  0.00  0.00     0.078 C 
ATOM      2  C1' OXE d   1       0.459  -0.574  -2.083  0.00  0.00     0.078 C 
ATOM      3  C1  OXE d   1      -0.061  -1.024  -0.740  0.00  0.00    -0.078 A 
ATOM      4  C2  OXE d   1      -0.085  -0.094   0.272  0.00  0.00    -0.078 A 
ATOM      5  C3  OXE d   1      -0.607  -0.441   1.515  0.00  0.00     0.003 A 
ATOM      6  C4  OXE d   1      -0.963  -1.767   1.789  0.00  0.00    -0.002 A 
ATOM      7  C5  OXE d   1      -0.908  -2.739   0.784  0.00  0.00    -0.002 A 
ATOM      8  C6  OXE d   1      -0.501  -2.375  -0.495  0.00  0.00     0.003 A 
ENDROOT
TORSDOF 0
ENDMDL
