MODEL 1
REMARK minimizedAffinity 9.58624649
REMARK minimizedRMSD -1
REMARK  0 active torsions:
REMARK  status: ('A' for Active; 'I' for Inactive)
ROOT
ATOM      1  C2' OXE d   1       0.977   4.596   2.082  0.00  0.00     0.078 C 
ATOM      2  C1' OXE d   1       0.988   1.812   1.723  0.00  0.00     0.078 C 
ATOM      3  C1  OXE d   1       2.045   2.617   1.009  0.00  0.00    -0.078 A 
ATOM      4  C2  OXE d   1       2.004   3.983   1.154  0.00  0.00    -0.078 A 
ATOM      5  C3  OXE d   1       2.988   4.770   0.562  0.00  0.00     0.003 A 
ATOM      6  C4  OXE d   1       3.928   4.196  -0.303  0.00  0.00    -0.002 A 
ATOM      7  C5  OXE d   1       3.963   2.811  -0.496  0.00  0.00    -0.002 A 
ATOM      8  C6  OXE d   1       3.058   2.005   0.185  0.00  0.00     0.003 A 
ENDROOT
TORSDOF 0
ENDMDL
