MODEL 1
REMARK minimizedAffinity -3.00020552
REMARK minimizedRMSD -1
REMARK  0 active torsions:
REMARK  status: ('A' for Active; 'I' for Inactive)
ROOT
ATOM      1  C2' OXE d   1       0.410   1.301   0.374  0.00  0.00     0.078 C 
ATOM      2  C1' OXE d   1      -0.934  -0.029   2.449  0.00  0.00     0.078 C 
ATOM      3  C1  OXE d   1      -0.693  -0.787   1.167  0.00  0.00    -0.078 A 
ATOM      4  C2  OXE d   1      -0.076  -0.114   0.141  0.00  0.00    -0.078 A 
ATOM      5  C3  OXE d   1       0.219  -0.783  -1.043  0.00  0.00     0.003 A 
ATOM      6  C4  OXE d   1      -0.243  -2.087  -1.255  0.00  0.00    -0.002 A 
ATOM      7  C5  OXE d   1      -0.908  -2.778  -0.237  0.00  0.00    -0.002 A 
ATOM      8  C6  OXE d   1      -1.104  -2.159   0.993  0.00  0.00     0.003 A 
ENDROOT
TORSDOF 0
ENDMDL
