MODEL 1
REMARK minimizedAffinity -5.09680367
REMARK minimizedRMSD -1
REMARK  0 active torsions:
REMARK  status: ('A' for Active; 'I' for Inactive)
ROOT
ATOM      1  C2' OXE d   1      -0.820  -2.026   1.190  0.00  0.00     0.078 C 
ATOM      2  C1' OXE d   1      -0.231   0.028  -0.629  0.00  0.00     0.078 C 
ATOM      3  C1  OXE d   1      -0.033  -1.395  -1.087  0.00  0.00    -0.078 A 
ATOM      4  C2  OXE d   1      -0.280  -2.393  -0.175  0.00  0.00    -0.078 A 
ATOM      5  C3  OXE d   1      -0.166  -3.725  -0.563  0.00  0.00     0.003 A 
ATOM      6  C4  OXE d   1       0.345  -4.055  -1.824  0.00  0.00    -0.002 A 
ATOM      7  C5  OXE d   1       0.640  -3.053  -2.755  0.00  0.00    -0.002 A 
ATOM      8  C6  OXE d   1       0.416  -1.723  -2.418  0.00  0.00     0.003 A 
ENDROOT
TORSDOF 0
ENDMDL
