MODEL 1
REMARK minimizedAffinity -6.35160065
REMARK minimizedRMSD -1
REMARK  0 active torsions:
REMARK  status: ('A' for Active; 'I' for Inactive)
ROOT
ATOM      1  C2' OXE d   1       0.257   0.157  -2.361  0.00  0.00     0.078 C 
ATOM      2  C1' OXE d   1       0.807   0.176   0.392  0.00  0.00     0.078 C 
ATOM      3  C1  OXE d   1       0.470  -1.147  -0.249  0.00  0.00    -0.078 A 
ATOM      4  C2  OXE d   1       0.157  -1.140  -1.587  0.00  0.00    -0.078 A 
ATOM      5  C3  OXE d   1      -0.107  -2.341  -2.239  0.00  0.00     0.003 A 
ATOM      6  C4  OXE d   1      -0.207  -3.534  -1.514  0.00  0.00    -0.002 A 
ATOM      7  C5  OXE d   1       0.069  -3.557  -0.143  0.00  0.00    -0.002 A 
ATOM      8  C6  OXE d   1       0.450  -2.382   0.495  0.00  0.00     0.003 A 
ENDROOT
TORSDOF 0
ENDMDL
