MODEL 1
REMARK minimizedAffinity -1.97086906
REMARK minimizedRMSD -1
REMARK  0 active torsions:
REMARK  status: ('A' for Active; 'I' for Inactive)
ROOT
ATOM      1  C2' OXE d   1      -0.004   1.492   0.017  0.00  0.00     0.078 C 
ATOM      2  C1' OXE d   1      -0.053   0.222  -2.486  0.00  0.00     0.078 C 
ATOM      3  C1  OXE d   1      -0.629  -0.522  -1.308  0.00  0.00    -0.078 A 
ATOM      4  C2  OXE d   1      -0.559   0.088  -0.078  0.00  0.00    -0.078 A 
ATOM      5  C3  OXE d   1      -1.125  -0.532   1.032  0.00  0.00     0.003 A 
ATOM      6  C4  OXE d   1      -1.627  -1.836   0.937  0.00  0.00    -0.002 A 
ATOM      7  C5  OXE d   1      -1.672  -2.491  -0.298  0.00  0.00    -0.002 A 
ATOM      8  C6  OXE d   1      -1.217  -1.833  -1.435  0.00  0.00     0.003 A 
ENDROOT
TORSDOF 0
ENDMDL
