MODEL 1
REMARK minimizedAffinity -2.49427533
REMARK minimizedRMSD -1
REMARK  0 active torsions:
REMARK  status: ('A' for Active; 'I' for Inactive)
ROOT
ATOM      1  C2' OXE d   1      -0.271   1.221  -0.740  0.00  0.00     0.078 C 
ATOM      2  C1' OXE d   1       0.160  -1.148  -2.183  0.00  0.00     0.078 C 
ATOM      3  C1  OXE d   1      -0.352  -1.268  -0.770  0.00  0.00    -0.078 A 
ATOM      4  C2  OXE d   1      -0.515  -0.106  -0.055  0.00  0.00    -0.078 A 
ATOM      5  C3  OXE d   1      -1.037  -0.157   1.234  0.00  0.00     0.003 A 
ATOM      6  C4  OXE d   1      -1.250  -1.389   1.864  0.00  0.00    -0.002 A 
ATOM      7  C5  OXE d   1      -1.052  -2.586   1.168  0.00  0.00    -0.002 A 
ATOM      8  C6  OXE d   1      -0.644  -2.542  -0.161  0.00  0.00     0.003 A 
ENDROOT
TORSDOF 0
ENDMDL
