MODEL 1
REMARK minimizedAffinity -3.40616345
REMARK minimizedRMSD -1
REMARK  0 active torsions:
REMARK  status: ('A' for Active; 'I' for Inactive)
ROOT
ATOM      1  C2' OXE d   1      -1.002  -1.407   1.542  0.00  0.00     0.078 C 
ATOM      2  C1' OXE d   1       0.105   0.655  -0.008  0.00  0.00     0.078 C 
ATOM      3  C1  OXE d   1      -0.251  -0.634  -0.704  0.00  0.00    -0.078 A 
ATOM      4  C2  OXE d   1      -0.749  -1.655   0.070  0.00  0.00    -0.078 A 
ATOM      5  C3  OXE d   1      -1.146  -2.846  -0.531  0.00  0.00     0.003 A 
ATOM      6  C4  OXE d   1      -0.899  -3.070  -1.891  0.00  0.00    -0.002 A 
ATOM      7  C5  OXE d   1      -0.356  -2.058  -2.690  0.00  0.00    -0.002 A 
ATOM      8  C6  OXE d   1      -0.067  -0.823  -2.122  0.00  0.00     0.003 A 
ENDROOT
TORSDOF 0
ENDMDL
