MODEL 1
REMARK minimizedAffinity -4.36295509
REMARK minimizedRMSD -1
REMARK  0 active torsions:
REMARK  status: ('A' for Active; 'I' for Inactive)
ROOT
ATOM      1  C2' OXE d   1      -0.998  -1.483   1.558  0.00  0.00     0.078 C 
ATOM      2  C1' OXE d   1      -0.075   0.672   0.014  0.00  0.00     0.078 C 
ATOM      3  C1  OXE d   1      -0.252  -0.659  -0.671  0.00  0.00    -0.078 A 
ATOM      4  C2  OXE d   1      -0.659  -1.720   0.102  0.00  0.00    -0.078 A 
ATOM      5  C3  OXE d   1      -0.891  -2.957  -0.491  0.00  0.00     0.003 A 
ATOM      6  C4  OXE d   1      -0.565  -3.170  -1.836  0.00  0.00    -0.002 A 
ATOM      7  C5  OXE d   1      -0.110  -2.114  -2.633  0.00  0.00    -0.002 A 
ATOM      8  C6  OXE d   1       0.011  -0.845  -2.077  0.00  0.00     0.003 A 
ENDROOT
TORSDOF 0
ENDMDL
