MODEL 1
REMARK minimizedAffinity -2.42048955
REMARK minimizedRMSD -1
REMARK  0 active torsions:
REMARK  status: ('A' for Active; 'I' for Inactive)
ROOT
ATOM      1  C2' OXE d   1      -0.158  -0.099  -2.875  0.00  0.00     0.078 C 
ATOM      2  C1' OXE d   1      -0.749  -2.823  -2.536  0.00  0.00     0.078 C 
ATOM      3  C1  OXE d   1      -0.750  -1.945  -1.310  0.00  0.00    -0.078 A 
ATOM      4  C2  OXE d   1      -0.414  -0.623  -1.478  0.00  0.00    -0.078 A 
ATOM      5  C3  OXE d   1      -0.454   0.243  -0.388  0.00  0.00     0.003 A 
ATOM      6  C4  OXE d   1      -0.682  -0.252   0.901  0.00  0.00    -0.002 A 
ATOM      7  C5  OXE d   1      -0.987  -1.602   1.101  0.00  0.00    -0.002 A 
ATOM      8  C6  OXE d   1      -1.067  -2.452   0.003  0.00  0.00     0.003 A 
ENDROOT
TORSDOF 0
ENDMDL
