MODEL 1
REMARK minimizedAffinity 5.20255423
REMARK minimizedRMSD -1
REMARK  1 active torsions:
REMARK  status: ('A' for Active; 'I' for Inactive)
REMARK    1  A    between atoms: C1_2  and  C2_3 
ROOT
ATOM      1  C2  UNL d   1       0.454   1.819   2.252  0.00  0.00    -0.077 A 
ATOM      2  C3  UNL d   1       1.234   0.731   2.669  0.00  0.00     0.002 A 
ATOM      3  C4  UNL d   1       1.156  -0.492   2.000  0.00  0.00     0.002 A 
ATOM      4  C5  UNL d   1       0.303  -0.637   0.908  0.00  0.00    -0.004 A 
ATOM      5  C6  UNL d   1      -0.478   0.439   0.487  0.00  0.00     0.002 A 
ATOM      6  C7  UNL d   1      -0.402   1.661   1.155  0.00  0.00     0.002 A 
ENDROOT
BRANCH   1   7
ATOM      7  C1  UNL d   1       0.574   3.153   2.942  0.00  0.00     0.055 C 
ATOM      8  C   UNL d   1       2.007   3.664   2.914  0.00  0.00     0.019 C 
ENDBRANCH   1   7
TORSDOF 1
ENDMDL
