MODEL 1
REMARK minimizedAffinity 3.48242497
REMARK minimizedRMSD -1
REMARK  1 active torsions:
REMARK  status: ('A' for Active; 'I' for Inactive)
REMARK    1  A    between atoms: C1_2  and  C2_3 
ROOT
ATOM      1  C2  UNL d   1       2.883   0.888   3.421  0.00  0.00    -0.077 A 
ATOM      2  C3  UNL d   1       2.101   0.193   2.488  0.00  0.00     0.002 A 
ATOM      3  C4  UNL d   1       2.214  -1.193   2.363  0.00  0.00     0.002 A 
ATOM      4  C5  UNL d   1       3.105  -1.896   3.171  0.00  0.00    -0.004 A 
ATOM      5  C6  UNL d   1       3.889  -1.215   4.100  0.00  0.00     0.002 A 
ATOM      6  C7  UNL d   1       3.778   0.171   4.226  0.00  0.00     0.002 A 
ENDROOT
BRANCH   1   7
ATOM      7  C1  UNL d   1       2.727   2.376   3.592  0.00  0.00     0.055 C 
ATOM      8  C   UNL d   1       3.206   2.829   4.963  0.00  0.00     0.019 C 
ENDBRANCH   1   7
TORSDOF 1
ENDMDL
