MODEL 1
REMARK minimizedAffinity 7.64512873
REMARK minimizedRMSD -1
REMARK  1 active torsions:
REMARK  status: ('A' for Active; 'I' for Inactive)
REMARK    1  A    between atoms: C1_2  and  C2_3 
ROOT
ATOM      1  C2  UNL d   1      -1.932  -2.926  -1.923  0.00  0.00    -0.077 A 
ATOM      2  C3  UNL d   1      -1.254  -1.731  -1.644  0.00  0.00     0.002 A 
ATOM      3  C4  UNL d   1      -1.856  -0.499  -1.905  0.00  0.00     0.002 A 
ATOM      4  C5  UNL d   1      -3.141  -0.450  -2.442  0.00  0.00    -0.004 A 
ATOM      5  C6  UNL d   1      -3.823  -1.633  -2.725  0.00  0.00     0.002 A 
ATOM      6  C7  UNL d   1      -3.221  -2.865  -2.466  0.00  0.00     0.002 A 
ENDROOT
BRANCH   1   7
ATOM      7  C1  UNL d   1      -1.303  -4.255  -1.596  0.00  0.00     0.055 C 
ATOM      8  C   UNL d   1      -0.250  -4.116  -0.506  0.00  0.00     0.019 C 
ENDBRANCH   1   7
TORSDOF 1
ENDMDL
