MODEL 1
REMARK minimizedAffinity 3.17296839
REMARK minimizedRMSD -1
REMARK  1 active torsions:
REMARK  status: ('A' for Active; 'I' for Inactive)
REMARK    1  A    between atoms: C1_2  and  C2_3 
ROOT
ATOM      1  C2  UNL d   1      -0.761  -1.505   0.367  0.00  0.00    -0.077 A 
ATOM      2  C3  UNL d   1      -1.707  -0.615  -0.160  0.00  0.00     0.002 A 
ATOM      3  C4  UNL d   1      -1.330   0.677  -0.535  0.00  0.00     0.002 A 
ATOM      4  C5  UNL d   1      -0.007   1.088  -0.390  0.00  0.00    -0.004 A 
ATOM      5  C6  UNL d   1       0.941   0.211   0.136  0.00  0.00     0.002 A 
ATOM      6  C7  UNL d   1       0.566  -1.080   0.512  0.00  0.00     0.002 A 
ENDROOT
BRANCH   1   7
ATOM      7  C1  UNL d   1      -1.155  -2.914   0.726  0.00  0.00     0.055 C 
ATOM      8  C   UNL d   1      -0.623  -3.913  -0.292  0.00  0.00     0.019 C 
ENDBRANCH   1   7
TORSDOF 1
ENDMDL
