MODEL 1
REMARK minimizedAffinity 4.31565952
REMARK minimizedRMSD -1
REMARK  0 active torsions:
REMARK  status: ('A' for Active; 'I' for Inactive)
ROOT
ATOM      1  C   UNL d   1      -5.410  -1.078   2.935  0.00  0.00     0.172 C 
ATOM      2  N   UNL d   1      -4.516   0.025   3.195  0.00  0.00    -0.070 N 
ATOM      3  C1  UNL d   1      -3.497   0.437   2.378  0.00  0.00    -0.004 A 
ATOM      4  C2  UNL d   1      -2.883   1.514   2.978  0.00  0.00    -0.047 A 
ATOM      5  C3  UNL d   1      -3.555   1.758   4.200  0.00  0.00    -0.047 A 
ATOM      6  C4  UNL d   1      -4.561   0.822   4.309  0.00  0.00    -0.004 A 
ENDROOT
TORSDOF 0
ENDMDL
