MODEL 1
REMARK minimizedAffinity 4.80320787
REMARK minimizedRMSD -1
REMARK  0 active torsions:
REMARK  status: ('A' for Active; 'I' for Inactive)
ROOT
ATOM      1  C   UNL d   1      -0.124  -0.066   2.787  0.00  0.00     0.172 C 
ATOM      2  N   UNL d   1      -1.558  -0.048   2.954  0.00  0.00    -0.070 N 
ATOM      3  C1  UNL d   1      -2.331  -1.110   3.340  0.00  0.00    -0.004 A 
ATOM      4  C2  UNL d   1      -3.642  -0.687   3.381  0.00  0.00    -0.047 A 
ATOM      5  C3  UNL d   1      -3.658   0.678   3.006  0.00  0.00    -0.047 A 
ATOM      6  C4  UNL d   1      -2.355   1.048   2.747  0.00  0.00    -0.004 A 
ENDROOT
TORSDOF 0
ENDMDL
