MODEL 1
REMARK minimizedAffinity 4.7476263
REMARK minimizedRMSD -1
REMARK  0 active torsions:
REMARK  status: ('A' for Active; 'I' for Inactive)
ROOT
ATOM      1  C   UNL d   1      -3.121  -3.483  -3.551  0.00  0.00     0.172 C 
ATOM      2  N   UNL d   1      -1.999  -2.588  -3.393  0.00  0.00    -0.070 N 
ATOM      3  C1  UNL d   1      -2.079  -1.238  -3.181  0.00  0.00    -0.004 A 
ATOM      4  C2  UNL d   1      -0.794  -0.749  -3.084  0.00  0.00    -0.047 A 
ATOM      5  C3  UNL d   1       0.089  -1.843  -3.245  0.00  0.00    -0.047 A 
ATOM      6  C4  UNL d   1      -0.684  -2.969  -3.435  0.00  0.00    -0.004 A 
ENDROOT
TORSDOF 0
ENDMDL
