MODEL 1
REMARK minimizedAffinity 9.08526802
REMARK minimizedRMSD -1
REMARK  0 active torsions:
REMARK  status: ('A' for Active; 'I' for Inactive)
ROOT
ATOM      1  C   UNL d   1      -1.803  -3.369  -3.376  0.00  0.00     0.172 C 
ATOM      2  N   UNL d   1      -2.957  -3.356  -4.244  0.00  0.00    -0.070 N 
ATOM      3  C1  UNL d   1      -4.169  -3.930  -3.969  0.00  0.00    -0.004 A 
ATOM      4  C2  UNL d   1      -5.000  -3.697  -5.044  0.00  0.00    -0.047 A 
ATOM      5  C3  UNL d   1      -4.261  -2.958  -5.998  0.00  0.00    -0.047 A 
ATOM      6  C4  UNL d   1      -3.000  -2.761  -5.477  0.00  0.00    -0.004 A 
ENDROOT
TORSDOF 0
ENDMDL
