MODEL 1
REMARK minimizedAffinity -2.03280425
REMARK minimizedRMSD -1
REMARK  0 active torsions:
REMARK  status: ('A' for Active; 'I' for Inactive)
ROOT
ATOM      1  C   UNL d   1      -5.622  -5.475  -6.000  0.00  0.00     0.172 C 
ATOM      2  N   UNL d   1      -4.473  -4.886  -5.354  0.00  0.00    -0.070 N 
ATOM      3  C1  UNL d   1      -4.190  -4.947  -4.016  0.00  0.00    -0.004 A 
ATOM      4  C2  UNL d   1      -3.012  -4.266  -3.801  0.00  0.00    -0.047 A 
ATOM      5  C3  UNL d   1      -2.571  -3.778  -5.054  0.00  0.00    -0.047 A 
ATOM      6  C4  UNL d   1      -3.494  -4.176  -5.998  0.00  0.00    -0.004 A 
ENDROOT
TORSDOF 0
ENDMDL
