MODEL 1
REMARK minimizedAffinity 6.31818867
REMARK minimizedRMSD -1
REMARK  0 active torsions:
REMARK  status: ('A' for Active; 'I' for Inactive)
ROOT
ATOM      1  C   UNL d   1      -5.973   4.975  -5.999  0.00  0.00     0.172 C 
ATOM      2  N   UNL d   1      -4.562   4.670  -5.999  0.00  0.00    -0.070 N 
ATOM      3  C1  UNL d   1      -4.017   3.413  -5.999  0.00  0.00    -0.004 A 
ATOM      4  C2  UNL d   1      -2.646   3.548  -6.000  0.00  0.00    -0.047 A 
ATOM      5  C3  UNL d   1      -2.356   4.934  -5.998  0.00  0.00    -0.047 A 
ATOM      6  C4  UNL d   1      -3.561   5.605  -5.998  0.00  0.00    -0.004 A 
ENDROOT
TORSDOF 0
ENDMDL
