MODEL 1
REMARK minimizedAffinity 9.13664341
REMARK minimizedRMSD -1
REMARK  0 active torsions:
REMARK  status: ('A' for Active; 'I' for Inactive)
ROOT
ATOM      1  C   UNL d   1       0.512  -4.485  -3.372  0.00  0.00     0.172 C 
ATOM      2  N   UNL d   1       1.522  -4.782  -2.383  0.00  0.00    -0.070 N 
ATOM      3  C1  UNL d   1       2.016  -3.901  -1.459  0.00  0.00    -0.004 A 
ATOM      4  C2  UNL d   1       2.957  -4.566  -0.703  0.00  0.00    -0.047 A 
ATOM      5  C3  UNL d   1       3.032  -5.892  -1.192  0.00  0.00    -0.047 A 
ATOM      6  C4  UNL d   1       2.132  -5.998  -2.231  0.00  0.00    -0.004 A 
ENDROOT
TORSDOF 0
ENDMDL
