MODEL 1
REMARK minimizedAffinity 11.7318592
REMARK minimizedRMSD -1
REMARK  0 active torsions:
REMARK  status: ('A' for Active; 'I' for Inactive)
ROOT
ATOM      1  C   UNL d   1      -2.854  -3.087  -4.203  0.00  0.00     0.172 C 
ATOM      2  N   UNL d   1      -4.062  -3.394  -4.932  0.00  0.00    -0.070 N 
ATOM      3  C1  UNL d   1      -5.007  -2.486  -5.328  0.00  0.00    -0.004 A 
ATOM      4  C2  UNL d   1      -5.999  -3.173  -5.993  0.00  0.00    -0.047 A 
ATOM      5  C3  UNL d   1      -5.639  -4.541  -5.996  0.00  0.00    -0.047 A 
ATOM      6  C4  UNL d   1      -4.435  -4.650  -5.332  0.00  0.00    -0.004 A 
ENDROOT
TORSDOF 0
ENDMDL
