MODEL 1
REMARK minimizedAffinity 0.717918813
REMARK minimizedRMSD -1
REMARK  0 active torsions:
REMARK  status: ('A' for Active; 'I' for Inactive)
ROOT
ATOM      1  C   UNL d   1      -2.554  -3.693  -4.907  0.00  0.00     0.172 C 
ATOM      2  N   UNL d   1      -3.882  -4.042  -5.351  0.00  0.00    -0.070 N 
ATOM      3  C1  UNL d   1      -4.335  -5.311  -5.595  0.00  0.00    -0.004 A 
ATOM      4  C2  UNL d   1      -5.649  -5.220  -5.999  0.00  0.00    -0.047 A 
ATOM      5  C3  UNL d   1      -5.999  -3.849  -5.998  0.00  0.00    -0.047 A 
ATOM      6  C4  UNL d   1      -4.887  -3.142  -5.593  0.00  0.00    -0.004 A 
ENDROOT
TORSDOF 0
ENDMDL
