MODEL 1
REMARK minimizedAffinity 4.72300959
REMARK minimizedRMSD -1
REMARK  0 active torsions:
REMARK  status: ('A' for Active; 'I' for Inactive)
ROOT
ATOM      1  C   UNL d   1      -5.070  -3.447  -4.797  0.00  0.00     0.172 C 
ATOM      2  N   UNL d   1      -3.809  -3.620  -4.115  0.00  0.00    -0.070 N 
ATOM      3  C1  UNL d   1      -2.743  -2.764  -4.180  0.00  0.00    -0.004 A 
ATOM      4  C2  UNL d   1      -1.737  -3.282  -3.393  0.00  0.00    -0.047 A 
ATOM      5  C3  UNL d   1      -2.215  -4.492  -2.837  0.00  0.00    -0.047 A 
ATOM      6  C4  UNL d   1      -3.500  -4.678  -3.301  0.00  0.00    -0.004 A 
ENDROOT
TORSDOF 0
ENDMDL
