MODEL 1
REMARK minimizedAffinity 6.05592489
REMARK minimizedRMSD -1
REMARK  0 active torsions:
REMARK  status: ('A' for Active; 'I' for Inactive)
ROOT
ATOM      1  C   UNL d   1       0.569   1.204   2.464  0.00  0.00     0.172 C 
ATOM      2  N   UNL d   1       0.446   1.171   3.903  0.00  0.00    -0.070 N 
ATOM      3  C1  UNL d   1       0.006   2.202   4.690  0.00  0.00    -0.004 A 
ATOM      4  C2  UNL d   1       0.035   1.774   6.000  0.00  0.00    -0.047 A 
ATOM      5  C3  UNL d   1       0.510   0.441   6.000  0.00  0.00    -0.047 A 
ATOM      6  C4  UNL d   1       0.757   0.093   4.689  0.00  0.00    -0.004 A 
ENDROOT
TORSDOF 0
ENDMDL
