MODEL 1
REMARK minimizedAffinity -0.802664042
REMARK minimizedRMSD -1
REMARK  0 active torsions:
REMARK  status: ('A' for Active; 'I' for Inactive)
ROOT
ATOM      1  C   UNL d   1      -0.455  -4.338  -3.724  0.00  0.00     0.172 C 
ATOM      2  N   UNL d   1      -1.858  -4.385  -4.063  0.00  0.00    -0.070 N 
ATOM      3  C1  UNL d   1      -2.418  -3.908  -5.218  0.00  0.00    -0.004 A 
ATOM      4  C2  UNL d   1      -3.774  -4.143  -5.158  0.00  0.00    -0.047 A 
ATOM      5  C3  UNL d   1      -4.040  -4.782  -3.924  0.00  0.00    -0.047 A 
ATOM      6  C4  UNL d   1      -2.836  -4.920  -3.266  0.00  0.00    -0.004 A 
ENDROOT
TORSDOF 0
ENDMDL
