MODEL 1
REMARK minimizedAffinity 5.40999651
REMARK minimizedRMSD -1
REMARK  0 active torsions:
REMARK  status: ('A' for Active; 'I' for Inactive)
ROOT
ATOM      1  C   UNL d   1       0.318   0.588   3.036  0.00  0.00     0.172 C 
ATOM      2  N   UNL d   1      -1.110   0.446   2.878  0.00  0.00    -0.070 N 
ATOM      3  C1  UNL d   1      -2.010   0.252   3.891  0.00  0.00    -0.004 A 
ATOM      4  C2  UNL d   1      -3.266   0.168   3.330  0.00  0.00    -0.047 A 
ATOM      5  C3  UNL d   1      -3.115   0.315   1.931  0.00  0.00    -0.047 A 
ATOM      6  C4  UNL d   1      -1.770   0.486   1.678  0.00  0.00    -0.004 A 
ENDROOT
TORSDOF 0
ENDMDL
