MODEL 1
REMARK minimizedAffinity 2.76901507
REMARK minimizedRMSD -1
REMARK  0 active torsions:
REMARK  status: ('A' for Active; 'I' for Inactive)
ROOT
ATOM      1  C   UNL d   1      -2.609   4.522  -6.000  0.00  0.00     0.172 C 
ATOM      2  N   UNL d   1      -2.020   3.348  -5.399  0.00  0.00    -0.070 N 
ATOM      3  C1  UNL d   1      -1.457   3.287  -4.153  0.00  0.00    -0.004 A 
ATOM      4  C2  UNL d   1      -1.012   1.998  -3.953  0.00  0.00    -0.047 A 
ATOM      5  C3  UNL d   1      -1.317   1.259  -5.121  0.00  0.00    -0.047 A 
ATOM      6  C4  UNL d   1      -1.941   2.120  -6.000  0.00  0.00    -0.004 A 
ENDROOT
TORSDOF 0
ENDMDL
