MODEL 1
REMARK minimizedAffinity -1.57199502
REMARK minimizedRMSD -1
REMARK  0 active torsions:
REMARK  status: ('A' for Active; 'I' for Inactive)
ROOT
ATOM      1  C   UNL d   1      -4.763  -4.152  -5.999  0.00  0.00     0.172 C 
ATOM      2  N   UNL d   1      -3.592  -4.207  -5.156  0.00  0.00    -0.070 N 
ATOM      3  C1  UNL d   1      -2.317  -3.889  -5.539  0.00  0.00    -0.004 A 
ATOM      4  C2  UNL d   1      -1.491  -4.072  -4.451  0.00  0.00    -0.047 A 
ATOM      5  C3  UNL d   1      -2.298  -4.516  -3.377  0.00  0.00    -0.047 A 
ATOM      6  C4  UNL d   1      -3.595  -4.591  -3.841  0.00  0.00    -0.004 A 
ENDROOT
TORSDOF 0
ENDMDL
