MODEL 1
REMARK minimizedAffinity 6.02436447
REMARK minimizedRMSD -1
REMARK  0 active torsions:
REMARK  status: ('A' for Active; 'I' for Inactive)
ROOT
ATOM      1  C   UNL d   1       0.157   0.074   3.019  0.00  0.00     0.172 C 
ATOM      2  N   UNL d   1      -1.266   0.043   2.776  0.00  0.00    -0.070 N 
ATOM      3  C1  UNL d   1      -2.051  -1.079   2.774  0.00  0.00    -0.004 A 
ATOM      4  C2  UNL d   1      -3.345  -0.688   2.503  0.00  0.00    -0.047 A 
ATOM      5  C3  UNL d   1      -3.336   0.717   2.335  0.00  0.00    -0.047 A 
ATOM      6  C4  UNL d   1      -2.037   1.143   2.509  0.00  0.00    -0.004 A 
ENDROOT
TORSDOF 0
ENDMDL
