MODEL 1
REMARK minimizedAffinity 2.49470019
REMARK minimizedRMSD -1
REMARK  0 active torsions:
REMARK  status: ('A' for Active; 'I' for Inactive)
ROOT
ATOM      1  C   UNL d   1      -5.955  -2.838  -6.000  0.00  0.00     0.172 C 
ATOM      2  N   UNL d   1      -4.719  -3.321  -5.430  0.00  0.00    -0.070 N 
ATOM      3  C1  UNL d   1      -3.619  -2.556  -5.147  0.00  0.00    -0.004 A 
ATOM      4  C2  UNL d   1      -2.654  -3.385  -4.617  0.00  0.00    -0.047 A 
ATOM      5  C3  UNL d   1      -3.192  -4.693  -4.582  0.00  0.00    -0.047 A 
ATOM      6  C4  UNL d   1      -4.472  -4.625  -5.091  0.00  0.00    -0.004 A 
ENDROOT
TORSDOF 0
ENDMDL
