MODEL 1
REMARK minimizedAffinity 2.00707555
REMARK minimizedRMSD -1
REMARK  0 active torsions:
REMARK  status: ('A' for Active; 'I' for Inactive)
ROOT
ATOM      1  C   UNL d   1      -3.535  -3.329  -4.989  0.00  0.00     0.172 C 
ATOM      2  N   UNL d   1      -2.597  -3.989  -4.111  0.00  0.00    -0.070 N 
ATOM      3  C1  UNL d   1      -1.244  -3.783  -4.089  0.00  0.00    -0.004 A 
ATOM      4  C2  UNL d   1      -0.708  -4.598  -3.116  0.00  0.00    -0.047 A 
ATOM      5  C3  UNL d   1      -1.777  -5.320  -2.533  0.00  0.00    -0.047 A 
ATOM      6  C4  UNL d   1      -2.935  -4.924  -3.168  0.00  0.00    -0.004 A 
ENDROOT
TORSDOF 0
ENDMDL
