MODEL 1
REMARK minimizedAffinity -0.764343798
REMARK minimizedRMSD -1
REMARK  0 active torsions:
REMARK  status: ('A' for Active; 'I' for Inactive)
ROOT
ATOM      1  C   UNL d   1       1.509  -4.857  -3.138  0.00  0.00     0.172 C 
ATOM      2  N   UNL d   1       2.039  -3.918  -2.177  0.00  0.00    -0.070 N 
ATOM      3  C1  UNL d   1       3.264  -4.002  -1.571  0.00  0.00    -0.004 A 
ATOM      4  C2  UNL d   1       3.392  -2.920  -0.727  0.00  0.00    -0.047 A 
ATOM      5  C3  UNL d   1       2.203  -2.160  -0.828  0.00  0.00    -0.047 A 
ATOM      6  C4  UNL d   1       1.383  -2.801  -1.733  0.00  0.00    -0.004 A 
ENDROOT
TORSDOF 0
ENDMDL
