MODEL 1
REMARK minimizedAffinity 8.25165462
REMARK minimizedRMSD -1
REMARK  0 active torsions:
REMARK  status: ('A' for Active; 'I' for Inactive)
ROOT
ATOM      1  C   UNL d   1       5.997   1.360   3.347  0.00  0.00    -0.002 A 
ATOM      2  C1  UNL d   1       5.994   1.843   4.648  0.00  0.00     0.010 A 
ATOM      3  C2  UNL d   1       5.993   3.217   4.896  0.00  0.00     0.041 A 
ATOM      4  C3  UNL d   1       5.994   4.106   3.804  0.00  0.00    -0.075 A 
ATOM      5  S   UNL d   1       5.992   5.829   3.866  0.00  0.00     0.015 SA
ATOM      6  C4  UNL d   1       5.995   5.965   2.167  0.00  0.00     0.022 A 
ATOM      7  C5  UNL d   1       5.997   4.736   1.551  0.00  0.00     0.026 A 
ATOM      8  C6  UNL d   1       5.996   3.644   2.484  0.00  0.00    -0.082 A 
ATOM      9  C7  UNL d   1       5.997   2.246   2.266  0.00  0.00     0.045 A 
ENDROOT
TORSDOF 0
ENDMDL
