MODEL 1
REMARK minimizedAffinity 13.7448626
REMARK minimizedRMSD -1
REMARK  0 active torsions:
REMARK  status: ('A' for Active; 'I' for Inactive)
ROOT
ATOM      1  C   UNL d   1       3.220   2.541   4.705  0.00  0.00    -0.002 A 
ATOM      2  C1  UNL d   1       4.345   2.546   3.892  0.00  0.00     0.010 A 
ATOM      3  C2  UNL d   1       4.216   2.498   2.503  0.00  0.00     0.041 A 
ATOM      4  C3  UNL d   1       2.927   2.445   1.939  0.00  0.00    -0.075 A 
ATOM      5  S   UNL d   1       2.527   2.381   0.263  0.00  0.00     0.015 SA
ATOM      6  C4  UNL d   1       0.854   2.346   0.587  0.00  0.00     0.022 A 
ATOM      7  C5  UNL d   1       0.589   2.381   1.936  0.00  0.00     0.026 A 
ATOM      8  C6  UNL d   1       1.779   2.439   2.737  0.00  0.00    -0.082 A 
ATOM      9  C7  UNL d   1       1.942   2.488   4.142  0.00  0.00     0.045 A 
ENDROOT
TORSDOF 0
ENDMDL
