MODEL 1
REMARK minimizedAffinity 9.24681664
REMARK minimizedRMSD -1
REMARK  0 active torsions:
REMARK  status: ('A' for Active; 'I' for Inactive)
ROOT
ATOM      1  C   UNL d   1       2.526   0.943  -2.523  0.00  0.00    -0.002 A 
ATOM      2  C1  UNL d   1       1.743  -0.025  -3.136  0.00  0.00     0.010 A 
ATOM      3  C2  UNL d   1       0.712  -0.654  -2.436  0.00  0.00     0.041 A 
ATOM      4  C3  UNL d   1       0.477  -0.288  -1.096  0.00  0.00    -0.075 A 
ATOM      5  S   UNL d   1      -0.731  -0.923  -0.042  0.00  0.00     0.015 SA
ATOM      6  C4  UNL d   1      -0.238   0.076   1.247  0.00  0.00     0.022 A 
ATOM      7  C5  UNL d   1       0.821   0.881   0.900  0.00  0.00     0.026 A 
ATOM      8  C6  UNL d   1       1.250   0.684  -0.456  0.00  0.00    -0.082 A 
ATOM      9  C7  UNL d   1       2.289   1.303  -1.193  0.00  0.00     0.045 A 
ENDROOT
TORSDOF 0
ENDMDL
