MODEL 1
REMARK minimizedAffinity 15.1253853
REMARK minimizedRMSD -1
REMARK  0 active torsions:
REMARK  status: ('A' for Active; 'I' for Inactive)
ROOT
ATOM      1  C   UNL d   1       6.000   0.023   6.000  0.00  0.00    -0.002 A 
ATOM      2  C1  UNL d   1       5.529  -1.170   5.472  0.00  0.00     0.010 A 
ATOM      3  C2  UNL d   1       5.046  -1.226   4.163  0.00  0.00     0.041 A 
ATOM      4  C3  UNL d   1       5.046  -0.052   3.386  0.00  0.00    -0.075 A 
ATOM      5  S   UNL d   1       4.504   0.118   1.758  0.00  0.00     0.015 SA
ATOM      6  C4  UNL d   1       4.886   1.779   1.725  0.00  0.00     0.022 A 
ATOM      7  C5  UNL d   1       5.415   2.210   2.918  0.00  0.00     0.026 A 
ATOM      8  C6  UNL d   1       5.517   1.162   3.895  0.00  0.00    -0.082 A 
ATOM      9  C7  UNL d   1       5.999   1.187   5.226  0.00  0.00     0.045 A 
ENDROOT
TORSDOF 0
ENDMDL
