MODEL 1
REMARK minimizedAffinity 9.83140182
REMARK minimizedRMSD -1
REMARK  0 active torsions:
REMARK  status: ('A' for Active; 'I' for Inactive)
ROOT
ATOM      1  C   UNL d   1       5.998   4.021   0.995  0.00  0.00    -0.002 A 
ATOM      2  C1  UNL d   1       5.997   5.395   1.191  0.00  0.00     0.010 A 
ATOM      3  C2  UNL d   1       5.994   5.928   2.481  0.00  0.00     0.041 A 
ATOM      4  C3  UNL d   1       5.994   5.049   3.582  0.00  0.00    -0.075 A 
ATOM      5  S   UNL d   1       5.991   5.475   5.253  0.00  0.00     0.015 SA
ATOM      6  C4  UNL d   1       5.993   3.843   5.745  0.00  0.00     0.022 A 
ATOM      7  C5  UNL d   1       5.995   2.981   4.674  0.00  0.00     0.026 A 
ATOM      8  C6  UNL d   1       5.996   3.662   3.410  0.00  0.00    -0.082 A 
ATOM      9  C7  UNL d   1       5.998   3.152   2.089  0.00  0.00     0.045 A 
ENDROOT
TORSDOF 0
ENDMDL
