MODEL 1
REMARK minimizedAffinity 7.29646397
REMARK minimizedRMSD -1
REMARK  0 active torsions:
REMARK  status: ('A' for Active; 'I' for Inactive)
ROOT
ATOM      1  C   UNL d   1       0.796  -2.914   0.486  0.00  0.00    -0.002 A 
ATOM      2  C1  UNL d   1       1.186  -1.976   1.431  0.00  0.00     0.010 A 
ATOM      3  C2  UNL d   1       1.905  -2.365   2.563  0.00  0.00     0.041 A 
ATOM      4  C3  UNL d   1       2.230  -3.725   2.729  0.00  0.00    -0.075 A 
ATOM      5  S   UNL d   1       3.105  -4.433   4.036  0.00  0.00     0.015 SA
ATOM      6  C4  UNL d   1       2.982  -5.997   3.370  0.00  0.00     0.022 A 
ATOM      7  C5  UNL d   1       2.293  -5.998   2.180  0.00  0.00     0.026 A 
ATOM      8  C6  UNL d   1       1.849  -4.689   1.791  0.00  0.00    -0.082 A 
ATOM      9  C7  UNL d   1       1.121  -4.263   0.654  0.00  0.00     0.045 A 
ENDROOT
TORSDOF 0
ENDMDL
