MODEL 1
REMARK minimizedAffinity 17.3965321
REMARK minimizedRMSD -1
REMARK  0 active torsions:
REMARK  status: ('A' for Active; 'I' for Inactive)
ROOT
ATOM      1  C   UNL d   1       1.544   3.737   2.985  0.00  0.00    -0.002 A 
ATOM      2  C1  UNL d   1       2.121   3.370   1.777  0.00  0.00     0.010 A 
ATOM      3  C2  UNL d   1       3.496   3.502   1.579  0.00  0.00     0.041 A 
ATOM      4  C3  UNL d   1       4.290   4.011   2.625  0.00  0.00    -0.075 A 
ATOM      5  S   UNL d   1       5.996   4.259   2.608  0.00  0.00     0.015 SA
ATOM      6  C4  UNL d   1       6.000   4.857   4.205  0.00  0.00     0.022 A 
ATOM      7  C5  UNL d   1       4.739   4.874   4.751  0.00  0.00     0.026 A 
ATOM      8  C6  UNL d   1       3.733   4.386   3.850  0.00  0.00    -0.082 A 
ATOM      9  C7  UNL d   1       2.335   4.242   4.020  0.00  0.00     0.045 A 
ENDROOT
TORSDOF 0
ENDMDL
