MODEL 1
REMARK minimizedAffinity 4.41306543
REMARK minimizedRMSD -1
REMARK  0 active torsions:
REMARK  status: ('A' for Active; 'I' for Inactive)
ROOT
ATOM      1  C   UNL d   1       2.563  -0.794  -1.241  0.00  0.00    -0.002 A 
ATOM      2  C1  UNL d   1       1.376  -1.357  -0.794  0.00  0.00     0.010 A 
ATOM      3  C2  UNL d   1       0.547  -0.660   0.086  0.00  0.00     0.041 A 
ATOM      4  C3  UNL d   1       0.932   0.627   0.511  0.00  0.00    -0.075 A 
ATOM      5  S   UNL d   1       0.074   1.667   1.585  0.00  0.00     0.015 SA
ATOM      6  C4  UNL d   1       1.263   2.884   1.474  0.00  0.00     0.022 A 
ATOM      7  C5  UNL d   1       2.296   2.522   0.643  0.00  0.00     0.026 A 
ATOM      8  C6  UNL d   1       2.122   1.215   0.074  0.00  0.00    -0.082 A 
ATOM      9  C7  UNL d   1       2.943   0.482  -0.817  0.00  0.00     0.045 A 
ENDROOT
TORSDOF 0
ENDMDL
