MODEL 1
REMARK minimizedAffinity 5.22972965
REMARK minimizedRMSD -1
REMARK  0 active torsions:
REMARK  status: ('A' for Active; 'I' for Inactive)
ROOT
ATOM      1  C   UNL d   1       5.775   5.943   4.989  0.00  0.00    -0.002 A 
ATOM      2  C1  UNL d   1       5.710   5.769   3.614  0.00  0.00     0.010 A 
ATOM      3  C2  UNL d   1       5.741   4.489   3.058  0.00  0.00     0.041 A 
ATOM      4  C3  UNL d   1       5.837   3.376   3.916  0.00  0.00    -0.075 A 
ATOM      5  S   UNL d   1       5.890   1.714   3.460  0.00  0.00     0.015 SA
ATOM      6  C4  UNL d   1       5.999   1.196   5.080  0.00  0.00     0.022 A 
ATOM      7  C5  UNL d   1       5.997   2.252   5.960  0.00  0.00     0.026 A 
ATOM      8  C6  UNL d   1       5.903   3.525   5.304  0.00  0.00    -0.082 A 
ATOM      9  C7  UNL d   1       5.871   4.836   5.837  0.00  0.00     0.045 A 
ENDROOT
TORSDOF 0
ENDMDL
