MODEL 1
REMARK minimizedAffinity 6.81461191
REMARK minimizedRMSD -1
REMARK  0 active torsions:
REMARK  status: ('A' for Active; 'I' for Inactive)
ROOT
ATOM      1  C   UNL d   1      -1.470  -5.641   1.068  0.00  0.00    -0.002 A 
ATOM      2  C1  UNL d   1      -2.822  -5.588   0.762  0.00  0.00     0.010 A 
ATOM      3  C2  UNL d   1      -3.394  -4.412   0.272  0.00  0.00     0.041 A 
ATOM      4  C3  UNL d   1      -2.575  -3.280   0.090  0.00  0.00    -0.075 A 
ATOM      5  S   UNL d   1      -3.056  -1.733  -0.499  0.00  0.00     0.015 SA
ATOM      6  C4  UNL d   1      -1.477  -1.106  -0.360  0.00  0.00     0.022 A 
ATOM      7  C5  UNL d   1      -0.592  -2.041   0.123  0.00  0.00     0.026 A 
ATOM      8  C6  UNL d   1      -1.210  -3.310   0.389  0.00  0.00    -0.082 A 
ATOM      9  C7  UNL d   1      -0.660  -4.516   0.886  0.00  0.00     0.045 A 
ENDROOT
TORSDOF 0
ENDMDL
