MODEL 1
REMARK minimizedAffinity 8.93094921
REMARK minimizedRMSD -1
REMARK  0 active torsions:
REMARK  status: ('A' for Active; 'I' for Inactive)
ROOT
ATOM      1  C   UNL d   1       2.569   2.505   0.014  0.00  0.00    -0.002 A 
ATOM      2  C1  UNL d   1       3.394   1.548  -0.559  0.00  0.00     0.010 A 
ATOM      3  C2  UNL d   1       4.431   1.926  -1.415  0.00  0.00     0.041 A 
ATOM      4  C3  UNL d   1       4.627   3.294  -1.686  0.00  0.00    -0.075 A 
ATOM      5  S   UNL d   1       5.833   3.990  -2.703  0.00  0.00     0.015 SA
ATOM      6  C4  UNL d   1       5.282   5.574  -2.399  0.00  0.00     0.022 A 
ATOM      7  C5  UNL d   1       4.204   5.590  -1.546  0.00  0.00     0.026 A 
ATOM      8  C6  UNL d   1       3.809   4.276  -1.120  0.00  0.00    -0.082 A 
ATOM      9  C7  UNL d   1       2.766   3.861  -0.258  0.00  0.00     0.045 A 
ENDROOT
TORSDOF 0
ENDMDL
