MODEL 1
REMARK minimizedAffinity 16.365654
REMARK minimizedRMSD -1
REMARK  0 active torsions:
REMARK  status: ('A' for Active; 'I' for Inactive)
ROOT
ATOM      1  C   UNL d   1       1.862   0.742  -3.604  0.00  0.00    -0.002 A 
ATOM      2  C1  UNL d   1       2.729   0.585  -2.532  0.00  0.00     0.010 A 
ATOM      3  C2  UNL d   1       4.032   1.086  -2.593  0.00  0.00     0.041 A 
ATOM      4  C3  UNL d   1       4.451   1.754  -3.760  0.00  0.00    -0.075 A 
ATOM      5  S   UNL d   1       6.000   2.451  -4.059  0.00  0.00     0.015 SA
ATOM      6  C4  UNL d   1       5.546   2.974  -5.616  0.00  0.00     0.022 A 
ATOM      7  C5  UNL d   1       4.249   2.634  -5.917  0.00  0.00     0.026 A 
ATOM      8  C6  UNL d   1       3.596   1.926  -4.852  0.00  0.00    -0.082 A 
ATOM      9  C7  UNL d   1       2.282   1.406  -4.760  0.00  0.00     0.045 A 
ENDROOT
TORSDOF 0
ENDMDL
