MODEL 1
REMARK minimizedAffinity 1.68489039
REMARK minimizedRMSD -1
REMARK  1 active torsions:
REMARK  status: ('A' for Active; 'I' for Inactive)
REMARK    1  A    between atoms: C1_2  and  C2_3 
ROOT
ATOM      1  C2  UNL d   1      -2.340   1.612  -3.675  0.00  0.00    -0.076 A 
ATOM      2  C3  UNL d   1      -2.753   2.666  -4.507  0.00  0.00     0.004 A 
ATOM      3  C4  UNL d   1      -1.846   3.629  -4.949  0.00  0.00    -0.003 A 
ATOM      4  C5  UNL d   1      -0.512   3.551  -4.565  0.00  0.00     0.000 A 
ATOM      5  C6  UNL d   1      -0.082   2.502  -3.754  0.00  0.00     0.000 A 
ATOM      6  C7  UNL d   1      -0.980   1.514  -3.313  0.00  0.00    -0.073 A 
ATOM      7  C8  UNL d   1      -0.462   0.408  -2.435  0.00  0.00     0.078 C 
ENDROOT
BRANCH   1   8
ATOM      8  C1  UNL d   1      -3.374   0.613  -3.205  0.00  0.00     0.053 C 
ATOM      9  C   UNL d   1      -4.168   1.115  -2.009  0.00  0.00     0.018 C 
ENDBRANCH   1   8
TORSDOF 1
ENDMDL
