MODEL 1
REMARK minimizedAffinity 0.244818896
REMARK minimizedRMSD -1
REMARK  1 active torsions:
REMARK  status: ('A' for Active; 'I' for Inactive)
REMARK    1  A    between atoms: C1_2  and  C2_3 
ROOT
ATOM      1  C2  UNL d   1       1.888   0.655  -0.158  0.00  0.00    -0.076 A 
ATOM      2  C3  UNL d   1       0.690   1.382  -0.265  0.00  0.00     0.004 A 
ATOM      3  C4  UNL d   1      -0.492   0.903   0.296  0.00  0.00    -0.003 A 
ATOM      4  C5  UNL d   1      -0.496  -0.311   0.974  0.00  0.00     0.000 A 
ATOM      5  C6  UNL d   1       0.688  -1.038   1.105  0.00  0.00     0.000 A 
ATOM      6  C7  UNL d   1       1.892  -0.561   0.559  0.00  0.00    -0.073 A 
ATOM      7  C8  UNL d   1       3.137  -1.388   0.725  0.00  0.00     0.078 C 
ENDROOT
BRANCH   1   8
ATOM      8  C1  UNL d   1       3.134   1.211  -0.811  0.00  0.00     0.053 C 
ATOM      9  C   UNL d   1       3.436   2.635  -0.369  0.00  0.00     0.018 C 
ENDBRANCH   1   8
TORSDOF 1
ENDMDL
