MODEL 1
REMARK minimizedAffinity -2.95367074
REMARK minimizedRMSD -1
REMARK  1 active torsions:
REMARK  status: ('A' for Active; 'I' for Inactive)
REMARK    1  A    between atoms: C1_2  and  C2_3 
ROOT
ATOM      1  C2  UNL d   1       1.679  -1.262   1.863  0.00  0.00    -0.076 A 
ATOM      2  C3  UNL d   1       2.972  -1.672   1.494  0.00  0.00     0.004 A 
ATOM      3  C4  UNL d   1       3.567  -1.203   0.324  0.00  0.00    -0.003 A 
ATOM      4  C5  UNL d   1       2.878  -0.317  -0.497  0.00  0.00     0.000 A 
ATOM      5  C6  UNL d   1       1.602   0.114  -0.137  0.00  0.00     0.000 A 
ATOM      6  C7  UNL d   1       0.994  -0.336   1.047  0.00  0.00    -0.073 A 
ATOM      7  C8  UNL d   1      -0.387   0.156   1.383  0.00  0.00     0.078 C 
ENDROOT
BRANCH   1   8
ATOM      8  C1  UNL d   1       1.074  -1.825   3.129  0.00  0.00     0.053 C 
ATOM      9  C   UNL d   1       1.617  -1.154   4.382  0.00  0.00     0.018 C 
ENDBRANCH   1   8
TORSDOF 1
ENDMDL
