MODEL 1
REMARK minimizedAffinity -2.00622559
REMARK minimizedRMSD -1
REMARK  1 active torsions:
REMARK  status: ('A' for Active; 'I' for Inactive)
REMARK    1  A    between atoms: C1_2  and  C2_3 
ROOT
ATOM      1  C2  UNL d   1      -1.289  -5.647  -3.204  0.00  0.00    -0.076 A 
ATOM      2  C3  UNL d   1      -0.065  -5.537  -3.885  0.00  0.00     0.004 A 
ATOM      3  C4  UNL d   1      -0.001  -5.665  -5.272  0.00  0.00    -0.003 A 
ATOM      4  C5  UNL d   1      -1.161  -5.905  -6.000  0.00  0.00     0.000 A 
ATOM      5  C6  UNL d   1      -2.387  -6.000  -5.343  0.00  0.00     0.000 A 
ATOM      6  C7  UNL d   1      -2.471  -5.857  -3.947  0.00  0.00    -0.073 A 
ATOM      7  C8  UNL d   1      -3.819  -5.975  -3.289  0.00  0.00     0.078 C 
ENDROOT
BRANCH   1   8
ATOM      8  C1  UNL d   1      -1.294  -5.527  -1.697  0.00  0.00     0.053 C 
ATOM      9  C   UNL d   1      -0.485  -4.336  -1.206  0.00  0.00     0.018 C 
ENDBRANCH   1   8
TORSDOF 1
ENDMDL
