MODEL 1
REMARK minimizedAffinity -0.376468182
REMARK minimizedRMSD -1
REMARK  1 active torsions:
REMARK  status: ('A' for Active; 'I' for Inactive)
REMARK    1  A    between atoms: C1_2  and  C2_3 
ROOT
ATOM      1  C2  UNL d   1      -1.760  -5.260  -3.361  0.00  0.00    -0.076 A 
ATOM      2  C3  UNL d   1      -0.434  -5.015  -3.758  0.00  0.00     0.004 A 
ATOM      3  C4  UNL d   1      -0.020  -5.258  -5.066  0.00  0.00    -0.003 A 
ATOM      4  C5  UNL d   1      -0.925  -5.749  -6.000  0.00  0.00     0.000 A 
ATOM      5  C6  UNL d   1      -2.249  -5.981  -5.629  0.00  0.00     0.000 A 
ATOM      6  C7  UNL d   1      -2.687  -5.726  -4.318  0.00  0.00    -0.073 A 
ATOM      7  C8  UNL d   1      -4.125  -6.000  -3.971  0.00  0.00     0.078 C 
ENDROOT
BRANCH   1   8
ATOM      8  C1  UNL d   1      -2.145  -5.003  -1.922  0.00  0.00     0.053 C 
ATOM      9  C   UNL d   1      -1.124  -4.145  -1.190  0.00  0.00     0.018 C 
ENDBRANCH   1   8
TORSDOF 1
ENDMDL
