MODEL 1
REMARK minimizedAffinity 5.23784685
REMARK minimizedRMSD -1
REMARK  1 active torsions:
REMARK  status: ('A' for Active; 'I' for Inactive)
REMARK    1  A    between atoms: C1_2  and  C2_3 
ROOT
ATOM      1  C2  UNL d   1      -4.925   0.340  -0.063  0.00  0.00    -0.076 A 
ATOM      2  C3  UNL d   1      -5.987   0.748  -0.889  0.00  0.00     0.004 A 
ATOM      3  C4  UNL d   1      -5.872   0.709  -2.277  0.00  0.00    -0.003 A 
ATOM      4  C5  UNL d   1      -4.693   0.261  -2.863  0.00  0.00     0.000 A 
ATOM      5  C6  UNL d   1      -3.636  -0.164  -2.059  0.00  0.00     0.000 A 
ATOM      6  C7  UNL d   1      -3.741  -0.146  -0.658  0.00  0.00    -0.073 A 
ATOM      7  C8  UNL d   1      -2.568  -0.610   0.160  0.00  0.00     0.078 C 
ENDROOT
BRANCH   1   8
ATOM      8  C1  UNL d   1      -5.098   0.431   1.436  0.00  0.00     0.053 C 
ATOM      9  C   UNL d   1      -5.720  -0.824   2.028  0.00  0.00     0.018 C 
ENDBRANCH   1   8
TORSDOF 1
ENDMDL
