MODEL 1
REMARK minimizedAffinity 0.878428698
REMARK minimizedRMSD -1
REMARK  1 active torsions:
REMARK  status: ('A' for Active; 'I' for Inactive)
REMARK    1  A    between atoms: C1_2  and  C2_3 
ROOT
ATOM      1  C2  UNL d   1      -3.622  -5.379   1.531  0.00  0.00    -0.076 A 
ATOM      2  C3  UNL d   1      -4.827  -5.637   0.853  0.00  0.00     0.004 A 
ATOM      3  C4  UNL d   1      -5.992  -5.945   1.553  0.00  0.00    -0.003 A 
ATOM      4  C5  UNL d   1      -5.973  -5.999   2.942  0.00  0.00     0.000 A 
ATOM      5  C6  UNL d   1      -4.791  -5.728   3.632  0.00  0.00     0.000 A 
ATOM      6  C7  UNL d   1      -3.611  -5.401   2.942  0.00  0.00    -0.073 A 
ATOM      7  C8  UNL d   1      -2.364  -5.124   3.736  0.00  0.00     0.078 C 
ENDROOT
BRANCH   1   8
ATOM      8  C1  UNL d   1      -2.384  -5.077   0.718  0.00  0.00     0.053 C 
ATOM      9  C   UNL d   1      -2.161  -3.585   0.527  0.00  0.00     0.018 C 
ENDBRANCH   1   8
TORSDOF 1
ENDMDL
