MODEL 1
REMARK minimizedAffinity -3.66246986
REMARK minimizedRMSD -1
REMARK  1 active torsions:
REMARK  status: ('A' for Active; 'I' for Inactive)
REMARK    1  A    between atoms: C1_2  and  C2_3 
ROOT
ATOM      1  C2  UNL d   1      -3.949  -5.729  -0.544  0.00  0.00    -0.076 A 
ATOM      2  C3  UNL d   1      -5.148  -6.000   0.139  0.00  0.00     0.004 A 
ATOM      3  C4  UNL d   1      -5.253  -5.792   1.513  0.00  0.00    -0.003 A 
ATOM      4  C5  UNL d   1      -4.162  -5.309   2.226  0.00  0.00     0.000 A 
ATOM      5  C6  UNL d   1      -2.971  -5.018   1.562  0.00  0.00     0.000 A 
ATOM      6  C7  UNL d   1      -2.853  -5.206   0.175  0.00  0.00    -0.073 A 
ATOM      7  C8  UNL d   1      -1.543  -4.882  -0.489  0.00  0.00     0.078 C 
ENDROOT
BRANCH   1   8
ATOM      8  C1  UNL d   1      -3.885  -6.000  -2.030  0.00  0.00     0.053 C 
ATOM      9  C   UNL d   1      -5.244  -5.883  -2.703  0.00  0.00     0.018 C 
ENDBRANCH   1   8
TORSDOF 1
ENDMDL
