MODEL 1
REMARK minimizedAffinity 2.20681763
REMARK minimizedRMSD -1
REMARK  1 active torsions:
REMARK  status: ('A' for Active; 'I' for Inactive)
REMARK    1  A    between atoms: C1_2  and  C2_3 
ROOT
ATOM      1  C2  UNL d   1      -0.998   2.167  -2.908  0.00  0.00    -0.076 A 
ATOM      2  C3  UNL d   1       0.065   3.072  -3.074  0.00  0.00     0.004 A 
ATOM      3  C4  UNL d   1      -0.068   4.193  -3.891  0.00  0.00    -0.003 A 
ATOM      4  C5  UNL d   1      -1.267   4.427  -4.556  0.00  0.00     0.000 A 
ATOM      5  C6  UNL d   1      -2.337   3.549  -4.389  0.00  0.00     0.000 A 
ATOM      6  C7  UNL d   1      -2.225   2.423  -3.556  0.00  0.00    -0.073 A 
ATOM      7  C8  UNL d   1      -3.409   1.506  -3.417  0.00  0.00     0.078 C 
ENDROOT
BRANCH   1   8
ATOM      8  C1  UNL d   1      -0.786   0.954  -2.030  0.00  0.00     0.053 C 
ATOM      9  C   UNL d   1       0.128   1.242  -0.849  0.00  0.00     0.018 C 
ENDBRANCH   1   8
TORSDOF 1
ENDMDL
