MODEL 1
REMARK minimizedAffinity -0.8139534
REMARK minimizedRMSD -1
REMARK  1 active torsions:
REMARK  status: ('A' for Active; 'I' for Inactive)
REMARK    1  A    between atoms: C1_2  and  C2_3 
ROOT
ATOM      1  C2  UNL d   1       0.918  -0.389   1.104  0.00  0.00    -0.076 A 
ATOM      2  C3  UNL d   1       1.554  -0.244  -0.141  0.00  0.00     0.004 A 
ATOM      3  C4  UNL d   1       2.861  -0.686  -0.335  0.00  0.00    -0.003 A 
ATOM      4  C5  UNL d   1       3.554  -1.281   0.713  0.00  0.00     0.000 A 
ATOM      5  C6  UNL d   1       2.933  -1.449   1.950  0.00  0.00     0.000 A 
ATOM      6  C7  UNL d   1       1.609  -1.024   2.158  0.00  0.00    -0.073 A 
ATOM      7  C8  UNL d   1       0.991  -1.225   3.514  0.00  0.00     0.078 C 
ENDROOT
BRANCH   1   8
ATOM      8  C1  UNL d   1      -0.492   0.134   1.262  0.00  0.00     0.053 C 
ATOM      9  C   UNL d   1      -1.489  -0.600   0.379  0.00  0.00     0.018 C 
ENDBRANCH   1   8
TORSDOF 1
ENDMDL
