MODEL 1
REMARK minimizedAffinity 2.47591877
REMARK minimizedRMSD -1
REMARK  1 active torsions:
REMARK  status: ('A' for Active; 'I' for Inactive)
REMARK    1  A    between atoms: C1_2  and  C2_3 
ROOT
ATOM      1  C2  UNL d   1      -0.095   1.565  -1.142  0.00  0.00    -0.076 A 
ATOM      2  C3  UNL d   1      -0.544   1.214  -2.427  0.00  0.00     0.004 A 
ATOM      3  C4  UNL d   1      -0.813   2.191  -3.384  0.00  0.00    -0.003 A 
ATOM      4  C5  UNL d   1      -0.636   3.534  -3.072  0.00  0.00     0.000 A 
ATOM      5  C6  UNL d   1      -0.174   3.900  -1.808  0.00  0.00     0.000 A 
ATOM      6  C7  UNL d   1       0.117   2.927  -0.837  0.00  0.00    -0.073 A 
ATOM      7  C8  UNL d   1       0.607   3.377   0.512  0.00  0.00     0.078 C 
ENDROOT
BRANCH   1   8
ATOM      8  C1  UNL d   1       0.155   0.464  -0.136  0.00  0.00     0.053 C 
ATOM      9  C   UNL d   1       1.267  -0.479  -0.568  0.00  0.00     0.018 C 
ENDBRANCH   1   8
TORSDOF 1
ENDMDL
