MODEL 1
REMARK minimizedAffinity 6.58500385
REMARK minimizedRMSD -1
REMARK  1 active torsions:
REMARK  status: ('A' for Active; 'I' for Inactive)
REMARK    1  A    between atoms: C1_2  and  C2_3 
ROOT
ATOM      1  C2  UNL d   1      -0.795  -1.395  -0.218  0.00  0.00    -0.076 A 
ATOM      2  C3  UNL d   1      -0.036  -2.518   0.154  0.00  0.00     0.004 A 
ATOM      3  C4  UNL d   1      -0.653  -3.698   0.565  0.00  0.00    -0.003 A 
ATOM      4  C5  UNL d   1      -2.041  -3.774   0.610  0.00  0.00     0.000 A 
ATOM      5  C6  UNL d   1      -2.810  -2.676   0.228  0.00  0.00     0.000 A 
ATOM      6  C7  UNL d   1      -2.204  -1.484  -0.204  0.00  0.00    -0.073 A 
ATOM      7  C8  UNL d   1      -3.082  -0.329  -0.599  0.00  0.00     0.078 C 
ENDROOT
BRANCH   1   8
ATOM      8  C1  UNL d   1      -0.070  -0.133  -0.628  0.00  0.00     0.053 C 
ATOM      9  C   UNL d   1       1.097   0.194   0.291  0.00  0.00     0.018 C 
ENDBRANCH   1   8
TORSDOF 1
ENDMDL
