MODEL 1
REMARK minimizedAffinity -0.931757331
REMARK minimizedRMSD -1
REMARK  0 active torsions:
REMARK  status: ('A' for Active; 'I' for Inactive)
ROOT
ATOM      1  C   UNL d   1      -0.361   0.158   0.390  0.00  0.00     0.172 C 
ATOM      2  N   UNL d   1       0.991  -0.344   0.462  0.00  0.00    -0.070 N 
ATOM      3  C1  UNL d   1       1.860  -0.151   1.502  0.00  0.00    -0.004 A 
ATOM      4  C2  UNL d   1       3.042  -0.785   1.188  0.00  0.00    -0.047 A 
ATOM      5  C3  UNL d   1       2.878  -1.380  -0.085  0.00  0.00    -0.047 A 
ATOM      6  C4  UNL d   1       1.599  -1.091  -0.512  0.00  0.00    -0.004 A 
ENDROOT
TORSDOF 0
ENDMDL
