MODEL 1
REMARK minimizedAffinity -3.69604921
REMARK minimizedRMSD -1
REMARK  0 active torsions:
REMARK  status: ('A' for Active; 'I' for Inactive)
ROOT
ATOM      1  C   UNL d   1      -1.056   0.227  -0.397  0.00  0.00     0.172 C 
ATOM      2  N   UNL d   1       0.143  -0.557  -0.215  0.00  0.00    -0.070 N 
ATOM      3  C1  UNL d   1       1.371  -0.066   0.141  0.00  0.00    -0.004 A 
ATOM      4  C2  UNL d   1       2.246  -1.128   0.211  0.00  0.00    -0.047 A 
ATOM      5  C3  UNL d   1       1.519  -2.298  -0.115  0.00  0.00    -0.047 A 
ATOM      6  C4  UNL d   1       0.220  -1.915  -0.374  0.00  0.00    -0.004 A 
ENDROOT
TORSDOF 0
ENDMDL
