MODEL 1
REMARK minimizedAffinity -2.60771418
REMARK minimizedRMSD -1
REMARK  0 active torsions:
REMARK  status: ('A' for Active; 'I' for Inactive)
ROOT
ATOM      1  C   UNL d   1      -3.469   0.455   0.771  0.00  0.00     0.172 C 
ATOM      2  N   UNL d   1      -2.205  -0.060   0.303  0.00  0.00    -0.070 N 
ATOM      3  C1  UNL d   1      -1.479   0.437  -0.746  0.00  0.00    -0.004 A 
ATOM      4  C2  UNL d   1      -0.339  -0.328  -0.872  0.00  0.00    -0.047 A 
ATOM      5  C3  UNL d   1      -0.382  -1.320   0.136  0.00  0.00    -0.047 A 
ATOM      6  C4  UNL d   1      -1.548  -1.132   0.849  0.00  0.00    -0.004 A 
ENDROOT
TORSDOF 0
ENDMDL
