MODEL 1
REMARK minimizedAffinity -2.70219779
REMARK minimizedRMSD -1
REMARK  0 active torsions:
REMARK  status: ('A' for Active; 'I' for Inactive)
ROOT
ATOM      1  C   UNL d   1      -1.409   0.760  -0.786  0.00  0.00     0.172 C 
ATOM      2  N   UNL d   1      -2.447   0.836   0.215  0.00  0.00    -0.070 N 
ATOM      3  C1  UNL d   1      -3.718   1.305   0.014  0.00  0.00    -0.004 A 
ATOM      4  C2  UNL d   1      -4.397   1.212   1.209  0.00  0.00    -0.047 A 
ATOM      5  C3  UNL d   1      -3.503   0.669   2.163  0.00  0.00    -0.047 A 
ATOM      6  C4  UNL d   1      -2.303   0.446   1.520  0.00  0.00    -0.004 A 
ENDROOT
TORSDOF 0
ENDMDL
