MODEL 1
REMARK minimizedAffinity -1.29152274
REMARK minimizedRMSD -1
REMARK  0 active torsions:
REMARK  status: ('A' for Active; 'I' for Inactive)
ROOT
ATOM      1  C   UNL d   1      -3.176   0.743   1.482  0.00  0.00     0.172 C 
ATOM      2  N   UNL d   1      -1.869   0.514   0.912  0.00  0.00    -0.070 N 
ATOM      3  C1  UNL d   1      -1.347   1.163  -0.175  0.00  0.00    -0.004 A 
ATOM      4  C2  UNL d   1      -0.084   0.661  -0.401  0.00  0.00    -0.047 A 
ATOM      5  C3  UNL d   1       0.162  -0.325   0.584  0.00  0.00    -0.047 A 
ATOM      6  C4  UNL d   1      -0.960  -0.396   1.383  0.00  0.00    -0.004 A 
ENDROOT
TORSDOF 0
ENDMDL
