MODEL 1
REMARK minimizedAffinity 8.44605732
REMARK minimizedRMSD -1
REMARK  1 active torsions:
REMARK  status: ('A' for Active; 'I' for Inactive)
REMARK    1  A    between atoms: C1_2  and  C2_3 
ROOT
ATOM      1  C2  UNL d   1       2.136   0.636   0.081  0.00  0.00    -0.076 A 
ATOM      2  C3  UNL d   1       2.238  -0.495  -0.748  0.00  0.00     0.004 A 
ATOM      3  C4  UNL d   1       2.134  -1.782  -0.221  0.00  0.00    -0.003 A 
ATOM      4  C5  UNL d   1       1.925  -1.958   1.142  0.00  0.00     0.000 A 
ATOM      5  C6  UNL d   1       1.804  -0.847   1.976  0.00  0.00     0.000 A 
ATOM      6  C7  UNL d   1       1.890   0.457   1.459  0.00  0.00    -0.073 A 
ATOM      7  C8  UNL d   1       1.758   1.619   2.405  0.00  0.00     0.078 C 
ENDROOT
BRANCH   1   8
ATOM      8  C1  UNL d   1       2.284   2.006  -0.542  0.00  0.00     0.053 C 
ATOM      9  C   UNL d   1       3.728   2.335  -0.890  0.00  0.00     0.018 C 
ENDBRANCH   1   8
TORSDOF 1
ENDMDL
