MODEL 1
REMARK minimizedAffinity 7.01385689
REMARK minimizedRMSD -1
REMARK  1 active torsions:
REMARK  status: ('A' for Active; 'I' for Inactive)
REMARK    1  A    between atoms: C1_2  and  C2_3 
ROOT
ATOM      1  C2  UNL d   1       3.098  -0.077   0.169  0.00  0.00    -0.076 A 
ATOM      2  C3  UNL d   1       4.446  -0.018  -0.226  0.00  0.00     0.004 A 
ATOM      3  C4  UNL d   1       5.152   1.184  -0.192  0.00  0.00    -0.003 A 
ATOM      4  C5  UNL d   1       4.521   2.346   0.238  0.00  0.00     0.000 A 
ATOM      5  C6  UNL d   1       3.190   2.303   0.650  0.00  0.00     0.000 A 
ATOM      6  C7  UNL d   1       2.469   1.096   0.638  0.00  0.00    -0.073 A 
ATOM      7  C8  UNL d   1       1.034   1.109   1.088  0.00  0.00     0.078 C 
ENDROOT
BRANCH   1   8
ATOM      8  C1  UNL d   1       2.376  -1.402   0.085  0.00  0.00     0.053 C 
ATOM      9  C   UNL d   1       2.668  -2.144  -1.210  0.00  0.00     0.018 C 
ENDBRANCH   1   8
TORSDOF 1
ENDMDL
