MODEL 1
REMARK minimizedAffinity 18.0883846
REMARK minimizedRMSD -1
REMARK  1 active torsions:
REMARK  status: ('A' for Active; 'I' for Inactive)
REMARK    1  A    between atoms: C1_2  and  C2_3 
ROOT
ATOM      1  C2  UNL d   1       1.839  -2.991  -0.502  0.00  0.00    -0.076 A 
ATOM      2  C3  UNL d   1       2.160  -2.742  -1.848  0.00  0.00     0.004 A 
ATOM      3  C4  UNL d   1       2.962  -1.660  -2.206  0.00  0.00    -0.003 A 
ATOM      4  C5  UNL d   1       3.457  -0.810  -1.224  0.00  0.00     0.000 A 
ATOM      5  C6  UNL d   1       3.164  -1.052   0.118  0.00  0.00     0.000 A 
ATOM      6  C7  UNL d   1       2.371  -2.148   0.497  0.00  0.00    -0.073 A 
ATOM      7  C8  UNL d   1       2.081  -2.358   1.958  0.00  0.00     0.078 C 
ENDROOT
BRANCH   1   8
ATOM      8  C1  UNL d   1       0.943  -4.164  -0.176  0.00  0.00     0.053 C 
ATOM      9  C   UNL d   1      -0.382  -4.110  -0.922  0.00  0.00     0.018 C 
ENDBRANCH   1   8
TORSDOF 1
ENDMDL
