MODEL 1
REMARK minimizedAffinity 10.9922295
REMARK minimizedRMSD -1
REMARK  1 active torsions:
REMARK  status: ('A' for Active; 'I' for Inactive)
REMARK    1  A    between atoms: C1_2  and  C2_3 
ROOT
ATOM      1  C2  UNL d   1      -0.174  -3.179  -0.932  0.00  0.00    -0.076 A 
ATOM      2  C3  UNL d   1       0.223  -3.555   0.363  0.00  0.00     0.004 A 
ATOM      3  C4  UNL d   1       1.445  -3.138   0.888  0.00  0.00    -0.003 A 
ATOM      4  C5  UNL d   1       2.290  -2.339   0.127  0.00  0.00     0.000 A 
ATOM      5  C6  UNL d   1       1.905  -1.942  -1.153  0.00  0.00     0.000 A 
ATOM      6  C7  UNL d   1       0.669  -2.340  -1.692  0.00  0.00    -0.073 A 
ATOM      7  C8  UNL d   1       0.308  -1.888  -3.080  0.00  0.00     0.078 C 
ENDROOT
BRANCH   1   8
ATOM      8  C1  UNL d   1      -1.498  -3.684  -1.459  0.00  0.00     0.053 C 
ATOM      9  C   UNL d   1      -1.474  -5.173  -1.766  0.00  0.00     0.018 C 
ENDBRANCH   1   8
TORSDOF 1
ENDMDL
