MODEL 1
REMARK minimizedAffinity 6.85911751
REMARK minimizedRMSD -1
REMARK  1 active torsions:
REMARK  status: ('A' for Active; 'I' for Inactive)
REMARK    1  A    between atoms: C1_2  and  C2_3 
ROOT
ATOM      1  C2  UNL d   1      -4.745   4.348   5.137  0.00  0.00    -0.076 A 
ATOM      2  C3  UNL d   1      -3.883   5.113   5.942  0.00  0.00     0.004 A 
ATOM      3  C4  UNL d   1      -2.702   5.644   5.427  0.00  0.00    -0.003 A 
ATOM      4  C5  UNL d   1      -2.363   5.418   4.098  0.00  0.00     0.000 A 
ATOM      5  C6  UNL d   1      -3.214   4.676   3.280  0.00  0.00     0.000 A 
ATOM      6  C7  UNL d   1      -4.417   4.148   3.779  0.00  0.00    -0.073 A 
ATOM      7  C8  UNL d   1      -5.294   3.350   2.853  0.00  0.00     0.078 C 
ENDROOT
BRANCH   1   8
ATOM      8  C1  UNL d   1      -5.999   3.775   5.758  0.00  0.00     0.053 C 
ATOM      9  C   UNL d   1      -5.898   2.277   5.999  0.00  0.00     0.018 C 
ENDBRANCH   1   8
TORSDOF 1
ENDMDL
