MODEL 1
REMARK minimizedAffinity 3.38258338
REMARK minimizedRMSD -1
REMARK  1 active torsions:
REMARK  status: ('A' for Active; 'I' for Inactive)
REMARK    1  A    between atoms: C1_2  and  C2_3 
ROOT
ATOM      1  C2  UNL d   1       4.140   4.552   3.594  0.00  0.00    -0.076 A 
ATOM      2  C3  UNL d   1       3.833   4.162   4.909  0.00  0.00     0.004 A 
ATOM      3  C4  UNL d   1       4.553   4.664   5.992  0.00  0.00    -0.003 A 
ATOM      4  C5  UNL d   1       5.590   5.564   5.778  0.00  0.00     0.000 A 
ATOM      5  C6  UNL d   1       5.897   5.976   4.481  0.00  0.00     0.000 A 
ATOM      6  C7  UNL d   1       5.171   5.492   3.379  0.00  0.00    -0.073 A 
ATOM      7  C8  UNL d   1       5.548   5.965   2.002  0.00  0.00     0.078 C 
ENDROOT
BRANCH   1   8
ATOM      8  C1  UNL d   1       3.344   3.953   2.456  0.00  0.00     0.053 C 
ATOM      9  C   UNL d   1       2.619   2.678   2.860  0.00  0.00     0.018 C 
ENDBRANCH   1   8
TORSDOF 1
ENDMDL
