MODEL 1
REMARK minimizedAffinity 3.721313
REMARK minimizedRMSD -1
REMARK  1 active torsions:
REMARK  status: ('A' for Active; 'I' for Inactive)
REMARK    1  A    between atoms: C1_2  and  C2_3 
ROOT
ATOM      1  C2  UNL d   1       1.327  -0.971  -0.785  0.00  0.00    -0.076 A 
ATOM      2  C3  UNL d   1       2.045  -2.028  -0.200  0.00  0.00     0.004 A 
ATOM      3  C4  UNL d   1       1.538  -3.326  -0.199  0.00  0.00    -0.003 A 
ATOM      4  C5  UNL d   1       0.304  -3.589  -0.785  0.00  0.00     0.000 A 
ATOM      5  C6  UNL d   1      -0.414  -2.555  -1.385  0.00  0.00     0.000 A 
ATOM      6  C7  UNL d   1       0.090  -1.244  -1.409  0.00  0.00    -0.073 A 
ATOM      7  C8  UNL d   1      -0.729  -0.167  -2.065  0.00  0.00     0.078 C 
ENDROOT
BRANCH   1   8
ATOM      8  C1  UNL d   1       1.914   0.422  -0.732  0.00  0.00     0.053 C 
ATOM      9  C   UNL d   1       3.435   0.412  -0.731  0.00  0.00     0.018 C 
ENDBRANCH   1   8
TORSDOF 1
ENDMDL
