MODEL 1
REMARK minimizedAffinity 16.9798241
REMARK minimizedRMSD -1
REMARK  1 active torsions:
REMARK  status: ('A' for Active; 'I' for Inactive)
REMARK    1  A    between atoms: C1_2  and  C2_3 
ROOT
ATOM      1  C2  UNL d   1       2.126   1.873   1.327  0.00  0.00    -0.076 A 
ATOM      2  C3  UNL d   1       2.023   0.608   1.930  0.00  0.00     0.004 A 
ATOM      3  C4  UNL d   1       1.947  -0.551   1.159  0.00  0.00    -0.003 A 
ATOM      4  C5  UNL d   1       1.974  -0.462  -0.229  0.00  0.00     0.000 A 
ATOM      5  C6  UNL d   1       2.093   0.784  -0.844  0.00  0.00     0.000 A 
ATOM      6  C7  UNL d   1       2.187   1.960  -0.080  0.00  0.00    -0.073 A 
ATOM      7  C8  UNL d   1       2.308   3.277  -0.796  0.00  0.00     0.078 C 
ENDROOT
BRANCH   1   8
ATOM      8  C1  UNL d   1       2.177   3.096   2.215  0.00  0.00     0.053 C 
ATOM      9  C   UNL d   1       2.141   2.745   3.694  0.00  0.00     0.018 C 
ENDBRANCH   1   8
TORSDOF 1
ENDMDL
