MODEL 1
REMARK minimizedAffinity 13.9286499
REMARK minimizedRMSD -1
REMARK  1 active torsions:
REMARK  status: ('A' for Active; 'I' for Inactive)
REMARK    1  A    between atoms: C1_2  and  C2_3 
ROOT
ATOM      1  C2  UNL d   1       2.508  -0.052  -0.098  0.00  0.00    -0.076 A 
ATOM      2  C3  UNL d   1       2.865  -1.039   0.837  0.00  0.00     0.004 A 
ATOM      3  C4  UNL d   1       2.947  -0.742   2.196  0.00  0.00    -0.003 A 
ATOM      4  C5  UNL d   1       2.672   0.545   2.643  0.00  0.00     0.000 A 
ATOM      5  C6  UNL d   1       2.298   1.532   1.731  0.00  0.00     0.000 A 
ATOM      6  C7  UNL d   1       2.195   1.246   0.359  0.00  0.00    -0.073 A 
ATOM      7  C8  UNL d   1       1.794   2.350  -0.581  0.00  0.00     0.078 C 
ENDROOT
BRANCH   1   8
ATOM      8  C1  UNL d   1       2.462  -0.425  -1.563  0.00  0.00     0.053 C 
ATOM      9  C   UNL d   1       2.365  -1.928  -1.779  0.00  0.00     0.018 C 
ENDBRANCH   1   8
TORSDOF 1
ENDMDL
