MODEL 1
REMARK minimizedAffinity -0.141913459
REMARK minimizedRMSD -1
REMARK  2 active torsions:
REMARK  status: ('A' for Active; 'I' for Inactive)
REMARK    1  A    between atoms: C2'_3  and  C1'_4 
REMARK    2  A    between atoms: C1'_4  and  C1_5 
ROOT
ATOM      1  C1  I4B d   1      -1.518  -0.103   2.472  0.00  0.00    -0.075 A 
ATOM      2  C2  I4B d   1      -1.855   0.073   1.153  0.00  0.00     0.003 A 
ATOM      3  C3  I4B d   1      -3.114   0.620   0.805  0.00  0.00     0.002 A 
ATOM      4  C4  I4B d   1      -4.019   0.929   1.800  0.00  0.00    -0.004 A 
ATOM      5  C5  I4B d   1      -3.667   0.771   3.138  0.00  0.00     0.002 A 
ATOM      6  C6  I4B d   1      -2.404   0.264   3.477  0.00  0.00     0.003 A 
ENDROOT
BRANCH   1   7
ATOM      7  C1' I4B d   1      -0.194  -0.715   2.802  0.00  0.00     0.060 C 
BRANCH   7   8
ATOM      8  C2' I4B d   1       0.865   0.360   2.659  0.00  0.00    -0.013 C 
ATOM      9  C4' I4B d   1       2.250  -0.230   2.704  0.00  0.00     0.013 C 
ATOM     10  C3' I4B d   1       0.624   1.077   1.365  0.00  0.00     0.013 C 
ENDBRANCH   7   8
ENDBRANCH   1   7
TORSDOF 2
ENDMDL
