MODEL 1
REMARK minimizedAffinity 3.56605697
REMARK minimizedRMSD -1
REMARK  2 active torsions:
REMARK  status: ('A' for Active; 'I' for Inactive)
REMARK    1  A    between atoms: C2'_3  and  C1'_4 
REMARK    2  A    between atoms: C1'_4  and  C1_5 
ROOT
ATOM      1  C1  I4B d   1       1.407   1.508  -3.569  0.00  0.00    -0.075 A 
ATOM      2  C2  I4B d   1       2.312   1.239  -4.565  0.00  0.00     0.003 A 
ATOM      3  C3  I4B d   1       2.250   1.941  -5.793  0.00  0.00     0.002 A 
ATOM      4  C4  I4B d   1       1.242   2.861  -6.000  0.00  0.00    -0.004 A 
ATOM      5  C5  I4B d   1       0.339   3.148  -4.981  0.00  0.00     0.002 A 
ATOM      6  C6  I4B d   1       0.429   2.476  -3.753  0.00  0.00     0.003 A 
ENDROOT
BRANCH   1   7
ATOM      7  C1' I4B d   1       1.481   0.724  -2.297  0.00  0.00     0.060 C 
BRANCH   7   8
ATOM      8  C2' I4B d   1       0.077   0.599  -1.743  0.00  0.00    -0.013 C 
ATOM      9  C4' I4B d   1      -0.304  -0.844  -1.543  0.00  0.00     0.013 C 
ATOM     10  C3' I4B d   1       0.020   1.358  -0.450  0.00  0.00     0.013 C 
ENDBRANCH   7   8
ENDBRANCH   1   7
TORSDOF 2
ENDMDL
