MODEL 1
REMARK minimizedAffinity 4.57637024
REMARK minimizedRMSD -1
REMARK  2 active torsions:
REMARK  status: ('A' for Active; 'I' for Inactive)
REMARK    1  A    between atoms: C2'_3  and  C1'_4 
REMARK    2  A    between atoms: C1'_4  and  C1_5 
ROOT
ATOM      1  C1  I4B d   1      -0.150   0.608   0.720  0.00  0.00    -0.075 A 
ATOM      2  C2  I4B d   1      -1.204   0.503   1.593  0.00  0.00     0.003 A 
ATOM      3  C3  I4B d   1      -0.984   0.092   2.930  0.00  0.00     0.002 A 
ATOM      4  C4  I4B d   1       0.290  -0.250   3.335  0.00  0.00    -0.004 A 
ATOM      5  C5  I4B d   1       1.361  -0.121   2.455  0.00  0.00     0.002 A 
ATOM      6  C6  I4B d   1       1.142   0.323   1.143  0.00  0.00     0.003 A 
ENDROOT
BRANCH   1   7
ATOM      7  C1' I4B d   1      -0.423   1.014  -0.694  0.00  0.00     0.060 C 
BRANCH   7   8
ATOM      8  C2' I4B d   1      -1.645   0.256  -1.170  0.00  0.00    -0.013 C 
ATOM      9  C4' I4B d   1      -2.867   1.136  -1.170  0.00  0.00     0.013 C 
ATOM     10  C3' I4B d   1      -1.357  -0.272  -2.544  0.00  0.00     0.013 C 
ENDBRANCH   7   8
ENDBRANCH   1   7
TORSDOF 2
ENDMDL
