MODEL 1
REMARK minimizedAffinity -2.9148736
REMARK minimizedRMSD -1
REMARK  2 active torsions:
REMARK  status: ('A' for Active; 'I' for Inactive)
REMARK    1  A    between atoms: C2'_3  and  C1'_4 
REMARK    2  A    between atoms: C1'_4  and  C1_5 
ROOT
ATOM      1  C1  I4B d   1      -1.079  -1.016   3.367  0.00  0.00    -0.075 A 
ATOM      2  C2  I4B d   1      -2.388  -0.714   3.086  0.00  0.00     0.003 A 
ATOM      3  C3  I4B d   1      -3.345  -0.654   4.128  0.00  0.00     0.002 A 
ATOM      4  C4  I4B d   1      -2.962  -0.949   5.421  0.00  0.00    -0.004 A 
ATOM      5  C5  I4B d   1      -1.629  -1.232   5.707  0.00  0.00     0.002 A 
ATOM      6  C6  I4B d   1      -0.679  -1.254   4.675  0.00  0.00     0.003 A 
ENDROOT
BRANCH   1   7
ATOM      7  C1' I4B d   1      -0.101  -1.104   2.238  0.00  0.00     0.060 C 
BRANCH   7   8
ATOM      8  C2' I4B d   1       0.515   0.267   2.046  0.00  0.00    -0.013 C 
ATOM      9  C4' I4B d   1       2.020   0.192   2.042  0.00  0.00     0.013 C 
ATOM     10  C3' I4B d   1      -0.002   0.831   0.757  0.00  0.00     0.013 C 
ENDBRANCH   7   8
ENDBRANCH   1   7
TORSDOF 2
ENDMDL
