MODEL 1
REMARK minimizedAffinity -1.90262187
REMARK minimizedRMSD -1
REMARK  2 active torsions:
REMARK  status: ('A' for Active; 'I' for Inactive)
REMARK    1  A    between atoms: C2'_3  and  C1'_4 
REMARK    2  A    between atoms: C1'_4  and  C1_5 
ROOT
ATOM      1  C1  I4B d   1      -2.408   0.250   2.775  0.00  0.00    -0.075 A 
ATOM      2  C2  I4B d   1      -2.939  -0.726   3.580  0.00  0.00     0.003 A 
ATOM      3  C3  I4B d   1      -2.093  -1.684   4.190  0.00  0.00     0.002 A 
ATOM      4  C4  I4B d   1      -0.739  -1.660   3.930  0.00  0.00    -0.004 A 
ATOM      5  C5  I4B d   1      -0.199  -0.655   3.132  0.00  0.00     0.002 A 
ATOM      6  C6  I4B d   1      -1.037   0.314   2.560  0.00  0.00     0.003 A 
ENDROOT
BRANCH   1   7
ATOM      7  C1' I4B d   1      -3.333   1.226   2.119  0.00  0.00     0.060 C 
BRANCH   7   8
ATOM      8  C2' I4B d   1      -3.792   0.625   0.806  0.00  0.00    -0.013 C 
ATOM      9  C4' I4B d   1      -2.682   0.627  -0.212  0.00  0.00     0.013 C 
ATOM     10  C3' I4B d   1      -4.274  -0.769   1.079  0.00  0.00     0.013 C 
ENDBRANCH   7   8
ENDBRANCH   1   7
TORSDOF 2
ENDMDL
