MODEL 1
REMARK minimizedAffinity 3.45508575
REMARK minimizedRMSD -1
REMARK  2 active torsions:
REMARK  status: ('A' for Active; 'I' for Inactive)
REMARK    1  A    between atoms: C2'_3  and  C1'_4 
REMARK    2  A    between atoms: C1'_4  and  C1_5 
ROOT
ATOM      1  C1  I4B d   1      -1.103  -0.231   2.470  0.00  0.00    -0.075 A 
ATOM      2  C2  I4B d   1      -1.383  -0.430   1.140  0.00  0.00     0.003 A 
ATOM      3  C3  I4B d   1      -2.544   0.138   0.564  0.00  0.00     0.002 A 
ATOM      4  C4  I4B d   1      -3.419   0.850   1.359  0.00  0.00    -0.004 A 
ATOM      5  C5  I4B d   1      -3.123   1.070   2.701  0.00  0.00     0.002 A 
ATOM      6  C6  I4B d   1      -1.951   0.536   3.257  0.00  0.00     0.003 A 
ENDROOT
BRANCH   1   7
ATOM      7  C1' I4B d   1       0.115  -0.873   3.054  0.00  0.00     0.060 C 
BRANCH   7   8
ATOM      8  C2' I4B d   1       1.295   0.041   2.793  0.00  0.00    -0.013 C 
ATOM      9  C4' I4B d   1       2.558  -0.748   2.570  0.00  0.00     0.013 C 
ATOM     10  C3' I4B d   1       0.969   0.889   1.600  0.00  0.00     0.013 C 
ENDBRANCH   7   8
ENDBRANCH   1   7
TORSDOF 2
ENDMDL
