MODEL 1
REMARK minimizedAffinity 9.59159279
REMARK minimizedRMSD -1
REMARK  2 active torsions:
REMARK  status: ('A' for Active; 'I' for Inactive)
REMARK    1  A    between atoms: C2'_3  and  C1'_4 
REMARK    2  A    between atoms: C1'_4  and  C1_5 
ROOT
ATOM      1  C1  I4B d   1       5.246  -0.742   3.258  0.00  0.00    -0.075 A 
ATOM      2  C2  I4B d   1       5.950  -0.124   2.255  0.00  0.00     0.003 A 
ATOM      3  C3  I4B d   1       5.268   0.468   1.164  0.00  0.00     0.002 A 
ATOM      4  C4  I4B d   1       3.893   0.376   1.092  0.00  0.00    -0.004 A 
ATOM      5  C5  I4B d   1       3.179  -0.231   2.121  0.00  0.00     0.002 A 
ATOM      6  C6  I4B d   1       3.858  -0.782   3.217  0.00  0.00     0.003 A 
ENDROOT
BRANCH   1   7
ATOM      7  C1' I4B d   1       6.000  -1.385   4.378  0.00  0.00     0.060 C 
BRANCH   7   8
ATOM      8  C2' I4B d   1       5.506  -2.811   4.515  0.00  0.00    -0.013 C 
ATOM      9  C4' I4B d   1       5.977  -3.664   3.367  0.00  0.00     0.013 C 
ATOM     10  C3' I4B d   1       5.997  -3.347   5.826  0.00  0.00     0.013 C 
ENDBRANCH   7   8
ENDBRANCH   1   7
TORSDOF 2
ENDMDL
