MODEL 1
REMARK minimizedAffinity 6.31845999
REMARK minimizedRMSD -1
REMARK  2 active torsions:
REMARK  status: ('A' for Active; 'I' for Inactive)
REMARK    1  A    between atoms: C2'_3  and  C1'_4 
REMARK    2  A    between atoms: C1'_4  and  C1_5 
ROOT
ATOM      1  C1  I4B d   1      -2.009   0.144   0.327  0.00  0.00    -0.075 A 
ATOM      2  C2  I4B d   1      -0.970  -0.004   1.212  0.00  0.00     0.003 A 
ATOM      3  C3  I4B d   1      -1.158   0.284   2.586  0.00  0.00     0.002 A 
ATOM      4  C4  I4B d   1      -2.378   0.761   3.020  0.00  0.00    -0.004 A 
ATOM      5  C5  I4B d   1      -3.437   0.889   2.125  0.00  0.00     0.002 A 
ATOM      6  C6  I4B d   1      -3.255   0.567   0.772  0.00  0.00     0.003 A 
ENDROOT
BRANCH   1   7
ATOM      7  C1' I4B d   1      -1.766  -0.136  -1.122  0.00  0.00     0.060 C 
BRANCH   7   8
ATOM      8  C2' I4B d   1      -0.442  -0.865  -1.241  0.00  0.00    -0.013 C 
ATOM      9  C4' I4B d   1      -0.594  -2.147  -2.017  0.00  0.00     0.013 C 
ATOM     10  C3' I4B d   1       0.536   0.058  -1.905  0.00  0.00     0.013 C 
ENDBRANCH   7   8
ENDBRANCH   1   7
TORSDOF 2
ENDMDL
