MODEL 1
REMARK minimizedAffinity 3.80692768
REMARK minimizedRMSD -1
REMARK  2 active torsions:
REMARK  status: ('A' for Active; 'I' for Inactive)
REMARK    1  A    between atoms: C2'_3  and  C1'_4 
REMARK    2  A    between atoms: C1'_4  and  C1_5 
ROOT
ATOM      1  C1  I4B d   1      -2.524   0.405   0.523  0.00  0.00    -0.075 A 
ATOM      2  C2  I4B d   1      -1.430  -0.067  -0.158  0.00  0.00     0.003 A 
ATOM      3  C3  I4B d   1      -1.590  -0.700  -1.415  0.00  0.00     0.002 A 
ATOM      4  C4  I4B d   1      -2.859  -0.883  -1.927  0.00  0.00    -0.004 A 
ATOM      5  C5  I4B d   1      -3.965  -0.383  -1.246  0.00  0.00     0.002 A 
ATOM      6  C6  I4B d   1      -3.797   0.276  -0.019  0.00  0.00     0.003 A 
ENDROOT
BRANCH   1   7
ATOM      7  C1' I4B d   1      -2.322   1.038   1.863  0.00  0.00     0.060 C 
BRANCH   7   8
ATOM      8  C2' I4B d   1      -0.865   0.868   2.244  0.00  0.00    -0.013 C 
ATOM      9  C4' I4B d   1      -0.334   2.098   2.931  0.00  0.00     0.013 C 
ATOM     10  C3' I4B d   1      -0.757  -0.337   3.131  0.00  0.00     0.013 C 
ENDBRANCH   7   8
ENDBRANCH   1   7
TORSDOF 2
ENDMDL
