MODEL 1
REMARK minimizedAffinity 17.9193993
REMARK minimizedRMSD -1
REMARK  2 active torsions:
REMARK  status: ('A' for Active; 'I' for Inactive)
REMARK    1  A    between atoms: C2'_3  and  C1'_4 
REMARK    2  A    between atoms: C1'_4  and  C1_5 
ROOT
ATOM      1  C1  I4B d   1      -0.097   0.736   1.888  0.00  0.00    -0.075 A 
ATOM      2  C2  I4B d   1       0.862   1.703   1.722  0.00  0.00     0.003 A 
ATOM      3  C3  I4B d   1       1.154   2.204   0.430  0.00  0.00     0.002 A 
ATOM      4  C4  I4B d   1       0.503   1.677  -0.666  0.00  0.00    -0.004 A 
ATOM      5  C5  I4B d   1      -0.486   0.712  -0.494  0.00  0.00     0.002 A 
ATOM      6  C6  I4B d   1      -0.797   0.247   0.792  0.00  0.00     0.003 A 
ENDROOT
BRANCH   1   7
ATOM      7  C1' I4B d   1      -0.356   0.206   3.262  0.00  0.00     0.060 C 
BRANCH   7   8
ATOM      8  C2' I4B d   1      -1.249   1.195   3.983  0.00  0.00    -0.013 C 
ATOM      9  C4' I4B d   1      -0.715   2.598   3.865  0.00  0.00     0.013 C 
ATOM     10  C3' I4B d   1      -2.626   1.089   3.398  0.00  0.00     0.013 C 
ENDBRANCH   7   8
ENDBRANCH   1   7
TORSDOF 2
ENDMDL
