MODEL 1
REMARK minimizedAffinity 7.60391426
REMARK minimizedRMSD -1
REMARK  2 active torsions:
REMARK  status: ('A' for Active; 'I' for Inactive)
REMARK    1  A    between atoms: C2'_3  and  C1'_4 
REMARK    2  A    between atoms: C1'_4  and  C1_5 
ROOT
ATOM      1  C1  I4B d   1      -1.522  -0.104   0.842  0.00  0.00    -0.075 A 
ATOM      2  C2  I4B d   1      -2.860   0.198   0.890  0.00  0.00     0.003 A 
ATOM      3  C3  I4B d   1      -3.463   0.567   2.117  0.00  0.00     0.002 A 
ATOM      4  C4  I4B d   1      -2.708   0.572   3.272  0.00  0.00    -0.004 A 
ATOM      5  C5  I4B d   1      -1.346   0.287   3.217  0.00  0.00     0.002 A 
ATOM      6  C6  I4B d   1      -0.747  -0.041   1.992  0.00  0.00     0.003 A 
ENDROOT
BRANCH   1   7
ATOM      7  C1' I4B d   1      -0.924  -0.522  -0.464  0.00  0.00     0.060 C 
BRANCH   7   8
ATOM      8  C2' I4B d   1      -1.727  -1.695  -0.991  0.00  0.00    -0.013 C 
ATOM      9  C4' I4B d   1      -2.357  -1.371  -2.319  0.00  0.00     0.013 C 
ATOM     10  C3' I4B d   1      -0.807  -2.874  -1.101  0.00  0.00     0.013 C 
ENDBRANCH   7   8
ENDBRANCH   1   7
TORSDOF 2
ENDMDL
