MODEL 1
REMARK minimizedAffinity 9.29565716
REMARK minimizedRMSD -1
REMARK  2 active torsions:
REMARK  status: ('A' for Active; 'I' for Inactive)
REMARK    1  A    between atoms: C2'_3  and  C1'_4 
REMARK    2  A    between atoms: C1'_4  and  C1_5 
ROOT
ATOM      1  C1  I4B d   1       3.542   3.923  -4.079  0.00  0.00    -0.075 A 
ATOM      2  C2  I4B d   1       4.812   4.295  -4.442  0.00  0.00     0.003 A 
ATOM      3  C3  I4B d   1       5.894   3.398  -4.272  0.00  0.00     0.002 A 
ATOM      4  C4  I4B d   1       5.671   2.166  -3.693  0.00  0.00    -0.004 A 
ATOM      5  C5  I4B d   1       4.379   1.781  -3.346  0.00  0.00     0.002 A 
ATOM      6  C6  I4B d   1       3.305   2.660  -3.552  0.00  0.00     0.003 A 
ENDROOT
BRANCH   1   7
ATOM      7  C1' I4B d   1       2.428   4.908  -4.241  0.00  0.00     0.060 C 
BRANCH   7   8
ATOM      8  C2' I4B d   1       1.160   4.271  -3.710  0.00  0.00    -0.013 C 
ATOM      9  C4' I4B d   1       1.113   4.323  -2.205  0.00  0.00     0.013 C 
ATOM     10  C3' I4B d   1      -0.008   4.991  -4.313  0.00  0.00     0.013 C 
ENDBRANCH   7   8
ENDBRANCH   1   7
TORSDOF 2
ENDMDL
