MODEL 1
REMARK minimizedAffinity 4.73030806
REMARK minimizedRMSD -1
REMARK  2 active torsions:
REMARK  status: ('A' for Active; 'I' for Inactive)
REMARK    1  A    between atoms: C2'_3  and  C1'_4 
REMARK    2  A    between atoms: C1'_4  and  C1_5 
ROOT
ATOM      1  C1  I4B d   1       1.541   3.531  -3.210  0.00  0.00    -0.075 A 
ATOM      2  C2  I4B d   1       1.543   4.710  -3.913  0.00  0.00     0.003 A 
ATOM      3  C3  I4B d   1       2.275   4.818  -5.121  0.00  0.00     0.002 A 
ATOM      4  C4  I4B d   1       3.026   3.747  -5.559  0.00  0.00    -0.004 A 
ATOM      5  C5  I4B d   1       3.005   2.545  -4.856  0.00  0.00     0.002 A 
ATOM      6  C6  I4B d   1       2.248   2.432  -3.681  0.00  0.00     0.003 A 
ENDROOT
BRANCH   1   7
ATOM      7  C1' I4B d   1       0.785   3.462  -1.922  0.00  0.00     0.060 C 
BRANCH   7   8
ATOM      8  C2' I4B d   1       1.160   2.167  -1.229  0.00  0.00    -0.013 C 
ATOM      9  C4' I4B d   1       1.612   2.417   0.186  0.00  0.00     0.013 C 
ATOM     10  C3' I4B d   1      -0.034   1.261  -1.264  0.00  0.00     0.013 C 
ENDBRANCH   7   8
ENDBRANCH   1   7
TORSDOF 2
ENDMDL
