MODEL 1
REMARK minimizedAffinity -4.25334501
REMARK minimizedRMSD -1
REMARK  1 active torsions:
REMARK  status: ('A' for Active; 'I' for Inactive)
REMARK    1  A    between atoms: C1_2  and  C2_3 
ROOT
ATOM      1  C2  UNL d   1      -0.124   0.285   2.115  0.00  0.00    -0.076 A 
ATOM      2  C3  UNL d   1      -0.002  -0.826   1.262  0.00  0.00     0.004 A 
ATOM      3  C4  UNL d   1      -0.738  -0.908   0.081  0.00  0.00    -0.003 A 
ATOM      4  C5  UNL d   1      -1.608   0.119  -0.267  0.00  0.00     0.000 A 
ATOM      5  C6  UNL d   1      -1.728   1.237   0.558  0.00  0.00     0.000 A 
ATOM      6  C7  UNL d   1      -0.981   1.344   1.744  0.00  0.00    -0.073 A 
ATOM      7  C8  UNL d   1      -1.155   2.569   2.599  0.00  0.00     0.078 C 
ENDROOT
BRANCH   1   8
ATOM      8  C1  UNL d   1       0.679   0.307   3.395  0.00  0.00     0.053 C 
ATOM      9  C   UNL d   1       1.937  -0.543   3.309  0.00  0.00     0.018 C 
ENDBRANCH   1   8
TORSDOF 1
ENDMDL
