MODEL 1
REMARK minimizedAffinity -3.45971632
REMARK minimizedRMSD -1
REMARK  1 active torsions:
REMARK  status: ('A' for Active; 'I' for Inactive)
REMARK    1  A    between atoms: C1_2  and  C2_3 
ROOT
ATOM      1  C2  UNL d   1       0.102   0.064  -1.101  0.00  0.00    -0.076 A 
ATOM      2  C3  UNL d   1      -1.031   0.881  -0.942  0.00  0.00     0.004 A 
ATOM      3  C4  UNL d   1      -1.424   1.327   0.319  0.00  0.00    -0.003 A 
ATOM      4  C5  UNL d   1      -0.689   0.963   1.442  0.00  0.00     0.000 A 
ATOM      5  C6  UNL d   1       0.448   0.168   1.301  0.00  0.00     0.000 A 
ATOM      6  C7  UNL d   1       0.867  -0.276   0.035  0.00  0.00    -0.073 A 
ATOM      7  C8  UNL d   1       2.097  -1.137  -0.057  0.00  0.00     0.078 C 
ENDROOT
BRANCH   1   8
ATOM      8  C1  UNL d   1       0.463  -0.412  -2.490  0.00  0.00     0.053 C 
ATOM      9  C   UNL d   1       1.324   0.590  -3.243  0.00  0.00     0.018 C 
ENDBRANCH   1   8
TORSDOF 1
ENDMDL
