MODEL 1
REMARK minimizedAffinity -4.81308317
REMARK minimizedRMSD -1
REMARK  1 active torsions:
REMARK  status: ('A' for Active; 'I' for Inactive)
REMARK    1  A    between atoms: C1_2  and  C2_3 
ROOT
ATOM      1  C2  UNL d   1       0.329  -0.388   0.747  0.00  0.00    -0.076 A 
ATOM      2  C3  UNL d   1      -0.978   0.095   0.929  0.00  0.00     0.004 A 
ATOM      3  C4  UNL d   1      -1.402   0.568   2.169  0.00  0.00    -0.003 A 
ATOM      4  C5  UNL d   1      -0.525   0.567   3.248  0.00  0.00     0.000 A 
ATOM      5  C6  UNL d   1       0.781   0.108   3.082  0.00  0.00     0.000 A 
ATOM      6  C7  UNL d   1       1.229  -0.357   1.834  0.00  0.00    -0.073 A 
ATOM      7  C8  UNL d   1       2.647  -0.846   1.712  0.00  0.00     0.078 C 
ENDROOT
BRANCH   1   8
ATOM      8  C1  UNL d   1       0.724  -0.915  -0.614  0.00  0.00     0.053 C 
ATOM      9  C   UNL d   1       0.396   0.061  -1.734  0.00  0.00     0.018 C 
ENDBRANCH   1   8
TORSDOF 1
ENDMDL
