MODEL 1
REMARK minimizedAffinity 0.246810958
REMARK minimizedRMSD -1
REMARK  1 active torsions:
REMARK  status: ('A' for Active; 'I' for Inactive)
REMARK    1  A    between atoms: C1_2  and  C2_3 
ROOT
ATOM      1  C2  UNL d   1       0.571   0.050   1.100  0.00  0.00    -0.076 A 
ATOM      2  C3  UNL d   1       1.893  -0.355   1.352  0.00  0.00     0.004 A 
ATOM      3  C4  UNL d   1       2.320  -0.644   2.647  0.00  0.00    -0.003 A 
ATOM      4  C5  UNL d   1       1.431  -0.533   3.711  0.00  0.00     0.000 A 
ATOM      5  C6  UNL d   1       0.111  -0.150   3.477  0.00  0.00     0.000 A 
ATOM      6  C7  UNL d   1      -0.340   0.130   2.176  0.00  0.00    -0.073 A 
ATOM      7  C8  UNL d   1      -1.772   0.545   1.982  0.00  0.00     0.078 C 
ENDROOT
BRANCH   1   8
ATOM      8  C1  UNL d   1       0.172   0.376  -0.321  0.00  0.00     0.053 C 
ATOM      9  C   UNL d   1      -0.280  -0.852  -1.096  0.00  0.00     0.018 C 
ENDBRANCH   1   8
TORSDOF 1
ENDMDL
