MODEL 1
REMARK minimizedAffinity -6.30008268
REMARK minimizedRMSD -1
REMARK  1 active torsions:
REMARK  status: ('A' for Active; 'I' for Inactive)
REMARK    1  A    between atoms: C1_2  and  C2_3 
ROOT
ATOM      1  C2  UNL d   1       0.536  -0.027   0.883  0.00  0.00    -0.076 A 
ATOM      2  C3  UNL d   1      -0.745   0.547   0.808  0.00  0.00     0.004 A 
ATOM      3  C4  UNL d   1      -1.313   1.180   1.912  0.00  0.00    -0.003 A 
ATOM      4  C5  UNL d   1      -0.608   1.251   3.109  0.00  0.00     0.000 A 
ATOM      5  C6  UNL d   1       0.671   0.702   3.196  0.00  0.00     0.000 A 
ATOM      6  C7  UNL d   1       1.264   0.074   2.088  0.00  0.00    -0.073 A 
ATOM      7  C8  UNL d   1       2.644  -0.506   2.240  0.00  0.00     0.078 C 
ENDROOT
BRANCH   1   8
ATOM      8  C1  UNL d   1       1.090  -0.725  -0.339  0.00  0.00     0.053 C 
ATOM      9  C   UNL d   1       0.598  -0.104  -1.637  0.00  0.00     0.018 C 
ENDBRANCH   1   8
TORSDOF 1
ENDMDL
