MODEL 1
REMARK minimizedAffinity -0.946421921
REMARK minimizedRMSD -1
REMARK  1 active torsions:
REMARK  status: ('A' for Active; 'I' for Inactive)
REMARK    1  A    between atoms: C1_2  and  C2_3 
ROOT
ATOM      1  C2  UNL d   1       0.232  -0.459  -0.094  0.00  0.00    -0.076 A 
ATOM      2  C3  UNL d   1      -1.106  -0.106  -0.341  0.00  0.00     0.004 A 
ATOM      3  C4  UNL d   1      -1.970   0.206   0.707  0.00  0.00    -0.003 A 
ATOM      4  C5  UNL d   1      -1.510   0.172   2.019  0.00  0.00     0.000 A 
ATOM      5  C6  UNL d   1      -0.181  -0.159   2.280  0.00  0.00     0.000 A 
ATOM      6  C7  UNL d   1       0.708  -0.461   1.235  0.00  0.00    -0.073 A 
ATOM      7  C8  UNL d   1       2.129  -0.817   1.575  0.00  0.00     0.078 C 
ENDROOT
BRANCH   1   8
ATOM      8  C1  UNL d   1       1.116  -0.814  -1.269  0.00  0.00     0.053 C 
ATOM      9  C   UNL d   1       0.654  -0.164  -2.564  0.00  0.00     0.018 C 
ENDBRANCH   1   8
TORSDOF 1
ENDMDL
