MODEL 1
REMARK minimizedAffinity -5.53994989
REMARK minimizedRMSD -1
REMARK  1 active torsions:
REMARK  status: ('A' for Active; 'I' for Inactive)
REMARK    1  A    between atoms: C1_2  and  C2_3 
ROOT
ATOM      1  C2  UNL d   1       0.303   0.051   1.304  0.00  0.00    -0.076 A 
ATOM      2  C3  UNL d   1      -0.853   0.851   1.314  0.00  0.00     0.004 A 
ATOM      3  C4  UNL d   1      -1.216   1.572   2.451  0.00  0.00    -0.003 A 
ATOM      4  C5  UNL d   1      -0.428   1.505   3.595  0.00  0.00     0.000 A 
ATOM      5  C6  UNL d   1       0.731   0.730   3.596  0.00  0.00     0.000 A 
ATOM      6  C7  UNL d   1       1.120   0.010   2.454  0.00  0.00    -0.073 A 
ATOM      7  C8  UNL d   1       2.377  -0.814   2.513  0.00  0.00     0.078 C 
ENDROOT
BRANCH   1   8
ATOM      8  C1  UNL d   1       0.632  -0.730   0.052  0.00  0.00     0.053 C 
ATOM      9  C   UNL d   1      -0.172  -0.265  -1.153  0.00  0.00     0.018 C 
ENDBRANCH   1   8
TORSDOF 1
ENDMDL
