MODEL 1
REMARK minimizedAffinity -1.30272543
REMARK minimizedRMSD -1
REMARK  1 active torsions:
REMARK  status: ('A' for Active; 'I' for Inactive)
REMARK    1  A    between atoms: C1_2  and  C2_3 
ROOT
ATOM      1  C2  UNL d   1      -0.094  -0.222   1.019  0.00  0.00    -0.076 A 
ATOM      2  C3  UNL d   1       1.167  -0.605   0.529  0.00  0.00     0.004 A 
ATOM      3  C4  UNL d   1       2.237  -0.823   1.395  0.00  0.00    -0.003 A 
ATOM      4  C5  UNL d   1       2.064  -0.662   2.765  0.00  0.00     0.000 A 
ATOM      5  C6  UNL d   1       0.816  -0.301   3.270  0.00  0.00     0.000 A 
ATOM      6  C7  UNL d   1      -0.278  -0.093   2.413  0.00  0.00    -0.073 A 
ATOM      7  C8  UNL d   1      -1.600   0.302   3.011  0.00  0.00     0.078 C 
ENDROOT
BRANCH   1   8
ATOM      8  C1  UNL d   1      -1.210   0.027   0.030  0.00  0.00     0.053 C 
ATOM      9  C   UNL d   1      -2.200  -1.126  -0.033  0.00  0.00     0.018 C 
ENDBRANCH   1   8
TORSDOF 1
ENDMDL
