MODEL 1
REMARK minimizedAffinity -1.69393206
REMARK minimizedRMSD -1
REMARK  0 active torsions:
REMARK  status: ('A' for Active; 'I' for Inactive)
ROOT
ATOM      1  N1  IND d   1       0.413   1.421  -0.101  0.00  0.00    -0.196 N 
ATOM      2  C2  IND d   1      -0.771   1.313   0.574  0.00  0.00     0.054 A 
ATOM      3  C3  IND d   1      -1.249   0.051   0.485  0.00  0.00    -0.031 A 
ATOM      4  C4  IND d   1      -0.203  -2.020  -0.631  0.00  0.00     0.051 A 
ATOM      5  C5  IND d   1       0.855  -2.408  -1.404  0.00  0.00    -0.031 A 
ATOM      6  C6  IND d   1       1.841  -1.522  -1.788  0.00  0.00     0.015 A 
ATOM      7  C7  IND d   1       1.812  -0.212  -1.401  0.00  0.00    -0.016 A 
ATOM      8  C8  IND d   1       0.735   0.187  -0.622  0.00  0.00    -0.047 A 
ATOM      9  C9  IND d   1      -0.291  -0.697  -0.265  0.00  0.00    -0.096 A 
ATOM     10  HN1 IND d   1       0.879   2.139  -0.185  0.00  0.00     0.298 HD
ENDROOT
TORSDOF 0
ENDMDL
