MODEL 1
REMARK minimizedAffinity -6.37495899
REMARK minimizedRMSD -1
REMARK  0 active torsions:
REMARK  status: ('A' for Active; 'I' for Inactive)
ROOT
ATOM      1  N1  IND d   1      -0.493   0.545   0.051  0.00  0.00    -0.196 N 
ATOM      2  C2  IND d   1      -0.311  -0.563   0.831  0.00  0.00     0.054 A 
ATOM      3  C3  IND d   1       0.747  -1.280   0.391  0.00  0.00    -0.031 A 
ATOM      4  C4  IND d   1       2.384  -0.768  -1.529  0.00  0.00     0.051 A 
ATOM      5  C5  IND d   1       2.604   0.112  -2.551  0.00  0.00    -0.031 A 
ATOM      6  C6  IND d   1       1.788   1.204  -2.761  0.00  0.00     0.015 A 
ATOM      7  C7  IND d   1       0.723   1.465  -1.946  0.00  0.00    -0.016 A 
ATOM      8  C8  IND d   1       0.493   0.570  -0.911  0.00  0.00    -0.047 A 
ATOM      9  C9  IND d   1       1.292  -0.564  -0.718  0.00  0.00    -0.096 A 
ATOM     10  HN1 IND d   1      -1.119   1.127   0.145  0.00  0.00     0.298 HD
ENDROOT
TORSDOF 0
ENDMDL
