MODEL 1
REMARK minimizedAffinity -3.58706164
REMARK minimizedRMSD -1
REMARK  0 active torsions:
REMARK  status: ('A' for Active; 'I' for Inactive)
ROOT
ATOM      1  N1  IND d   1      -0.056  -1.005  -0.483  0.00  0.00    -0.196 N 
ATOM      2  C2  IND d   1       0.794  -1.746   0.290  0.00  0.00     0.054 A 
ATOM      3  C3  IND d   1       0.675  -1.394   1.590  0.00  0.00    -0.031 A 
ATOM      4  C4  IND d   1      -0.923   0.301   2.686  0.00  0.00     0.051 A 
ATOM      5  C5  IND d   1      -1.861   1.248   2.384  0.00  0.00    -0.031 A 
ATOM      6  C6  IND d   1      -2.255   1.495   1.085  0.00  0.00     0.015 A 
ATOM      7  C7  IND d   1      -1.732   0.794   0.036  0.00  0.00    -0.016 A 
ATOM      8  C8  IND d   1      -0.774  -0.163   0.338  0.00  0.00    -0.047 A 
ATOM      9  C9  IND d   1      -0.339  -0.390   1.650  0.00  0.00    -0.096 A 
ATOM     10  HN1 IND d   1      -0.129  -1.056  -1.338  0.00  0.00     0.298 HD
ENDROOT
TORSDOF 0
ENDMDL
