MODEL 1
REMARK minimizedAffinity -1.64022183
REMARK minimizedRMSD -1
REMARK  0 active torsions:
REMARK  status: ('A' for Active; 'I' for Inactive)
ROOT
ATOM      1  N1  IND d   1       0.252   1.682   1.046  0.00  0.00    -0.196 N 
ATOM      2  C2  IND d   1       0.157   0.742   0.058  0.00  0.00     0.054 A 
ATOM      3  C3  IND d   1      -0.754  -0.199   0.390  0.00  0.00    -0.031 A 
ATOM      4  C4  IND d   1      -2.281  -0.339   2.458  0.00  0.00     0.051 A 
ATOM      5  C5  IND d   1      -2.532   0.271   3.655  0.00  0.00    -0.031 A 
ATOM      6  C6  IND d   1      -1.856   1.407   4.050  0.00  0.00     0.015 A 
ATOM      7  C7  IND d   1      -0.908   1.985   3.254  0.00  0.00    -0.016 A 
ATOM      8  C8  IND d   1      -0.645   1.364   2.042  0.00  0.00    -0.047 A 
ATOM      9  C9  IND d   1      -1.298   0.186   1.654  0.00  0.00    -0.096 A 
ATOM     10  HN1 IND d   1       0.783   2.359   1.046  0.00  0.00     0.298 HD
ENDROOT
TORSDOF 0
ENDMDL
