MODEL 1
REMARK minimizedAffinity -4.96105671
REMARK minimizedRMSD -1
REMARK  0 active torsions:
REMARK  status: ('A' for Active; 'I' for Inactive)
ROOT
ATOM      1  N1  IND d   1       2.279   0.723  -1.547  0.00  0.00    -0.196 N 
ATOM      2  C2  IND d   1       3.001  -0.437  -1.608  0.00  0.00     0.054 A 
ATOM      3  C3  IND d   1       2.327  -1.443  -1.006  0.00  0.00    -0.031 A 
ATOM      4  C4  IND d   1      -0.018  -1.435   0.054  0.00  0.00     0.051 A 
ATOM      5  C5  IND d   1      -1.050  -0.601   0.381  0.00  0.00    -0.031 A 
ATOM      6  C6  IND d   1      -1.026   0.744   0.073  0.00  0.00     0.015 A 
ATOM      7  C7  IND d   1       0.032   1.305  -0.586  0.00  0.00    -0.016 A 
ATOM      8  C8  IND d   1       1.084   0.462  -0.913  0.00  0.00    -0.047 A 
ATOM      9  C9  IND d   1       1.084  -0.895  -0.566  0.00  0.00    -0.096 A 
ATOM     10  HN1 IND d   1       2.529   1.486  -1.853  0.00  0.00     0.298 HD
ENDROOT
TORSDOF 0
ENDMDL
