MODEL 1
REMARK minimizedAffinity -4.84728765
REMARK minimizedRMSD -1
REMARK  0 active torsions:
REMARK  status: ('A' for Active; 'I' for Inactive)
ROOT
ATOM      1  N1  IND d   1       2.391  -1.319  -0.722  0.00  0.00    -0.196 N 
ATOM      2  C2  IND d   1       2.933  -0.067  -0.793  0.00  0.00     0.054 A 
ATOM      3  C3  IND d   1       1.986   0.870  -0.560  0.00  0.00    -0.031 A 
ATOM      4  C4  IND d   1      -0.494   0.569   0.058  0.00  0.00     0.051 A 
ATOM      5  C5  IND d   1      -1.459  -0.388   0.206  0.00  0.00    -0.031 A 
ATOM      6  C6  IND d   1      -1.184  -1.731   0.052  0.00  0.00     0.015 A 
ATOM      7  C7  IND d   1       0.075  -2.170  -0.246  0.00  0.00    -0.016 A 
ATOM      8  C8  IND d   1       1.056  -1.202  -0.404  0.00  0.00    -0.047 A 
ATOM      9  C9  IND d   1       0.773   0.166  -0.291  0.00  0.00    -0.096 A 
ATOM     10  HN1 IND d   1       2.813  -2.057  -0.854  0.00  0.00     0.298 HD
ENDROOT
TORSDOF 0
ENDMDL
