MODEL 1
REMARK minimizedAffinity -3.98554516
REMARK minimizedRMSD -1
REMARK  0 active torsions:
REMARK  status: ('A' for Active; 'I' for Inactive)
ROOT
ATOM      1  N1  IND d   1      -0.996  -0.399   0.508  0.00  0.00    -0.196 N 
ATOM      2  C2  IND d   1      -0.977   0.954   0.702  0.00  0.00     0.054 A 
ATOM      3  C3  IND d   1       0.167   1.483   0.211  0.00  0.00    -0.031 A 
ATOM      4  C4  IND d   1       2.098   0.330  -1.041  0.00  0.00     0.051 A 
ATOM      5  C5  IND d   1       2.549  -0.902  -1.426  0.00  0.00    -0.031 A 
ATOM      6  C6  IND d   1       1.825  -2.051  -1.183  0.00  0.00     0.015 A 
ATOM      7  C7  IND d   1       0.613  -2.011  -0.554  0.00  0.00    -0.016 A 
ATOM      8  C8  IND d   1       0.155  -0.763  -0.155  0.00  0.00    -0.047 A 
ATOM      9  C9  IND d   1       0.905   0.402  -0.361  0.00  0.00    -0.096 A 
ATOM     10  HN1 IND d   1      -1.621  -0.933   0.758  0.00  0.00     0.298 HD
ENDROOT
TORSDOF 0
ENDMDL
