MODEL 1
REMARK minimizedAffinity -2.47175527
REMARK minimizedRMSD -1
REMARK  0 active torsions:
REMARK  status: ('A' for Active; 'I' for Inactive)
ROOT
ATOM      1  N1  IND d   1      -1.549   2.410   2.485  0.00  0.00    -0.196 N 
ATOM      2  C2  IND d   1      -2.425   1.629   3.185  0.00  0.00     0.054 A 
ATOM      3  C3  IND d   1      -2.247   0.325   2.873  0.00  0.00    -0.031 A 
ATOM      4  C4  IND d   1      -0.508  -0.760   1.315  0.00  0.00     0.051 A 
ATOM      5  C5  IND d   1       0.483  -0.451   0.426  0.00  0.00    -0.031 A 
ATOM      6  C6  IND d   1       0.857   0.854   0.175  0.00  0.00     0.015 A 
ATOM      7  C7  IND d   1       0.258   1.902   0.815  0.00  0.00    -0.016 A 
ATOM      8  C8  IND d   1      -0.753   1.592   1.713  0.00  0.00    -0.047 A 
ATOM      9  C9  IND d   1      -1.166   0.273   1.940  0.00  0.00    -0.096 A 
ATOM     10  HN1 IND d   1      -1.503   3.268   2.520  0.00  0.00     0.298 HD
ENDROOT
TORSDOF 0
ENDMDL
