MODEL 1
REMARK minimizedAffinity -2.78366566
REMARK minimizedRMSD -1
REMARK  0 active torsions:
REMARK  status: ('A' for Active; 'I' for Inactive)
ROOT
ATOM      1  N1  IND d   1      -0.166   1.124  -0.541  0.00  0.00    -0.196 N 
ATOM      2  C2  IND d   1      -1.278   0.961   0.237  0.00  0.00     0.054 A 
ATOM      3  C3  IND d   1      -1.471  -0.349   0.511  0.00  0.00    -0.031 A 
ATOM      4  C4  IND d   1      -0.031  -2.384  -0.129  0.00  0.00     0.051 A 
ATOM      5  C5  IND d   1       1.063  -2.740  -0.866  0.00  0.00    -0.031 A 
ATOM      6  C6  IND d   1       1.821  -1.807  -1.543  0.00  0.00     0.015 A 
ATOM      7  C7  IND d   1       1.518  -0.476  -1.500  0.00  0.00    -0.016 A 
ATOM      8  C8  IND d   1       0.403  -0.111  -0.759  0.00  0.00    -0.047 A 
ATOM      9  C9  IND d   1      -0.395  -1.059  -0.104  0.00  0.00    -0.096 A 
ATOM     10  HN1 IND d   1       0.129   1.873  -0.844  0.00  0.00     0.298 HD
ENDROOT
TORSDOF 0
ENDMDL
