MODEL 1
REMARK minimizedAffinity -2.92544699
REMARK minimizedRMSD -1
REMARK  0 active torsions:
REMARK  status: ('A' for Active; 'I' for Inactive)
ROOT
ATOM      1  N1  IND d   1      -0.354   0.126  -0.209  0.00  0.00    -0.196 N 
ATOM      2  C2  IND d   1      -0.242  -1.120   0.341  0.00  0.00     0.054 A 
ATOM      3  C3  IND d   1       0.698  -1.840  -0.313  0.00  0.00    -0.031 A 
ATOM      4  C4  IND d   1       2.244  -1.136  -2.247  0.00  0.00     0.051 A 
ATOM      5  C5  IND d   1       2.489  -0.106  -3.111  0.00  0.00    -0.031 A 
ATOM      6  C6  IND d   1       1.786   1.080  -3.048  0.00  0.00     0.015 A 
ATOM      7  C7  IND d   1       0.815   1.284  -2.108  0.00  0.00    -0.016 A 
ATOM      8  C8  IND d   1       0.560   0.237  -1.234  0.00  0.00    -0.047 A 
ATOM      9  C9  IND d   1       1.241  -0.984  -1.320  0.00  0.00    -0.096 A 
ATOM     10  HN1 IND d   1      -0.903   0.738   0.043  0.00  0.00     0.298 HD
ENDROOT
TORSDOF 0
ENDMDL
