MODEL 1
REMARK minimizedAffinity -2.98449349
REMARK minimizedRMSD -1
REMARK  0 active torsions:
REMARK  status: ('A' for Active; 'I' for Inactive)
ROOT
ATOM      1  N1  IND d   1      -0.664   1.147  -0.278  0.00  0.00    -0.196 N 
ATOM      2  C2  IND d   1      -0.933   0.119   0.582  0.00  0.00     0.054 A 
ATOM      3  C3  IND d   1      -0.108  -0.925   0.341  0.00  0.00    -0.031 A 
ATOM      4  C4  IND d   1       1.823  -1.127  -1.349  0.00  0.00     0.051 A 
ATOM      5  C5  IND d   1       2.428  -0.461  -2.378  0.00  0.00    -0.031 A 
ATOM      6  C6  IND d   1       2.027   0.801  -2.766  0.00  0.00     0.015 A 
ATOM      7  C7  IND d   1       1.009   1.452  -2.129  0.00  0.00    -0.016 A 
ATOM      8  C8  IND d   1       0.388   0.776  -1.088  0.00  0.00    -0.047 A 
ATOM      9  C9  IND d   1       0.762  -0.522  -0.717  0.00  0.00    -0.096 A 
ATOM     10  HN1 IND d   1      -1.081   1.898  -0.309  0.00  0.00     0.298 HD
ENDROOT
TORSDOF 0
ENDMDL
