MODEL 1
REMARK minimizedAffinity -2.88048124
REMARK minimizedRMSD -1
REMARK  0 active torsions:
REMARK  status: ('A' for Active; 'I' for Inactive)
ROOT
ATOM      1  N1  IND d   1       0.813   0.545   1.104  0.00  0.00    -0.196 N 
ATOM      2  C2  IND d   1       0.425  -0.238   0.052  0.00  0.00     0.054 A 
ATOM      3  C3  IND d   1      -0.877  -0.580   0.175  0.00  0.00    -0.031 A 
ATOM      4  C4  IND d   1      -2.588   0.115   1.969  0.00  0.00     0.051 A 
ATOM      5  C5  IND d   1      -2.694   0.793   3.151  0.00  0.00    -0.031 A 
ATOM      6  C6  IND d   1      -1.615   1.438   3.721  0.00  0.00     0.015 A 
ATOM      7  C7  IND d   1      -0.388   1.438   3.122  0.00  0.00    -0.016 A 
ATOM      8  C8  IND d   1      -0.274   0.745   1.925  0.00  0.00    -0.047 A 
ATOM      9  C9  IND d   1      -1.355   0.053   1.363  0.00  0.00    -0.096 A 
ATOM     10  HN1 IND d   1       1.604   0.858   1.231  0.00  0.00     0.298 HD
ENDROOT
TORSDOF 0
ENDMDL
