MODEL 1
REMARK minimizedAffinity -6.53588009
REMARK minimizedRMSD -1
REMARK  0 active torsions:
REMARK  status: ('A' for Active; 'I' for Inactive)
ROOT
ATOM      1  N1  IND d   1      -0.302   1.745  -1.524  0.00  0.00    -0.196 N 
ATOM      2  C2  IND d   1      -1.089   1.188  -0.555  0.00  0.00     0.054 A 
ATOM      3  C3  IND d   1      -0.490   0.093  -0.035  0.00  0.00    -0.031 A 
ATOM      4  C4  IND d   1       1.824  -0.908  -0.554  0.00  0.00     0.051 A 
ATOM      5  C5  IND d   1       2.894  -0.769  -1.392  0.00  0.00    -0.031 A 
ATOM      6  C6  IND d   1       2.956   0.237  -2.335  0.00  0.00     0.015 A 
ATOM      7  C7  IND d   1       1.951   1.152  -2.467  0.00  0.00    -0.016 A 
ATOM      8  C8  IND d   1       0.859   1.010  -1.622  0.00  0.00    -0.047 A 
ATOM      9  C9  IND d   1       0.772  -0.034  -0.692  0.00  0.00    -0.096 A 
ATOM     10  HN1 IND d   1      -0.499   2.437  -1.994  0.00  0.00     0.298 HD
ENDROOT
TORSDOF 0
ENDMDL
