MODEL 1
REMARK minimizedAffinity -4.07242632
REMARK minimizedRMSD -1
REMARK  1 active torsions:
REMARK  status: ('A' for Active; 'I' for Inactive)
REMARK    1  A    between atoms: C1_2  and  C2_3 
ROOT
ATOM      1  C2  UNL d   1       0.641   0.203  -1.706  0.00  0.00    -0.076 A 
ATOM      2  C3  UNL d   1      -0.027   1.414  -1.450  0.00  0.00     0.004 A 
ATOM      3  C4  UNL d   1      -1.053   1.482  -0.509  0.00  0.00    -0.003 A 
ATOM      4  C5  UNL d   1      -1.426   0.341   0.193  0.00  0.00     0.000 A 
ATOM      5  C6  UNL d   1      -0.763  -0.864  -0.035  0.00  0.00     0.000 A 
ATOM      6  C7  UNL d   1       0.284  -0.946  -0.969  0.00  0.00    -0.073 A 
ATOM      7  C8  UNL d   1       0.962  -2.273  -1.179  0.00  0.00     0.078 C 
ENDROOT
BRANCH   1   8
ATOM      8  C1  UNL d   1       1.727   0.184  -2.757  0.00  0.00     0.053 C 
ATOM      9  C   UNL d   1       1.211   0.571  -4.135  0.00  0.00     0.018 C 
ENDBRANCH   1   8
TORSDOF 1
ENDMDL
