MODEL 1
REMARK minimizedAffinity -3.96916366
REMARK minimizedRMSD -1
REMARK  1 active torsions:
REMARK  status: ('A' for Active; 'I' for Inactive)
REMARK    1  A    between atoms: C1_2  and  C2_3 
ROOT
ATOM      1  C2  UNL d   1      -0.571   0.367   1.290  0.00  0.00    -0.076 A 
ATOM      2  C3  UNL d   1      -1.472   0.718   0.271  0.00  0.00     0.004 A 
ATOM      3  C4  UNL d   1      -1.074   0.735  -1.065  0.00  0.00    -0.003 A 
ATOM      4  C5  UNL d   1       0.233   0.400  -1.403  0.00  0.00     0.000 A 
ATOM      5  C6  UNL d   1       1.136   0.032  -0.406  0.00  0.00     0.000 A 
ATOM      6  C7  UNL d   1       0.746  -0.005   0.944  0.00  0.00    -0.073 A 
ATOM      7  C8  UNL d   1       1.763  -0.404   1.978  0.00  0.00     0.078 C 
ENDROOT
BRANCH   1   8
ATOM      8  C1  UNL d   1      -1.052   0.393   2.723  0.00  0.00     0.053 C 
ATOM      9  C   UNL d   1      -1.099   1.801   3.297  0.00  0.00     0.018 C 
ENDBRANCH   1   8
TORSDOF 1
ENDMDL
