MODEL 1
REMARK minimizedAffinity -1.72024119
REMARK minimizedRMSD -1
REMARK  1 active torsions:
REMARK  status: ('A' for Active; 'I' for Inactive)
REMARK    1  A    between atoms: C1_2  and  C2_3 
ROOT
ATOM      1  C2  UNL d   1       0.585   0.299  -0.913  0.00  0.00    -0.076 A 
ATOM      2  C3  UNL d   1      -0.070   1.479  -0.518  0.00  0.00     0.004 A 
ATOM      3  C4  UNL d   1      -1.052   1.457   0.470  0.00  0.00    -0.003 A 
ATOM      4  C5  UNL d   1      -1.396   0.256   1.080  0.00  0.00     0.000 A 
ATOM      5  C6  UNL d   1      -0.744  -0.921   0.713  0.00  0.00     0.000 A 
ATOM      6  C7  UNL d   1       0.261  -0.914  -0.270  0.00  0.00    -0.073 A 
ATOM      7  C8  UNL d   1       0.926  -2.214  -0.631  0.00  0.00     0.078 C 
ENDROOT
BRANCH   1   8
ATOM      8  C1  UNL d   1       1.623   0.380  -2.010  0.00  0.00     0.053 C 
ATOM      9  C   UNL d   1       1.018   0.235  -3.397  0.00  0.00     0.018 C 
ENDBRANCH   1   8
TORSDOF 1
ENDMDL
