MODEL 1
REMARK minimizedAffinity -3.96937752
REMARK minimizedRMSD -1
REMARK  1 active torsions:
REMARK  status: ('A' for Active; 'I' for Inactive)
REMARK    1  A    between atoms: C1_2  and  C2_3 
ROOT
ATOM      1  C2  UNL d   1      -0.238   0.734   0.961  0.00  0.00    -0.076 A 
ATOM      2  C3  UNL d   1      -1.106   0.805  -0.143  0.00  0.00     0.004 A 
ATOM      3  C4  UNL d   1      -0.745   0.262  -1.375  0.00  0.00    -0.003 A 
ATOM      4  C5  UNL d   1       0.489  -0.362  -1.523  0.00  0.00     0.000 A 
ATOM      5  C6  UNL d   1       1.355  -0.457  -0.434  0.00  0.00     0.000 A 
ATOM      6  C7  UNL d   1       0.999   0.071   0.820  0.00  0.00    -0.073 A 
ATOM      7  C8  UNL d   1       1.974  -0.055   1.958  0.00  0.00     0.078 C 
ENDROOT
BRANCH   1   8
ATOM      8  C1  UNL d   1      -0.672   1.364   2.265  0.00  0.00     0.053 C 
ATOM      9  C   UNL d   1      -1.775   0.576   2.955  0.00  0.00     0.018 C 
ENDBRANCH   1   8
TORSDOF 1
ENDMDL
