MODEL 1
REMARK minimizedAffinity -4.33208132
REMARK minimizedRMSD -1
REMARK  1 active torsions:
REMARK  status: ('A' for Active; 'I' for Inactive)
REMARK    1  A    between atoms: C1_2  and  C2_3 
ROOT
ATOM      1  C2  UNL d   1      -0.761  -0.154   1.479  0.00  0.00    -0.076 A 
ATOM      2  C3  UNL d   1       0.554  -0.414   1.902  0.00  0.00     0.004 A 
ATOM      3  C4  UNL d   1       1.406  -1.217   1.146  0.00  0.00    -0.003 A 
ATOM      4  C5  UNL d   1       0.957  -1.772  -0.047  0.00  0.00     0.000 A 
ATOM      5  C6  UNL d   1      -0.339  -1.510  -0.491  0.00  0.00     0.000 A 
ATOM      6  C7  UNL d   1      -1.205  -0.690   0.251  0.00  0.00    -0.073 A 
ATOM      7  C8  UNL d   1      -2.594  -0.446  -0.272  0.00  0.00     0.078 C 
ENDROOT
BRANCH   1   8
ATOM      8  C1  UNL d   1      -1.648   0.702   2.355  0.00  0.00     0.053 C 
ATOM      9  C   UNL d   1      -0.883   1.827   3.036  0.00  0.00     0.018 C 
ENDBRANCH   1   8
TORSDOF 1
ENDMDL
