MODEL 1
REMARK minimizedAffinity -4.73415279
REMARK minimizedRMSD -1
REMARK  1 active torsions:
REMARK  status: ('A' for Active; 'I' for Inactive)
REMARK    1  A    between atoms: C1_2  and  C2_3 
ROOT
ATOM      1  C2  UNL d   1       0.041  -0.324   0.782  0.00  0.00    -0.076 A 
ATOM      2  C3  UNL d   1      -1.330  -0.015   0.747  0.00  0.00     0.004 A 
ATOM      3  C4  UNL d   1      -2.022   0.307   1.913  0.00  0.00    -0.003 A 
ATOM      4  C5  UNL d   1      -1.355   0.327   3.133  0.00  0.00     0.000 A 
ATOM      5  C6  UNL d   1       0.009   0.041   3.183  0.00  0.00     0.000 A 
ATOM      6  C7  UNL d   1       0.726  -0.270   2.015  0.00  0.00    -0.073 A 
ATOM      7  C8  UNL d   1       2.194  -0.576   2.128  0.00  0.00     0.078 C 
ENDROOT
BRANCH   1   8
ATOM      8  C1  UNL d   1       0.733  -0.692  -0.511  0.00  0.00     0.053 C 
ATOM      9  C   UNL d   1       0.700   0.434  -1.532  0.00  0.00     0.018 C 
ENDBRANCH   1   8
TORSDOF 1
ENDMDL
