MODEL 1
REMARK minimizedAffinity -5.57379341
REMARK minimizedRMSD -1
REMARK  1 active torsions:
REMARK  status: ('A' for Active; 'I' for Inactive)
REMARK    1  A    between atoms: C1_2  and  C2_3 
ROOT
ATOM      1  C2  UNL d   1       0.110  -0.073   1.484  0.00  0.00    -0.076 A 
ATOM      2  C3  UNL d   1       1.269  -0.806   1.794  0.00  0.00     0.004 A 
ATOM      3  C4  UNL d   1       1.685  -0.967   3.114  0.00  0.00    -0.003 A 
ATOM      4  C5  UNL d   1       0.948  -0.398   4.147  0.00  0.00     0.000 A 
ATOM      5  C6  UNL d   1      -0.214   0.317   3.860  0.00  0.00     0.000 A 
ATOM      6  C7  UNL d   1      -0.657   0.475   2.535  0.00  0.00    -0.073 A 
ATOM      7  C8  UNL d   1      -1.914   1.261   2.283  0.00  0.00     0.078 C 
ENDROOT
BRANCH   1   8
ATOM      8  C1  UNL d   1      -0.277   0.091   0.032  0.00  0.00     0.053 C 
ATOM      9  C   UNL d   1       0.394  -0.934  -0.869  0.00  0.00     0.018 C 
ENDBRANCH   1   8
TORSDOF 1
ENDMDL
