MODEL 1
REMARK minimizedAffinity 10.821887
REMARK minimizedRMSD -1
REMARK  0 active torsions:
REMARK  status: ('A' for Active; 'I' for Inactive)
ROOT
ATOM      1  C   UNL d   1      -5.996  -5.539   4.409  0.00  0.00     0.020 A 
ATOM      2  C1  UNL d   1      -5.997  -4.393   5.203  0.00  0.00     0.020 A 
ATOM      3  C2  UNL d   1      -5.999  -3.130   4.606  0.00  0.00     0.034 A 
ATOM      4  C3  UNL d   1      -5.998  -3.011   3.212  0.00  0.00     0.017 A 
ATOM      5  C4  UNL d   1      -5.997  -4.162   2.416  0.00  0.00     0.017 A 
ATOM      6  C5  UNL d   1      -5.996  -5.424   3.018  0.00  0.00     0.034 A 
ATOM      7 Cl   UNL d   1      -5.997  -4.095   0.689  0.00  0.00    -0.070 Cl
ATOM      8 Cl1  UNL d   1      -6.000  -1.418   2.542  0.00  0.00    -0.070 Cl
ENDROOT
TORSDOF 0
ENDMDL
