MODEL 1
REMARK minimizedAffinity 7.34208155
REMARK minimizedRMSD -1
REMARK  0 active torsions:
REMARK  status: ('A' for Active; 'I' for Inactive)
ROOT
ATOM      1  C   UNL d   1      -0.017   3.040   1.704  0.00  0.00     0.020 A 
ATOM      2  C1  UNL d   1       1.217   2.447   1.965  0.00  0.00     0.020 A 
ATOM      3  C2  UNL d   1       1.273   1.151   2.483  0.00  0.00     0.034 A 
ATOM      4  C3  UNL d   1       0.093   0.444   2.740  0.00  0.00     0.017 A 
ATOM      5  C4  UNL d   1      -1.146   1.041   2.477  0.00  0.00     0.017 A 
ATOM      6  C5  UNL d   1      -1.196   2.339   1.959  0.00  0.00     0.034 A 
ATOM      7 Cl   UNL d   1      -2.645   0.232   2.769  0.00  0.00    -0.070 Cl
ATOM      8 Cl1  UNL d   1       0.237  -1.155   3.379  0.00  0.00    -0.070 Cl
ENDROOT
TORSDOF 0
ENDMDL
