MODEL 1
REMARK minimizedAffinity 6.02286291
REMARK minimizedRMSD -1
REMARK  0 active torsions:
REMARK  status: ('A' for Active; 'I' for Inactive)
ROOT
ATOM      1  C   UNL d   1       4.402  -5.999  -1.624  0.00  0.00     0.020 A 
ATOM      2  C1  UNL d   1       4.855  -5.537  -0.389  0.00  0.00     0.020 A 
ATOM      3  C2  UNL d   1       4.398  -4.314   0.109  0.00  0.00     0.034 A 
ATOM      4  C3  UNL d   1       3.486  -3.551  -0.629  0.00  0.00     0.017 A 
ATOM      5  C4  UNL d   1       3.032  -4.016  -1.869  0.00  0.00     0.017 A 
ATOM      6  C5  UNL d   1       3.493  -5.241  -2.362  0.00  0.00     0.034 A 
ATOM      7 Cl   UNL d   1       1.907  -3.130  -2.836  0.00  0.00    -0.070 Cl
ATOM      8 Cl1  UNL d   1       2.963  -2.049   0.047  0.00  0.00    -0.070 Cl
ENDROOT
TORSDOF 0
ENDMDL
