MODEL 1
REMARK minimizedAffinity 3.11061192
REMARK minimizedRMSD -1
REMARK  0 active torsions:
REMARK  status: ('A' for Active; 'I' for Inactive)
ROOT
ATOM      1  C   UNL d   1       4.142  -6.000  -1.874  0.00  0.00     0.020 A 
ATOM      2  C1  UNL d   1       4.607  -5.594  -0.623  0.00  0.00     0.020 A 
ATOM      3  C2  UNL d   1       4.265  -4.335  -0.126  0.00  0.00     0.034 A 
ATOM      4  C3  UNL d   1       3.457  -3.476  -0.880  0.00  0.00     0.017 A 
ATOM      5  C4  UNL d   1       2.991  -3.884  -2.135  0.00  0.00     0.017 A 
ATOM      6  C5  UNL d   1       3.336  -5.146  -2.628  0.00  0.00     0.034 A 
ATOM      7 Cl   UNL d   1       1.990  -2.879  -3.123  0.00  0.00    -0.070 Cl
ATOM      8 Cl1  UNL d   1       3.074  -1.933  -0.203  0.00  0.00    -0.070 Cl
ENDROOT
TORSDOF 0
ENDMDL
