MODEL 1
REMARK minimizedAffinity 1.70208859
REMARK minimizedRMSD -1
REMARK  0 active torsions:
REMARK  status: ('A' for Active; 'I' for Inactive)
ROOT
ATOM      1  C   UNL d   1       4.172  -0.740  -0.274  0.00  0.00     0.020 A 
ATOM      2  C1  UNL d   1       3.544  -1.736   0.473  0.00  0.00     0.020 A 
ATOM      3  C2  UNL d   1       2.330  -2.272   0.040  0.00  0.00     0.034 A 
ATOM      4  C3  UNL d   1       1.740  -1.813  -1.144  0.00  0.00     0.017 A 
ATOM      5  C4  UNL d   1       2.371  -0.813  -1.892  0.00  0.00     0.017 A 
ATOM      6  C5  UNL d   1       3.587  -0.280  -1.454  0.00  0.00     0.034 A 
ATOM      7 Cl   UNL d   1       1.705  -0.196  -3.363  0.00  0.00    -0.070 Cl
ATOM      8 Cl1  UNL d   1       0.237  -2.521  -1.620  0.00  0.00    -0.070 Cl
ENDROOT
TORSDOF 0
ENDMDL
