MODEL 1
REMARK minimizedAffinity 20.0273952
REMARK minimizedRMSD -1
REMARK  0 active torsions:
REMARK  status: ('A' for Active; 'I' for Inactive)
ROOT
ATOM      1  C   UNL d   1       4.541   1.674  -0.676  0.00  0.00     0.020 A 
ATOM      2  C1  UNL d   1       4.003   0.437  -0.326  0.00  0.00     0.020 A 
ATOM      3  C2  UNL d   1       3.207   0.320   0.815  0.00  0.00     0.034 A 
ATOM      4  C3  UNL d   1       2.947   1.442   1.610  0.00  0.00     0.017 A 
ATOM      5  C4  UNL d   1       3.487   2.684   1.257  0.00  0.00     0.017 A 
ATOM      6  C5  UNL d   1       4.284   2.796   0.113  0.00  0.00     0.034 A 
ATOM      7 Cl   UNL d   1       3.210   4.114   2.188  0.00  0.00    -0.070 Cl
ATOM      8 Cl1  UNL d   1       1.953   1.224   3.007  0.00  0.00    -0.070 Cl
ENDROOT
TORSDOF 0
ENDMDL
