MODEL 1
REMARK minimizedAffinity 11.9781885
REMARK minimizedRMSD -1
REMARK  0 active torsions:
REMARK  status: ('A' for Active; 'I' for Inactive)
ROOT
ATOM      1  C   UNL d   1       1.110  -0.336   5.725  0.00  0.00     0.020 A 
ATOM      2  C1  UNL d   1       0.779  -0.659   4.410  0.00  0.00     0.020 A 
ATOM      3  C2  UNL d   1       1.170   0.181   3.365  0.00  0.00     0.034 A 
ATOM      4  C3  UNL d   1       1.893   1.348   3.634  0.00  0.00     0.017 A 
ATOM      5  C4  UNL d   1       2.224   1.672   4.954  0.00  0.00     0.017 A 
ATOM      6  C5  UNL d   1       1.831   0.827   5.997  0.00  0.00     0.034 A 
ATOM      7 Cl   UNL d   1       3.115   3.096   5.364  0.00  0.00    -0.070 Cl
ATOM      8 Cl1  UNL d   1       2.343   2.341   2.293  0.00  0.00    -0.070 Cl
ENDROOT
TORSDOF 0
ENDMDL
