MODEL 1
REMARK minimizedAffinity 12.2565641
REMARK minimizedRMSD -1
REMARK  0 active torsions:
REMARK  status: ('A' for Active; 'I' for Inactive)
ROOT
ATOM      1  C   UNL d   1      -1.714  -4.650  -2.150  0.00  0.00     0.020 A 
ATOM      2  C1  UNL d   1      -0.348  -4.836  -1.940  0.00  0.00     0.020 A 
ATOM      3  C2  UNL d   1       0.501  -3.732  -1.847  0.00  0.00     0.034 A 
ATOM      4  C3  UNL d   1      -0.014  -2.436  -1.964  0.00  0.00     0.017 A 
ATOM      5  C4  UNL d   1      -1.385  -2.250  -2.174  0.00  0.00     0.017 A 
ATOM      6  C5  UNL d   1      -2.231  -3.360  -2.266  0.00  0.00     0.034 A 
ATOM      7 Cl   UNL d   1      -2.095  -0.681  -2.328  0.00  0.00    -0.070 Cl
ATOM      8 Cl1  UNL d   1       1.094  -1.116  -1.838  0.00  0.00    -0.070 Cl
ENDROOT
TORSDOF 0
ENDMDL
