MODEL 1
REMARK minimizedAffinity 6.77034807
REMARK minimizedRMSD -1
REMARK  0 active torsions:
REMARK  status: ('A' for Active; 'I' for Inactive)
ROOT
ATOM      1  C   UNL d   1      -0.583  -4.366  -2.172  0.00  0.00     0.020 A 
ATOM      2  C1  UNL d   1      -1.200  -3.118  -2.232  0.00  0.00     0.020 A 
ATOM      3  C2  UNL d   1      -0.556  -1.994  -1.709  0.00  0.00     0.034 A 
ATOM      4  C3  UNL d   1       0.709  -2.117  -1.125  0.00  0.00     0.017 A 
ATOM      5  C4  UNL d   1       1.329  -3.371  -1.065  0.00  0.00     0.017 A 
ATOM      6  C5  UNL d   1       0.679  -4.492  -1.590  0.00  0.00     0.034 A 
ATOM      7 Cl   UNL d   1       2.889  -3.601  -0.359  0.00  0.00    -0.070 Cl
ATOM      8 Cl1  UNL d   1       1.448  -0.686  -0.499  0.00  0.00    -0.070 Cl
ENDROOT
TORSDOF 0
ENDMDL
