MODEL 1
REMARK minimizedAffinity 10.7825327
REMARK minimizedRMSD -1
REMARK  0 active torsions:
REMARK  status: ('A' for Active; 'I' for Inactive)
ROOT
ATOM      1  C   UNL d   1      -0.715  -5.999  -3.845  0.00  0.00     0.020 A 
ATOM      2  C1  UNL d   1      -0.384  -5.459  -2.603  0.00  0.00     0.020 A 
ATOM      3  C2  UNL d   1      -0.998  -4.282  -2.168  0.00  0.00     0.034 A 
ATOM      4  C3  UNL d   1      -1.946  -3.642  -2.975  0.00  0.00     0.017 A 
ATOM      5  C4  UNL d   1      -2.277  -4.186  -4.222  0.00  0.00     0.017 A 
ATOM      6  C5  UNL d   1      -1.659  -5.364  -4.653  0.00  0.00     0.034 A 
ATOM      7 Cl   UNL d   1      -3.436  -3.453  -5.274  0.00  0.00    -0.070 Cl
ATOM      8 Cl1  UNL d   1      -2.665  -2.191  -2.374  0.00  0.00    -0.070 Cl
ENDROOT
TORSDOF 0
ENDMDL
