MODEL 1
REMARK minimizedAffinity 9.45439529
REMARK minimizedRMSD -1
REMARK  0 active torsions:
REMARK  status: ('A' for Active; 'I' for Inactive)
ROOT
ATOM      1  C   UNL d   1       2.153  -0.478  -1.931  0.00  0.00     0.020 A 
ATOM      2  C1  UNL d   1       2.881   0.357  -1.084  0.00  0.00     0.020 A 
ATOM      3  C2  UNL d   1       2.746   1.743  -1.185  0.00  0.00     0.034 A 
ATOM      4  C3  UNL d   1       1.880   2.298  -2.134  0.00  0.00     0.017 A 
ATOM      5  C4  UNL d   1       1.150   1.459  -2.984  0.00  0.00     0.017 A 
ATOM      6  C5  UNL d   1       1.290   0.072  -2.878  0.00  0.00     0.034 A 
ATOM      7 Cl   UNL d   1       0.063   2.071  -4.180  0.00  0.00    -0.070 Cl
ATOM      8 Cl1  UNL d   1       1.762   4.021  -2.203  0.00  0.00    -0.070 Cl
ENDROOT
TORSDOF 0
ENDMDL
