MODEL 1
REMARK minimizedAffinity 12.1150455
REMARK minimizedRMSD -1
REMARK  0 active torsions:
REMARK  status: ('A' for Active; 'I' for Inactive)
ROOT
ATOM      1  C   UNL d   1      -6.000  -2.887   1.145  0.00  0.00     0.020 A 
ATOM      2  C1  UNL d   1      -6.000  -3.985   2.005  0.00  0.00     0.020 A 
ATOM      3  C2  UNL d   1      -6.000  -3.788   3.388  0.00  0.00     0.034 A 
ATOM      4  C3  UNL d   1      -5.999  -2.491   3.914  0.00  0.00     0.017 A 
ATOM      5  C4  UNL d   1      -5.999  -1.391   3.050  0.00  0.00     0.017 A 
ATOM      6  C5  UNL d   1      -5.999  -1.593   1.667  0.00  0.00     0.034 A 
ATOM      7 Cl   UNL d   1      -5.999   0.239   3.625  0.00  0.00    -0.070 Cl
ATOM      8 Cl1  UNL d   1      -6.000  -2.322   5.634  0.00  0.00    -0.070 Cl
ENDROOT
TORSDOF 0
ENDMDL
