MODEL 1
REMARK minimizedAffinity 9.14936829
REMARK minimizedRMSD -1
REMARK  0 active torsions:
REMARK  status: ('A' for Active; 'I' for Inactive)
ROOT
ATOM      1  C   UNL d   1      -1.860  -1.207  -3.014  0.00  0.00     0.020 A 
ATOM      2  C1  UNL d   1      -2.602  -2.304  -3.448  0.00  0.00     0.020 A 
ATOM      3  C2  UNL d   1      -2.135  -3.600  -3.214  0.00  0.00     0.034 A 
ATOM      4  C3  UNL d   1      -0.923  -3.801  -2.544  0.00  0.00     0.017 A 
ATOM      5  C4  UNL d   1      -0.179  -2.698  -2.109  0.00  0.00     0.017 A 
ATOM      6  C5  UNL d   1      -0.651  -1.403  -2.346  0.00  0.00     0.034 A 
ATOM      7 Cl   UNL d   1       1.326  -2.867  -1.276  0.00  0.00    -0.070 Cl
ATOM      8 Cl1  UNL d   1      -0.407  -5.430  -2.289  0.00  0.00    -0.070 Cl
ENDROOT
TORSDOF 0
ENDMDL
