MODEL 1
REMARK minimizedAffinity 3.46865106
REMARK minimizedRMSD -1
REMARK  0 active torsions:
REMARK  status: ('A' for Active; 'I' for Inactive)
ROOT
ATOM      1  C   UNL d   1       0.530  -3.674  -1.016  0.00  0.00     0.020 A 
ATOM      2  C1  UNL d   1      -0.163  -3.244  -2.147  0.00  0.00     0.020 A 
ATOM      3  C2  UNL d   1       0.194  -2.047  -2.772  0.00  0.00     0.034 A 
ATOM      4  C3  UNL d   1       1.247  -1.276  -2.266  0.00  0.00     0.017 A 
ATOM      5  C4  UNL d   1       1.943  -1.709  -1.131  0.00  0.00     0.017 A 
ATOM      6  C5  UNL d   1       1.581  -2.908  -0.510  0.00  0.00     0.034 A 
ATOM      7 Cl   UNL d   1       3.253  -0.812  -0.450  0.00  0.00    -0.070 Cl
ATOM      8 Cl1  UNL d   1       1.635   0.192  -3.090  0.00  0.00    -0.070 Cl
ENDROOT
TORSDOF 0
ENDMDL
