MODEL 1
REMARK minimizedAffinity 15.8315439
REMARK minimizedRMSD -1
REMARK  0 active torsions:
REMARK  status: ('A' for Active; 'I' for Inactive)
ROOT
ATOM      1  C   UNL d   1       1.756   2.291  -2.776  0.00  0.00     0.020 A 
ATOM      2  C1  UNL d   1       1.051   1.212  -3.307  0.00  0.00     0.020 A 
ATOM      3  C2  UNL d   1       1.160  -0.051  -2.721  0.00  0.00     0.034 A 
ATOM      4  C3  UNL d   1       1.976  -0.237  -1.599  0.00  0.00     0.017 A 
ATOM      5  C4  UNL d   1       2.683   0.846  -1.066  0.00  0.00     0.017 A 
ATOM      6  C5  UNL d   1       2.571   2.108  -1.657  0.00  0.00     0.034 A 
ATOM      7 Cl   UNL d   1       3.710   0.694   0.316  0.00  0.00    -0.070 Cl
ATOM      8 Cl1  UNL d   1       2.063  -1.826  -0.924  0.00  0.00    -0.070 Cl
ENDROOT
TORSDOF 0
ENDMDL
