MODEL 1
REMARK minimizedAffinity -3.86345506
REMARK minimizedRMSD -1
REMARK  0 active torsions:
REMARK  status: ('A' for Active; 'I' for Inactive)
ROOT
ATOM      1  C   UNL d   1       1.549   1.703  -0.047  0.00  0.00     0.020 A 
ATOM      2  C1  UNL d   1       0.542   1.187   0.769  0.00  0.00     0.020 A 
ATOM      3  C2  UNL d   1       0.102  -0.126   0.590  0.00  0.00     0.034 A 
ATOM      4  C3  UNL d   1       0.669  -0.928  -0.407  0.00  0.00     0.017 A 
ATOM      5  C4  UNL d   1       1.679  -0.410  -1.226  0.00  0.00     0.017 A 
ATOM      6  C5  UNL d   1       2.116   0.906  -1.042  0.00  0.00     0.034 A 
ATOM      7 Cl   UNL d   1       2.426  -1.339  -2.477  0.00  0.00    -0.070 Cl
ATOM      8 Cl1  UNL d   1       0.076  -2.543  -0.572  0.00  0.00    -0.070 Cl
ENDROOT
TORSDOF 0
ENDMDL
