MODEL 1
REMARK minimizedAffinity 8.36287308
REMARK minimizedRMSD -1
REMARK  1 active torsions:
REMARK  status: ('A' for Active; 'I' for Inactive)
REMARK    1  A    between atoms: C1_2  and  C2_3 
ROOT
ATOM      1  C2  UNL d   1       2.589  -4.191   5.234  0.00  0.00    -0.081 A 
ATOM      2  C3  UNL d   1       1.884  -3.073   5.697  0.00  0.00     0.006 A 
ATOM      3  C4  UNL d   1       1.940  -1.862   5.002  0.00  0.00     0.002 A 
ATOM      4  C5  UNL d   1       2.695  -1.751   3.830  0.00  0.00    -0.080 A 
ATOM      5  C6  UNL d   1       2.740  -0.466   3.058  0.00  0.00     0.076 C 
ATOM      6  C7  UNL d   1       3.414  -2.863   3.376  0.00  0.00     0.002 A 
ATOM      7  C8  UNL d   1       3.359  -4.073   4.071  0.00  0.00     0.006 A 
ENDROOT
BRANCH   1   8
ATOM      8  C1  UNL d   1       2.479  -5.515   5.945  0.00  0.00     0.054 C 
ATOM      9  C   UNL d   1       1.036  -5.995   6.000  0.00  0.00     0.018 C 
ENDBRANCH   1   8
TORSDOF 1
ENDMDL
