MODEL 1
REMARK minimizedAffinity 1.16484809
REMARK minimizedRMSD -1
REMARK  1 active torsions:
REMARK  status: ('A' for Active; 'I' for Inactive)
REMARK    1  A    between atoms: C1_2  and  C2_3 
ROOT
ATOM      1  C2  UNL d   1       3.752  -1.933   4.910  0.00  0.00    -0.081 A 
ATOM      2  C3  UNL d   1       2.354  -2.008   4.926  0.00  0.00     0.006 A 
ATOM      3  C4  UNL d   1       1.603  -1.459   3.884  0.00  0.00     0.002 A 
ATOM      4  C5  UNL d   1       2.237  -0.832   2.805  0.00  0.00    -0.080 A 
ATOM      5  C6  UNL d   1       1.444  -0.266   1.666  0.00  0.00     0.076 C 
ATOM      6  C7  UNL d   1       3.633  -0.741   2.798  0.00  0.00     0.002 A 
ATOM      7  C8  UNL d   1       4.384  -1.290   3.840  0.00  0.00     0.006 A 
ENDROOT
BRANCH   1   8
ATOM      8  C1  UNL d   1       4.567  -2.581   6.000  0.00  0.00     0.054 C 
ATOM      9  C   UNL d   1       6.000  -2.068   5.999  0.00  0.00     0.018 C 
ENDBRANCH   1   8
TORSDOF 1
ENDMDL
