MODEL 1
REMARK minimizedAffinity 9.41838264
REMARK minimizedRMSD -1
REMARK  1 active torsions:
REMARK  status: ('A' for Active; 'I' for Inactive)
REMARK    1  A    between atoms: C1_2  and  C2_3 
ROOT
ATOM      1  C2  UNL d   1       2.743   0.005   2.340  0.00  0.00    -0.081 A 
ATOM      2  C3  UNL d   1       1.742   0.074   3.317  0.00  0.00     0.006 A 
ATOM      3  C4  UNL d   1       1.566  -0.972   4.226  0.00  0.00     0.002 A 
ATOM      4  C5  UNL d   1       2.392  -2.100   4.179  0.00  0.00    -0.080 A 
ATOM      5  C6  UNL d   1       2.233  -3.216   5.168  0.00  0.00     0.076 C 
ATOM      6  C7  UNL d   1       3.381  -2.176   3.192  0.00  0.00     0.002 A 
ATOM      7  C8  UNL d   1       3.557  -1.131   2.283  0.00  0.00     0.006 A 
ENDROOT
BRANCH   1   8
ATOM      8  C1  UNL d   1       2.977   1.160   1.400  0.00  0.00     0.054 C 
ATOM      9  C   UNL d   1       2.683   2.492   2.075  0.00  0.00     0.018 C 
ENDBRANCH   1   8
TORSDOF 1
ENDMDL
