MODEL 1
REMARK minimizedAffinity 12.9349918
REMARK minimizedRMSD -1
REMARK  1 active torsions:
REMARK  status: ('A' for Active; 'I' for Inactive)
REMARK    1  A    between atoms: C1_2  and  C2_3 
ROOT
ATOM      1  C2  UNL d   1       1.975  -1.923   3.354  0.00  0.00    -0.081 A 
ATOM      2  C3  UNL d   1       3.123  -2.723   3.395  0.00  0.00     0.006 A 
ATOM      3  C4  UNL d   1       3.054  -4.038   3.859  0.00  0.00     0.002 A 
ATOM      4  C5  UNL d   1       1.835  -4.578   4.283  0.00  0.00    -0.080 A 
ATOM      5  C6  UNL d   1       1.741  -5.998   4.756  0.00  0.00     0.076 C 
ATOM      6  C7  UNL d   1       0.691  -3.773   4.259  0.00  0.00     0.002 A 
ATOM      7  C8  UNL d   1       0.760  -2.457   3.796  0.00  0.00     0.006 A 
ENDROOT
BRANCH   1   8
ATOM      8  C1  UNL d   1       2.034  -0.525   2.793  0.00  0.00     0.054 C 
ATOM      9  C   UNL d   1       1.221  -0.408   1.512  0.00  0.00     0.018 C 
ENDBRANCH   1   8
TORSDOF 1
ENDMDL
