MODEL 1
REMARK minimizedAffinity -1.89442527
REMARK minimizedRMSD -1
REMARK  1 active torsions:
REMARK  status: ('A' for Active; 'I' for Inactive)
REMARK    1  A    between atoms: C1_2  and  C2_3 
ROOT
ATOM      1  C2  UNL d   1       5.159   2.085  -5.261  0.00  0.00    -0.081 A 
ATOM      2  C3  UNL d   1       3.782   2.252  -5.074  0.00  0.00     0.006 A 
ATOM      3  C4  UNL d   1       3.015   1.231  -4.507  0.00  0.00     0.002 A 
ATOM      4  C5  UNL d   1       3.614   0.030  -4.112  0.00  0.00    -0.080 A 
ATOM      5  C6  UNL d   1       2.807  -1.063  -3.475  0.00  0.00     0.076 C 
ATOM      6  C7  UNL d   1       4.987  -0.144  -4.316  0.00  0.00     0.002 A 
ATOM      7  C8  UNL d   1       5.754   0.876  -4.882  0.00  0.00     0.006 A 
ENDROOT
BRANCH   1   8
ATOM      8  C1  UNL d   1       6.000   3.209  -5.812  0.00  0.00     0.054 C 
ATOM      9  C   UNL d   1       6.000   4.409  -4.876  0.00  0.00     0.018 C 
ENDBRANCH   1   8
TORSDOF 1
ENDMDL
