MODEL 1
REMARK minimizedAffinity 2.37090421
REMARK minimizedRMSD -1
REMARK  1 active torsions:
REMARK  status: ('A' for Active; 'I' for Inactive)
REMARK    1  A    between atoms: C1_2  and  C2_3 
ROOT
ATOM      1  C2  UNL d   1       3.750  -1.469   3.000  0.00  0.00    -0.081 A 
ATOM      2  C3  UNL d   1       4.029  -0.871   1.765  0.00  0.00     0.006 A 
ATOM      3  C4  UNL d   1       3.383   0.309   1.388  0.00  0.00     0.002 A 
ATOM      4  C5  UNL d   1       2.453   0.913   2.241  0.00  0.00    -0.080 A 
ATOM      5  C6  UNL d   1       1.775   2.196   1.861  0.00  0.00     0.076 C 
ATOM      6  C7  UNL d   1       2.162   0.306   3.467  0.00  0.00     0.002 A 
ATOM      7  C8  UNL d   1       2.807  -0.873   3.845  0.00  0.00     0.006 A 
ENDROOT
BRANCH   1   8
ATOM      8  C1  UNL d   1       4.493  -2.706   3.438  0.00  0.00     0.054 C 
ATOM      9  C   UNL d   1       5.998  -2.486   3.409  0.00  0.00     0.018 C 
ENDBRANCH   1   8
TORSDOF 1
ENDMDL
