MODEL 1
REMARK minimizedAffinity -1.00186622
REMARK minimizedRMSD -1
REMARK  0 active torsions:
REMARK  status: ('A' for Active; 'I' for Inactive)
ROOT
ATOM      1  C1  BNZ d   1      -0.884   0.983   2.915  0.00  0.00     0.000 A 
ATOM      2  C2  BNZ d   1      -1.781   0.044   2.481  0.00  0.00     0.000 A 
ATOM      3  C3  BNZ d   1      -1.834  -0.317   1.163  0.00  0.00     0.000 A 
ATOM      4  C4  BNZ d   1      -1.019   0.290   0.277  0.00  0.00     0.000 A 
ATOM      5  C5  BNZ d   1      -0.115   1.245   0.698  0.00  0.00     0.000 A 
ATOM      6  C6  BNZ d   1      -0.038   1.577   2.031  0.00  0.00     0.000 A 
ENDROOT
TORSDOF 0
ENDMDL
