MODEL 1
REMARK minimizedAffinity -1.84125376
REMARK minimizedRMSD -1
REMARK  0 active torsions:
REMARK  status: ('A' for Active; 'I' for Inactive)
ROOT
ATOM      1  C1  BNZ d   1       1.185   0.848   1.047  0.00  0.00     0.000 A 
ATOM      2  C2  BNZ d   1      -0.113   1.183   1.326  0.00  0.00     0.000 A 
ATOM      3  C3  BNZ d   1      -1.150   0.516   0.736  0.00  0.00     0.000 A 
ATOM      4  C4  BNZ d   1      -0.889  -0.457  -0.160  0.00  0.00     0.000 A 
ATOM      5  C5  BNZ d   1       0.415  -0.800  -0.459  0.00  0.00     0.000 A 
ATOM      6  C6  BNZ d   1       1.456  -0.153   0.165  0.00  0.00     0.000 A 
ENDROOT
TORSDOF 0
ENDMDL
