MODEL 1
REMARK minimizedAffinity -3.69125819
REMARK minimizedRMSD -1
REMARK  0 active torsions:
REMARK  status: ('A' for Active; 'I' for Inactive)
ROOT
ATOM      1  C1  BNZ d   1       0.882  -0.422   1.005  0.00  0.00     0.000 A 
ATOM      2  C2  BNZ d   1       0.862   0.272   2.186  0.00  0.00     0.000 A 
ATOM      3  C3  BNZ d   1      -0.298   0.819   2.657  0.00  0.00     0.000 A 
ATOM      4  C4  BNZ d   1      -1.428   0.705   1.930  0.00  0.00     0.000 A 
ATOM      5  C5  BNZ d   1      -1.423   0.016   0.734  0.00  0.00     0.000 A 
ATOM      6  C6  BNZ d   1      -0.261  -0.566   0.281  0.00  0.00     0.000 A 
ENDROOT
TORSDOF 0
ENDMDL
