MODEL 1
REMARK minimizedAffinity -3.37240505
REMARK minimizedRMSD -1
REMARK  0 active torsions:
REMARK  status: ('A' for Active; 'I' for Inactive)
ROOT
ATOM      1  C1  BNZ d   1      -1.614   1.093   1.788  0.00  0.00     0.000 A 
ATOM      2  C2  BNZ d   1      -0.359   0.856   1.294  0.00  0.00     0.000 A 
ATOM      3  C3  BNZ d   1      -0.158  -0.071   0.310  0.00  0.00     0.000 A 
ATOM      4  C4  BNZ d   1      -1.204  -0.787  -0.151  0.00  0.00     0.000 A 
ATOM      5  C5  BNZ d   1      -2.474  -0.565   0.343  0.00  0.00     0.000 A 
ATOM      6  C6  BNZ d   1      -2.679   0.396   1.307  0.00  0.00     0.000 A 
ENDROOT
TORSDOF 0
ENDMDL
