MODEL 1
REMARK minimizedAffinity 11.5128975
REMARK minimizedRMSD -1
REMARK  1 active torsions:
REMARK  status: ('A' for Active; 'I' for Inactive)
REMARK    1  A    between atoms: C1_2  and  C2_3 
ROOT
ATOM      1  C2  UNL d   1       1.410  -0.383   1.384  0.00  0.00    -0.081 A 
ATOM      2  C3  UNL d   1       0.041  -0.103   1.481  0.00  0.00     0.006 A 
ATOM      3  C4  UNL d   1      -0.900  -1.130   1.387  0.00  0.00     0.002 A 
ATOM      4  C5  UNL d   1      -0.490  -2.455   1.204  0.00  0.00    -0.080 A 
ATOM      5  C6  UNL d   1      -1.489  -3.571   1.133  0.00  0.00     0.076 C 
ATOM      6  C7  UNL d   1       0.877  -2.733   1.090  0.00  0.00     0.002 A 
ATOM      7  C8  UNL d   1       1.819  -1.706   1.183  0.00  0.00     0.006 A 
ENDROOT
BRANCH   1   8
ATOM      8  C1  UNL d   1       2.430   0.714   1.549  0.00  0.00     0.054 C 
ATOM      9  C   UNL d   1       3.406   0.742   0.382  0.00  0.00     0.018 C 
ENDBRANCH   1   8
TORSDOF 1
ENDMDL
