MODEL 1
REMARK minimizedAffinity 12.1146717
REMARK minimizedRMSD -1
REMARK  1 active torsions:
REMARK  status: ('A' for Active; 'I' for Inactive)
REMARK    1  A    between atoms: C1_2  and  C2_3 
ROOT
ATOM      1  C2  UNL d   1       1.219  -1.608   2.967  0.00  0.00    -0.081 A 
ATOM      2  C3  UNL d   1       2.374  -2.232   2.479  0.00  0.00     0.006 A 
ATOM      3  C4  UNL d   1       3.047  -1.709   1.372  0.00  0.00     0.002 A 
ATOM      4  C5  UNL d   1       2.582  -0.551   0.740  0.00  0.00    -0.080 A 
ATOM      5  C6  UNL d   1       3.312   0.037  -0.431  0.00  0.00     0.076 C 
ATOM      6  C7  UNL d   1       1.418   0.062   1.217  0.00  0.00     0.002 A 
ATOM      7  C8  UNL d   1       0.744  -0.460   2.323  0.00  0.00     0.006 A 
ENDROOT
BRANCH   1   8
ATOM      8  C1  UNL d   1       0.528  -2.132   4.200  0.00  0.00     0.054 C 
ATOM      9  C   UNL d   1       1.510  -2.318   5.347  0.00  0.00     0.018 C 
ENDBRANCH   1   8
TORSDOF 1
ENDMDL
