MODEL 1
REMARK minimizedAffinity 12.5567417
REMARK minimizedRMSD -1
REMARK  1 active torsions:
REMARK  status: ('A' for Active; 'I' for Inactive)
REMARK    1  A    between atoms: C1_2  and  C2_3 
ROOT
ATOM      1  C2  UNL d   1       1.180   0.881   2.125  0.00  0.00    -0.081 A 
ATOM      2  C3  UNL d   1       0.375  -0.065   2.771  0.00  0.00     0.006 A 
ATOM      3  C4  UNL d   1       0.652  -1.429   2.654  0.00  0.00     0.002 A 
ATOM      4  C5  UNL d   1       1.743  -1.869   1.896  0.00  0.00    -0.080 A 
ATOM      5  C6  UNL d   1       2.069  -3.329   1.786  0.00  0.00     0.076 C 
ATOM      6  C7  UNL d   1       2.537  -0.925   1.236  0.00  0.00     0.002 A 
ATOM      7  C8  UNL d   1       2.260   0.439   1.353  0.00  0.00     0.006 A 
ENDROOT
BRANCH   1   8
ATOM      8  C1  UNL d   1       0.922   2.356   2.303  0.00  0.00     0.054 C 
ATOM      9  C   UNL d   1       1.794   2.941   3.405  0.00  0.00     0.018 C 
ENDBRANCH   1   8
TORSDOF 1
ENDMDL
