MODEL 1
REMARK minimizedAffinity 8.24424267
REMARK minimizedRMSD -1
REMARK  1 active torsions:
REMARK  status: ('A' for Active; 'I' for Inactive)
REMARK    1  A    between atoms: C1_2  and  C2_3 
ROOT
ATOM      1  C2  UNL d   1      -3.755   1.742  -2.452  0.00  0.00    -0.081 A 
ATOM      2  C3  UNL d   1      -4.985   1.848  -1.790  0.00  0.00     0.006 A 
ATOM      3  C4  UNL d   1      -5.662   0.703  -1.365  0.00  0.00     0.002 A 
ATOM      4  C5  UNL d   1      -5.117  -0.567  -1.586  0.00  0.00    -0.080 A 
ATOM      5  C6  UNL d   1      -5.819  -1.803  -1.108  0.00  0.00     0.076 C 
ATOM      6  C7  UNL d   1      -3.897  -0.674  -2.263  0.00  0.00     0.002 A 
ATOM      7  C8  UNL d   1      -3.220   0.471  -2.689  0.00  0.00     0.006 A 
ENDROOT
BRANCH   1   8
ATOM      8  C1  UNL d   1      -2.992   2.978  -2.854  0.00  0.00     0.054 C 
ATOM      9  C   UNL d   1      -2.497   3.743  -1.636  0.00  0.00     0.018 C 
ENDBRANCH   1   8
TORSDOF 1
ENDMDL
