MODEL 1
REMARK minimizedAffinity 13.4929819
REMARK minimizedRMSD -1
REMARK  1 active torsions:
REMARK  status: ('A' for Active; 'I' for Inactive)
REMARK    1  A    between atoms: C1_2  and  C2_3 
ROOT
ATOM      1  C2  UNL d   1       0.400  -2.768   4.350  0.00  0.00    -0.081 A 
ATOM      2  C3  UNL d   1       0.672  -3.432   3.148  0.00  0.00     0.006 A 
ATOM      3  C4  UNL d   1       1.259  -2.751   2.079  0.00  0.00     0.002 A 
ATOM      4  C5  UNL d   1       1.591  -1.397   2.197  0.00  0.00    -0.080 A 
ATOM      5  C6  UNL d   1       2.249  -0.661   1.068  0.00  0.00     0.076 C 
ATOM      6  C7  UNL d   1       1.303  -0.728   3.392  0.00  0.00     0.002 A 
ATOM      7  C8  UNL d   1       0.716  -1.409   4.461  0.00  0.00     0.006 A 
ENDROOT
BRANCH   1   8
ATOM      8  C1  UNL d   1      -0.173  -3.516   5.527  0.00  0.00     0.054 C 
ATOM      9  C   UNL d   1       0.399  -4.923   5.620  0.00  0.00     0.018 C 
ENDBRANCH   1   8
TORSDOF 1
ENDMDL
