MODEL 1
REMARK minimizedAffinity 12.3717041
REMARK minimizedRMSD -1
REMARK  1 active torsions:
REMARK  status: ('A' for Active; 'I' for Inactive)
REMARK    1  A    between atoms: C1_2  and  C2_3 
ROOT
ATOM      1  C2  UNL d   1       1.135  -1.485   3.157  0.00  0.00    -0.081 A 
ATOM      2  C3  UNL d   1       2.073  -2.457   2.787  0.00  0.00     0.006 A 
ATOM      3  C4  UNL d   1       3.000  -2.199   1.775  0.00  0.00     0.002 A 
ATOM      4  C5  UNL d   1       3.010  -0.962   1.121  0.00  0.00    -0.080 A 
ATOM      5  C6  UNL d   1       4.020  -0.660   0.054  0.00  0.00     0.076 C 
ATOM      6  C7  UNL d   1       2.063   0.003   1.478  0.00  0.00     0.002 A 
ATOM      7  C8  UNL d   1       1.135  -0.255   2.490  0.00  0.00     0.006 A 
ENDROOT
BRANCH   1   8
ATOM      8  C1  UNL d   1       0.176  -1.737   4.292  0.00  0.00     0.054 C 
ATOM      9  C   UNL d   1       0.894  -2.311   5.505  0.00  0.00     0.018 C 
ENDBRANCH   1   8
TORSDOF 1
ENDMDL
