MODEL 1
REMARK minimizedAffinity 5.98351574
REMARK minimizedRMSD -1
REMARK  1 active torsions:
REMARK  status: ('A' for Active; 'I' for Inactive)
REMARK    1  A    between atoms: C1_2  and  C2_3 
ROOT
ATOM      1  C2  UNL d   1       2.503  -1.044   0.621  0.00  0.00    -0.081 A 
ATOM      2  C3  UNL d   1       1.206  -0.689   1.014  0.00  0.00     0.006 A 
ATOM      3  C4  UNL d   1       0.750  -0.985   2.300  0.00  0.00     0.002 A 
ATOM      4  C5  UNL d   1       1.584  -1.634   3.217  0.00  0.00    -0.080 A 
ATOM      5  C6  UNL d   1       1.117  -1.931   4.611  0.00  0.00     0.076 C 
ATOM      6  C7  UNL d   1       2.873  -2.004   2.820  0.00  0.00     0.002 A 
ATOM      7  C8  UNL d   1       3.330  -1.709   1.533  0.00  0.00     0.006 A 
ENDROOT
BRANCH   1   8
ATOM      8  C1  UNL d   1       3.020  -0.668  -0.744  0.00  0.00     0.054 C 
ATOM      9  C   UNL d   1       2.163  -1.274  -1.846  0.00  0.00     0.018 C 
ENDBRANCH   1   8
TORSDOF 1
ENDMDL
