MODEL 1
REMARK minimizedAffinity 17.4486885
REMARK minimizedRMSD -1
REMARK  1 active torsions:
REMARK  status: ('A' for Active; 'I' for Inactive)
REMARK    1  A    between atoms: C1_2  and  C2_3 
ROOT
ATOM      1  C2  UNL d   1       0.838  -3.027   4.748  0.00  0.00    -0.081 A 
ATOM      2  C3  UNL d   1       1.207  -3.668   3.559  0.00  0.00     0.006 A 
ATOM      3  C4  UNL d   1       1.508  -2.923   2.417  0.00  0.00     0.002 A 
ATOM      4  C5  UNL d   1       1.453  -1.525   2.446  0.00  0.00    -0.080 A 
ATOM      5  C6  UNL d   1       1.803  -0.712   1.235  0.00  0.00     0.076 C 
ATOM      6  C7  UNL d   1       1.068  -0.885   3.629  0.00  0.00     0.002 A 
ATOM      7  C8  UNL d   1       0.766  -1.630   4.771  0.00  0.00     0.006 A 
ENDROOT
BRANCH   1   8
ATOM      8  C1  UNL d   1       0.576  -3.825   6.000  0.00  0.00     0.054 C 
ATOM      9  C   UNL d   1       0.936  -5.291   5.807  0.00  0.00     0.018 C 
ENDBRANCH   1   8
TORSDOF 1
ENDMDL
