MODEL 1
REMARK minimizedAffinity -2.20428467
REMARK minimizedRMSD -1
REMARK  1 active torsions:
REMARK  status: ('A' for Active; 'I' for Inactive)
REMARK    1  A    between atoms: C1_2  and  C2_3 
ROOT
ATOM      1  C2  UNL d   1       4.379   1.794  -5.435  0.00  0.00    -0.081 A 
ATOM      2  C3  UNL d   1       5.600   2.229  -5.965  0.00  0.00     0.006 A 
ATOM      3  C4  UNL d   1       5.913   3.590  -6.000  0.00  0.00     0.002 A 
ATOM      4  C5  UNL d   1       5.015   4.538  -5.498  0.00  0.00    -0.080 A 
ATOM      5  C6  UNL d   1       5.351   5.999  -5.501  0.00  0.00     0.076 C 
ATOM      6  C7  UNL d   1       3.788   4.105  -4.984  0.00  0.00     0.002 A 
ATOM      7  C8  UNL d   1       3.474   2.744  -4.950  0.00  0.00     0.006 A 
ENDROOT
BRANCH   1   8
ATOM      8  C1  UNL d   1       4.067   0.323  -5.337  0.00  0.00     0.054 C 
ATOM      9  C   UNL d   1       3.759  -0.083  -3.903  0.00  0.00     0.018 C 
ENDBRANCH   1   8
TORSDOF 1
ENDMDL
