MODEL 1
REMARK minimizedAffinity 8.26267433
REMARK minimizedRMSD -1
REMARK  1 active torsions:
REMARK  status: ('A' for Active; 'I' for Inactive)
REMARK    1  A    between atoms: C1_2  and  C2_3 
ROOT
ATOM      1  C2  UNL d   1       1.161  -1.903   0.651  0.00  0.00    -0.081 A 
ATOM      2  C3  UNL d   1       1.113  -2.063  -0.739  0.00  0.00     0.006 A 
ATOM      3  C4  UNL d   1      -0.091  -2.377  -1.374  0.00  0.00     0.002 A 
ATOM      4  C5  UNL d   1      -1.267  -2.528  -0.632  0.00  0.00    -0.080 A 
ATOM      5  C6  UNL d   1      -2.572  -2.835  -1.304  0.00  0.00     0.076 C 
ATOM      6  C7  UNL d   1      -1.215  -2.385   0.759  0.00  0.00     0.002 A 
ATOM      7  C8  UNL d   1      -0.012  -2.071   1.395  0.00  0.00     0.006 A 
ENDROOT
BRANCH   1   8
ATOM      8  C1  UNL d   1       2.445  -1.500   1.332  0.00  0.00     0.054 C 
ATOM      9  C   UNL d   1       2.447  -0.018   1.677  0.00  0.00     0.018 C 
ENDBRANCH   1   8
TORSDOF 1
ENDMDL
