MODEL 1
REMARK minimizedAffinity 6.8050561
REMARK minimizedRMSD -1
REMARK  2 active torsions:
REMARK  status: ('A' for Active; 'I' for Inactive)
REMARK    1  A    between atoms: C2'_3  and  C1'_4 
REMARK    2  A    between atoms: C1'_4  and  C1_5 
ROOT
ATOM      1  C1  I4B d   1       0.212   0.188  -0.658  0.00  0.00    -0.075 A 
ATOM      2  C2  I4B d   1       1.371  -0.494  -0.931  0.00  0.00     0.003 A 
ATOM      3  C3  I4B d   1       1.463  -1.881  -0.660  0.00  0.00     0.002 A 
ATOM      4  C4  I4B d   1       0.395  -2.531  -0.074  0.00  0.00    -0.004 A 
ATOM      5  C5  I4B d   1      -0.787  -1.842   0.181  0.00  0.00     0.002 A 
ATOM      6  C6  I4B d   1      -0.884  -0.477  -0.124  0.00  0.00     0.003 A 
ENDROOT
BRANCH   1   7
ATOM      7  C1' I4B d   1       0.162   1.659  -0.926  0.00  0.00     0.060 C 
BRANCH   7   8
ATOM      8  C2' I4B d   1       1.010   2.353   0.119  0.00  0.00    -0.013 C 
ATOM      9  C4' I4B d   1       2.071   3.211  -0.521  0.00  0.00     0.013 C 
ATOM     10  C3' I4B d   1       0.101   3.173   0.985  0.00  0.00     0.013 C 
ENDBRANCH   7   8
ENDBRANCH   1   7
TORSDOF 2
ENDMDL
