MODEL 1
REMARK minimizedAffinity -3.05316806
REMARK minimizedRMSD -1
REMARK  2 active torsions:
REMARK  status: ('A' for Active; 'I' for Inactive)
REMARK    1  A    between atoms: C2'_3  and  C1'_4 
REMARK    2  A    between atoms: C1'_4  and  C1_5 
ROOT
ATOM      1  C1  I4B d   1       1.278  -0.353  -2.118  0.00  0.00    -0.075 A 
ATOM      2  C2  I4B d   1       1.390  -1.722  -2.113  0.00  0.00     0.003 A 
ATOM      3  C3  I4B d   1       1.498  -2.432  -3.334  0.00  0.00     0.002 A 
ATOM      4  C4  I4B d   1       1.440  -1.743  -4.528  0.00  0.00    -0.004 A 
ATOM      5  C5  I4B d   1       1.350  -0.354  -4.530  0.00  0.00     0.002 A 
ATOM      6  C6  I4B d   1       1.281   0.347  -3.317  0.00  0.00     0.003 A 
ENDROOT
BRANCH   1   7
ATOM      7  C1' I4B d   1       1.133   0.362  -0.812  0.00  0.00     0.060 C 
BRANCH   7   8
ATOM      8  C2' I4B d   1       0.316   1.615  -1.055  0.00  0.00    -0.013 C 
ATOM      9  C4' I4B d   1      -1.094   1.453  -0.552  0.00  0.00     0.013 C 
ATOM     10  C3' I4B d   1       1.007   2.757  -0.371  0.00  0.00     0.013 C 
ENDBRANCH   7   8
ENDBRANCH   1   7
TORSDOF 2
ENDMDL
