MODEL 1
REMARK minimizedAffinity 4.48156548
REMARK minimizedRMSD -1
REMARK  2 active torsions:
REMARK  status: ('A' for Active; 'I' for Inactive)
REMARK    1  A    between atoms: C2'_3  and  C1'_4 
REMARK    2  A    between atoms: C1'_4  and  C1_5 
ROOT
ATOM      1  C1  I4B d   1       1.369  -0.719  -1.411  0.00  0.00    -0.075 A 
ATOM      2  C2  I4B d   1       0.992   0.598  -1.508  0.00  0.00     0.003 A 
ATOM      3  C3  I4B d   1       1.012   1.255  -2.762  0.00  0.00     0.002 A 
ATOM      4  C4  I4B d   1       1.459   0.576  -3.877  0.00  0.00    -0.004 A 
ATOM      5  C5  I4B d   1       1.818  -0.765  -3.782  0.00  0.00     0.002 A 
ATOM      6  C6  I4B d   1       1.761  -1.421  -2.543  0.00  0.00     0.003 A 
ENDROOT
BRANCH   1   7
ATOM      7  C1' I4B d   1       1.368  -1.372  -0.065  0.00  0.00     0.060 C 
BRANCH   7   8
ATOM      8  C2' I4B d   1       0.640  -2.695  -0.189  0.00  0.00    -0.013 C 
ATOM      9  C4' I4B d   1       1.060  -3.651   0.896  0.00  0.00     0.013 C 
ATOM     10  C3' I4B d   1      -0.833  -2.420  -0.129  0.00  0.00     0.013 C 
ENDBRANCH   7   8
ENDBRANCH   1   7
TORSDOF 2
ENDMDL
