MODEL 1
REMARK minimizedAffinity 6.18060017
REMARK minimizedRMSD -1
REMARK  2 active torsions:
REMARK  status: ('A' for Active; 'I' for Inactive)
REMARK    1  A    between atoms: C2'_3  and  C1'_4 
REMARK    2  A    between atoms: C1'_4  and  C1_5 
ROOT
ATOM      1  C1  I4B d   1      -0.560  -1.040   0.211  0.00  0.00    -0.075 A 
ATOM      2  C2  I4B d   1      -0.060  -2.298   0.436  0.00  0.00     0.003 A 
ATOM      3  C3  I4B d   1       1.149  -2.706  -0.179  0.00  0.00     0.002 A 
ATOM      4  C4  I4B d   1       1.794  -1.847  -1.045  0.00  0.00    -0.004 A 
ATOM      5  C5  I4B d   1       1.298  -0.564  -1.255  0.00  0.00     0.002 A 
ATOM      6  C6  I4B d   1       0.120  -0.153  -0.614  0.00  0.00     0.003 A 
ENDROOT
BRANCH   1   7
ATOM      7  C1' I4B d   1      -1.856  -0.654   0.850  0.00  0.00     0.060 C 
BRANCH   7   8
ATOM      8  C2' I4B d   1      -1.655  -0.660   2.352  0.00  0.00    -0.013 C 
ATOM      9  C4' I4B d   1      -1.084   0.649   2.831  0.00  0.00     0.013 C 
ATOM     10  C3' I4B d   1      -2.980  -0.939   2.995  0.00  0.00     0.013 C 
ENDBRANCH   7   8
ENDBRANCH   1   7
TORSDOF 2
ENDMDL
