MODEL 1
REMARK minimizedAffinity 10.5513592
REMARK minimizedRMSD -1
REMARK  2 active torsions:
REMARK  status: ('A' for Active; 'I' for Inactive)
REMARK    1  A    between atoms: C2'_3  and  C1'_4 
REMARK    2  A    between atoms: C1'_4  and  C1_5 
ROOT
ATOM      1  C1  I4B d   1       2.198   2.010  -4.879  0.00  0.00    -0.075 A 
ATOM      2  C2  I4B d   1       2.480   2.825  -5.947  0.00  0.00     0.003 A 
ATOM      3  C3  I4B d   1       1.958   4.140  -5.998  0.00  0.00     0.002 A 
ATOM      4  C4  I4B d   1       1.123   4.579  -4.991  0.00  0.00    -0.004 A 
ATOM      5  C5  I4B d   1       0.857   3.760  -3.897  0.00  0.00     0.002 A 
ATOM      6  C6  I4B d   1       1.408   2.472  -3.834  0.00  0.00     0.003 A 
ENDROOT
BRANCH   1   7
ATOM      7  C1' I4B d   1       2.739   0.616  -4.873  0.00  0.00     0.060 C 
BRANCH   7   8
ATOM      8  C2' I4B d   1       1.746  -0.268  -4.146  0.00  0.00    -0.013 C 
ATOM      9  C4' I4B d   1       0.984  -1.139  -5.110  0.00  0.00     0.013 C 
ATOM     10  C3' I4B d   1       2.504  -1.095  -3.151  0.00  0.00     0.013 C 
ENDBRANCH   7   8
ENDBRANCH   1   7
TORSDOF 2
ENDMDL
