MODEL 1
REMARK minimizedAffinity 6.78126287
REMARK minimizedRMSD -1
REMARK  2 active torsions:
REMARK  status: ('A' for Active; 'I' for Inactive)
REMARK    1  A    between atoms: C2'_3  and  C1'_4 
REMARK    2  A    between atoms: C1'_4  and  C1_5 
ROOT
ATOM      1  C1  I4B d   1       2.250   3.340   0.295  0.00  0.00    -0.075 A 
ATOM      2  C2  I4B d   1       1.725   2.412  -0.570  0.00  0.00     0.003 A 
ATOM      3  C3  I4B d   1       0.322   2.270  -0.698  0.00  0.00     0.002 A 
ATOM      4  C4  I4B d   1      -0.513   3.036   0.089  0.00  0.00    -0.004 A 
ATOM      5  C5  I4B d   1       0.020   3.992   0.949  0.00  0.00     0.002 A 
ATOM      6  C6  I4B d   1       1.410   4.154   1.044  0.00  0.00     0.003 A 
ENDROOT
BRANCH   1   7
ATOM      7  C1' I4B d   1       3.736   3.440   0.430  0.00  0.00     0.060 C 
BRANCH   7   8
ATOM      8  C2' I4B d   1       4.218   4.523  -0.513  0.00  0.00    -0.013 C 
ATOM      9  C4' I4B d   1       5.622   4.250  -0.984  0.00  0.00     0.013 C 
ATOM     10  C3' I4B d   1       3.263   4.591  -1.667  0.00  0.00     0.013 C 
ENDBRANCH   7   8
ENDBRANCH   1   7
TORSDOF 2
ENDMDL
