MODEL 1
REMARK minimizedAffinity 3.59567165
REMARK minimizedRMSD -1
REMARK  2 active torsions:
REMARK  status: ('A' for Active; 'I' for Inactive)
REMARK    1  A    between atoms: C2'_3  and  C1'_4 
REMARK    2  A    between atoms: C1'_4  and  C1_5 
ROOT
ATOM      1  C1  I4B d   1       1.423  -1.845  -2.124  0.00  0.00    -0.075 A 
ATOM      2  C2  I4B d   1       1.136  -2.834  -3.032  0.00  0.00     0.003 A 
ATOM      3  C3  I4B d   1       1.104  -2.542  -4.417  0.00  0.00     0.002 A 
ATOM      4  C4  I4B d   1       1.314  -1.247  -4.844  0.00  0.00    -0.004 A 
ATOM      5  C5  I4B d   1       1.628  -0.251  -3.924  0.00  0.00     0.002 A 
ATOM      6  C6  I4B d   1       1.696  -0.554  -2.557  0.00  0.00     0.003 A 
ENDROOT
BRANCH   1   7
ATOM      7  C1' I4B d   1       1.416  -2.181  -0.667  0.00  0.00     0.060 C 
BRANCH   7   8
ATOM      8  C2' I4B d   1      -0.025  -2.357  -0.235  0.00  0.00    -0.013 C 
ATOM      9  C4' I4B d   1      -0.144  -3.374   0.869  0.00  0.00     0.013 C 
ATOM     10  C3' I4B d   1      -0.544  -1.019   0.203  0.00  0.00     0.013 C 
ENDBRANCH   7   8
ENDBRANCH   1   7
TORSDOF 2
ENDMDL
