MODEL 1
REMARK minimizedAffinity 6.56759167
REMARK minimizedRMSD -1
REMARK  2 active torsions:
REMARK  status: ('A' for Active; 'I' for Inactive)
REMARK    1  A    between atoms: C2'_3  and  C1'_4 
REMARK    2  A    between atoms: C1'_4  and  C1_5 
ROOT
ATOM      1  C1  I4B d   1       0.322  -0.087  -0.960  0.00  0.00    -0.075 A 
ATOM      2  C2  I4B d   1       1.222  -1.038  -1.370  0.00  0.00     0.003 A 
ATOM      3  C3  I4B d   1       1.100  -2.375  -0.920  0.00  0.00     0.002 A 
ATOM      4  C4  I4B d   1       0.101  -2.704  -0.027  0.00  0.00    -0.004 A 
ATOM      5  C5  I4B d   1      -0.825  -1.742   0.369  0.00  0.00     0.002 A 
ATOM      6  C6  I4B d   1      -0.721  -0.428  -0.109  0.00  0.00     0.003 A 
ENDROOT
BRANCH   1   7
ATOM      7  C1' I4B d   1       0.500   1.323  -1.429  0.00  0.00     0.060 C 
BRANCH   7   8
ATOM      8  C2' I4B d   1       0.358   2.235  -0.228  0.00  0.00    -0.013 C 
ATOM      9  C4' I4B d   1       1.666   2.899   0.110  0.00  0.00     0.013 C 
ATOM     10  C3' I4B d   1      -0.700   3.251  -0.541  0.00  0.00     0.013 C 
ENDBRANCH   7   8
ENDBRANCH   1   7
TORSDOF 2
ENDMDL
