MODEL 1
REMARK minimizedAffinity 5.78549862
REMARK minimizedRMSD -1
REMARK  2 active torsions:
REMARK  status: ('A' for Active; 'I' for Inactive)
REMARK    1  A    between atoms: C2'_3  and  C1'_4 
REMARK    2  A    between atoms: C1'_4  and  C1_5 
ROOT
ATOM      1  C1  I4B d   1       4.969   1.348   5.420  0.00  0.00    -0.075 A 
ATOM      2  C2  I4B d   1       4.177   1.785   4.388  0.00  0.00     0.003 A 
ATOM      3  C3  I4B d   1       4.298   3.112   3.908  0.00  0.00     0.002 A 
ATOM      4  C4  I4B d   1       5.181   3.977   4.520  0.00  0.00    -0.004 A 
ATOM      5  C5  I4B d   1       5.999   3.527   5.552  0.00  0.00     0.002 A 
ATOM      6  C6  I4B d   1       5.902   2.200   5.997  0.00  0.00     0.003 A 
ENDROOT
BRANCH   1   7
ATOM      7  C1' I4B d   1       4.793  -0.049   5.923  0.00  0.00     0.060 C 
BRANCH   7   8
ATOM      8  C2' I4B d   1       5.924  -0.891   5.369  0.00  0.00    -0.013 C 
ATOM      9  C4' I4B d   1       5.943  -2.260   5.997  0.00  0.00     0.013 C 
ATOM     10  C3' I4B d   1       5.749  -0.980   3.882  0.00  0.00     0.013 C 
ENDBRANCH   7   8
ENDBRANCH   1   7
TORSDOF 2
ENDMDL
