MODEL 1
REMARK minimizedAffinity 1.44830251
REMARK minimizedRMSD -1
REMARK  2 active torsions:
REMARK  status: ('A' for Active; 'I' for Inactive)
REMARK    1  A    between atoms: C2'_3  and  C1'_4 
REMARK    2  A    between atoms: C1'_4  and  C1_5 
ROOT
ATOM      1  C1  I4B d   1       5.640   2.248   5.310  0.00  0.00    -0.075 A 
ATOM      2  C2  I4B d   1       5.330   2.282   3.973  0.00  0.00     0.003 A 
ATOM      3  C3  I4B d   1       5.018   1.085   3.284  0.00  0.00     0.002 A 
ATOM      4  C4  I4B d   1       5.077  -0.120   3.953  0.00  0.00    -0.004 A 
ATOM      5  C5  I4B d   1       5.369  -0.150   5.313  0.00  0.00     0.002 A 
ATOM      6  C6  I4B d   1       5.640   1.043   6.000  0.00  0.00     0.003 A 
ENDROOT
BRANCH   1   7
ATOM      7  C1' I4B d   1       5.997   3.527   5.999  0.00  0.00     0.060 C 
BRANCH   7   8
ATOM      8  C2' I4B d   1       5.455   4.672   5.168  0.00  0.00    -0.013 C 
ATOM      9  C4' I4B d   1       3.953   4.616   5.075  0.00  0.00     0.013 C 
ATOM     10  C3' I4B d   1       5.911   5.956   5.796  0.00  0.00     0.013 C 
ENDBRANCH   7   8
ENDBRANCH   1   7
TORSDOF 2
ENDMDL
