MODEL 1
REMARK minimizedAffinity 1.39862132
REMARK minimizedRMSD -1
REMARK  2 active torsions:
REMARK  status: ('A' for Active; 'I' for Inactive)
REMARK    1  A    between atoms: C2'_3  and  C1'_4 
REMARK    2  A    between atoms: C1'_4  and  C1_5 
ROOT
ATOM      1  C1  I4B d   1       1.701  -0.830  -2.232  0.00  0.00    -0.075 A 
ATOM      2  C2  I4B d   1       1.790  -2.178  -1.991  0.00  0.00     0.003 A 
ATOM      3  C3  I4B d   1       1.138  -2.746  -0.870  0.00  0.00     0.002 A 
ATOM      4  C4  I4B d   1       0.455  -1.927   0.006  0.00  0.00    -0.004 A 
ATOM      5  C5  I4B d   1       0.347  -0.564  -0.252  0.00  0.00     0.002 A 
ATOM      6  C6  I4B d   1       0.963  -0.013  -1.385  0.00  0.00     0.003 A 
ENDROOT
BRANCH   1   7
ATOM      7  C1' I4B d   1       2.428  -0.258  -3.407  0.00  0.00     0.060 C 
BRANCH   7   8
ATOM      8  C2' I4B d   1       1.454   0.601  -4.187  0.00  0.00    -0.013 C 
ATOM      9  C4' I4B d   1       1.275   1.949  -3.538  0.00  0.00     0.013 C 
ATOM     10  C3' I4B d   1       1.975   0.739  -5.586  0.00  0.00     0.013 C 
ENDBRANCH   7   8
ENDBRANCH   1   7
TORSDOF 2
ENDMDL
