MODEL 1
REMARK minimizedAffinity 3.49806094
REMARK minimizedRMSD -1
REMARK  2 active torsions:
REMARK  status: ('A' for Active; 'I' for Inactive)
REMARK    1  A    between atoms: C2'_3  and  C1'_4 
REMARK    2  A    between atoms: C1'_4  and  C1_5 
ROOT
ATOM      1  C1  I4B d   1       1.491   0.985  -3.714  0.00  0.00    -0.075 A 
ATOM      2  C2  I4B d   1       1.099   2.295  -3.595  0.00  0.00     0.003 A 
ATOM      3  C3  I4B d   1       1.476   3.243  -4.577  0.00  0.00     0.002 A 
ATOM      4  C4  I4B d   1       2.282   2.851  -5.626  0.00  0.00    -0.004 A 
ATOM      5  C5  I4B d   1       2.660   1.518  -5.757  0.00  0.00     0.002 A 
ATOM      6  C6  I4B d   1       2.252   0.576  -4.801  0.00  0.00     0.003 A 
ENDROOT
BRANCH   1   7
ATOM      7  C1' I4B d   1       1.103   0.017  -2.641  0.00  0.00     0.060 C 
BRANCH   7   8
ATOM      8  C2' I4B d   1       1.752  -1.315  -2.958  0.00  0.00    -0.013 C 
ATOM      9  C4' I4B d   1       2.220  -2.005  -1.703  0.00  0.00     0.013 C 
ATOM     10  C3' I4B d   1       0.752  -2.154  -3.696  0.00  0.00     0.013 C 
ENDBRANCH   7   8
ENDBRANCH   1   7
TORSDOF 2
ENDMDL
