MODEL 1
REMARK minimizedAffinity 2.86354733
REMARK minimizedRMSD -1
REMARK  2 active torsions:
REMARK  status: ('A' for Active; 'I' for Inactive)
REMARK    1  A    between atoms: C2'_3  and  C1'_4 
REMARK    2  A    between atoms: C1'_4  and  C1_5 
ROOT
ATOM      1  C1  I4B d   1       0.180   0.680  -0.239  0.00  0.00    -0.075 A 
ATOM      2  C2  I4B d   1      -1.023   0.320   0.314  0.00  0.00     0.003 A 
ATOM      3  C3  I4B d   1      -1.262  -1.025   0.689  0.00  0.00     0.002 A 
ATOM      4  C4  I4B d   1      -0.294  -1.979   0.449  0.00  0.00    -0.004 A 
ATOM      5  C5  I4B d   1       0.934  -1.608  -0.090  0.00  0.00     0.002 A 
ATOM      6  C6  I4B d   1       1.178  -0.268  -0.425  0.00  0.00     0.003 A 
ENDROOT
BRANCH   1   7
ATOM      7  C1' I4B d   1       0.386   2.102  -0.654  0.00  0.00     0.060 C 
BRANCH   7   8
ATOM      8  C2' I4B d   1       1.474   2.691   0.222  0.00  0.00    -0.013 C 
ATOM      9  C4' I4B d   1       2.427   3.533  -0.585  0.00  0.00     0.013 C 
ATOM     10  C3' I4B d   1       0.814   3.501   1.298  0.00  0.00     0.013 C 
ENDBRANCH   7   8
ENDBRANCH   1   7
TORSDOF 2
ENDMDL
