MODEL 1
REMARK minimizedAffinity 4.55118084
REMARK minimizedRMSD -1
REMARK  2 active torsions:
REMARK  status: ('A' for Active; 'I' for Inactive)
REMARK    1  A    between atoms: C2'_3  and  C1'_4 
REMARK    2  A    between atoms: C1'_4  and  C1_5 
ROOT
ATOM      1  C1  I4B d   1      -0.916  -0.992   0.309  0.00  0.00    -0.075 A 
ATOM      2  C2  I4B d   1      -0.098  -0.095  -0.332  0.00  0.00     0.003 A 
ATOM      3  C3  I4B d   1       1.093  -0.536  -0.957  0.00  0.00     0.002 A 
ATOM      4  C4  I4B d   1       1.451  -1.866  -0.874  0.00  0.00    -0.004 A 
ATOM      5  C5  I4B d   1       0.610  -2.778  -0.245  0.00  0.00     0.002 A 
ATOM      6  C6  I4B d   1      -0.588  -2.341   0.340  0.00  0.00     0.003 A 
ENDROOT
BRANCH   1   7
ATOM      7  C1' I4B d   1      -2.150  -0.487   0.987  0.00  0.00     0.060 C 
BRANCH   7   8
ATOM      8  C2' I4B d   1      -1.935  -0.588   2.483  0.00  0.00    -0.013 C 
ATOM      9  C4' I4B d   1      -1.435   0.713   3.052  0.00  0.00     0.013 C 
ATOM     10  C3' I4B d   1      -3.236  -0.989   3.112  0.00  0.00     0.013 C 
ENDBRANCH   7   8
ENDBRANCH   1   7
TORSDOF 2
ENDMDL
