MODEL 1
REMARK minimizedAffinity -1.51067281
REMARK minimizedRMSD -1
REMARK  2 active torsions:
REMARK  status: ('A' for Active; 'I' for Inactive)
REMARK    1  A    between atoms: C2'_3  and  C1'_4 
REMARK    2  A    between atoms: C1'_4  and  C1_5 
ROOT
ATOM      1  C1  I4B d   1       0.363   0.078  -0.746  0.00  0.00    -0.075 A 
ATOM      2  C2  I4B d   1      -0.708  -0.643  -0.279  0.00  0.00     0.003 A 
ATOM      3  C3  I4B d   1      -0.592  -2.039  -0.073  0.00  0.00     0.002 A 
ATOM      4  C4  I4B d   1       0.588  -2.677  -0.394  0.00  0.00    -0.004 A 
ATOM      5  C5  I4B d   1       1.680  -1.942  -0.847  0.00  0.00     0.002 A 
ATOM      6  C6  I4B d   1       1.571  -0.553  -1.013  0.00  0.00     0.003 A 
ENDROOT
BRANCH   1   7
ATOM      7  C1' I4B d   1       0.195   1.546  -0.983  0.00  0.00     0.060 C 
BRANCH   7   8
ATOM      8  C2' I4B d   1       1.090   2.281  -0.006  0.00  0.00    -0.013 C 
ATOM      9  C4' I4B d   1       2.237   2.951  -0.715  0.00  0.00     0.013 C 
ATOM     10  C3' I4B d   1       0.249   3.281   0.729  0.00  0.00     0.013 C 
ENDBRANCH   7   8
ENDBRANCH   1   7
TORSDOF 2
ENDMDL
