MODEL 1
REMARK minimizedAffinity -2.24564314
REMARK minimizedRMSD -1
REMARK  0 active torsions:
REMARK  status: ('A' for Active; 'I' for Inactive)
ROOT
ATOM      1  C2' OXE d   1      -1.477  -1.171   2.343  0.00  0.00     0.078 C 
ATOM      2  C1' OXE d   1      -2.965  -0.357   0.106  0.00  0.00     0.078 C 
ATOM      3  C1  OXE d   1      -1.464  -0.221   0.040  0.00  0.00    -0.078 A 
ATOM      4  C2  OXE d   1      -0.748  -0.578   1.157  0.00  0.00    -0.078 A 
ATOM      5  C3  OXE d   1       0.643  -0.524   1.130  0.00  0.00     0.003 A 
ATOM      6  C4  OXE d   1       1.310   0.035   0.033  0.00  0.00    -0.002 A 
ATOM      7  C5  OXE d   1       0.596   0.442  -1.099  0.00  0.00    -0.002 A 
ATOM      8  C6  OXE d   1      -0.785   0.282  -1.128  0.00  0.00     0.003 A 
ENDROOT
TORSDOF 0
ENDMDL
