MODEL 1
REMARK minimizedAffinity -2.62293553
REMARK minimizedRMSD -1
REMARK  0 active torsions:
REMARK  status: ('A' for Active; 'I' for Inactive)
ROOT
ATOM      1  C2' OXE d   1       1.447   0.805  -0.011  0.00  0.00     0.078 C 
ATOM      2  C1' OXE d   1       0.377   0.456  -2.583  0.00  0.00     0.078 C 
ATOM      3  C1  OXE d   1      -0.442  -0.021  -1.409  0.00  0.00    -0.078 A 
ATOM      4  C2  OXE d   1       0.110   0.111  -0.158  0.00  0.00    -0.078 A 
ATOM      5  C3  OXE d   1      -0.626  -0.263   0.963  0.00  0.00     0.003 A 
ATOM      6  C4  OXE d   1      -1.857  -0.913   0.818  0.00  0.00    -0.002 A 
ATOM      7  C5  OXE d   1      -2.420  -1.094  -0.451  0.00  0.00    -0.002 A 
ATOM      8  C6  OXE d   1      -1.746  -0.616  -1.569  0.00  0.00     0.003 A 
ENDROOT
TORSDOF 0
ENDMDL
