MODEL 1
REMARK minimizedAffinity -1.62883461
REMARK minimizedRMSD -1
REMARK  0 active torsions:
REMARK  status: ('A' for Active; 'I' for Inactive)
ROOT
ATOM      1  C2' OXE d   1       3.988   3.347   1.575  0.00  0.00     0.078 C 
ATOM      2  C1' OXE d   1       3.885   2.754  -1.167  0.00  0.00     0.078 C 
ATOM      3  C1  OXE d   1       2.962   1.994  -0.248  0.00  0.00    -0.078 A 
ATOM      4  C2  OXE d   1       3.052   2.257   1.098  0.00  0.00    -0.078 A 
ATOM      5  C3  OXE d   1       2.186   1.623   1.984  0.00  0.00     0.003 A 
ATOM      6  C4  OXE d   1       1.331   0.609   1.536  0.00  0.00    -0.002 A 
ATOM      7  C5  OXE d   1       1.252   0.297   0.174  0.00  0.00    -0.002 A 
ATOM      8  C6  OXE d   1       2.028   1.008  -0.734  0.00  0.00     0.003 A 
ENDROOT
TORSDOF 0
ENDMDL
