MODEL 1
REMARK minimizedAffinity -4.33431244
REMARK minimizedRMSD -1
REMARK  0 active torsions:
REMARK  status: ('A' for Active; 'I' for Inactive)
ROOT
ATOM      1  C2' OXE d   1      -1.007  -1.402   2.093  0.00  0.00     0.078 C 
ATOM      2  C1' OXE d   1      -2.767  -0.243   0.237  0.00  0.00     0.078 C 
ATOM      3  C1  OXE d   1      -1.287  -0.132  -0.033  0.00  0.00    -0.078 A 
ATOM      4  C2  OXE d   1      -0.432  -0.662   0.904  0.00  0.00    -0.078 A 
ATOM      5  C3  OXE d   1       0.941  -0.636   0.678  0.00  0.00     0.003 A 
ATOM      6  C4  OXE d   1       1.465   0.060  -0.419  0.00  0.00    -0.002 A 
ATOM      7  C5  OXE d   1       0.613   0.640  -1.365  0.00  0.00    -0.002 A 
ATOM      8  C6  OXE d   1      -0.763   0.517  -1.209  0.00  0.00     0.003 A 
ENDROOT
TORSDOF 0
ENDMDL
