MODEL 1
REMARK minimizedAffinity -4.61225319
REMARK minimizedRMSD -1
REMARK  0 active torsions:
REMARK  status: ('A' for Active; 'I' for Inactive)
ROOT
ATOM      1  C2' OXE d   1      -3.165  -0.672   0.049  0.00  0.00     0.078 C 
ATOM      2  C1' OXE d   1      -1.729  -1.648   2.254  0.00  0.00     0.078 C 
ATOM      3  C1  OXE d   1      -0.957  -0.937   1.170  0.00  0.00    -0.078 A 
ATOM      4  C2  OXE d   1      -1.661  -0.504   0.073  0.00  0.00    -0.078 A 
ATOM      5  C3  OXE d   1      -1.007   0.205  -0.931  0.00  0.00     0.003 A 
ATOM      6  C4  OXE d   1       0.386   0.346  -0.906  0.00  0.00    -0.002 A 
ATOM      7  C5  OXE d   1       1.128  -0.122   0.184  0.00  0.00    -0.002 A 
ATOM      8  C6  OXE d   1       0.468  -0.727   1.248  0.00  0.00     0.003 A 
ENDROOT
TORSDOF 0
ENDMDL
