MODEL 1
REMARK minimizedAffinity -2.36880374
REMARK minimizedRMSD -1
REMARK  0 active torsions:
REMARK  status: ('A' for Active; 'I' for Inactive)
ROOT
ATOM      1  C2' OXE d   1      -3.133  -1.008  -0.040  0.00  0.00     0.078 C 
ATOM      2  C1' OXE d   1      -1.376  -1.771   2.012  0.00  0.00     0.078 C 
ATOM      3  C1  OXE d   1      -0.801  -1.025   0.834  0.00  0.00    -0.078 A 
ATOM      4  C2  OXE d   1      -1.660  -0.696  -0.187  0.00  0.00    -0.078 A 
ATOM      5  C3  OXE d   1      -1.192   0.041  -1.271  0.00  0.00     0.003 A 
ATOM      6  C4  OXE d   1       0.175   0.316  -1.404  0.00  0.00    -0.002 A 
ATOM      7  C5  OXE d   1       1.073  -0.044  -0.394  0.00  0.00    -0.002 A 
ATOM      8  C6  OXE d   1       0.596  -0.677   0.749  0.00  0.00     0.003 A 
ENDROOT
TORSDOF 0
ENDMDL
