MODEL 1
REMARK minimizedAffinity -3.48590446
REMARK minimizedRMSD -1
REMARK  0 active torsions:
REMARK  status: ('A' for Active; 'I' for Inactive)
ROOT
ATOM      1  C2' OXE d   1      -1.371  -1.571   1.995  0.00  0.00     0.078 C 
ATOM      2  C1' OXE d   1      -3.265  -1.005   0.001  0.00  0.00     0.078 C 
ATOM      3  C1  OXE d   1      -1.827  -0.638  -0.270  0.00  0.00    -0.078 A 
ATOM      4  C2  OXE d   1      -0.915  -0.876   0.730  0.00  0.00    -0.078 A 
ATOM      5  C3  OXE d   1       0.433  -0.607   0.511  0.00  0.00     0.003 A 
ATOM      6  C4  OXE d   1       0.845   0.045  -0.657  0.00  0.00    -0.002 A 
ATOM      7  C5  OXE d   1      -0.074   0.333  -1.672  0.00  0.00    -0.002 A 
ATOM      8  C6  OXE d   1      -1.404  -0.040  -1.512  0.00  0.00     0.003 A 
ENDROOT
TORSDOF 0
ENDMDL
