MODEL 1
REMARK minimizedAffinity -2.23553944
REMARK minimizedRMSD -1
REMARK  0 active torsions:
REMARK  status: ('A' for Active; 'I' for Inactive)
ROOT
ATOM      1  C2' OXE d   1      -2.825  -0.397  -0.062  0.00  0.00     0.078 C 
ATOM      2  C1' OXE d   1      -1.623   0.786  -2.306  0.00  0.00     0.078 C 
ATOM      3  C1  OXE d   1      -0.730   0.388  -1.158  0.00  0.00    -0.078 A 
ATOM      4  C2  OXE d   1      -1.332  -0.147  -0.045  0.00  0.00    -0.078 A 
ATOM      5  C3  OXE d   1      -0.549  -0.582   1.021  0.00  0.00     0.003 A 
ATOM      6  C4  OXE d   1       0.829  -0.338   1.033  0.00  0.00    -0.002 A 
ATOM      7  C5  OXE d   1       1.458   0.242  -0.074  0.00  0.00    -0.002 A 
ATOM      8  C6  OXE d   1       0.700   0.571  -1.192  0.00  0.00     0.003 A 
ENDROOT
TORSDOF 0
ENDMDL
