MODEL 1
REMARK minimizedAffinity -3.11803794
REMARK minimizedRMSD -1
REMARK  0 active torsions:
REMARK  status: ('A' for Active; 'I' for Inactive)
ROOT
ATOM      1  C2' OXE d   1      -1.462   0.079   0.923  0.00  0.00     0.078 C 
ATOM      2  C1' OXE d   1      -0.170   1.583  -1.065  0.00  0.00     0.078 C 
ATOM      3  C1  OXE d   1       0.685   0.731  -0.159  0.00  0.00    -0.078 A 
ATOM      4  C2  OXE d   1       0.049   0.035   0.840  0.00  0.00    -0.078 A 
ATOM      5  C3  OXE d   1       0.784  -0.808   1.669  0.00  0.00     0.003 A 
ATOM      6  C4  OXE d   1       2.181  -0.835   1.592  0.00  0.00    -0.002 A 
ATOM      7  C5  OXE d   1       2.853  -0.103   0.607  0.00  0.00    -0.002 A 
ATOM      8  C6  OXE d   1       2.118   0.650  -0.302  0.00  0.00     0.003 A 
ENDROOT
TORSDOF 0
ENDMDL
