MODEL 1
REMARK minimizedAffinity -4.41361141
REMARK minimizedRMSD -1
REMARK  0 active torsions:
REMARK  status: ('A' for Active; 'I' for Inactive)
ROOT
ATOM      1  C2' OXE d   1      -0.008   0.187  -2.400  0.00  0.00     0.078 C 
ATOM      2  C1' OXE d   1       1.419   0.022   0.012  0.00  0.00     0.078 C 
ATOM      3  C1  OXE d   1      -0.067  -0.234   0.055  0.00  0.00    -0.078 A 
ATOM      4  C2  OXE d   1      -0.765  -0.105  -1.122  0.00  0.00    -0.078 A 
ATOM      5  C3  OXE d   1      -2.128  -0.383  -1.149  0.00  0.00     0.003 A 
ATOM      6  C4  OXE d   1      -2.822  -0.643   0.039  0.00  0.00    -0.002 A 
ATOM      7  C5  OXE d   1      -2.137  -0.740   1.255  0.00  0.00    -0.002 A 
ATOM      8  C6  OXE d   1      -0.756  -0.580   1.273  0.00  0.00     0.003 A 
ENDROOT
TORSDOF 0
ENDMDL
