MODEL 1
REMARK minimizedAffinity 3.25703883
REMARK minimizedRMSD -1
REMARK  0 active torsions:
REMARK  status: ('A' for Active; 'I' for Inactive)
ROOT
ATOM      1  C2' OXE d   1      -2.577   5.581   4.515  0.00  0.00     0.078 C 
ATOM      2  C1' OXE d   1      -5.233   5.996   5.322  0.00  0.00     0.078 C 
ATOM      3  C1  OXE d   1      -4.953   5.905   3.843  0.00  0.00    -0.078 A 
ATOM      4  C2  OXE d   1      -3.644   5.749   3.455  0.00  0.00    -0.078 A 
ATOM      5  C3  OXE d   1      -3.338   5.605   2.105  0.00  0.00     0.003 A 
ATOM      6  C4  OXE d   1      -4.330   5.772   1.131  0.00  0.00    -0.002 A 
ATOM      7  C5  OXE d   1      -5.663   5.971   1.503  0.00  0.00    -0.002 A 
ATOM      8  C6  OXE d   1      -5.998   5.998   2.852  0.00  0.00     0.003 A 
ENDROOT
TORSDOF 0
ENDMDL
