MODEL 1
REMARK minimizedAffinity -4.19565392
REMARK minimizedRMSD -1
REMARK  0 active torsions:
REMARK  status: ('A' for Active; 'I' for Inactive)
ROOT
ATOM      1  C2' OXE d   1      -0.475   0.809  -2.300  0.00  0.00     0.078 C 
ATOM      2  C1' OXE d   1       0.825   0.336   0.143  0.00  0.00     0.078 C 
ATOM      3  C1  OXE d   1      -0.514  -0.321  -0.080  0.00  0.00    -0.078 A 
ATOM      4  C2  OXE d   1      -1.165  -0.047  -1.259  0.00  0.00    -0.078 A 
ATOM      5  C3  OXE d   1      -2.377  -0.670  -1.538  0.00  0.00     0.003 A 
ATOM      6  C4  OXE d   1      -3.013  -1.453  -0.566  0.00  0.00    -0.002 A 
ATOM      7  C5  OXE d   1      -2.385  -1.713   0.657  0.00  0.00    -0.002 A 
ATOM      8  C6  OXE d   1      -1.120  -1.190   0.898  0.00  0.00     0.003 A 
ENDROOT
TORSDOF 0
ENDMDL
