MODEL 1
REMARK minimizedAffinity -6.1987071
REMARK minimizedRMSD -1
REMARK  0 active torsions:
REMARK  status: ('A' for Active; 'I' for Inactive)
ROOT
ATOM      1  C2' OXE d   1       0.872   0.639   0.306  0.00  0.00     0.078 C 
ATOM      2  C1' OXE d   1      -0.458   1.103  -2.122  0.00  0.00     0.078 C 
ATOM      3  C1  OXE d   1      -1.141   0.226  -1.103  0.00  0.00    -0.078 A 
ATOM      4  C2  OXE d   1      -0.462  -0.034   0.064  0.00  0.00    -0.078 A 
ATOM      5  C3  OXE d   1      -1.069  -0.793   1.060  0.00  0.00     0.003 A 
ATOM      6  C4  OXE d   1      -2.298  -1.420   0.824  0.00  0.00    -0.002 A 
ATOM      7  C5  OXE d   1      -2.988  -1.201  -0.373  0.00  0.00    -0.002 A 
ATOM      8  C6  OXE d   1      -2.444  -0.349  -1.327  0.00  0.00     0.003 A 
ENDROOT
TORSDOF 0
ENDMDL
