MODEL 1
REMARK minimizedAffinity -2.32287002
REMARK minimizedRMSD -1
REMARK  0 active torsions:
REMARK  status: ('A' for Active; 'I' for Inactive)
ROOT
ATOM      1  C2' OXE d   1      -2.629  -1.064  -0.378  0.00  0.00     0.078 C 
ATOM      2  C1' OXE d   1      -1.055  -2.353   1.557  0.00  0.00     0.078 C 
ATOM      3  C1  OXE d   1      -0.403  -1.280   0.720  0.00  0.00    -0.078 A 
ATOM      4  C2  OXE d   1      -1.168  -0.688  -0.256  0.00  0.00    -0.078 A 
ATOM      5  C3  OXE d   1      -0.632   0.346  -1.019  0.00  0.00     0.003 A 
ATOM      6  C4  OXE d   1       0.723   0.681  -0.906  0.00  0.00    -0.002 A 
ATOM      7  C5  OXE d   1       1.530   0.062   0.054  0.00  0.00    -0.002 A 
ATOM      8  C6  OXE d   1       0.972  -0.888   0.903  0.00  0.00     0.003 A 
ENDROOT
TORSDOF 0
ENDMDL
