MODEL 1
REMARK minimizedAffinity -3.6571455
REMARK minimizedRMSD -1
REMARK  0 active torsions:
REMARK  status: ('A' for Active; 'I' for Inactive)
ROOT
ATOM      1  C2' OXE d   1      -1.084   0.783  -2.004  0.00  0.00     0.078 C 
ATOM      2  C1' OXE d   1      -2.841   0.060   0.063  0.00  0.00     0.078 C 
ATOM      3  C1  OXE d   1      -1.379  -0.266   0.236  0.00  0.00    -0.078 A 
ATOM      4  C2  OXE d   1      -0.534   0.049  -0.800  0.00  0.00    -0.078 A 
ATOM      5  C3  OXE d   1       0.833  -0.181  -0.670  0.00  0.00     0.003 A 
ATOM      6  C4  OXE d   1       1.333  -0.869   0.442  0.00  0.00    -0.002 A 
ATOM      7  C5  OXE d   1       0.483  -1.235   1.492  0.00  0.00    -0.002 A 
ATOM      8  C6  OXE d   1      -0.866  -0.904   1.424  0.00  0.00     0.003 A 
ENDROOT
TORSDOF 0
ENDMDL
