MODEL 1
REMARK minimizedAffinity -5.1357069
REMARK minimizedRMSD -1
REMARK  0 active torsions:
REMARK  status: ('A' for Active; 'I' for Inactive)
ROOT
ATOM      1  C2' OXE d   1      -0.063   0.738  -1.953  0.00  0.00     0.078 C 
ATOM      2  C1' OXE d   1       1.720   0.019   0.093  0.00  0.00     0.078 C 
ATOM      3  C1  OXE d   1       0.276  -0.390   0.242  0.00  0.00    -0.078 A 
ATOM      4  C2  OXE d   1      -0.598   0.007  -0.741  0.00  0.00    -0.078 A 
ATOM      5  C3  OXE d   1      -1.930  -0.391  -0.680  0.00  0.00     0.003 A 
ATOM      6  C4  OXE d   1      -2.420  -1.059   0.449  0.00  0.00    -0.002 A 
ATOM      7  C5  OXE d   1      -1.554  -1.438   1.481  0.00  0.00    -0.002 A 
ATOM      8  C6  OXE d   1      -0.198  -1.149   1.373  0.00  0.00     0.003 A 
ENDROOT
TORSDOF 0
ENDMDL
