MODEL 1
REMARK minimizedAffinity 11.0845346
REMARK minimizedRMSD -1
REMARK  1 active torsions:
REMARK  status: ('A' for Active; 'I' for Inactive)
REMARK    1  A    between atoms: C1_2  and  C2_3 
ROOT
ATOM      1  C2  UNL d   1      -0.287   2.593  -0.130  0.00  0.00    -0.076 A 
ATOM      2  C3  UNL d   1      -0.321   3.392  -1.286  0.00  0.00     0.004 A 
ATOM      3  C4  UNL d   1       0.198   4.686  -1.280  0.00  0.00    -0.003 A 
ATOM      4  C5  UNL d   1       0.760   5.201  -0.117  0.00  0.00     0.000 A 
ATOM      5  C6  UNL d   1       0.818   4.417   1.034  0.00  0.00     0.000 A 
ATOM      6  C7  UNL d   1       0.314   3.105   1.040  0.00  0.00    -0.073 A 
ATOM      7  C8  UNL d   1       0.397   2.305   2.311  0.00  0.00     0.078 C 
ENDROOT
BRANCH   1   8
ATOM      8  C1  UNL d   1      -0.890   1.208  -0.189  0.00  0.00     0.053 C 
ATOM      9  C   UNL d   1      -0.058   0.246  -1.023  0.00  0.00     0.018 C 
ENDBRANCH   1   8
TORSDOF 1
ENDMDL
