MODEL 1
REMARK minimizedAffinity 4.14749336
REMARK minimizedRMSD -1
REMARK  1 active torsions:
REMARK  status: ('A' for Active; 'I' for Inactive)
REMARK    1  A    between atoms: C1_2  and  C2_3 
ROOT
ATOM      1  C2  UNL d   1      -5.798   3.253  -3.434  0.00  0.00    -0.076 A 
ATOM      2  C3  UNL d   1      -6.000   2.465  -4.580  0.00  0.00     0.004 A 
ATOM      3  C4  UNL d   1      -5.991   3.033  -5.852  0.00  0.00    -0.003 A 
ATOM      4  C5  UNL d   1      -5.779   4.400  -6.000  0.00  0.00     0.000 A 
ATOM      5  C6  UNL d   1      -5.559   5.194  -4.875  0.00  0.00     0.000 A 
ATOM      6  C7  UNL d   1      -5.549   4.634  -3.586  0.00  0.00    -0.073 A 
ATOM      7  C8  UNL d   1      -5.313   5.538  -2.407  0.00  0.00     0.078 C 
ENDROOT
BRANCH   1   8
ATOM      8  C1  UNL d   1      -5.845   2.585  -2.078  0.00  0.00     0.053 C 
ATOM      9  C   UNL d   1      -4.482   2.533  -1.406  0.00  0.00     0.018 C 
ENDBRANCH   1   8
TORSDOF 1
ENDMDL
