MODEL 1
REMARK minimizedAffinity 11.9669352
REMARK minimizedRMSD -1
REMARK  1 active torsions:
REMARK  status: ('A' for Active; 'I' for Inactive)
REMARK    1  A    between atoms: C1_2  and  C2_3 
ROOT
ATOM      1  C2  UNL d   1       0.281   2.602   2.779  0.00  0.00    -0.076 A 
ATOM      2  C3  UNL d   1      -0.887   2.024   3.306  0.00  0.00     0.004 A 
ATOM      3  C4  UNL d   1      -0.822   0.913   4.145  0.00  0.00    -0.003 A 
ATOM      4  C5  UNL d   1       0.413   0.362   4.471  0.00  0.00     0.000 A 
ATOM      5  C6  UNL d   1       1.582   0.933   3.971  0.00  0.00     0.000 A 
ATOM      6  C7  UNL d   1       1.535   2.063   3.137  0.00  0.00    -0.073 A 
ATOM      7  C8  UNL d   1       2.827   2.635   2.622  0.00  0.00     0.078 C 
ENDROOT
BRANCH   1   8
ATOM      8  C1  UNL d   1       0.146   3.789   1.853  0.00  0.00     0.053 C 
ATOM      9  C   UNL d   1       0.253   3.400   0.386  0.00  0.00     0.018 C 
ENDBRANCH   1   8
TORSDOF 1
ENDMDL
