MODEL 1
REMARK minimizedAffinity 14.3023272
REMARK minimizedRMSD -1
REMARK  1 active torsions:
REMARK  status: ('A' for Active; 'I' for Inactive)
REMARK    1  A    between atoms: C1_2  and  C2_3 
ROOT
ATOM      1  C2  UNL d   1       0.293   3.291   0.104  0.00  0.00    -0.076 A 
ATOM      2  C3  UNL d   1       0.644   4.170  -0.936  0.00  0.00     0.004 A 
ATOM      3  C4  UNL d   1       0.274   5.514  -0.894  0.00  0.00    -0.003 A 
ATOM      4  C5  UNL d   1      -0.451   6.000   0.188  0.00  0.00     0.000 A 
ATOM      5  C6  UNL d   1      -0.793   5.146   1.236  0.00  0.00     0.000 A 
ATOM      6  C7  UNL d   1      -0.414   3.792   1.217  0.00  0.00    -0.073 A 
ATOM      7  C8  UNL d   1      -0.814   2.915   2.372  0.00  0.00     0.078 C 
ENDROOT
BRANCH   1   8
ATOM      8  C1  UNL d   1       0.698   1.839  -0.009  0.00  0.00     0.053 C 
ATOM      9  C   UNL d   1      -0.341   0.999  -0.735  0.00  0.00     0.018 C 
ENDBRANCH   1   8
TORSDOF 1
ENDMDL
