MODEL 1
REMARK minimizedAffinity 9.82681942
REMARK minimizedRMSD -1
REMARK  1 active torsions:
REMARK  status: ('A' for Active; 'I' for Inactive)
REMARK    1  A    between atoms: C1_2  and  C2_3 
ROOT
ATOM      1  C2  UNL d   1       0.199   3.755   1.102  0.00  0.00    -0.076 A 
ATOM      2  C3  UNL d   1       0.020   5.142   1.242  0.00  0.00     0.004 A 
ATOM      3  C4  UNL d   1       0.181   6.000   0.155  0.00  0.00    -0.003 A 
ATOM      4  C5  UNL d   1       0.522   5.483  -1.090  0.00  0.00     0.000 A 
ATOM      5  C6  UNL d   1       0.686   4.108  -1.251  0.00  0.00     0.000 A 
ATOM      6  C7  UNL d   1       0.512   3.228  -0.169  0.00  0.00    -0.073 A 
ATOM      7  C8  UNL d   1       0.707   1.755  -0.398  0.00  0.00     0.078 C 
ENDROOT
BRANCH   1   8
ATOM      8  C1  UNL d   1       0.039   2.877   2.323  0.00  0.00     0.053 C 
ATOM      9  C   UNL d   1       1.373   2.473   2.929  0.00  0.00     0.018 C 
ENDBRANCH   1   8
TORSDOF 1
ENDMDL
