MODEL 1
REMARK minimizedAffinity 11.7474632
REMARK minimizedRMSD -1
REMARK  1 active torsions:
REMARK  status: ('A' for Active; 'I' for Inactive)
REMARK    1  A    between atoms: C1_2  and  C2_3 
ROOT
ATOM      1  C2  UNL d   1      -0.626   0.991  -0.306  0.00  0.00    -0.076 A 
ATOM      2  C3  UNL d   1       0.437   0.654  -1.161  0.00  0.00     0.004 A 
ATOM      3  C4  UNL d   1       0.303  -0.362  -2.107  0.00  0.00    -0.003 A 
ATOM      4  C5  UNL d   1      -0.896  -1.057  -2.212  0.00  0.00     0.000 A 
ATOM      5  C6  UNL d   1      -1.968  -0.724  -1.384  0.00  0.00     0.000 A 
ATOM      6  C7  UNL d   1      -1.855   0.308  -0.437  0.00  0.00    -0.073 A 
ATOM      7  C8  UNL d   1      -3.040   0.621   0.435  0.00  0.00     0.078 C 
ENDROOT
BRANCH   1   8
ATOM      8  C1  UNL d   1      -0.414   2.083   0.718  0.00  0.00     0.053 C 
ATOM      9  C   UNL d   1      -0.046   3.414   0.082  0.00  0.00     0.018 C 
ENDBRANCH   1   8
TORSDOF 1
ENDMDL
