MODEL 1
REMARK minimizedAffinity 1.9144417
REMARK minimizedRMSD -1
REMARK  0 active torsions:
REMARK  status: ('A' for Active; 'I' for Inactive)
ROOT
ATOM      1  C   UNL d   1       1.229   2.880   2.104  0.00  0.00     0.020 A 
ATOM      2  C1  UNL d   1       1.745   2.606   0.838  0.00  0.00     0.020 A 
ATOM      3  C2  UNL d   1       0.964   1.933  -0.103  0.00  0.00     0.034 A 
ATOM      4  C3  UNL d   1      -0.338   1.532   0.219  0.00  0.00     0.017 A 
ATOM      5  C4  UNL d   1      -0.855   1.808   1.490  0.00  0.00     0.017 A 
ATOM      6  C5  UNL d   1      -0.068   2.482   2.429  0.00  0.00     0.034 A 
ATOM      7 Cl   UNL d   1      -2.452   1.346   1.962  0.00  0.00    -0.070 Cl
ATOM      8 Cl1  UNL d   1      -1.248   0.705  -0.994  0.00  0.00    -0.070 Cl
ENDROOT
TORSDOF 0
ENDMDL
