MODEL 1
REMARK minimizedAffinity 3.79743147
REMARK minimizedRMSD -1
REMARK  0 active torsions:
REMARK  status: ('A' for Active; 'I' for Inactive)
ROOT
ATOM      1  C   UNL d   1       2.927   5.019   0.273  0.00  0.00     0.020 A 
ATOM      2  C1  UNL d   1       4.321   5.022   0.268  0.00  0.00     0.020 A 
ATOM      3  C2  UNL d   1       5.018   4.173  -0.594  0.00  0.00     0.034 A 
ATOM      4  C3  UNL d   1       4.320   3.316  -1.454  0.00  0.00     0.017 A 
ATOM      5  C4  UNL d   1       2.921   3.314  -1.448  0.00  0.00     0.017 A 
ATOM      6  C5  UNL d   1       2.228   4.167  -0.583  0.00  0.00     0.034 A 
ATOM      7 Cl   UNL d   1       1.991   2.286  -2.480  0.00  0.00    -0.070 Cl
ATOM      8 Cl1  UNL d   1       5.246   2.293  -2.494  0.00  0.00    -0.070 Cl
ENDROOT
TORSDOF 0
ENDMDL
