MODEL 1
REMARK minimizedAffinity 0.0379334316
REMARK minimizedRMSD -1
REMARK  0 active torsions:
REMARK  status: ('A' for Active; 'I' for Inactive)
ROOT
ATOM      1  C   UNL d   1       1.593   4.887  -5.995  0.00  0.00     0.020 A 
ATOM      2  C1  UNL d   1       1.527   3.494  -6.000  0.00  0.00     0.020 A 
ATOM      3  C2  UNL d   1       0.286   2.854  -6.000  0.00  0.00     0.034 A 
ATOM      4  C3  UNL d   1      -0.894   3.606  -5.995  0.00  0.00     0.017 A 
ATOM      5  C4  UNL d   1      -0.827   5.004  -5.990  0.00  0.00     0.017 A 
ATOM      6  C5  UNL d   1       0.418   5.640  -5.990  0.00  0.00     0.034 A 
ATOM      7 Cl   UNL d   1      -2.240   5.999  -5.983  0.00  0.00    -0.070 Cl
ATOM      8 Cl1  UNL d   1      -2.394   2.748  -5.995  0.00  0.00    -0.070 Cl
ENDROOT
TORSDOF 0
ENDMDL
