MODEL 1
REMARK minimizedAffinity 2.45633388
REMARK minimizedRMSD -1
REMARK  0 active torsions:
REMARK  status: ('A' for Active; 'I' for Inactive)
ROOT
ATOM      1  C   UNL d   1       0.577  -3.815  -3.828  0.00  0.00     0.020 A 
ATOM      2  C1  UNL d   1       1.049  -2.504  -3.874  0.00  0.00     0.020 A 
ATOM      3  C2  UNL d   1       0.413  -1.506  -3.132  0.00  0.00     0.034 A 
ATOM      4  C3  UNL d   1      -0.700  -1.818  -2.342  0.00  0.00     0.017 A 
ATOM      5  C4  UNL d   1      -1.173  -3.134  -2.296  0.00  0.00     0.017 A 
ATOM      6  C5  UNL d   1      -0.532  -4.129  -3.040  0.00  0.00     0.034 A 
ATOM      7 Cl   UNL d   1      -2.540  -3.595  -1.344  0.00  0.00    -0.070 Cl
ATOM      8 Cl1  UNL d   1      -1.437  -0.534  -1.451  0.00  0.00    -0.070 Cl
ENDROOT
TORSDOF 0
ENDMDL
