MODEL 1
REMARK minimizedAffinity 1.33975756
REMARK minimizedRMSD -1
REMARK  0 active torsions:
REMARK  status: ('A' for Active; 'I' for Inactive)
ROOT
ATOM      1  C   UNL d   1       1.686   3.110  -5.996  0.00  0.00     0.020 A 
ATOM      2  C1  UNL d   1       1.880   4.491  -5.997  0.00  0.00     0.020 A 
ATOM      3  C2  UNL d   1       0.780   5.351  -5.998  0.00  0.00     0.034 A 
ATOM      4  C3  UNL d   1      -0.519   4.831  -5.998  0.00  0.00     0.017 A 
ATOM      5  C4  UNL d   1      -0.714   3.445  -5.998  0.00  0.00     0.017 A 
ATOM      6  C5  UNL d   1       0.392   2.588  -5.997  0.00  0.00     0.034 A 
ATOM      7 Cl   UNL d   1      -2.287   2.729  -5.998  0.00  0.00    -0.070 Cl
ATOM      8 Cl1  UNL d   1      -1.833   5.953  -5.999  0.00  0.00    -0.070 Cl
ENDROOT
TORSDOF 0
ENDMDL
