MODEL 1
REMARK minimizedAffinity -1.86101186
REMARK minimizedRMSD -1
REMARK  0 active torsions:
REMARK  status: ('A' for Active; 'I' for Inactive)
ROOT
ATOM      1  C   UNL d   1      -0.145   2.509  -5.974  0.00  0.00     0.020 A 
ATOM      2  C1  UNL d   1       0.322   3.822  -5.960  0.00  0.00     0.020 A 
ATOM      3  C2  UNL d   1      -0.583   4.885  -5.954  0.00  0.00     0.034 A 
ATOM      4  C3  UNL d   1      -1.960   4.637  -5.961  0.00  0.00     0.017 A 
ATOM      5  C4  UNL d   1      -2.429   3.318  -5.975  0.00  0.00     0.017 A 
ATOM      6  C5  UNL d   1      -1.518   2.257  -5.981  0.00  0.00     0.034 A 
ATOM      7 Cl   UNL d   1      -4.114   2.933  -5.985  0.00  0.00    -0.070 Cl
ATOM      8 Cl1  UNL d   1      -3.023   6.000  -5.953  0.00  0.00    -0.070 Cl
ENDROOT
TORSDOF 0
ENDMDL
