MODEL 1
REMARK minimizedAffinity 5.8846426
REMARK minimizedRMSD -1
REMARK  0 active torsions:
REMARK  status: ('A' for Active; 'I' for Inactive)
ROOT
ATOM      1  C   UNL d   1       4.099  -2.339  -1.962  0.00  0.00     0.020 A 
ATOM      2  C1  UNL d   1       3.060  -2.894  -1.216  0.00  0.00     0.020 A 
ATOM      3  C2  UNL d   1       1.871  -3.269  -1.846  0.00  0.00     0.034 A 
ATOM      4  C3  UNL d   1       1.718  -3.089  -3.225  0.00  0.00     0.017 A 
ATOM      5  C4  UNL d   1       2.761  -2.532  -3.974  0.00  0.00     0.017 A 
ATOM      6  C5  UNL d   1       3.950  -2.158  -3.338  0.00  0.00     0.034 A 
ATOM      7 Cl   UNL d   1       2.647  -2.280  -5.680  0.00  0.00    -0.070 Cl
ATOM      8 Cl1  UNL d   1       0.221  -3.576  -3.938  0.00  0.00    -0.070 Cl
ENDROOT
TORSDOF 0
ENDMDL
