MODEL 1
REMARK minimizedAffinity -1.41380513
REMARK minimizedRMSD -1
REMARK  0 active torsions:
REMARK  status: ('A' for Active; 'I' for Inactive)
ROOT
ATOM      1  C   UNL d   1      -2.217   4.354  -6.000  0.00  0.00     0.020 A 
ATOM      2  C1  UNL d   1      -2.566   3.004  -6.000  0.00  0.00     0.020 A 
ATOM      3  C2  UNL d   1      -1.569   2.025  -5.998  0.00  0.00     0.034 A 
ATOM      4  C3  UNL d   1      -0.220   2.396  -5.997  0.00  0.00     0.017 A 
ATOM      5  C4  UNL d   1       0.129   3.751  -5.996  0.00  0.00     0.017 A 
ATOM      6  C5  UNL d   1      -0.873   4.726  -5.998  0.00  0.00     0.034 A 
ATOM      7 Cl   UNL d   1       1.773   4.285  -5.994  0.00  0.00    -0.070 Cl
ATOM      8 Cl1  UNL d   1       0.960   1.133  -5.994  0.00  0.00    -0.070 Cl
ENDROOT
TORSDOF 0
ENDMDL
