MODEL 1
REMARK minimizedAffinity 2.21217823
REMARK minimizedRMSD -1
REMARK  0 active torsions:
REMARK  status: ('A' for Active; 'I' for Inactive)
ROOT
ATOM      1  C   UNL d   1       1.436   3.708  -5.995  0.00  0.00     0.020 A 
ATOM      2  C1  UNL d   1       1.401   5.102  -6.000  0.00  0.00     0.020 A 
ATOM      3  C2  UNL d   1       0.174   5.770  -5.999  0.00  0.00     0.034 A 
ATOM      4  C3  UNL d   1      -1.023   5.044  -5.994  0.00  0.00     0.017 A 
ATOM      5  C4  UNL d   1      -0.986   3.644  -5.989  0.00  0.00     0.017 A 
ATOM      6  C5  UNL d   1       0.245   2.981  -5.990  0.00  0.00     0.034 A 
ATOM      7 Cl   UNL d   1      -2.421   2.680  -5.983  0.00  0.00    -0.070 Cl
ATOM      8 Cl1  UNL d   1      -2.503   5.934  -5.993  0.00  0.00    -0.070 Cl
ENDROOT
TORSDOF 0
ENDMDL
