MODEL 1
REMARK minimizedAffinity 3.17733526
REMARK minimizedRMSD -1
REMARK  0 active torsions:
REMARK  status: ('A' for Active; 'I' for Inactive)
ROOT
ATOM      1  C   UNL d   1      -4.489   4.880  -5.991  0.00  0.00     0.020 A 
ATOM      2  C1  UNL d   1      -3.626   5.975  -5.990  0.00  0.00     0.020 A 
ATOM      3  C2  UNL d   1      -2.244   5.775  -5.990  0.00  0.00     0.034 A 
ATOM      4  C3  UNL d   1      -1.721   4.477  -5.991  0.00  0.00     0.017 A 
ATOM      5  C4  UNL d   1      -2.588   3.378  -5.992  0.00  0.00     0.017 A 
ATOM      6  C5  UNL d   1      -3.971   3.585  -5.992  0.00  0.00     0.034 A 
ATOM      7 Cl   UNL d   1      -2.017   1.747  -5.994  0.00  0.00    -0.070 Cl
ATOM      8 Cl1  UNL d   1      -0.001   4.303  -5.991  0.00  0.00    -0.070 Cl
ENDROOT
TORSDOF 0
ENDMDL
