MODEL 1
REMARK minimizedAffinity -0.290248096
REMARK minimizedRMSD -1
REMARK  0 active torsions:
REMARK  status: ('A' for Active; 'I' for Inactive)
ROOT
ATOM      1  C   UNL d   1       3.027   5.233  -6.000  0.00  0.00     0.020 A 
ATOM      2  C1  UNL d   1       3.137   3.843  -5.999  0.00  0.00     0.020 A 
ATOM      3  C2  UNL d   1       1.986   3.052  -5.999  0.00  0.00     0.034 A 
ATOM      4  C3  UNL d   1       0.721   3.651  -5.999  0.00  0.00     0.017 A 
ATOM      5  C4  UNL d   1       0.612   5.046  -6.000  0.00  0.00     0.017 A 
ATOM      6  C5  UNL d   1       1.768   5.833  -6.000  0.00  0.00     0.034 A 
ATOM      7 Cl   UNL d   1      -0.915   5.857  -6.000  0.00  0.00    -0.070 Cl
ATOM      8 Cl1  UNL d   1      -0.660   2.611  -5.999  0.00  0.00    -0.070 Cl
ENDROOT
TORSDOF 0
ENDMDL
