MODEL 1
REMARK minimizedAffinity -3.29728675
REMARK minimizedRMSD -1
REMARK  0 active torsions:
REMARK  status: ('A' for Active; 'I' for Inactive)
ROOT
ATOM      1  C   UNL d   1       1.422   3.808  -5.999  0.00  0.00     0.020 A 
ATOM      2  C1  UNL d   1       0.971   2.489  -6.000  0.00  0.00     0.020 A 
ATOM      3  C2  UNL d   1      -0.400   2.220  -6.000  0.00  0.00     0.034 A 
ATOM      4  C3  UNL d   1      -1.323   3.271  -5.999  0.00  0.00     0.017 A 
ATOM      5  C4  UNL d   1      -0.869   4.595  -5.998  0.00  0.00     0.017 A 
ATOM      6  C5  UNL d   1       0.504   4.859  -5.998  0.00  0.00     0.034 A 
ATOM      7 Cl   UNL d   1      -1.948   5.945  -5.997  0.00  0.00    -0.070 Cl
ATOM      8 Cl1  UNL d   1      -3.003   2.865  -6.000  0.00  0.00    -0.070 Cl
ENDROOT
TORSDOF 0
ENDMDL
