MODEL 1
REMARK minimizedAffinity -0.991765499
REMARK minimizedRMSD -1
REMARK  0 active torsions:
REMARK  status: ('A' for Active; 'I' for Inactive)
ROOT
ATOM      1  C   UNL d   1       2.593   3.730  -5.926  0.00  0.00     0.020 A 
ATOM      2  C1  UNL d   1       2.406   2.348  -5.942  0.00  0.00     0.020 A 
ATOM      3  C2  UNL d   1       1.114   1.819  -5.964  0.00  0.00     0.034 A 
ATOM      4  C3  UNL d   1       0.004   2.672  -5.971  0.00  0.00     0.017 A 
ATOM      5  C4  UNL d   1       0.193   4.058  -5.955  0.00  0.00     0.017 A 
ATOM      6  C5  UNL d   1       1.489   4.583  -5.933  0.00  0.00     0.034 A 
ATOM      7 Cl   UNL d   1      -1.127   5.174  -5.962  0.00  0.00    -0.070 Cl
ATOM      8 Cl1  UNL d   1      -1.565   1.948  -6.000  0.00  0.00    -0.070 Cl
ENDROOT
TORSDOF 0
ENDMDL
