MODEL 1
REMARK minimizedAffinity -0.534560919
REMARK minimizedRMSD -1
REMARK  0 active torsions:
REMARK  status: ('A' for Active; 'I' for Inactive)
ROOT
ATOM      1  C   UNL d   1       4.780   5.849  -5.938  0.00  0.00     0.020 A 
ATOM      2  C1  UNL d   1       5.342   4.573  -5.946  0.00  0.00     0.020 A 
ATOM      3  C2  UNL d   1       4.517   3.447  -5.965  0.00  0.00     0.034 A 
ATOM      4  C3  UNL d   1       3.125   3.594  -5.976  0.00  0.00     0.017 A 
ATOM      5  C4  UNL d   1       2.562   4.876  -5.967  0.00  0.00     0.017 A 
ATOM      6  C5  UNL d   1       3.393   6.000  -5.948  0.00  0.00     0.034 A 
ATOM      7 Cl   UNL d   1       0.854   5.137  -5.979  0.00  0.00    -0.070 Cl
ATOM      8 Cl1  UNL d   1       2.165   2.158  -5.999  0.00  0.00    -0.070 Cl
ENDROOT
TORSDOF 0
ENDMDL
