MODEL 1
REMARK minimizedAffinity 2.27913189
REMARK minimizedRMSD -1
REMARK  0 active torsions:
REMARK  status: ('A' for Active; 'I' for Inactive)
ROOT
ATOM      1  C   UNL d   1      -0.704   5.664  -5.931  0.00  0.00     0.020 A 
ATOM      2  C1  UNL d   1      -1.093   4.325  -5.930  0.00  0.00     0.020 A 
ATOM      3  C2  UNL d   1      -0.127   3.317  -5.949  0.00  0.00     0.034 A 
ATOM      4  C3  UNL d   1       1.233   3.646  -5.968  0.00  0.00     0.017 A 
ATOM      5  C4  UNL d   1       1.623   4.990  -5.969  0.00  0.00     0.017 A 
ATOM      6  C5  UNL d   1       0.652   5.996  -5.950  0.00  0.00     0.034 A 
ATOM      7 Cl   UNL d   1       3.282   5.474  -5.992  0.00  0.00    -0.070 Cl
ATOM      8 Cl1  UNL d   1       2.374   2.348  -5.991  0.00  0.00    -0.070 Cl
ENDROOT
TORSDOF 0
ENDMDL
