MODEL 1
REMARK minimizedAffinity 0.353125423
REMARK minimizedRMSD -1
REMARK  0 active torsions:
REMARK  status: ('A' for Active; 'I' for Inactive)
ROOT
ATOM      1  C   UNL d   1       3.017   2.968  -5.992  0.00  0.00     0.020 A 
ATOM      2  C1  UNL d   1       2.877   4.355  -5.992  0.00  0.00     0.020 A 
ATOM      3  C2  UNL d   1       1.603   4.928  -5.995  0.00  0.00     0.034 A 
ATOM      4  C3  UNL d   1       0.465   4.114  -5.997  0.00  0.00     0.017 A 
ATOM      5  C4  UNL d   1       0.607   2.721  -5.997  0.00  0.00     0.017 A 
ATOM      6  C5  UNL d   1       1.885   2.153  -5.994  0.00  0.00     0.034 A 
ATOM      7 Cl   UNL d   1      -0.750   1.651  -5.999  0.00  0.00    -0.070 Cl
ATOM      8 Cl1  UNL d   1      -1.078   4.890  -6.000  0.00  0.00    -0.070 Cl
ENDROOT
TORSDOF 0
ENDMDL
