MODEL 1
REMARK minimizedAffinity -0.390161991
REMARK minimizedRMSD -1
REMARK  0 active torsions:
REMARK  status: ('A' for Active; 'I' for Inactive)
ROOT
ATOM      1  C   UNL d   1       2.055   4.793  -5.998  0.00  0.00     0.020 A 
ATOM      2  C1  UNL d   1       2.032   3.399  -5.996  0.00  0.00     0.020 A 
ATOM      3  C2  UNL d   1       0.812   2.721  -5.994  0.00  0.00     0.034 A 
ATOM      4  C3  UNL d   1      -0.391   3.436  -5.992  0.00  0.00     0.017 A 
ATOM      5  C4  UNL d   1      -0.367   4.836  -5.994  0.00  0.00     0.017 A 
ATOM      6  C5  UNL d   1       0.857   5.510  -5.996  0.00  0.00     0.034 A 
ATOM      7 Cl   UNL d   1      -1.810   5.787  -5.993  0.00  0.00    -0.070 Cl
ATOM      8 Cl1  UNL d   1      -1.864   2.532  -5.990  0.00  0.00    -0.070 Cl
ENDROOT
TORSDOF 0
ENDMDL
