MODEL 1
REMARK minimizedAffinity 1.57866263
REMARK minimizedRMSD -1
REMARK  0 active torsions:
REMARK  status: ('A' for Active; 'I' for Inactive)
ROOT
ATOM      1  C   UNL d   1      -1.983   5.283  -5.961  0.00  0.00     0.020 A 
ATOM      2  C1  UNL d   1      -2.094   3.893  -5.961  0.00  0.00     0.020 A 
ATOM      3  C2  UNL d   1      -0.944   3.101  -5.973  0.00  0.00     0.034 A 
ATOM      4  C3  UNL d   1       0.322   3.698  -5.985  0.00  0.00     0.017 A 
ATOM      5  C4  UNL d   1       0.432   5.093  -5.985  0.00  0.00     0.017 A 
ATOM      6  C5  UNL d   1      -0.722   5.881  -5.974  0.00  0.00     0.034 A 
ATOM      7 Cl   UNL d   1       1.960   5.901  -6.000  0.00  0.00    -0.070 Cl
ATOM      8 Cl1  UNL d   1       1.700   2.656  -5.999  0.00  0.00    -0.070 Cl
ENDROOT
TORSDOF 0
ENDMDL
