MODEL 1
REMARK minimizedAffinity 12.0843401
REMARK minimizedRMSD -1
REMARK  1 active torsions:
REMARK  status: ('A' for Active; 'I' for Inactive)
REMARK    1  A    between atoms: C1_2  and  C2_3 
ROOT
ATOM      1  C2  UNL d   1      -4.056   1.005   3.908  0.00  0.00    -0.077 A 
ATOM      2  C3  UNL d   1      -5.069   1.866   3.463  0.00  0.00     0.002 A 
ATOM      3  C4  UNL d   1      -5.526   2.901   4.281  0.00  0.00     0.002 A 
ATOM      4  C5  UNL d   1      -4.975   3.087   5.547  0.00  0.00    -0.004 A 
ATOM      5  C6  UNL d   1      -3.969   2.234   6.000  0.00  0.00     0.002 A 
ATOM      6  C7  UNL d   1      -3.511   1.199   5.184  0.00  0.00     0.002 A 
ENDROOT
BRANCH   1   7
ATOM      7  C1  UNL d   1      -3.526  -0.081   3.009  0.00  0.00     0.055 C 
ATOM      8  C   UNL d   1      -2.348   0.411   2.182  0.00  0.00     0.019 C 
ENDBRANCH   1   7
TORSDOF 1
ENDMDL
