MODEL 1
REMARK minimizedAffinity 8.4824152
REMARK minimizedRMSD -1
REMARK  1 active torsions:
REMARK  status: ('A' for Active; 'I' for Inactive)
REMARK    1  A    between atoms: C1_2  and  C2_3 
ROOT
ATOM      1  C2  UNL d   1      -1.454   0.239   2.567  0.00  0.00    -0.077 A 
ATOM      2  C3  UNL d   1      -2.240   1.339   2.940  0.00  0.00     0.002 A 
ATOM      3  C4  UNL d   1      -3.593   1.171   3.239  0.00  0.00     0.002 A 
ATOM      4  C5  UNL d   1      -4.171  -0.095   3.173  0.00  0.00    -0.004 A 
ATOM      5  C6  UNL d   1      -3.399  -1.195   2.802  0.00  0.00     0.002 A 
ATOM      6  C7  UNL d   1      -2.046  -1.029   2.501  0.00  0.00     0.002 A 
ENDROOT
BRANCH   1   7
ATOM      7  C1  UNL d   1       0.017   0.410   2.292  0.00  0.00     0.055 C 
ATOM      8  C   UNL d   1       0.654   1.383   3.273  0.00  0.00     0.019 C 
ENDBRANCH   1   7
TORSDOF 1
ENDMDL
