MODEL 1
REMARK minimizedAffinity 18.7423897
REMARK minimizedRMSD -1
REMARK  1 active torsions:
REMARK  status: ('A' for Active; 'I' for Inactive)
REMARK    1  A    between atoms: C1_2  and  C2_3 
ROOT
ATOM      1  C2  UNL d   1       1.998  -0.855  -1.265  0.00  0.00    -0.077 A 
ATOM      2  C3  UNL d   1       2.650  -0.501  -0.076  0.00  0.00     0.002 A 
ATOM      3  C4  UNL d   1       3.318   0.721   0.025  0.00  0.00     0.002 A 
ATOM      4  C5  UNL d   1       3.338   1.599  -1.056  0.00  0.00    -0.004 A 
ATOM      5  C6  UNL d   1       2.694   1.254  -2.244  0.00  0.00     0.002 A 
ATOM      6  C7  UNL d   1       2.026   0.033  -2.348  0.00  0.00     0.002 A 
ENDROOT
BRANCH   1   7
ATOM      7  C1  UNL d   1       1.234  -2.151  -1.361  0.00  0.00     0.055 C 
ATOM      8  C   UNL d   1       1.447  -3.010  -0.123  0.00  0.00     0.019 C 
ENDBRANCH   1   7
TORSDOF 1
ENDMDL
