MODEL 1
REMARK minimizedAffinity 9.37119865
REMARK minimizedRMSD -1
REMARK  1 active torsions:
REMARK  status: ('A' for Active; 'I' for Inactive)
REMARK    1  A    between atoms: C1_2  and  C2_3 
ROOT
ATOM      1  C2  UNL d   1      -3.865  -0.758   2.541  0.00  0.00    -0.077 A 
ATOM      2  C3  UNL d   1      -2.630  -0.451   1.953  0.00  0.00     0.002 A 
ATOM      3  C4  UNL d   1      -1.984   0.750   2.255  0.00  0.00     0.002 A 
ATOM      4  C5  UNL d   1      -2.563   1.650   3.147  0.00  0.00    -0.004 A 
ATOM      5  C6  UNL d   1      -3.792   1.353   3.735  0.00  0.00     0.002 A 
ATOM      6  C7  UNL d   1      -4.440   0.155   3.434  0.00  0.00     0.002 A 
ENDROOT
BRANCH   1   7
ATOM      7  C1  UNL d   1      -4.540  -2.075   2.255  0.00  0.00     0.055 C 
ATOM      8  C   UNL d   1      -6.000  -1.877   1.875  0.00  0.00     0.019 C 
ENDBRANCH   1   7
TORSDOF 1
ENDMDL
