MODEL 1
REMARK minimizedAffinity 9.38841534
REMARK minimizedRMSD -1
REMARK  1 active torsions:
REMARK  status: ('A' for Active; 'I' for Inactive)
REMARK    1  A    between atoms: C1_2  and  C2_3 
ROOT
ATOM      1  C2  UNL d   1      -3.832  -1.102   4.055  0.00  0.00    -0.077 A 
ATOM      2  C3  UNL d   1      -3.100   0.072   3.828  0.00  0.00     0.002 A 
ATOM      3  C4  UNL d   1      -3.162   0.715   2.590  0.00  0.00     0.002 A 
ATOM      4  C5  UNL d   1      -3.958   0.194   1.572  0.00  0.00    -0.004 A 
ATOM      5  C6  UNL d   1      -4.689  -0.974   1.787  0.00  0.00     0.002 A 
ATOM      6  C7  UNL d   1      -4.626  -1.619   3.024  0.00  0.00     0.002 A 
ENDROOT
BRANCH   1   7
ATOM      7  C1  UNL d   1      -3.804  -1.769   5.405  0.00  0.00     0.055 C 
ATOM      8  C   UNL d   1      -3.956  -3.278   5.280  0.00  0.00     0.019 C 
ENDBRANCH   1   7
TORSDOF 1
ENDMDL
