MODEL 1
REMARK minimizedAffinity 9.24720192
REMARK minimizedRMSD -1
REMARK  1 active torsions:
REMARK  status: ('A' for Active; 'I' for Inactive)
REMARK    1  A    between atoms: C1_2  and  C2_3 
ROOT
ATOM      1  C2  UNL d   1       3.365  -0.270  -0.771  0.00  0.00    -0.077 A 
ATOM      2  C3  UNL d   1       2.052  -0.537  -1.183  0.00  0.00     0.002 A 
ATOM      3  C4  UNL d   1       1.477  -1.787  -0.945  0.00  0.00     0.002 A 
ATOM      4  C5  UNL d   1       2.206  -2.778  -0.291  0.00  0.00    -0.004 A 
ATOM      5  C6  UNL d   1       3.513  -2.523   0.121  0.00  0.00     0.002 A 
ATOM      6  C7  UNL d   1       4.090  -1.274  -0.117  0.00  0.00     0.002 A 
ENDROOT
BRANCH   1   7
ATOM      7  C1  UNL d   1       3.969   1.093  -0.983  0.00  0.00     0.055 C 
ATOM      8  C   UNL d   1       5.223   1.280  -0.141  0.00  0.00     0.019 C 
ENDBRANCH   1   7
TORSDOF 1
ENDMDL
