MODEL 1
REMARK minimizedAffinity 4.62128544
REMARK minimizedRMSD -1
REMARK  1 active torsions:
REMARK  status: ('A' for Active; 'I' for Inactive)
REMARK    1  A    between atoms: C1_2  and  C2_3 
ROOT
ATOM      1  C2  UNL d   1      -3.567  -3.903  -5.867  0.00  0.00    -0.077 A 
ATOM      2  C3  UNL d   1      -4.781  -3.214  -5.738  0.00  0.00     0.002 A 
ATOM      3  C4  UNL d   1      -5.992  -3.910  -5.741  0.00  0.00     0.002 A 
ATOM      4  C5  UNL d   1      -6.000  -5.297  -5.869  0.00  0.00    -0.004 A 
ATOM      5  C6  UNL d   1      -4.798  -5.991  -6.000  0.00  0.00     0.002 A 
ATOM      6  C7  UNL d   1      -3.587  -5.298  -5.998  0.00  0.00     0.002 A 
ENDROOT
BRANCH   1   7
ATOM      7  C1  UNL d   1      -2.258  -3.160  -5.814  0.00  0.00     0.055 C 
ATOM      8  C   UNL d   1      -1.515  -3.439  -4.515  0.00  0.00     0.019 C 
ENDBRANCH   1   7
TORSDOF 1
ENDMDL
