MODEL 1
REMARK minimizedAffinity 5.87258005
REMARK minimizedRMSD -1
REMARK  1 active torsions:
REMARK  status: ('A' for Active; 'I' for Inactive)
REMARK    1  A    between atoms: C1_2  and  C2_3 
ROOT
ATOM      1  C2  UNL d   1       1.888  -2.655  -2.716  0.00  0.00    -0.077 A 
ATOM      2  C3  UNL d   1       2.352  -3.253  -1.536  0.00  0.00     0.002 A 
ATOM      3  C4  UNL d   1       2.766  -2.464  -0.460  0.00  0.00     0.002 A 
ATOM      4  C5  UNL d   1       2.715  -1.075  -0.552  0.00  0.00    -0.004 A 
ATOM      5  C6  UNL d   1       2.256  -0.471  -1.722  0.00  0.00     0.002 A 
ATOM      6  C7  UNL d   1       1.843  -1.257  -2.799  0.00  0.00     0.002 A 
ENDROOT
BRANCH   1   7
ATOM      7  C1  UNL d   1       1.395  -3.504  -3.859  0.00  0.00     0.055 C 
ATOM      8  C   UNL d   1      -0.126  -3.549  -3.899  0.00  0.00     0.019 C 
ENDBRANCH   1   7
TORSDOF 1
ENDMDL
