MODEL 1
REMARK minimizedAffinity 5.26848078
REMARK minimizedRMSD -1
REMARK  1 active torsions:
REMARK  status: ('A' for Active; 'I' for Inactive)
REMARK    1  A    between atoms: C1_2  and  C2_3 
ROOT
ATOM      1  C2  UNL d   1       2.828  -0.244  -1.006  0.00  0.00    -0.077 A 
ATOM      2  C3  UNL d   1       3.201  -1.334  -0.206  0.00  0.00     0.002 A 
ATOM      3  C4  UNL d   1       2.733  -2.617  -0.497  0.00  0.00     0.002 A 
ATOM      4  C5  UNL d   1       1.893  -2.822  -1.590  0.00  0.00    -0.004 A 
ATOM      5  C6  UNL d   1       1.515  -1.744  -2.390  0.00  0.00     0.002 A 
ATOM      6  C7  UNL d   1       1.981  -0.462  -2.100  0.00  0.00     0.002 A 
ENDROOT
BRANCH   1   7
ATOM      7  C1  UNL d   1       3.371   1.132  -0.722  0.00  0.00     0.055 C 
ATOM      8  C   UNL d   1       4.468   1.088   0.332  0.00  0.00     0.019 C 
ENDBRANCH   1   7
TORSDOF 1
ENDMDL
