MODEL 1
REMARK minimizedAffinity 2.59796286
REMARK minimizedRMSD -1
REMARK  1 active torsions:
REMARK  status: ('A' for Active; 'I' for Inactive)
REMARK    1  A    between atoms: C1_2  and  C2_3 
ROOT
ATOM      1  C2  UNL d   1       2.606  -2.834  -2.316  0.00  0.00    -0.077 A 
ATOM      2  C3  UNL d   1       2.500  -3.619  -1.160  0.00  0.00     0.002 A 
ATOM      3  C4  UNL d   1       3.064  -4.896  -1.119  0.00  0.00     0.002 A 
ATOM      4  C5  UNL d   1       3.740  -5.397  -2.230  0.00  0.00    -0.004 A 
ATOM      5  C6  UNL d   1       3.849  -4.624  -3.385  0.00  0.00     0.002 A 
ATOM      6  C7  UNL d   1       3.286  -3.348  -3.428  0.00  0.00     0.002 A 
ENDROOT
BRANCH   1   7
ATOM      7  C1  UNL d   1       2.042  -1.438  -2.345  0.00  0.00     0.055 C 
ATOM      8  C   UNL d   1       2.571  -0.603  -1.187  0.00  0.00     0.019 C 
ENDBRANCH   1   7
TORSDOF 1
ENDMDL
