MODEL 1
REMARK minimizedAffinity 6.50577974
REMARK minimizedRMSD -1
REMARK  1 active torsions:
REMARK  status: ('A' for Active; 'I' for Inactive)
REMARK    1  A    between atoms: C1_2  and  C2_3 
ROOT
ATOM      1  C2  UNL d   1       3.072  -2.552  -1.078  0.00  0.00    -0.077 A 
ATOM      2  C3  UNL d   1       2.932  -2.898  -2.429  0.00  0.00     0.002 A 
ATOM      3  C4  UNL d   1       2.421  -1.977  -3.345  0.00  0.00     0.002 A 
ATOM      4  C5  UNL d   1       2.050  -0.702  -2.920  0.00  0.00    -0.004 A 
ATOM      5  C6  UNL d   1       2.184  -0.349  -1.578  0.00  0.00     0.002 A 
ATOM      6  C7  UNL d   1       2.694  -1.269  -0.661  0.00  0.00     0.002 A 
ENDROOT
BRANCH   1   7
ATOM      7  C1  UNL d   1       3.669  -3.528  -0.098  0.00  0.00     0.055 C 
ATOM      8  C   UNL d   1       5.184  -3.398  -0.041  0.00  0.00     0.019 C 
ENDBRANCH   1   7
TORSDOF 1
ENDMDL
