MODEL 1
REMARK minimizedAffinity 5.06827784
REMARK minimizedRMSD -1
REMARK  1 active torsions:
REMARK  status: ('A' for Active; 'I' for Inactive)
REMARK    1  A    between atoms: C1_2  and  C2_3 
ROOT
ATOM      1  C2  UNL d   1       2.004  -1.190  -1.593  0.00  0.00    -0.077 A 
ATOM      2  C3  UNL d   1       1.536  -1.762  -2.784  0.00  0.00     0.002 A 
ATOM      3  C4  UNL d   1       1.423  -3.149  -2.906  0.00  0.00     0.002 A 
ATOM      4  C5  UNL d   1       1.771  -3.974  -1.838  0.00  0.00    -0.004 A 
ATOM      5  C6  UNL d   1       2.239  -3.415  -0.650  0.00  0.00     0.002 A 
ATOM      6  C7  UNL d   1       2.354  -2.029  -0.527  0.00  0.00     0.002 A 
ENDROOT
BRANCH   1   7
ATOM      7  C1  UNL d   1       2.080   0.307  -1.443  0.00  0.00     0.055 C 
ATOM      8  C   UNL d   1       2.304   0.707   0.008  0.00  0.00     0.019 C 
ENDBRANCH   1   7
TORSDOF 1
ENDMDL
