MODEL 1
REMARK minimizedAffinity 9.35443592
REMARK minimizedRMSD -1
REMARK  1 active torsions:
REMARK  status: ('A' for Active; 'I' for Inactive)
REMARK    1  A    between atoms: C1_2  and  C2_3 
ROOT
ATOM      1  C2  UNL d   1       2.215  -2.444  -1.146  0.00  0.00    -0.077 A 
ATOM      2  C3  UNL d   1       1.976  -3.158  -2.328  0.00  0.00     0.002 A 
ATOM      3  C4  UNL d   1       1.641  -2.485  -3.505  0.00  0.00     0.002 A 
ATOM      4  C5  UNL d   1       1.546  -1.095  -3.511  0.00  0.00    -0.004 A 
ATOM      5  C6  UNL d   1       1.780  -0.375  -2.340  0.00  0.00     0.002 A 
ATOM      6  C7  UNL d   1       2.114  -1.047  -1.163  0.00  0.00     0.002 A 
ENDROOT
BRANCH   1   7
ATOM      7  C1  UNL d   1       2.625  -3.164   0.112  0.00  0.00     0.055 C 
ATOM      8  C   UNL d   1       4.134  -3.131   0.302  0.00  0.00     0.019 C 
ENDBRANCH   1   7
TORSDOF 1
ENDMDL
