MODEL 1
REMARK minimizedAffinity -1.53001761
REMARK minimizedRMSD -1
REMARK  1 active torsions:
REMARK  status: ('A' for Active; 'I' for Inactive)
REMARK    1  A    between atoms: C1_2  and  C2_3 
ROOT
ATOM      1  C2  UNL d   1      -0.559  -0.068  -0.083  0.00  0.00    -0.081 A 
ATOM      2  C3  UNL d   1       0.170   1.127  -0.093  0.00  0.00     0.006 A 
ATOM      3  C4  UNL d   1       1.540   1.123   0.180  0.00  0.00     0.002 A 
ATOM      4  C5  UNL d   1       2.205  -0.076   0.459  0.00  0.00    -0.080 A 
ATOM      5  C6  UNL d   1       3.681  -0.098   0.723  0.00  0.00     0.076 C 
ATOM      6  C7  UNL d   1       1.473  -1.268   0.486  0.00  0.00     0.002 A 
ATOM      7  C8  UNL d   1       0.103  -1.265   0.215  0.00  0.00     0.006 A 
ENDROOT
BRANCH   1   8
ATOM      8  C1  UNL d   1      -2.024  -0.076  -0.440  0.00  0.00     0.054 C 
ATOM      9  C   UNL d   1      -2.232   0.178  -1.926  0.00  0.00     0.018 C 
ENDBRANCH   1   8
TORSDOF 1
ENDMDL
