MODEL 1
REMARK minimizedAffinity -4.2924509
REMARK minimizedRMSD -1
REMARK  1 active torsions:
REMARK  status: ('A' for Active; 'I' for Inactive)
REMARK    1  A    between atoms: C1_2  and  C2_3 
ROOT
ATOM      1  C2  UNL d   1      -1.063   0.097  -0.363  0.00  0.00    -0.081 A 
ATOM      2  C3  UNL d   1       0.061   0.932  -0.399  0.00  0.00     0.006 A 
ATOM      3  C4  UNL d   1       1.198   0.622   0.351  0.00  0.00     0.002 A 
ATOM      4  C5  UNL d   1       1.234  -0.531   1.141  0.00  0.00    -0.080 A 
ATOM      5  C6  UNL d   1       2.460  -0.891   1.927  0.00  0.00     0.076 C 
ATOM      6  C7  UNL d   1       0.106  -1.357   1.191  0.00  0.00     0.002 A 
ATOM      7  C8  UNL d   1      -1.032  -1.047   0.442  0.00  0.00     0.006 A 
ENDROOT
BRANCH   1   8
ATOM      8  C1  UNL d   1      -2.266   0.394  -1.221  0.00  0.00     0.054 C 
ATOM      9  C   UNL d   1      -2.504  -0.710  -2.242  0.00  0.00     0.018 C 
ENDBRANCH   1   8
TORSDOF 1
ENDMDL
