MODEL 1
REMARK minimizedAffinity -4.74898911
REMARK minimizedRMSD -1
REMARK  1 active torsions:
REMARK  status: ('A' for Active; 'I' for Inactive)
REMARK    1  A    between atoms: C1_2  and  C2_3 
ROOT
ATOM      1  C2  UNL d   1      -1.039   0.370  -0.270  0.00  0.00    -0.081 A 
ATOM      2  C3  UNL d   1      -0.426   1.623  -0.146  0.00  0.00     0.006 A 
ATOM      3  C4  UNL d   1       0.899   1.723   0.286  0.00  0.00     0.002 A 
ATOM      4  C5  UNL d   1       1.634   0.573   0.594  0.00  0.00    -0.080 A 
ATOM      5  C6  UNL d   1       3.066   0.664   1.030  0.00  0.00     0.076 C 
ATOM      6  C7  UNL d   1       1.015  -0.677   0.487  0.00  0.00     0.002 A 
ATOM      7  C8  UNL d   1      -0.309  -0.778   0.056  0.00  0.00     0.006 A 
ENDROOT
BRANCH   1   8
ATOM      8  C1  UNL d   1      -2.447   0.255  -0.797  0.00  0.00     0.054 C 
ATOM      9  C   UNL d   1      -2.458  -0.207  -2.248  0.00  0.00     0.018 C 
ENDBRANCH   1   8
TORSDOF 1
ENDMDL
