MODEL 1
REMARK minimizedAffinity -5.53261852
REMARK minimizedRMSD -1
REMARK  1 active torsions:
REMARK  status: ('A' for Active; 'I' for Inactive)
REMARK    1  A    between atoms: C1_2  and  C2_3 
ROOT
ATOM      1  C2  UNL d   1       0.691   0.205   0.086  0.00  0.00    -0.081 A 
ATOM      2  C3  UNL d   1       1.800  -0.380   0.710  0.00  0.00     0.006 A 
ATOM      3  C4  UNL d   1       2.431   0.262   1.778  0.00  0.00     0.002 A 
ATOM      4  C5  UNL d   1       1.960   1.493   2.245  0.00  0.00    -0.080 A 
ATOM      5  C6  UNL d   1       2.610   2.178   3.411  0.00  0.00     0.076 C 
ATOM      6  C7  UNL d   1       0.863   2.085   1.611  0.00  0.00     0.002 A 
ATOM      7  C8  UNL d   1       0.231   1.445   0.543  0.00  0.00     0.006 A 
ENDROOT
BRANCH   1   8
ATOM      8  C1  UNL d   1      -0.032  -0.515  -1.024  0.00  0.00     0.054 C 
ATOM      9  C   UNL d   1      -1.525  -0.225  -0.991  0.00  0.00     0.018 C 
ENDBRANCH   1   8
TORSDOF 1
ENDMDL
