MODEL 1
REMARK minimizedAffinity -2.99401522
REMARK minimizedRMSD -1
REMARK  1 active torsions:
REMARK  status: ('A' for Active; 'I' for Inactive)
REMARK    1  A    between atoms: C1_2  and  C2_3 
ROOT
ATOM      1  C2  UNL d   1       2.333   0.506   1.530  0.00  0.00    -0.081 A 
ATOM      2  C3  UNL d   1       2.471  -0.805   2.003  0.00  0.00     0.006 A 
ATOM      3  C4  UNL d   1       2.495  -1.064   3.375  0.00  0.00     0.002 A 
ATOM      4  C5  UNL d   1       2.373  -0.019   4.297  0.00  0.00    -0.080 A 
ATOM      5  C6  UNL d   1       2.366  -0.286   5.773  0.00  0.00     0.076 C 
ATOM      6  C7  UNL d   1       2.252   1.293   3.825  0.00  0.00     0.002 A 
ATOM      7  C8  UNL d   1       2.229   1.553   2.453  0.00  0.00     0.006 A 
ENDROOT
BRANCH   1   8
ATOM      8  C1  UNL d   1       2.242   0.782   0.051  0.00  0.00     0.054 C 
ATOM      9  C   UNL d   1       1.099   1.736  -0.265  0.00  0.00     0.018 C 
ENDBRANCH   1   8
TORSDOF 1
ENDMDL
