MODEL 1
REMARK minimizedAffinity -3.21830702
REMARK minimizedRMSD -1
REMARK  1 active torsions:
REMARK  status: ('A' for Active; 'I' for Inactive)
REMARK    1  A    between atoms: C1_2  and  C2_3 
ROOT
ATOM      1  C2  UNL d   1      -1.416  -0.144  -0.038  0.00  0.00    -0.081 A 
ATOM      2  C3  UNL d   1      -0.520   0.919  -0.201  0.00  0.00     0.006 A 
ATOM      3  C4  UNL d   1       0.825   0.771   0.145  0.00  0.00     0.002 A 
ATOM      4  C5  UNL d   1       1.298  -0.445   0.651  0.00  0.00    -0.080 A 
ATOM      5  C6  UNL d   1       2.745  -0.627   0.998  0.00  0.00     0.076 C 
ATOM      6  C7  UNL d   1       0.399  -1.502   0.830  0.00  0.00     0.002 A 
ATOM      7  C8  UNL d   1      -0.947  -1.353   0.485  0.00  0.00     0.006 A 
ENDROOT
BRANCH   1   8
ATOM      8  C1  UNL d   1      -2.854  -0.007  -0.471  0.00  0.00     0.054 C 
ATOM      9  C   UNL d   1      -3.003  -0.216  -1.971  0.00  0.00     0.018 C 
ENDBRANCH   1   8
TORSDOF 1
ENDMDL
