MODEL 1
REMARK minimizedAffinity 2.23507524
REMARK minimizedRMSD -1
REMARK  1 active torsions:
REMARK  status: ('A' for Active; 'I' for Inactive)
REMARK    1  A    between atoms: C1_2  and  C2_3 
ROOT
ATOM      1  C2  UNL d   1      -2.726   1.251  -3.207  0.00  0.00    -0.081 A 
ATOM      2  C3  UNL d   1      -3.268   1.402  -1.925  0.00  0.00     0.006 A 
ATOM      3  C4  UNL d   1      -4.023   2.533  -1.604  0.00  0.00     0.002 A 
ATOM      4  C5  UNL d   1      -4.255   3.527  -2.560  0.00  0.00    -0.080 A 
ATOM      5  C6  UNL d   1      -5.088   4.731  -2.238  0.00  0.00     0.076 C 
ATOM      6  C7  UNL d   1      -3.698   3.385  -3.836  0.00  0.00     0.002 A 
ATOM      7  C8  UNL d   1      -2.943   2.255  -4.158  0.00  0.00     0.006 A 
ENDROOT
BRANCH   1   8
ATOM      8  C1  UNL d   1      -1.966   0.003  -3.576  0.00  0.00     0.054 C 
ATOM      9  C   UNL d   1      -2.906  -1.103  -4.033  0.00  0.00     0.018 C 
ENDBRANCH   1   8
TORSDOF 1
ENDMDL
