MODEL 1
REMARK minimizedAffinity -2.67932105
REMARK minimizedRMSD -1
REMARK  0 active torsions:
REMARK  status: ('A' for Active; 'I' for Inactive)
ROOT
ATOM      1  C2' OXE d   1      -2.537  -0.023   0.665  0.00  0.00     0.078 C 
ATOM      2  C1' OXE d   1      -0.775   0.103  -1.517  0.00  0.00     0.078 C 
ATOM      3  C1  OXE d   1      -0.180  -0.069  -0.141  0.00  0.00    -0.078 A 
ATOM      4  C2  OXE d   1      -1.047  -0.083   0.925  0.00  0.00    -0.078 A 
ATOM      5  C3  OXE d   1      -0.555  -0.294   2.210  0.00  0.00     0.003 A 
ATOM      6  C4  OXE d   1       0.825  -0.338   2.442  0.00  0.00    -0.002 A 
ATOM      7  C5  OXE d   1       1.727  -0.286   1.374  0.00  0.00    -0.002 A 
ATOM      8  C6  OXE d   1       1.240  -0.195   0.075  0.00  0.00     0.003 A 
ENDROOT
TORSDOF 0
ENDMDL
