MODEL 1
REMARK minimizedAffinity -4.16510534
REMARK minimizedRMSD -1
REMARK  0 active torsions:
REMARK  status: ('A' for Active; 'I' for Inactive)
ROOT
ATOM      1  C2' OXE d   1      -2.387  -0.036   0.836  0.00  0.00     0.078 C 
ATOM      2  C1' OXE d   1      -0.317   0.360  -1.017  0.00  0.00     0.078 C 
ATOM      3  C1  OXE d   1       0.065   0.034   0.405  0.00  0.00    -0.078 A 
ATOM      4  C2  OXE d   1      -0.954  -0.113   1.315  0.00  0.00    -0.078 A 
ATOM      5  C3  OXE d   1      -0.659  -0.468   2.628  0.00  0.00     0.003 A 
ATOM      6  C4  OXE d   1       0.670  -0.527   3.066  0.00  0.00    -0.002 A 
ATOM      7  C5  OXE d   1       1.723  -0.342   2.163  0.00  0.00    -0.002 A 
ATOM      8  C6  OXE d   1       1.438  -0.104   0.823  0.00  0.00     0.003 A 
ENDROOT
TORSDOF 0
ENDMDL
