MODEL 1
REMARK minimizedAffinity -3.16835928
REMARK minimizedRMSD -1
REMARK  0 active torsions:
REMARK  status: ('A' for Active; 'I' for Inactive)
ROOT
ATOM      1  C2' OXE d   1      -2.036  -0.104   1.053  0.00  0.00     0.078 C 
ATOM      2  C1' OXE d   1      -0.285   0.173  -1.123  0.00  0.00     0.078 C 
ATOM      3  C1  OXE d   1       0.280  -0.358   0.171  0.00  0.00    -0.078 A 
ATOM      4  C2  OXE d   1      -0.574  -0.446   1.244  0.00  0.00    -0.078 A 
ATOM      5  C3  OXE d   1      -0.117  -0.980   2.446  0.00  0.00     0.003 A 
ATOM      6  C4  OXE d   1       1.239  -1.284   2.617  0.00  0.00    -0.002 A 
ATOM      7  C5  OXE d   1       2.133  -1.165   1.548  0.00  0.00    -0.002 A 
ATOM      8  C6  OXE d   1       1.663  -0.744   0.309  0.00  0.00     0.003 A 
ENDROOT
TORSDOF 0
ENDMDL
