MODEL 1
REMARK minimizedAffinity -0.250472397
REMARK minimizedRMSD -1
REMARK  0 active torsions:
REMARK  status: ('A' for Active; 'I' for Inactive)
ROOT
ATOM      1  C2' OXE d   1       1.720  -1.171  -1.400  0.00  0.00     0.078 C 
ATOM      2  C1' OXE d   1      -0.354   0.690  -1.743  0.00  0.00     0.078 C 
ATOM      3  C1  OXE d   1      -0.139   0.123  -0.362  0.00  0.00    -0.078 A 
ATOM      4  C2  OXE d   1       0.848  -0.822  -0.213  0.00  0.00    -0.078 A 
ATOM      5  C3  OXE d   1       1.125  -1.337   1.050  0.00  0.00     0.003 A 
ATOM      6  C4  OXE d   1       0.307  -1.016   2.141  0.00  0.00    -0.002 A 
ATOM      7  C5  OXE d   1      -0.728  -0.086   2.003  0.00  0.00    -0.002 A 
ATOM      8  C6  OXE d   1      -0.937   0.524   0.770  0.00  0.00     0.003 A 
ENDROOT
TORSDOF 0
ENDMDL
