MODEL 1
REMARK minimizedAffinity -3.8039875
REMARK minimizedRMSD -1
REMARK  0 active torsions:
REMARK  status: ('A' for Active; 'I' for Inactive)
ROOT
ATOM      1  C2' OXE d   1      -1.689   0.265   1.801  0.00  0.00     0.078 C 
ATOM      2  C1' OXE d   1      -0.093   1.119  -0.345  0.00  0.00     0.078 C 
ATOM      3  C1  OXE d   1       0.577   0.354   0.769  0.00  0.00    -0.078 A 
ATOM      4  C2  OXE d   1      -0.203  -0.020   1.837  0.00  0.00    -0.078 A 
ATOM      5  C3  OXE d   1       0.353  -0.775   2.866  0.00  0.00     0.003 A 
ATOM      6  C4  OXE d   1       1.731  -1.025   2.897  0.00  0.00    -0.002 A 
ATOM      7  C5  OXE d   1       2.550  -0.619   1.838  0.00  0.00    -0.002 A 
ATOM      8  C6  OXE d   1       1.983   0.033   0.749  0.00  0.00     0.003 A 
ENDROOT
TORSDOF 0
ENDMDL
