MODEL 1
REMARK minimizedAffinity -4.19912386
REMARK minimizedRMSD -1
REMARK  0 active torsions:
REMARK  status: ('A' for Active; 'I' for Inactive)
ROOT
ATOM      1  C2' OXE d   1      -1.970   0.356   1.111  0.00  0.00     0.078 C 
ATOM      2  C1' OXE d   1      -0.354   0.461  -1.182  0.00  0.00     0.078 C 
ATOM      3  C1  OXE d   1       0.253  -0.095   0.082  0.00  0.00    -0.078 A 
ATOM      4  C2  OXE d   1      -0.530  -0.100   1.211  0.00  0.00    -0.078 A 
ATOM      5  C3  OXE d   1      -0.038  -0.652   2.390  0.00  0.00     0.003 A 
ATOM      6  C4  OXE d   1       1.298  -1.062   2.476  0.00  0.00    -0.002 A 
ATOM      7  C5  OXE d   1       2.125  -1.029   1.349  0.00  0.00    -0.002 A 
ATOM      8  C6  OXE d   1       1.607  -0.590   0.136  0.00  0.00     0.003 A 
ENDROOT
TORSDOF 0
ENDMDL
