MODEL 1
REMARK minimizedAffinity -5.11708927
REMARK minimizedRMSD -1
REMARK  0 active torsions:
REMARK  status: ('A' for Active; 'I' for Inactive)
ROOT
ATOM      1  C2' OXE d   1      -2.494  -0.194   1.000  0.00  0.00     0.078 C 
ATOM      2  C1' OXE d   1      -0.846   0.603  -1.129  0.00  0.00     0.078 C 
ATOM      3  C1  OXE d   1      -0.184   0.009   0.089  0.00  0.00    -0.078 A 
ATOM      4  C2  OXE d   1      -0.994  -0.334   1.145  0.00  0.00    -0.078 A 
ATOM      5  C3  OXE d   1      -0.440  -0.937   2.271  0.00  0.00     0.003 A 
ATOM      6  C4  OXE d   1       0.949  -1.054   2.402  0.00  0.00    -0.002 A 
ATOM      7  C5  OXE d   1       1.795  -0.673   1.355  0.00  0.00    -0.002 A 
ATOM      8  C6  OXE d   1       1.243  -0.180   0.177  0.00  0.00     0.003 A 
ENDROOT
TORSDOF 0
ENDMDL
