MODEL 1
REMARK minimizedAffinity -3.42962456
REMARK minimizedRMSD -1
REMARK  2 active torsions:
REMARK  status: ('A' for Active; 'I' for Inactive)
REMARK    1  A    between atoms: C2'_3  and  C1'_4 
REMARK    2  A    between atoms: C1'_4  and  C1_5 
ROOT
ATOM      1  C1  I4B d   1      -0.297  -0.749  -0.056  0.00  0.00    -0.075 A 
ATOM      2  C2  I4B d   1       0.611   0.275  -0.162  0.00  0.00     0.003 A 
ATOM      3  C3  I4B d   1       0.735   1.229   0.877  0.00  0.00     0.002 A 
ATOM      4  C4  I4B d   1      -0.099   1.151   1.974  0.00  0.00    -0.004 A 
ATOM      5  C5  I4B d   1      -1.003   0.099   2.091  0.00  0.00     0.002 A 
ATOM      6  C6  I4B d   1      -1.095  -0.864   1.076  0.00  0.00     0.003 A 
ENDROOT
BRANCH   1   7
ATOM      7  C1' I4B d   1      -0.425  -1.719  -1.187  0.00  0.00     0.060 C 
BRANCH   7   8
ATOM      8  C2' I4B d   1      -1.772  -1.496  -1.843  0.00  0.00    -0.013 C 
ATOM      9  C4' I4B d   1      -1.620  -1.196  -3.311  0.00  0.00     0.013 C 
ATOM     10  C3' I4B d   1      -2.603  -2.726  -1.625  0.00  0.00     0.013 C 
ENDBRANCH   7   8
ENDBRANCH   1   7
TORSDOF 2
ENDMDL
