MODEL 1
REMARK minimizedAffinity -4.34588671
REMARK minimizedRMSD -1
REMARK  2 active torsions:
REMARK  status: ('A' for Active; 'I' for Inactive)
REMARK    1  A    between atoms: C2'_3  and  C1'_4 
REMARK    2  A    between atoms: C1'_4  and  C1_5 
ROOT
ATOM      1  C1  I4B d   1       0.071   0.638   1.097  0.00  0.00    -0.075 A 
ATOM      2  C2  I4B d   1       0.267   1.631   0.170  0.00  0.00     0.003 A 
ATOM      3  C3  I4B d   1       0.938   2.824   0.533  0.00  0.00     0.002 A 
ATOM      4  C4  I4B d   1       1.349   3.002   1.838  0.00  0.00    -0.004 A 
ATOM      5  C5  I4B d   1       1.170   1.985   2.771  0.00  0.00     0.002 A 
ATOM      6  C6  I4B d   1       0.538   0.791   2.396  0.00  0.00     0.003 A 
ENDROOT
BRANCH   1   7
ATOM      7  C1' I4B d   1      -0.670  -0.595   0.688  0.00  0.00     0.060 C 
BRANCH   7   8
ATOM      8  C2' I4B d   1      -0.163  -1.013  -0.677  0.00  0.00    -0.013 C 
ATOM      9  C4' I4B d   1       1.132  -1.774  -0.567  0.00  0.00     0.013 C 
ATOM     10  C3' I4B d   1      -1.226  -1.845  -1.331  0.00  0.00     0.013 C 
ENDBRANCH   7   8
ENDBRANCH   1   7
TORSDOF 2
ENDMDL
