MODEL 1
REMARK minimizedAffinity -5.58290386
REMARK minimizedRMSD -1
REMARK  2 active torsions:
REMARK  status: ('A' for Active; 'I' for Inactive)
REMARK    1  A    between atoms: C2'_3  and  C1'_4 
REMARK    2  A    between atoms: C1'_4  and  C1_5 
ROOT
ATOM      1  C1  I4B d   1       0.254  -0.366  -0.040  0.00  0.00    -0.075 A 
ATOM      2  C2  I4B d   1      -0.257  -0.189   1.222  0.00  0.00     0.003 A 
ATOM      3  C3  I4B d   1       0.022   0.996   1.944  0.00  0.00     0.002 A 
ATOM      4  C4  I4B d   1       0.852   1.950   1.391  0.00  0.00    -0.004 A 
ATOM      5  C5  I4B d   1       1.350   1.780   0.103  0.00  0.00     0.002 A 
ATOM      6  C6  I4B d   1       1.040   0.620  -0.623  0.00  0.00     0.003 A 
ENDROOT
BRANCH   1   7
ATOM      7  C1' I4B d   1      -0.034  -1.644  -0.762  0.00  0.00     0.060 C 
BRANCH   7   8
ATOM      8  C2' I4B d   1      -1.367  -1.493  -1.466  0.00  0.00    -0.013 C 
ATOM      9  C4' I4B d   1      -1.203  -1.551  -2.962  0.00  0.00     0.013 C 
ATOM     10  C3' I4B d   1      -2.274  -2.582  -0.977  0.00  0.00     0.013 C 
ENDBRANCH   7   8
ENDBRANCH   1   7
TORSDOF 2
ENDMDL
