MODEL 1
REMARK minimizedAffinity -4.23150349
REMARK minimizedRMSD -1
REMARK  2 active torsions:
REMARK  status: ('A' for Active; 'I' for Inactive)
REMARK    1  A    between atoms: C2'_3  and  C1'_4 
REMARK    2  A    between atoms: C1'_4  and  C1_5 
ROOT
ATOM      1  C1  I4B d   1      -0.097   0.634   0.602  0.00  0.00    -0.075 A 
ATOM      2  C2  I4B d   1      -0.853   0.103   1.618  0.00  0.00     0.003 A 
ATOM      3  C3  I4B d   1      -0.588   0.457   2.963  0.00  0.00     0.002 A 
ATOM      4  C4  I4B d   1       0.466   1.301   3.249  0.00  0.00    -0.004 A 
ATOM      5  C5  I4B d   1       1.216   1.856   2.216  0.00  0.00     0.002 A 
ATOM      6  C6  I4B d   1       0.925   1.531   0.884  0.00  0.00     0.003 A 
ENDROOT
BRANCH   1   7
ATOM      7  C1' I4B d   1      -0.383   0.213  -0.805  0.00  0.00     0.060 C 
BRANCH   7   8
ATOM      8  C2' I4B d   1      -0.436  -1.301  -0.837  0.00  0.00    -0.013 C 
ATOM      9  C4' I4B d   1      -1.278  -1.793  -1.984  0.00  0.00     0.013 C 
ATOM     10  C3' I4B d   1       0.971  -1.811  -0.940  0.00  0.00     0.013 C 
ENDBRANCH   7   8
ENDBRANCH   1   7
TORSDOF 2
ENDMDL
