MODEL 1
REMARK minimizedAffinity -3.3162725
REMARK minimizedRMSD -1
REMARK  2 active torsions:
REMARK  status: ('A' for Active; 'I' for Inactive)
REMARK    1  A    between atoms: C2'_3  and  C1'_4 
REMARK    2  A    between atoms: C1'_4  and  C1_5 
ROOT
ATOM      1  C1  I4B d   1      -2.877  -2.843  -1.357  0.00  0.00    -0.075 A 
ATOM      2  C2  I4B d   1      -1.820  -2.150  -0.822  0.00  0.00     0.003 A 
ATOM      3  C3  I4B d   1      -1.010  -1.335  -1.649  0.00  0.00     0.002 A 
ATOM      4  C4  I4B d   1      -1.261  -1.282  -3.005  0.00  0.00    -0.004 A 
ATOM      5  C5  I4B d   1      -2.347  -1.967  -3.542  0.00  0.00     0.002 A 
ATOM      6  C6  I4B d   1      -3.168  -2.743  -2.711  0.00  0.00     0.003 A 
ENDROOT
BRANCH   1   7
ATOM      7  C1' I4B d   1      -3.692  -3.720  -0.460  0.00  0.00     0.060 C 
BRANCH   7   8
ATOM      8  C2' I4B d   1      -4.959  -4.096  -1.200  0.00  0.00    -0.013 C 
ATOM      9  C4' I4B d   1      -5.509  -5.409  -0.709  0.00  0.00     0.013 C 
ATOM     10  C3' I4B d   1      -5.952  -2.988  -1.011  0.00  0.00     0.013 C 
ENDBRANCH   7   8
ENDBRANCH   1   7
TORSDOF 2
ENDMDL
