MODEL 1
REMARK minimizedAffinity -0.370247006
REMARK minimizedRMSD -1
REMARK  2 active torsions:
REMARK  status: ('A' for Active; 'I' for Inactive)
REMARK    1  A    between atoms: C2'_3  and  C1'_4 
REMARK    2  A    between atoms: C1'_4  and  C1_5 
ROOT
ATOM      1  C1  I4B d   1      -0.031  -0.969  -0.895  0.00  0.00    -0.075 A 
ATOM      2  C2  I4B d   1       1.278  -1.163  -1.260  0.00  0.00     0.003 A 
ATOM      3  C3  I4B d   1       2.270  -0.226  -0.883  0.00  0.00     0.002 A 
ATOM      4  C4  I4B d   1       1.903   0.909  -0.189  0.00  0.00    -0.004 A 
ATOM      5  C5  I4B d   1       0.579   1.093   0.200  0.00  0.00     0.002 A 
ATOM      6  C6  I4B d   1      -0.392   0.142  -0.144  0.00  0.00     0.003 A 
ENDROOT
BRANCH   1   7
ATOM      7  C1' I4B d   1      -1.058  -1.962  -1.339  0.00  0.00     0.060 C 
BRANCH   7   8
ATOM      8  C2' I4B d   1      -1.770  -1.389  -2.547  0.00  0.00    -0.013 C 
ATOM      9  C4' I4B d   1      -0.880  -1.404  -3.762  0.00  0.00     0.013 C 
ATOM     10  C3' I4B d   1      -3.014  -2.195  -2.777  0.00  0.00     0.013 C 
ENDBRANCH   7   8
ENDBRANCH   1   7
TORSDOF 2
ENDMDL
