MODEL 1
REMARK minimizedAffinity -5.58626175
REMARK minimizedRMSD -1
REMARK  2 active torsions:
REMARK  status: ('A' for Active; 'I' for Inactive)
REMARK    1  A    between atoms: C2'_3  and  C1'_4 
REMARK    2  A    between atoms: C1'_4  and  C1_5 
ROOT
ATOM      1  C1  I4B d   1       0.340   1.662   0.593  0.00  0.00    -0.075 A 
ATOM      2  C2  I4B d   1       0.090   0.479  -0.055  0.00  0.00     0.003 A 
ATOM      3  C3  I4B d   1      -0.830  -0.451   0.487  0.00  0.00     0.002 A 
ATOM      4  C4  I4B d   1      -1.436  -0.180   1.697  0.00  0.00    -0.004 A 
ATOM      5  C5  I4B d   1      -1.199   1.030   2.341  0.00  0.00     0.002 A 
ATOM      6  C6  I4B d   1      -0.315   1.963   1.780  0.00  0.00     0.003 A 
ENDROOT
BRANCH   1   7
ATOM      7  C1' I4B d   1       1.342   2.606   0.009  0.00  0.00     0.060 C 
BRANCH   7   8
ATOM      8  C2' I4B d   1       2.718   2.173   0.474  0.00  0.00    -0.013 C 
ATOM      9  C4' I4B d   1       2.710   1.810   1.935  0.00  0.00     0.013 C 
ATOM     10  C3' I4B d   1       3.147   1.011  -0.371  0.00  0.00     0.013 C 
ENDBRANCH   7   8
ENDBRANCH   1   7
TORSDOF 2
ENDMDL
