MODEL 1
REMARK minimizedAffinity -4.24466848
REMARK minimizedRMSD -1
REMARK  2 active torsions:
REMARK  status: ('A' for Active; 'I' for Inactive)
REMARK    1  A    between atoms: C2'_3  and  C1'_4 
REMARK    2  A    between atoms: C1'_4  and  C1_5 
ROOT
ATOM      1  C1  I4B d   1      -0.157  -1.305  -0.340  0.00  0.00    -0.075 A 
ATOM      2  C2  I4B d   1      -0.600  -0.150   0.253  0.00  0.00     0.003 A 
ATOM      3  C3  I4B d   1       0.290   0.932   0.459  0.00  0.00     0.002 A 
ATOM      4  C4  I4B d   1       1.617   0.798   0.106  0.00  0.00    -0.004 A 
ATOM      5  C5  I4B d   1       2.059  -0.366  -0.516  0.00  0.00     0.002 A 
ATOM      6  C6  I4B d   1       1.164  -1.420  -0.752  0.00  0.00     0.003 A 
ENDROOT
BRANCH   1   7
ATOM      7  C1' I4B d   1      -1.116  -2.440  -0.513  0.00  0.00     0.060 C 
BRANCH   7   8
ATOM      8  C2' I4B d   1      -2.164  -2.017  -1.522  0.00  0.00    -0.013 C 
ATOM      9  C4' I4B d   1      -1.644  -2.137  -2.930  0.00  0.00     0.013 C 
ATOM     10  C3' I4B d   1      -3.377  -2.874  -1.317  0.00  0.00     0.013 C 
ENDBRANCH   7   8
ENDBRANCH   1   7
TORSDOF 2
ENDMDL
