MODEL 1
REMARK minimizedAffinity -2.19203019
REMARK minimizedRMSD -1
REMARK  2 active torsions:
REMARK  status: ('A' for Active; 'I' for Inactive)
REMARK    1  A    between atoms: C2'_3  and  C1'_4 
REMARK    2  A    between atoms: C1'_4  and  C1_5 
ROOT
ATOM      1  C1  I4B d   1       0.421   0.902   1.455  0.00  0.00    -0.075 A 
ATOM      2  C2  I4B d   1       1.028   1.525   0.393  0.00  0.00     0.003 A 
ATOM      3  C3  I4B d   1       0.888   1.001  -0.915  0.00  0.00     0.002 A 
ATOM      4  C4  I4B d   1       0.178  -0.167  -1.107  0.00  0.00    -0.004 A 
ATOM      5  C5  I4B d   1      -0.456  -0.784  -0.032  0.00  0.00     0.002 A 
ATOM      6  C6  I4B d   1      -0.344  -0.239   1.256  0.00  0.00     0.003 A 
ENDROOT
BRANCH   1   7
ATOM      7  C1' I4B d   1       0.617   1.464   2.828  0.00  0.00     0.060 C 
BRANCH   7   8
ATOM      8  C2' I4B d   1       1.133   0.352   3.718  0.00  0.00    -0.013 C 
ATOM      9  C4' I4B d   1       2.423   0.745   4.390  0.00  0.00     0.013 C 
ATOM     10  C3' I4B d   1       0.071   0.036   4.728  0.00  0.00     0.013 C 
ENDBRANCH   7   8
ENDBRANCH   1   7
TORSDOF 2
ENDMDL
