MODEL 1
REMARK minimizedAffinity -6.54370308
REMARK minimizedRMSD -1
REMARK  2 active torsions:
REMARK  status: ('A' for Active; 'I' for Inactive)
REMARK    1  A    between atoms: C2'_3  and  C1'_4 
REMARK    2  A    between atoms: C1'_4  and  C1_5 
ROOT
ATOM      1  C1  I4B d   1       0.288   0.229   0.101  0.00  0.00    -0.075 A 
ATOM      2  C2  I4B d   1      -0.655   0.661   1.000  0.00  0.00     0.003 A 
ATOM      3  C3  I4B d   1      -0.446   1.854   1.735  0.00  0.00     0.002 A 
ATOM      4  C4  I4B d   1       0.735   2.550   1.577  0.00  0.00    -0.004 A 
ATOM      5  C5  I4B d   1       1.680   2.123   0.649  0.00  0.00     0.002 A 
ATOM      6  C6  I4B d   1       1.450   0.961  -0.103  0.00  0.00     0.003 A 
ENDROOT
BRANCH   1   7
ATOM      7  C1' I4B d   1       0.049  -1.052  -0.633  0.00  0.00     0.060 C 
BRANCH   7   8
ATOM      8  C2' I4B d   1      -1.311  -0.965  -1.294  0.00  0.00    -0.013 C 
ATOM      9  C4' I4B d   1      -1.187  -0.906  -2.794  0.00  0.00     0.013 C 
ATOM     10  C3' I4B d   1      -2.112  -2.157  -0.863  0.00  0.00     0.013 C 
ENDBRANCH   7   8
ENDBRANCH   1   7
TORSDOF 2
ENDMDL
