MODEL 1
REMARK minimizedAffinity -5.83213186
REMARK minimizedRMSD -1
REMARK  2 active torsions:
REMARK  status: ('A' for Active; 'I' for Inactive)
REMARK    1  A    between atoms: C2'_3  and  C1'_4 
REMARK    2  A    between atoms: C1'_4  and  C1_5 
ROOT
ATOM      1  C1  I4B d   1       0.425  -0.159   0.003  0.00  0.00    -0.075 A 
ATOM      2  C2  I4B d   1      -0.437   0.654   0.696  0.00  0.00     0.003 A 
ATOM      3  C3  I4B d   1       0.047   1.813   1.351  0.00  0.00     0.002 A 
ATOM      4  C4  I4B d   1       1.398   2.091   1.330  0.00  0.00    -0.004 A 
ATOM      5  C5  I4B d   1       2.267   1.278   0.608  0.00  0.00     0.002 A 
ATOM      6  C6  I4B d   1       1.776   0.152  -0.070  0.00  0.00     0.003 A 
ENDROOT
BRANCH   1   7
ATOM      7  C1' I4B d   1      -0.115  -1.392  -0.649  0.00  0.00     0.060 C 
BRANCH   7   8
ATOM      8  C2' I4B d   1      -1.403  -1.021  -1.356  0.00  0.00    -0.013 C 
ATOM      9  C4' I4B d   1      -1.153  -0.684  -2.802  0.00  0.00     0.013 C 
ATOM     10  C3' I4B d   1      -2.352  -2.174  -1.224  0.00  0.00     0.013 C 
ENDBRANCH   7   8
ENDBRANCH   1   7
TORSDOF 2
ENDMDL
