MODEL 1
REMARK minimizedAffinity -4.93092966
REMARK minimizedRMSD -1
REMARK  2 active torsions:
REMARK  status: ('A' for Active; 'I' for Inactive)
REMARK    1  A    between atoms: C2'_3  and  C1'_4 
REMARK    2  A    between atoms: C1'_4  and  C1_5 
ROOT
ATOM      1  C1  I4B d   1      -0.047   0.004  -0.096  0.00  0.00    -0.075 A 
ATOM      2  C2  I4B d   1      -0.685  -0.068   1.117  0.00  0.00     0.003 A 
ATOM      3  C3  I4B d   1      -0.603   1.011   2.031  0.00  0.00     0.002 A 
ATOM      4  C4  I4B d   1       0.165   2.113   1.713  0.00  0.00    -0.004 A 
ATOM      5  C5  I4B d   1       0.793   2.193   0.474  0.00  0.00     0.002 A 
ATOM      6  C6  I4B d   1       0.676   1.138  -0.442  0.00  0.00     0.003 A 
ENDROOT
BRANCH   1   7
ATOM      7  C1' I4B d   1      -0.128  -1.168  -1.023  0.00  0.00     0.060 C 
BRANCH   7   8
ATOM      8  C2' I4B d   1      -1.461  -1.105  -1.739  0.00  0.00    -0.013 C 
ATOM      9  C4' I4B d   1      -1.275  -0.986  -3.229  0.00  0.00     0.013 C 
ATOM     10  C3' I4B d   1      -2.234  -2.341  -1.387  0.00  0.00     0.013 C 
ENDBRANCH   7   8
ENDBRANCH   1   7
TORSDOF 2
ENDMDL
