MODEL 1
REMARK minimizedAffinity -5.18876505
REMARK minimizedRMSD -1
REMARK  2 active torsions:
REMARK  status: ('A' for Active; 'I' for Inactive)
REMARK    1  A    between atoms: C2'_3  and  C1'_4 
REMARK    2  A    between atoms: C1'_4  and  C1_5 
ROOT
ATOM      1  C1  I4B d   1      -0.145  -0.326  -0.018  0.00  0.00    -0.075 A 
ATOM      2  C2  I4B d   1      -0.939  -0.131   1.084  0.00  0.00     0.003 A 
ATOM      3  C3  I4B d   1      -0.710   0.973   1.941  0.00  0.00     0.002 A 
ATOM      4  C4  I4B d   1       0.348   1.822   1.688  0.00  0.00    -0.004 A 
ATOM      5  C5  I4B d   1       1.138   1.636   0.557  0.00  0.00     0.002 A 
ATOM      6  C6  I4B d   1       0.882   0.563  -0.309  0.00  0.00     0.003 A 
ENDROOT
BRANCH   1   7
ATOM      7  C1' I4B d   1      -0.394  -1.520  -0.884  0.00  0.00     0.060 C 
BRANCH   7   8
ATOM      8  C2' I4B d   1      -1.642  -1.253  -1.700  0.00  0.00    -0.013 C 
ATOM      9  C4' I4B d   1      -1.300  -0.959  -3.137  0.00  0.00     0.013 C 
ATOM     10  C3' I4B d   1      -2.533  -2.454  -1.591  0.00  0.00     0.013 C 
ENDBRANCH   7   8
ENDBRANCH   1   7
TORSDOF 2
ENDMDL
