MODEL 1
REMARK minimizedAffinity -2.47720003
REMARK minimizedRMSD -1
REMARK  0 active torsions:
REMARK  status: ('A' for Active; 'I' for Inactive)
ROOT
ATOM      1  C4' PXY d   1       0.742  -2.650  -1.272  0.00  0.00     0.077 C 
ATOM      2  C1' PXY d   1      -0.342   2.589   0.916  0.00  0.00     0.077 C 
ATOM      3  C1  PXY d   1      -0.060   1.220   0.330  0.00  0.00    -0.082 A 
ATOM      4  C2  PXY d   1      -0.172   0.146   1.095  0.00  0.00     0.003 A 
ATOM      5  C3  PXY d   1       0.110  -1.098   0.590  0.00  0.00     0.003 A 
ATOM      6  C4  PXY d   1       0.458  -1.248  -0.726  0.00  0.00    -0.082 A 
ATOM      7  C5  PXY d   1       0.564  -0.158  -1.515  0.00  0.00     0.003 A 
ATOM      8  C6  PXY d   1       0.314   1.099  -0.972  0.00  0.00     0.003 A 
ENDROOT
TORSDOF 0
ENDMDL
