MODEL 1
REMARK minimizedAffinity -3.63997293
REMARK minimizedRMSD -1
REMARK  0 active torsions:
REMARK  status: ('A' for Active; 'I' for Inactive)
ROOT
ATOM      1  C4' PXY d   1      -0.347   4.092  -0.554  0.00  0.00     0.077 C 
ATOM      2  C1' PXY d   1      -0.429  -1.005   2.172  0.00  0.00     0.077 C 
ATOM      3  C1  PXY d   1      -0.415   0.336   1.466  0.00  0.00    -0.082 A 
ATOM      4  C2  PXY d   1      -0.114   0.395   0.179  0.00  0.00     0.003 A 
ATOM      5  C3  PXY d   1      -0.066   1.604  -0.467  0.00  0.00     0.003 A 
ATOM      6  C4  PXY d   1      -0.381   2.758   0.198  0.00  0.00    -0.082 A 
ATOM      7  C5  PXY d   1      -0.700   2.705   1.508  0.00  0.00     0.003 A 
ATOM      8  C6  PXY d   1      -0.703   1.473   2.156  0.00  0.00     0.003 A 
ENDROOT
TORSDOF 0
ENDMDL
