MODEL 1
REMARK minimizedAffinity -1.35402036
REMARK minimizedRMSD -1
REMARK  0 active torsions:
REMARK  status: ('A' for Active; 'I' for Inactive)
ROOT
ATOM      1  C4' PXY d   1      -0.047   1.949   1.508  0.00  0.00     0.077 C 
ATOM      2  C1' PXY d   1       0.358  -3.243  -1.000  0.00  0.00     0.077 C 
ATOM      3  C1  PXY d   1       0.243  -1.878  -0.352  0.00  0.00    -0.082 A 
ATOM      4  C2  PXY d   1       1.228  -1.431   0.410  0.00  0.00     0.003 A 
ATOM      5  C3  PXY d   1       1.127  -0.212   1.030  0.00  0.00     0.003 A 
ATOM      6  C4  PXY d   1       0.030   0.581   0.825  0.00  0.00    -0.082 A 
ATOM      7  C5  PXY d   1      -0.975   0.136   0.041  0.00  0.00     0.003 A 
ATOM      8  C6  PXY d   1      -0.871  -1.122  -0.546  0.00  0.00     0.003 A 
ENDROOT
TORSDOF 0
ENDMDL
