MODEL 1
REMARK minimizedAffinity -1.13288701
REMARK minimizedRMSD -1
REMARK  0 active torsions:
REMARK  status: ('A' for Active; 'I' for Inactive)
ROOT
ATOM      1  C4' PXY d   1      -0.344  -2.995  -1.519  0.00  0.00     0.077 C 
ATOM      2  C1' PXY d   1       0.118   1.436   2.164  0.00  0.00     0.077 C 
ATOM      3  C1  PXY d   1       0.004   0.280   1.190  0.00  0.00    -0.082 A 
ATOM      4  C2  PXY d   1      -1.055  -0.511   1.233  0.00  0.00     0.003 A 
ATOM      5  C3  PXY d   1      -1.159  -1.580   0.381  0.00  0.00     0.003 A 
ATOM      6  C4  PXY d   1      -0.192  -1.811  -0.561  0.00  0.00    -0.082 A 
ATOM      7  C5  PXY d   1       0.887  -1.002  -0.619  0.00  0.00     0.003 A 
ATOM      8  C6  PXY d   1       0.993   0.053   0.282  0.00  0.00     0.003 A 
ENDROOT
TORSDOF 0
ENDMDL
