MODEL 1
REMARK minimizedAffinity -3.82997012
REMARK minimizedRMSD -1
REMARK  0 active torsions:
REMARK  status: ('A' for Active; 'I' for Inactive)
ROOT
ATOM      1  C4' PXY d   1      -0.357   3.668   0.450  0.00  0.00     0.077 C 
ATOM      2  C1' PXY d   1       0.912  -1.859  -0.668  0.00  0.00     0.077 C 
ATOM      3  C1  PXY d   1       0.576  -0.413  -0.363  0.00  0.00    -0.082 A 
ATOM      4  C2  PXY d   1       0.284   0.414  -1.354  0.00  0.00     0.003 A 
ATOM      5  C3  PXY d   1       0.008   1.733  -1.098  0.00  0.00     0.003 A 
ATOM      6  C4  PXY d   1      -0.020   2.198   0.189  0.00  0.00    -0.082 A 
ATOM      7  C5  PXY d   1       0.266   1.358   1.206  0.00  0.00     0.003 A 
ATOM      8  C6  PXY d   1       0.584   0.033   0.923  0.00  0.00     0.003 A 
ENDROOT
TORSDOF 0
ENDMDL
