MODEL 1
REMARK minimizedAffinity -5.74132395
REMARK minimizedRMSD -1
REMARK  0 active torsions:
REMARK  status: ('A' for Active; 'I' for Inactive)
ROOT
ATOM      1  C   UNL d   1      -1.326  -2.401   2.092  0.00  0.00     0.077 C 
ATOM      2  C1  UNL d   1      -0.964  -1.353   1.083  0.00  0.00    -0.074 A 
ATOM      3  C2  UNL d   1      -1.744  -1.156  -0.061  0.00  0.00    -0.005 A 
ATOM      4  C3  UNL d   1      -1.400  -0.170  -0.986  0.00  0.00     0.006 A 
ATOM      5  C4  UNL d   1      -0.275   0.628  -0.777  0.00  0.00    -0.005 A 
ATOM      6  C5  UNL d   1       0.517   0.446   0.361  0.00  0.00    -0.074 A 
ATOM      7  C6  UNL d   1       1.725   1.301   0.606  0.00  0.00     0.077 C 
ATOM      8  C7  UNL d   1       0.161  -0.542   1.290  0.00  0.00    -0.001 A 
ENDROOT
TORSDOF 0
ENDMDL
