MODEL 1
REMARK minimizedAffinity -1.64164114
REMARK minimizedRMSD -1
REMARK  0 active torsions:
REMARK  status: ('A' for Active; 'I' for Inactive)
ROOT
ATOM      1  C   UNL d   1       1.882   1.237   0.136  0.00  0.00     0.077 C 
ATOM      2  C1  UNL d   1       0.906   0.222   0.652  0.00  0.00    -0.074 A 
ATOM      3  C2  UNL d   1       1.285  -0.711   1.622  0.00  0.00    -0.005 A 
ATOM      4  C3  UNL d   1       0.364  -1.643   2.099  0.00  0.00     0.006 A 
ATOM      5  C4  UNL d   1      -0.944  -1.651   1.612  0.00  0.00    -0.005 A 
ATOM      6  C5  UNL d   1      -1.342  -0.725   0.643  0.00  0.00    -0.074 A 
ATOM      7  C6  UNL d   1      -2.746  -0.713   0.117  0.00  0.00     0.077 C 
ATOM      8  C7  UNL d   1      -0.412   0.213   0.174  0.00  0.00    -0.001 A 
ENDROOT
TORSDOF 0
ENDMDL
