MODEL 1
REMARK minimizedAffinity -0.90930897
REMARK minimizedRMSD -1
REMARK  0 active torsions:
REMARK  status: ('A' for Active; 'I' for Inactive)
ROOT
ATOM      1  C   UNL d   1       1.792   3.363   2.296  0.00  0.00     0.077 C 
ATOM      2  C1  UNL d   1       1.494   2.280   1.302  0.00  0.00    -0.074 A 
ATOM      3  C2  UNL d   1       2.437   1.909   0.338  0.00  0.00    -0.005 A 
ATOM      4  C3  UNL d   1       2.149   0.893  -0.573  0.00  0.00     0.006 A 
ATOM      5  C4  UNL d   1       0.918   0.239  -0.530  0.00  0.00    -0.005 A 
ATOM      6  C5  UNL d   1      -0.037   0.595   0.427  0.00  0.00    -0.074 A 
ATOM      7  C6  UNL d   1      -1.362  -0.105   0.494  0.00  0.00     0.077 C 
ATOM      8  C7  UNL d   1       0.262   1.612   1.344  0.00  0.00    -0.001 A 
ENDROOT
TORSDOF 0
ENDMDL
