MODEL 1
REMARK minimizedAffinity -3.65270376
REMARK minimizedRMSD -1
REMARK  0 active torsions:
REMARK  status: ('A' for Active; 'I' for Inactive)
ROOT
ATOM      1  C   UNL d   1      -2.339  -1.531  -3.195  0.00  0.00     0.077 C 
ATOM      2  C1  UNL d   1      -1.944  -1.199  -1.787  0.00  0.00    -0.074 A 
ATOM      3  C2  UNL d   1      -2.765  -1.545  -0.709  0.00  0.00    -0.005 A 
ATOM      4  C3  UNL d   1      -2.380  -1.238   0.596  0.00  0.00     0.006 A 
ATOM      5  C4  UNL d   1      -1.171  -0.584   0.835  0.00  0.00    -0.005 A 
ATOM      6  C5  UNL d   1      -0.336  -0.231  -0.230  0.00  0.00    -0.074 A 
ATOM      7  C6  UNL d   1       0.971   0.464   0.011  0.00  0.00     0.077 C 
ATOM      8  C7  UNL d   1      -0.727  -0.549  -1.537  0.00  0.00    -0.001 A 
ENDROOT
TORSDOF 0
ENDMDL
