MODEL 1
REMARK minimizedAffinity -4.44319916
REMARK minimizedRMSD -1
REMARK  0 active torsions:
REMARK  status: ('A' for Active; 'I' for Inactive)
ROOT
ATOM      1  C   UNL d   1      -2.303   1.140  -3.018  0.00  0.00     0.077 C 
ATOM      2  C1  UNL d   1      -2.010   0.414  -1.738  0.00  0.00    -0.074 A 
ATOM      3  C2  UNL d   1      -3.024  -0.249  -1.040  0.00  0.00    -0.005 A 
ATOM      4  C3  UNL d   1      -2.734  -0.928   0.144  0.00  0.00     0.006 A 
ATOM      5  C4  UNL d   1      -1.430  -0.949   0.641  0.00  0.00    -0.005 A 
ATOM      6  C5  UNL d   1      -0.403  -0.292  -0.045  0.00  0.00    -0.074 A 
ATOM      7  C6  UNL d   1       1.005  -0.314   0.470  0.00  0.00     0.077 C 
ATOM      8  C7  UNL d   1      -0.701   0.381  -1.237  0.00  0.00    -0.001 A 
ENDROOT
TORSDOF 0
ENDMDL
