MODEL 1
REMARK minimizedAffinity -4.0546484
REMARK minimizedRMSD -1
REMARK  0 active torsions:
REMARK  status: ('A' for Active; 'I' for Inactive)
ROOT
ATOM      1  C   UNL d   1       1.900   1.123  -0.120  0.00  0.00     0.077 C 
ATOM      2  C1  UNL d   1       0.742   0.201   0.123  0.00  0.00    -0.074 A 
ATOM      3  C2  UNL d   1       0.752  -0.700   1.192  0.00  0.00    -0.005 A 
ATOM      4  C3  UNL d   1      -0.336  -1.545   1.410  0.00  0.00     0.006 A 
ATOM      5  C4  UNL d   1      -1.444  -1.496   0.563  0.00  0.00    -0.005 A 
ATOM      6  C5  UNL d   1      -1.473  -0.601  -0.511  0.00  0.00    -0.074 A 
ATOM      7  C6  UNL d   1      -2.660  -0.529  -1.425  0.00  0.00     0.077 C 
ATOM      8  C7  UNL d   1      -0.378   0.249  -0.719  0.00  0.00    -0.001 A 
ENDROOT
TORSDOF 0
ENDMDL
