MODEL 1
REMARK minimizedAffinity -4.86534595
REMARK minimizedRMSD -1
REMARK  0 active torsions:
REMARK  status: ('A' for Active; 'I' for Inactive)
ROOT
ATOM      1  C   UNL d   1       1.305  -1.854   1.770  0.00  0.00     0.077 C 
ATOM      2  C1  UNL d   1       0.485  -0.820   1.056  0.00  0.00    -0.074 A 
ATOM      3  C2  UNL d   1       1.089   0.291   0.460  0.00  0.00    -0.005 A 
ATOM      4  C3  UNL d   1       0.315   1.239  -0.208  0.00  0.00     0.006 A 
ATOM      5  C4  UNL d   1      -1.070   1.086  -0.287  0.00  0.00    -0.005 A 
ATOM      6  C5  UNL d   1      -1.692  -0.020   0.302  0.00  0.00    -0.074 A 
ATOM      7  C6  UNL d   1      -3.178  -0.205   0.218  0.00  0.00     0.077 C 
ATOM      8  C7  UNL d   1      -0.906  -0.971   0.966  0.00  0.00    -0.001 A 
ENDROOT
TORSDOF 0
ENDMDL
