MODEL 1
REMARK minimizedAffinity -0.183289751
REMARK minimizedRMSD -1
REMARK  0 active torsions:
REMARK  status: ('A' for Active; 'I' for Inactive)
ROOT
ATOM      1  C   UNL d   1       3.775   4.160  -1.119  0.00  0.00     0.077 C 
ATOM      2  C1  UNL d   1       3.136   3.340  -0.037  0.00  0.00    -0.074 A 
ATOM      3  C2  UNL d   1       3.110   3.791   1.287  0.00  0.00    -0.005 A 
ATOM      4  C3  UNL d   1       2.504   3.022   2.280  0.00  0.00     0.006 A 
ATOM      5  C4  UNL d   1       1.918   1.796   1.960  0.00  0.00    -0.005 A 
ATOM      6  C5  UNL d   1       1.932   1.330   0.642  0.00  0.00    -0.074 A 
ATOM      7  C6  UNL d   1       1.298   0.020   0.279  0.00  0.00     0.077 C 
ATOM      8  C7  UNL d   1       2.538   2.112  -0.352  0.00  0.00    -0.001 A 
ENDROOT
TORSDOF 0
ENDMDL
