MODEL 1
REMARK minimizedAffinity -5.23961735
REMARK minimizedRMSD -1
REMARK  0 active torsions:
REMARK  status: ('A' for Active; 'I' for Inactive)
ROOT
ATOM      1  C   UNL d   1       1.304   0.815   0.892  0.00  0.00     0.077 C 
ATOM      2  C1  UNL d   1       0.107   0.357   0.113  0.00  0.00    -0.074 A 
ATOM      3  C2  UNL d   1      -0.057   0.712  -1.229  0.00  0.00    -0.005 A 
ATOM      4  C3  UNL d   1      -1.171   0.271  -1.943  0.00  0.00     0.006 A 
ATOM      5  C4  UNL d   1      -2.131  -0.530  -1.323  0.00  0.00    -0.005 A 
ATOM      6  C5  UNL d   1      -1.983  -0.897   0.019  0.00  0.00    -0.074 A 
ATOM      7  C6  UNL d   1      -3.000  -1.765   0.698  0.00  0.00     0.077 C 
ATOM      8  C7  UNL d   1      -0.858  -0.455   0.727  0.00  0.00    -0.001 A 
ENDROOT
TORSDOF 0
ENDMDL
