MODEL 1
REMARK minimizedAffinity -5.77654219
REMARK minimizedRMSD -1
REMARK  0 active torsions:
REMARK  status: ('A' for Active; 'I' for Inactive)
ROOT
ATOM      1  C   UNL d   1       0.721   0.855  -0.392  0.00  0.00     0.077 C 
ATOM      2  C1  UNL d   1      -0.609   0.166  -0.317  0.00  0.00    -0.074 A 
ATOM      3  C2  UNL d   1      -1.711   0.651  -1.029  0.00  0.00    -0.005 A 
ATOM      4  C3  UNL d   1      -2.939  -0.006  -0.958  0.00  0.00     0.006 A 
ATOM      5  C4  UNL d   1      -3.078  -1.152  -0.174  0.00  0.00    -0.005 A 
ATOM      6  C5  UNL d   1      -1.988  -1.652   0.544  0.00  0.00    -0.074 A 
ATOM      7  C6  UNL d   1      -2.118  -2.889   1.383  0.00  0.00     0.077 C 
ATOM      8  C7  UNL d   1      -0.755  -0.991   0.461  0.00  0.00    -0.001 A 
ENDROOT
TORSDOF 0
ENDMDL
