MODEL 1
REMARK minimizedAffinity -3.7821219
REMARK minimizedRMSD -1
REMARK  0 active torsions:
REMARK  status: ('A' for Active; 'I' for Inactive)
ROOT
ATOM      1  C   UNL d   1      -3.141  -0.806   0.424  0.00  0.00     0.077 C 
ATOM      2  C1  UNL d   1      -1.759  -0.517  -0.083  0.00  0.00    -0.074 A 
ATOM      3  C2  UNL d   1      -1.502  -0.420  -1.454  0.00  0.00    -0.005 A 
ATOM      4  C3  UNL d   1      -0.214  -0.141  -1.910  0.00  0.00     0.006 A 
ATOM      5  C4  UNL d   1       0.829   0.043  -1.001  0.00  0.00    -0.005 A 
ATOM      6  C5  UNL d   1       0.591  -0.049   0.373  0.00  0.00    -0.074 A 
ATOM      7  C6  UNL d   1       1.698   0.156   1.364  0.00  0.00     0.077 C 
ATOM      8  C7  UNL d   1      -0.708  -0.323   0.824  0.00  0.00    -0.001 A 
ENDROOT
TORSDOF 0
ENDMDL
