MODEL 1
REMARK minimizedAffinity -2.19977307
REMARK minimizedRMSD -1
REMARK  0 active torsions:
REMARK  status: ('A' for Active; 'I' for Inactive)
ROOT
ATOM      1  C   UNL d   1       1.603  -0.853   1.447  0.00  0.00     0.077 C 
ATOM      2  C1  UNL d   1       0.543  -0.501   0.447  0.00  0.00    -0.074 A 
ATOM      3  C2  UNL d   1       0.880   0.047  -0.795  0.00  0.00    -0.005 A 
ATOM      4  C3  UNL d   1      -0.117   0.361  -1.719  0.00  0.00     0.006 A 
ATOM      5  C4  UNL d   1      -1.458   0.131  -1.411  0.00  0.00    -0.005 A 
ATOM      6  C5  UNL d   1      -1.814  -0.417  -0.175  0.00  0.00    -0.074 A 
ATOM      7  C6  UNL d   1      -3.251  -0.681   0.168  0.00  0.00     0.077 C 
ATOM      8  C7  UNL d   1      -0.807  -0.737   0.746  0.00  0.00    -0.001 A 
ENDROOT
TORSDOF 0
ENDMDL
