MODEL 1
REMARK minimizedAffinity -1.4278549
REMARK minimizedRMSD -1
REMARK  0 active torsions:
REMARK  status: ('A' for Active; 'I' for Inactive)
ROOT
ATOM      1  C   UNL d   1       2.500   3.963   0.938  0.00  0.00     0.077 C 
ATOM      2  C1  UNL d   1       2.138   2.511   0.830  0.00  0.00    -0.074 A 
ATOM      3  C2  UNL d   1       2.717   1.561   1.677  0.00  0.00    -0.005 A 
ATOM      4  C3  UNL d   1       2.364   0.216   1.570  0.00  0.00     0.006 A 
ATOM      5  C4  UNL d   1       1.429  -0.192   0.618  0.00  0.00    -0.005 A 
ATOM      6  C5  UNL d   1       0.839   0.744  -0.237  0.00  0.00    -0.074 A 
ATOM      7  C6  UNL d   1      -0.174   0.325  -1.260  0.00  0.00     0.077 C 
ATOM      8  C7  UNL d   1       1.195   2.095  -0.120  0.00  0.00    -0.001 A 
ENDROOT
TORSDOF 0
ENDMDL
