MODEL 1
REMARK minimizedAffinity -4.22634602
REMARK minimizedRMSD -1
REMARK  0 active torsions:
REMARK  status: ('A' for Active; 'I' for Inactive)
ROOT
ATOM      1  C   UNL d   1       1.583  -0.050   0.395  0.00  0.00     0.077 C 
ATOM      2  C1  UNL d   1       0.121  -0.167   0.081  0.00  0.00    -0.074 A 
ATOM      3  C2  UNL d   1      -0.789  -0.609   1.047  0.00  0.00    -0.005 A 
ATOM      4  C3  UNL d   1      -2.147  -0.704   0.743  0.00  0.00     0.006 A 
ATOM      5  C4  UNL d   1      -2.608  -0.359  -0.528  0.00  0.00    -0.005 A 
ATOM      6  C5  UNL d   1      -1.714   0.086  -1.507  0.00  0.00    -0.074 A 
ATOM      7  C6  UNL d   1      -2.194   0.471  -2.874  0.00  0.00     0.077 C 
ATOM      8  C7  UNL d   1      -0.352   0.186  -1.191  0.00  0.00    -0.001 A 
ENDROOT
TORSDOF 0
ENDMDL
