MODEL 1
REMARK minimizedAffinity -4.34480715
REMARK minimizedRMSD -1
REMARK  0 active torsions:
REMARK  status: ('A' for Active; 'I' for Inactive)
ROOT
ATOM      1  C   UNL d   1       2.177   0.935  -0.167  0.00  0.00     0.077 C 
ATOM      2  C1  UNL d   1       1.122   0.074   0.463  0.00  0.00    -0.074 A 
ATOM      3  C2  UNL d   1       1.467  -0.968   1.329  0.00  0.00    -0.005 A 
ATOM      4  C3  UNL d   1       0.475  -1.754   1.915  0.00  0.00     0.006 A 
ATOM      5  C4  UNL d   1      -0.871  -1.506   1.640  0.00  0.00    -0.005 A 
ATOM      6  C5  UNL d   1      -1.235  -0.468   0.777  0.00  0.00    -0.074 A 
ATOM      7  C6  UNL d   1      -2.677  -0.183   0.478  0.00  0.00     0.077 C 
ATOM      8  C7  UNL d   1      -0.232   0.321   0.198  0.00  0.00    -0.001 A 
ENDROOT
TORSDOF 0
ENDMDL
