MODEL 1
REMARK minimizedAffinity -1.40392053
REMARK minimizedRMSD -1
REMARK  0 active torsions:
REMARK  status: ('A' for Active; 'I' for Inactive)
ROOT
ATOM      1  C   UNL d   1       1.687   1.431   0.485  0.00  0.00     0.124 A 
ATOM      2  C1  UNL d   1       2.225   0.152   0.533  0.00  0.00     0.062 A 
ATOM      3  C2  UNL d   1       1.397  -0.948   0.737  0.00  0.00     0.162 A 
ATOM      4  C3  UNL d   1       0.022  -0.776   0.893  0.00  0.00    -0.034 A 
ATOM      5  C4  UNL d   1      -0.512   0.513   0.844  0.00  0.00     0.162 A 
ATOM      6  C5  UNL d   1       0.319   1.610   0.640  0.00  0.00     0.062 A 
ATOM      7  F   UNL d   1      -0.202   2.845   0.594  0.00  0.00    -0.097 F 
ATOM      8  F1  UNL d   1      -1.830   0.715   0.990  0.00  0.00    -0.096 F 
ATOM      9  I   UNL d   1      -1.219  -2.419   1.197  0.00  0.00    -0.060 I 
ATOM     10  F2  UNL d   1       1.945  -2.172   0.779  0.00  0.00    -0.096 F 
ATOM     11  F3  UNL d   1       3.546  -0.024   0.384  0.00  0.00    -0.097 F 
ATOM     12  F4  UNL d   1       2.485   2.488   0.290  0.00  0.00    -0.092 F 
ENDROOT
TORSDOF 0
ENDMDL
