MODEL 1
REMARK minimizedAffinity 3.28097439
REMARK minimizedRMSD -1
REMARK  0 active torsions:
REMARK  status: ('A' for Active; 'I' for Inactive)
ROOT
ATOM      1  C   UNL d   1       1.981  -0.096   1.048  0.00  0.00     0.124 A 
ATOM      2  C1  UNL d   1       1.435   1.175   0.934  0.00  0.00     0.062 A 
ATOM      3  C2  UNL d   1       0.359   1.401   0.080  0.00  0.00     0.162 A 
ATOM      4  C3  UNL d   1      -0.179   0.352  -0.666  0.00  0.00    -0.034 A 
ATOM      5  C4  UNL d   1       0.376  -0.923  -0.547  0.00  0.00     0.162 A 
ATOM      6  C5  UNL d   1       1.451  -1.144   0.308  0.00  0.00     0.062 A 
ATOM      7  F   UNL d   1       1.978  -2.372   0.417  0.00  0.00    -0.097 F 
ATOM      8  F1  UNL d   1      -0.116  -1.954  -1.250  0.00  0.00    -0.096 F 
ATOM      9  I   UNL d   1      -1.787   0.685  -1.945  0.00  0.00    -0.060 I 
ATOM     10  F2  UNL d   1      -0.149   2.639  -0.011  0.00  0.00    -0.096 F 
ATOM     11  F3  UNL d   1       1.945   2.189   1.647  0.00  0.00    -0.097 F 
ATOM     12  F4  UNL d   1       3.016  -0.310   1.870  0.00  0.00    -0.092 F 
ENDROOT
TORSDOF 0
ENDMDL
