MODEL 1
REMARK minimizedAffinity -4.89015198
REMARK minimizedRMSD -1
REMARK  0 active torsions:
REMARK  status: ('A' for Active; 'I' for Inactive)
ROOT
ATOM      1  C   UNL d   1       2.395  -1.526   2.137  0.00  0.00     0.124 A 
ATOM      2  C1  UNL d   1       2.663  -0.728   1.034  0.00  0.00     0.062 A 
ATOM      3  C2  UNL d   1       1.634  -0.355   0.173  0.00  0.00     0.162 A 
ATOM      4  C3  UNL d   1       0.327  -0.779   0.413  0.00  0.00    -0.034 A 
ATOM      5  C4  UNL d   1       0.066  -1.583   1.524  0.00  0.00     0.162 A 
ATOM      6  C5  UNL d   1       1.097  -1.953   2.381  0.00  0.00     0.062 A 
ATOM      7  F   UNL d   1       0.836  -2.725   3.446  0.00  0.00    -0.097 F 
ATOM      8  F1  UNL d   1      -1.179  -2.009   1.784  0.00  0.00    -0.096 F 
ATOM      9  I   UNL d   1      -1.213  -0.224  -0.871  0.00  0.00    -0.060 I 
ATOM     10  F2  UNL d   1       1.922   0.418  -0.885  0.00  0.00    -0.096 F 
ATOM     11  F3  UNL d   1       3.916  -0.315   0.795  0.00  0.00    -0.097 F 
ATOM     12  F4  UNL d   1       3.386  -1.885   2.963  0.00  0.00    -0.092 F 
ENDROOT
TORSDOF 0
ENDMDL
