MODEL 1
REMARK minimizedAffinity -2.68078041
REMARK minimizedRMSD -1
REMARK  0 active torsions:
REMARK  status: ('A' for Active; 'I' for Inactive)
ROOT
ATOM      1  C   UNL d   1      -0.772   1.078  -0.320  0.00  0.00     0.124 A 
ATOM      2  C1  UNL d   1      -0.742  -0.295  -0.119  0.00  0.00     0.062 A 
ATOM      3  C2  UNL d   1       0.398  -0.902   0.401  0.00  0.00     0.162 A 
ATOM      4  C3  UNL d   1       1.517  -0.135   0.724  0.00  0.00    -0.034 A 
ATOM      5  C4  UNL d   1       1.480   1.245   0.519  0.00  0.00     0.162 A 
ATOM      6  C5  UNL d   1       0.339   1.847  -0.001  0.00  0.00     0.062 A 
ATOM      7  F   UNL d   1       0.312   3.173  -0.195  0.00  0.00    -0.097 F 
ATOM      8  F1  UNL d   1       2.539   2.011   0.819  0.00  0.00    -0.096 F 
ATOM      9  I   UNL d   1       3.223  -1.039   1.502  0.00  0.00    -0.060 I 
ATOM     10  F2  UNL d   1       0.398  -2.230   0.584  0.00  0.00    -0.096 F 
ATOM     11  F3  UNL d   1      -1.813  -1.040  -0.428  0.00  0.00    -0.097 F 
ATOM     12  F4  UNL d   1      -1.869   1.659  -0.822  0.00  0.00    -0.092 F 
ENDROOT
TORSDOF 0
ENDMDL
