MODEL 1
REMARK minimizedAffinity -4.60836506
REMARK minimizedRMSD -1
REMARK  0 active torsions:
REMARK  status: ('A' for Active; 'I' for Inactive)
ROOT
ATOM      1  C   UNL d   1       2.424  -1.090   1.364  0.00  0.00     0.124 A 
ATOM      2  C1  UNL d   1       1.249  -1.773   1.646  0.00  0.00     0.062 A 
ATOM      3  C2  UNL d   1       0.043  -1.352   1.093  0.00  0.00     0.162 A 
ATOM      4  C3  UNL d   1       0.006  -0.241   0.251  0.00  0.00    -0.034 A 
ATOM      5  C4  UNL d   1       1.191   0.442  -0.028  0.00  0.00     0.162 A 
ATOM      6  C5  UNL d   1       2.394   0.017   0.527  0.00  0.00     0.062 A 
ATOM      7  F   UNL d   1       3.527   0.678   0.253  0.00  0.00    -0.097 F 
ATOM      8  F1  UNL d   1       1.191   1.515  -0.833  0.00  0.00    -0.096 F 
ATOM      9  I   UNL d   1      -1.795   0.393  -0.578  0.00  0.00    -0.060 I 
ATOM     10  F2  UNL d   1      -1.076  -2.031   1.384  0.00  0.00    -0.096 F 
ATOM     11  F3  UNL d   1       1.275  -2.843   2.455  0.00  0.00    -0.097 F 
ATOM     12  F4  UNL d   1       3.582  -1.497   1.898  0.00  0.00    -0.092 F 
ENDROOT
TORSDOF 0
ENDMDL
