MODEL 1
REMARK minimizedAffinity -4.28654146
REMARK minimizedRMSD -1
REMARK  0 active torsions:
REMARK  status: ('A' for Active; 'I' for Inactive)
ROOT
ATOM      1  C   UNL d   1       0.889  -2.304   1.781  0.00  0.00     0.124 A 
ATOM      2  C1  UNL d   1      -0.347  -1.810   1.388  0.00  0.00     0.062 A 
ATOM      3  C2  UNL d   1      -0.436  -0.581   0.741  0.00  0.00     0.162 A 
ATOM      4  C3  UNL d   1       0.716   0.163   0.481  0.00  0.00    -0.034 A 
ATOM      5  C4  UNL d   1       1.955  -0.341   0.880  0.00  0.00     0.162 A 
ATOM      6  C5  UNL d   1       2.039  -1.570   1.526  0.00  0.00     0.062 A 
ATOM      7  F   UNL d   1       3.234  -2.046   1.904  0.00  0.00    -0.097 F 
ATOM      8  F1  UNL d   1       3.082   0.347   0.645  0.00  0.00    -0.096 F 
ATOM      9  I   UNL d   1       0.587   2.001  -0.486  0.00  0.00    -0.060 I 
ATOM     10  F2  UNL d   1      -1.643  -0.127   0.374  0.00  0.00    -0.096 F 
ATOM     11  F3  UNL d   1      -1.459  -2.517   1.634  0.00  0.00    -0.097 F 
ATOM     12  F4  UNL d   1       0.972  -3.487   2.404  0.00  0.00    -0.092 F 
ENDROOT
TORSDOF 0
ENDMDL
