MODEL 1
REMARK minimizedAffinity -0.840196669
REMARK minimizedRMSD -1
REMARK  0 active torsions:
REMARK  status: ('A' for Active; 'I' for Inactive)
ROOT
ATOM      1  C   UNL d   1       2.530  -0.225   0.881  0.00  0.00     0.124 A 
ATOM      2  C1  UNL d   1       2.316   1.029   0.325  0.00  0.00     0.062 A 
ATOM      3  C2  UNL d   1       1.121   1.309  -0.331  0.00  0.00     0.162 A 
ATOM      4  C3  UNL d   1       0.129   0.334  -0.433  0.00  0.00    -0.034 A 
ATOM      5  C4  UNL d   1       0.352  -0.925   0.128  0.00  0.00     0.162 A 
ATOM      6  C5  UNL d   1       1.548  -1.200   0.782  0.00  0.00     0.062 A 
ATOM      7  F   UNL d   1       1.753  -2.412   1.319  0.00  0.00    -0.097 F 
ATOM      8  F1  UNL d   1      -0.581  -1.886   0.047  0.00  0.00    -0.096 F 
ATOM      9  I   UNL d   1      -1.659   0.749  -1.413  0.00  0.00    -0.060 I 
ATOM     10  F2  UNL d   1       0.942   2.529  -0.859  0.00  0.00    -0.096 F 
ATOM     11  F3  UNL d   1       3.264   1.973   0.419  0.00  0.00    -0.097 F 
ATOM     12  F4  UNL d   1       3.681  -0.492   1.511  0.00  0.00    -0.092 F 
ENDROOT
TORSDOF 0
ENDMDL
