MODEL 1
REMARK minimizedAffinity 3.5685885
REMARK minimizedRMSD -1
REMARK  0 active torsions:
REMARK  status: ('A' for Active; 'I' for Inactive)
ROOT
ATOM      1  C   UNL d   1       2.360   0.011   4.142  0.00  0.00     0.124 A 
ATOM      2  C1  UNL d   1       1.355  -0.795   3.624  0.00  0.00     0.062 A 
ATOM      3  C2  UNL d   1       0.733  -0.454   2.426  0.00  0.00     0.162 A 
ATOM      4  C3  UNL d   1       1.114   0.697   1.738  0.00  0.00    -0.034 A 
ATOM      5  C4  UNL d   1       2.124   1.503   2.266  0.00  0.00     0.162 A 
ATOM      6  C5  UNL d   1       2.743   1.159   3.463  0.00  0.00     0.062 A 
ATOM      7  F   UNL d   1       3.713   1.938   3.962  0.00  0.00    -0.097 F 
ATOM      8  F1  UNL d   1       2.515   2.618   1.630  0.00  0.00    -0.096 F 
ATOM      9  I   UNL d   1       0.185   1.210  -0.053  0.00  0.00    -0.060 I 
ATOM     10  F2  UNL d   1      -0.235  -1.251   1.949  0.00  0.00    -0.096 F 
ATOM     11  F3  UNL d   1       0.982  -1.904   4.279  0.00  0.00    -0.097 F 
ATOM     12  F4  UNL d   1       2.956  -0.319   5.295  0.00  0.00    -0.092 F 
ENDROOT
TORSDOF 0
ENDMDL
