MODEL 1
REMARK minimizedAffinity 5.46342325
REMARK minimizedRMSD -1
REMARK  0 active torsions:
REMARK  status: ('A' for Active; 'I' for Inactive)
ROOT
ATOM      1  C   UNL d   1      -2.059  -0.162  -2.297  0.00  0.00     0.124 A 
ATOM      2  C1  UNL d   1      -2.167   0.854  -1.357  0.00  0.00     0.062 A 
ATOM      3  C2  UNL d   1      -1.370   0.839  -0.216  0.00  0.00     0.162 A 
ATOM      4  C3  UNL d   1      -0.457  -0.195  -0.009  0.00  0.00    -0.034 A 
ATOM      5  C4  UNL d   1      -0.355  -1.213  -0.959  0.00  0.00     0.162 A 
ATOM      6  C5  UNL d   1      -1.154  -1.194  -2.097  0.00  0.00     0.062 A 
ATOM      7  F   UNL d   1      -1.049  -2.176  -3.004  0.00  0.00    -0.097 F 
ATOM      8  F1  UNL d   1       0.512  -2.223  -0.791  0.00  0.00    -0.096 F 
ATOM      9  I   UNL d   1       0.737  -0.221   1.695  0.00  0.00    -0.060 I 
ATOM     10  F2  UNL d   1      -1.495   1.833   0.675  0.00  0.00    -0.096 F 
ATOM     11  F3  UNL d   1      -3.042   1.852  -1.548  0.00  0.00    -0.097 F 
ATOM     12  F4  UNL d   1      -2.828  -0.145  -3.394  0.00  0.00    -0.092 F 
ENDROOT
TORSDOF 0
ENDMDL
