MODEL 1
REMARK minimizedAffinity -3.78341699
REMARK minimizedRMSD -1
REMARK  0 active torsions:
REMARK  status: ('A' for Active; 'I' for Inactive)
ROOT
ATOM      1  C   UNL d   1       2.478  -0.186   1.138  0.00  0.00     0.124 A 
ATOM      2  C1  UNL d   1       1.941   1.073   0.905  0.00  0.00     0.062 A 
ATOM      3  C2  UNL d   1       0.625   1.202   0.469  0.00  0.00     0.162 A 
ATOM      4  C3  UNL d   1      -0.163   0.069   0.264  0.00  0.00    -0.034 A 
ATOM      5  C4  UNL d   1       0.385  -1.193   0.501  0.00  0.00     0.162 A 
ATOM      6  C5  UNL d   1       1.700  -1.317   0.936  0.00  0.00     0.062 A 
ATOM      7  F   UNL d   1       2.218  -2.533   1.162  0.00  0.00    -0.097 F 
ATOM      8  F1  UNL d   1      -0.345  -2.303   0.314  0.00  0.00    -0.096 F 
ATOM      9  I   UNL d   1      -2.131   0.258  -0.388  0.00  0.00    -0.060 I 
ATOM     10  F2  UNL d   1       0.132   2.430   0.251  0.00  0.00    -0.096 F 
ATOM     11  F3  UNL d   1       2.691   2.167   1.098  0.00  0.00    -0.097 F 
ATOM     12  F4  UNL d   1       3.744  -0.307   1.557  0.00  0.00    -0.092 F 
ENDROOT
TORSDOF 0
ENDMDL
