MODEL 1
REMARK minimizedAffinity -0.53196156
REMARK minimizedRMSD -1
REMARK  0 active torsions:
REMARK  status: ('A' for Active; 'I' for Inactive)
ROOT
ATOM      1  C2' OXE d   1      -1.859   1.555  -3.483  0.00  0.00     0.078 C 
ATOM      2  C1' OXE d   1      -4.315   0.204  -3.636  0.00  0.00     0.078 C 
ATOM      3  C1  OXE d   1      -4.345   1.707  -3.507  0.00  0.00    -0.078 A 
ATOM      4  C2  OXE d   1      -3.140   2.355  -3.386  0.00  0.00    -0.078 A 
ATOM      5  C3  OXE d   1      -3.109   3.745  -3.319  0.00  0.00     0.003 A 
ATOM      6  C4  OXE d   1      -4.298   4.477  -3.219  0.00  0.00    -0.002 A 
ATOM      7  C5  OXE d   1      -5.537   3.833  -3.301  0.00  0.00    -0.002 A 
ATOM      8  C6  OXE d   1      -5.578   2.455  -3.487  0.00  0.00     0.003 A 
ENDROOT
TORSDOF 0
ENDMDL
