MODEL 1
REMARK minimizedAffinity 2.99335313
REMARK minimizedRMSD -1
REMARK  0 active torsions:
REMARK  status: ('A' for Active; 'I' for Inactive)
ROOT
ATOM      1  C2' OXE d   1       0.737  -5.791  -1.220  0.00  0.00     0.078 C 
ATOM      2  C1' OXE d   1       1.083  -3.048  -1.703  0.00  0.00     0.078 C 
ATOM      3  C1  OXE d   1       1.960  -3.694  -0.660  0.00  0.00    -0.078 A 
ATOM      4  C2  OXE d   1       1.753  -5.027  -0.397  0.00  0.00    -0.078 A 
ATOM      5  C3  OXE d   1       2.571  -5.685   0.515  0.00  0.00     0.003 A 
ATOM      6  C4  OXE d   1       3.501  -4.969   1.279  0.00  0.00    -0.002 A 
ATOM      7  C5  OXE d   1       3.702  -3.603   1.055  0.00  0.00    -0.002 A 
ATOM      8  C6  OXE d   1       2.971  -2.961   0.061  0.00  0.00     0.003 A 
ENDROOT
TORSDOF 0
ENDMDL
