MODEL 1
REMARK minimizedAffinity 10.134285
REMARK minimizedRMSD -1
REMARK  0 active torsions:
REMARK  status: ('A' for Active; 'I' for Inactive)
ROOT
ATOM      1  C2' OXE d   1       0.967  -6.000   0.113  0.00  0.00     0.078 C 
ATOM      2  C1' OXE d   1       0.864  -3.221  -0.277  0.00  0.00     0.078 C 
ATOM      3  C1  OXE d   1       1.890  -3.759   0.690  0.00  0.00    -0.078 A 
ATOM      4  C2  OXE d   1       1.902  -5.115   0.910  0.00  0.00    -0.078 A 
ATOM      5  C3  OXE d   1       2.864  -5.669   1.749  0.00  0.00     0.003 A 
ATOM      6  C4  OXE d   1       3.719  -4.843   2.490  0.00  0.00    -0.002 A 
ATOM      7  C5  OXE d   1       3.696  -3.456   2.311  0.00  0.00    -0.002 A 
ATOM      8  C6  OXE d   1       2.819  -2.902   1.385  0.00  0.00     0.003 A 
ENDROOT
TORSDOF 0
ENDMDL
