MODEL 1
REMARK minimizedAffinity 5.63752842
REMARK minimizedRMSD -1
REMARK  0 active torsions:
REMARK  status: ('A' for Active; 'I' for Inactive)
ROOT
ATOM      1  C2' OXE d   1       3.013  -1.949  -4.398  0.00  0.00     0.078 C 
ATOM      2  C1' OXE d   1       5.279  -2.371  -6.000  0.00  0.00     0.078 C 
ATOM      3  C1  OXE d   1       4.578  -3.583  -5.440  0.00  0.00    -0.078 A 
ATOM      4  C2  OXE d   1       3.498  -3.365  -4.619  0.00  0.00    -0.078 A 
ATOM      5  C3  OXE d   1       2.782  -4.450  -4.120  0.00  0.00     0.003 A 
ATOM      6  C4  OXE d   1       3.243  -5.756  -4.320  0.00  0.00    -0.002 A 
ATOM      7  C5  OXE d   1       4.365  -5.998  -5.120  0.00  0.00    -0.002 A 
ATOM      8  C6  OXE d   1       5.017  -4.927  -5.721  0.00  0.00     0.003 A 
ENDROOT
TORSDOF 0
ENDMDL
