MODEL 1
REMARK minimizedAffinity 8.67090702
REMARK minimizedRMSD -1
REMARK  0 active torsions:
REMARK  status: ('A' for Active; 'I' for Inactive)
ROOT
ATOM      1  C2' OXE d   1       3.384  -5.856  -3.995  0.00  0.00     0.078 C 
ATOM      2  C1' OXE d   1       5.938  -5.988  -5.152  0.00  0.00     0.078 C 
ATOM      3  C1  OXE d   1       5.223  -4.660  -5.174  0.00  0.00    -0.078 A 
ATOM      4  C2  OXE d   1       3.955  -4.616  -4.647  0.00  0.00    -0.078 A 
ATOM      5  C3  OXE d   1       3.273  -3.403  -4.592  0.00  0.00     0.003 A 
ATOM      6  C4  OXE d   1       3.805  -2.263  -5.206  0.00  0.00    -0.002 A 
ATOM      7  C5  OXE d   1       5.078  -2.296  -5.784  0.00  0.00    -0.002 A 
ATOM      8  C6  OXE d   1       5.817  -3.473  -5.738  0.00  0.00     0.003 A 
ENDROOT
TORSDOF 0
ENDMDL
