MODEL 1
REMARK minimizedAffinity 9.20521069
REMARK minimizedRMSD -1
REMARK  0 active torsions:
REMARK  status: ('A' for Active; 'I' for Inactive)
ROOT
ATOM      1  C2' OXE d   1      -1.874   0.556  -2.275  0.00  0.00     0.078 C 
ATOM      2  C1' OXE d   1      -1.104   2.369  -0.274  0.00  0.00     0.078 C 
ATOM      3  C1  OXE d   1      -0.872   0.900  -0.020  0.00  0.00    -0.078 A 
ATOM      4  C2  OXE d   1      -1.295   0.017  -0.985  0.00  0.00    -0.078 A 
ATOM      5  C3  OXE d   1      -1.056  -1.345  -0.825  0.00  0.00     0.003 A 
ATOM      6  C4  OXE d   1      -0.529  -1.836   0.376  0.00  0.00    -0.002 A 
ATOM      7  C5  OXE d   1      -0.129  -0.957   1.388  0.00  0.00    -0.002 A 
ATOM      8  C6  OXE d   1      -0.254   0.414   1.188  0.00  0.00     0.003 A 
ENDROOT
TORSDOF 0
ENDMDL
