MODEL 1
REMARK minimizedAffinity 4.12609339
REMARK minimizedRMSD -1
REMARK  0 active torsions:
REMARK  status: ('A' for Active; 'I' for Inactive)
ROOT
ATOM      1  C2' OXE d   1       2.959  -2.642  -4.187  0.00  0.00     0.078 C 
ATOM      2  C1' OXE d   1       4.992  -1.959  -5.999  0.00  0.00     0.078 C 
ATOM      3  C1  OXE d   1       4.919  -3.391  -5.531  0.00  0.00    -0.078 A 
ATOM      4  C2  OXE d   1       3.950  -3.706  -4.608  0.00  0.00    -0.078 A 
ATOM      5  C3  OXE d   1       3.804  -5.024  -4.185  0.00  0.00     0.003 A 
ATOM      6  C4  OXE d   1       4.731  -5.999  -4.571  0.00  0.00    -0.002 A 
ATOM      7  C5  OXE d   1       5.749  -5.691  -5.479  0.00  0.00    -0.002 A 
ATOM      8  C6  OXE d   1       5.831  -4.404  -6.000  0.00  0.00     0.003 A 
ENDROOT
TORSDOF 0
ENDMDL
