MODEL 1
REMARK minimizedAffinity 11.8972206
REMARK minimizedRMSD -1
REMARK  0 active torsions:
REMARK  status: ('A' for Active; 'I' for Inactive)
ROOT
ATOM      1  C2' OXE d   1      -4.448   4.300  -3.109  0.00  0.00     0.078 C 
ATOM      2  C1' OXE d   1      -4.645   2.644  -5.367  0.00  0.00     0.078 C 
ATOM      3  C1  OXE d   1      -3.972   2.082  -4.139  0.00  0.00    -0.078 A 
ATOM      4  C2  OXE d   1      -3.839   2.915  -3.055  0.00  0.00    -0.078 A 
ATOM      5  C3  OXE d   1      -3.276   2.430  -1.878  0.00  0.00     0.003 A 
ATOM      6  C4  OXE d   1      -2.706   1.151  -1.839  0.00  0.00    -0.002 A 
ATOM      7  C5  OXE d   1      -2.796   0.301  -2.946  0.00  0.00    -0.002 A 
ATOM      8  C6  OXE d   1      -3.462   0.734  -4.087  0.00  0.00     0.003 A 
ENDROOT
TORSDOF 0
ENDMDL
