MODEL 1
REMARK minimizedAffinity 1.77304852
REMARK minimizedRMSD -1
REMARK  0 active torsions:
REMARK  status: ('A' for Active; 'I' for Inactive)
ROOT
ATOM      1  C2' OXE d   1       0.312  -5.876  -1.138  0.00  0.00     0.078 C 
ATOM      2  C1' OXE d   1       0.675  -3.123  -1.546  0.00  0.00     0.078 C 
ATOM      3  C1  OXE d   1      -0.474  -3.559  -0.672  0.00  0.00    -0.078 A 
ATOM      4  C2  OXE d   1      -0.672  -4.910  -0.516  0.00  0.00    -0.078 A 
ATOM      5  C3  OXE d   1      -1.684  -5.365   0.324  0.00  0.00     0.003 A 
ATOM      6  C4  OXE d   1      -2.596  -4.465   0.888  0.00  0.00    -0.002 A 
ATOM      7  C5  OXE d   1      -2.436  -3.087   0.709  0.00  0.00    -0.002 A 
ATOM      8  C6  OXE d   1      -1.358  -2.617  -0.032  0.00  0.00     0.003 A 
ENDROOT
TORSDOF 0
ENDMDL
