MODEL 1
REMARK minimizedAffinity 0.728658974
REMARK minimizedRMSD -1
REMARK  0 active torsions:
REMARK  status: ('A' for Active; 'I' for Inactive)
ROOT
ATOM      1  C2' OXE d   1       5.385   3.150  -4.315  0.00  0.00     0.078 C 
ATOM      2  C1' OXE d   1       2.844   3.091  -3.123  0.00  0.00     0.078 C 
ATOM      3  C1  OXE d   1       3.821   4.136  -2.646  0.00  0.00    -0.078 A 
ATOM      4  C2  OXE d   1       5.077   4.128  -3.202  0.00  0.00    -0.078 A 
ATOM      5  C3  OXE d   1       5.999   5.105  -2.837  0.00  0.00     0.003 A 
ATOM      6  C4  OXE d   1       5.710   6.000  -1.800  0.00  0.00    -0.002 A 
ATOM      7  C5  OXE d   1       4.450   6.000  -1.192  0.00  0.00    -0.002 A 
ATOM      8  C6  OXE d   1       3.482   5.104  -1.632  0.00  0.00     0.003 A 
ENDROOT
TORSDOF 0
ENDMDL
