MODEL 1
REMARK minimizedAffinity 1.46679854
REMARK minimizedRMSD -1
REMARK  0 active torsions:
REMARK  status: ('A' for Active; 'I' for Inactive)
ROOT
ATOM      1  C2' OXE d   1       5.981  -1.965  -3.194  0.00  0.00     0.078 C 
ATOM      2  C1' OXE d   1       5.873  -1.977  -5.999  0.00  0.00     0.078 C 
ATOM      3  C1  OXE d   1       5.896  -3.308  -5.290  0.00  0.00    -0.078 A 
ATOM      4  C2  OXE d   1       5.996  -3.293  -3.920  0.00  0.00    -0.078 A 
ATOM      5  C3  OXE d   1       5.966  -4.492  -3.213  0.00  0.00     0.003 A 
ATOM      6  C4  OXE d   1       5.990  -5.716  -3.892  0.00  0.00    -0.002 A 
ATOM      7  C5  OXE d   1       5.928  -5.754  -5.289  0.00  0.00    -0.002 A 
ATOM      8  C6  OXE d   1       5.838  -4.562  -6.000  0.00  0.00     0.003 A 
ENDROOT
TORSDOF 0
ENDMDL
