MODEL 1
REMARK minimizedAffinity -2.83689547
REMARK minimizedRMSD -1
REMARK  1 active torsions:
REMARK  status: ('A' for Active; 'I' for Inactive)
REMARK    1  A    between atoms: N_2  and  C1_3 
ROOT
ATOM      1  C1  UNL d   1       0.313   0.170  -0.162  0.00  0.00     0.143 A 
ATOM      2  C2  UNL d   1      -0.483   1.277  -0.475  0.00  0.00    -0.057 A 
ATOM      3  C3  UNL d   1      -1.343   1.844   0.474  0.00  0.00     0.033 A 
ATOM      4  C4  UNL d   1      -1.443   1.294   1.747  0.00  0.00    -0.042 A 
ATOM      5  C5  UNL d   1      -0.680   0.178   2.073  0.00  0.00     0.033 A 
ATOM      6  C6  UNL d   1       0.182  -0.379   1.123  0.00  0.00    -0.057 A 
ENDROOT
BRANCH   1   7
ATOM      7  N   UNL d   1       1.114  -0.499  -1.090  0.00  0.00    -0.732 N 
ATOM      8  C   UNL d   1       1.119  -1.945  -1.153  0.00  0.00     0.284 C 
ATOM      9  H3  UNL d   1       1.118  -0.044  -2.000  0.00  0.00     0.395 HD
ENDBRANCH   1   7
TORSDOF 1
ENDMDL
