MODEL 1
REMARK minimizedAffinity -1.73447907
REMARK minimizedRMSD -1
REMARK  1 active torsions:
REMARK  status: ('A' for Active; 'I' for Inactive)
REMARK    1  A    between atoms: N_2  and  C1_3 
ROOT
ATOM      1  C1  UNL d   1      -0.416   0.543   0.505  0.00  0.00     0.143 A 
ATOM      2  C2  UNL d   1      -0.166   1.541  -0.443  0.00  0.00    -0.057 A 
ATOM      3  C3  UNL d   1       0.801   1.369  -1.441  0.00  0.00     0.033 A 
ATOM      4  C4  UNL d   1       1.558   0.204  -1.490  0.00  0.00    -0.042 A 
ATOM      5  C5  UNL d   1       1.345  -0.791  -0.543  0.00  0.00     0.033 A 
ATOM      6  C6  UNL d   1       0.374  -0.616   0.447  0.00  0.00    -0.057 A 
ENDROOT
BRANCH   1   7
ATOM      7  N   UNL d   1      -1.294   0.694   1.581  0.00  0.00    -0.732 N 
ATOM      8  C   UNL d   1      -2.005   1.938   1.783  0.00  0.00     0.284 C 
ATOM      9  H3  UNL d   1      -1.858  -0.137   1.742  0.00  0.00     0.395 HD
ENDBRANCH   1   7
TORSDOF 1
ENDMDL
