MODEL 1
REMARK minimizedAffinity -2.39615631
REMARK minimizedRMSD -1
REMARK  1 active torsions:
REMARK  status: ('A' for Active; 'I' for Inactive)
REMARK    1  A    between atoms: N_2  and  C1_3 
ROOT
ATOM      1  C1  UNL d   1      -0.123  -0.135  -0.244  0.00  0.00     0.143 A 
ATOM      2  C2  UNL d   1      -0.175   0.136   1.128  0.00  0.00    -0.057 A 
ATOM      3  C3  UNL d   1      -1.088   1.060   1.651  0.00  0.00     0.033 A 
ATOM      4  C4  UNL d   1      -1.947   1.753   0.806  0.00  0.00    -0.042 A 
ATOM      5  C5  UNL d   1      -1.896   1.518  -0.564  0.00  0.00     0.033 A 
ATOM      6  C6  UNL d   1      -0.987   0.590  -1.080  0.00  0.00    -0.057 A 
ENDROOT
BRANCH   1   7
ATOM      7  N   UNL d   1       0.828  -0.969  -0.837  0.00  0.00    -0.732 N 
ATOM      8  C   UNL d   1       0.419  -2.052  -1.706  0.00  0.00     0.284 C 
ATOM      9  H3  UNL d   1       1.643  -0.456  -1.166  0.00  0.00     0.395 HD
ENDBRANCH   1   7
TORSDOF 1
ENDMDL
