MODEL 1
REMARK minimizedAffinity -3.6275115
REMARK minimizedRMSD -1
REMARK  1 active torsions:
REMARK  status: ('A' for Active; 'I' for Inactive)
REMARK    1  A    between atoms: N_2  and  C1_3 
ROOT
ATOM      1  C1  UNL d   1      -0.233   0.500   0.217  0.00  0.00     0.143 A 
ATOM      2  C2  UNL d   1      -0.128   0.531   1.612  0.00  0.00    -0.057 A 
ATOM      3  C3  UNL d   1      -0.857   1.450   2.375  0.00  0.00     0.033 A 
ATOM      4  C4  UNL d   1      -1.685   2.378   1.752  0.00  0.00    -0.042 A 
ATOM      5  C5  UNL d   1      -1.786   2.383   0.365  0.00  0.00     0.033 A 
ATOM      6  C6  UNL d   1      -1.060   1.457  -0.391  0.00  0.00    -0.057 A 
ENDROOT
BRANCH   1   7
ATOM      7  N   UNL d   1       0.541  -0.325  -0.603  0.00  0.00    -0.732 N 
ATOM      8  C   UNL d   1       1.978  -0.385  -0.443  0.00  0.00     0.284 C 
ATOM      9  H3  UNL d   1       0.103  -1.228  -0.770  0.00  0.00     0.395 HD
ENDBRANCH   1   7
TORSDOF 1
ENDMDL
