MODEL 1
REMARK minimizedAffinity 0.385236889
REMARK minimizedRMSD -1
REMARK  1 active torsions:
REMARK  status: ('A' for Active; 'I' for Inactive)
REMARK    1  A    between atoms: N_2  and  C1_3 
ROOT
ATOM      1  C1  UNL d   1      -0.046  -0.103  -0.053  0.00  0.00     0.143 A 
ATOM      2  C2  UNL d   1      -1.005   0.903   0.098  0.00  0.00    -0.057 A 
ATOM      3  C3  UNL d   1      -0.929   2.095  -0.633  0.00  0.00     0.033 A 
ATOM      4  C4  UNL d   1       0.128   2.313  -1.510  0.00  0.00    -0.042 A 
ATOM      5  C5  UNL d   1       1.107   1.337  -1.658  0.00  0.00     0.033 A 
ATOM      6  C6  UNL d   1       1.022   0.147  -0.930  0.00  0.00    -0.057 A 
ENDROOT
BRANCH   1   7
ATOM      7  N   UNL d   1      -0.012  -1.268   0.717  0.00  0.00    -0.732 N 
ATOM      8  C   UNL d   1       0.366  -1.218   2.113  0.00  0.00     0.284 C 
ATOM      9  H3  UNL d   1      -0.796  -1.886   0.521  0.00  0.00     0.395 HD
ENDBRANCH   1   7
TORSDOF 1
ENDMDL
