MODEL 1
REMARK minimizedAffinity -4.69928265
REMARK minimizedRMSD -1
REMARK  1 active torsions:
REMARK  status: ('A' for Active; 'I' for Inactive)
REMARK    1  A    between atoms: N_2  and  C1_3 
ROOT
ATOM      1  C1  UNL d   1       0.305  -0.036   0.124  0.00  0.00     0.143 A 
ATOM      2  C2  UNL d   1      -0.838   0.546  -0.434  0.00  0.00    -0.057 A 
ATOM      3  C3  UNL d   1      -1.855   1.070   0.374  0.00  0.00     0.033 A 
ATOM      4  C4  UNL d   1      -1.758   0.995   1.760  0.00  0.00    -0.042 A 
ATOM      5  C5  UNL d   1      -0.642   0.399   2.336  0.00  0.00     0.033 A 
ATOM      6  C6  UNL d   1       0.373  -0.117   1.523  0.00  0.00    -0.057 A 
ENDROOT
BRANCH   1   7
ATOM      7  N   UNL d   1       1.304  -0.663  -0.626  0.00  0.00    -0.732 N 
ATOM      8  C   UNL d   1       0.983  -1.771  -1.499  0.00  0.00     0.284 C 
ATOM      9  H3  UNL d   1       1.966   0.000  -1.022  0.00  0.00     0.395 HD
ENDBRANCH   1   7
TORSDOF 1
ENDMDL
