MODEL 1
REMARK minimizedAffinity -2.57628751
REMARK minimizedRMSD -1
REMARK  1 active torsions:
REMARK  status: ('A' for Active; 'I' for Inactive)
REMARK    1  A    between atoms: N_2  and  C1_3 
ROOT
ATOM      1  C1  UNL d   1       0.067   0.224  -0.080  0.00  0.00     0.143 A 
ATOM      2  C2  UNL d   1      -1.125   0.770   0.410  0.00  0.00    -0.057 A 
ATOM      3  C3  UNL d   1      -1.647   1.959  -0.112  0.00  0.00     0.033 A 
ATOM      4  C4  UNL d   1      -0.970   2.641  -1.117  0.00  0.00    -0.042 A 
ATOM      5  C5  UNL d   1       0.229   2.131  -1.603  0.00  0.00     0.033 A 
ATOM      6  C6  UNL d   1       0.742   0.939  -1.082  0.00  0.00    -0.057 A 
ENDROOT
BRANCH   1   7
ATOM      7  N   UNL d   1       0.688  -0.902   0.464  0.00  0.00    -0.732 N 
ATOM      8  C   UNL d   1       0.571  -1.199   1.876  0.00  0.00     0.284 C 
ATOM      9  H3  UNL d   1       0.613  -1.718  -0.140  0.00  0.00     0.395 HD
ENDBRANCH   1   7
TORSDOF 1
ENDMDL
