MODEL 1
REMARK minimizedAffinity -4.08994341
REMARK minimizedRMSD -1
REMARK  1 active torsions:
REMARK  status: ('A' for Active; 'I' for Inactive)
REMARK    1  A    between atoms: N_2  and  C1_3 
ROOT
ATOM      1  C1  UNL d   1       0.099  -0.116  -0.469  0.00  0.00     0.143 A 
ATOM      2  C2  UNL d   1      -0.089   0.989  -1.305  0.00  0.00    -0.057 A 
ATOM      3  C3  UNL d   1      -0.884   2.072  -0.910  0.00  0.00     0.033 A 
ATOM      4  C4  UNL d   1      -1.530   2.055   0.322  0.00  0.00    -0.042 A 
ATOM      5  C5  UNL d   1      -1.377   0.955   1.159  0.00  0.00     0.033 A 
ATOM      6  C6  UNL d   1      -0.577  -0.120   0.761  0.00  0.00    -0.057 A 
ENDROOT
BRANCH   1   7
ATOM      7  N   UNL d   1       0.798  -1.266  -0.845  0.00  0.00    -0.732 N 
ATOM      8  C   UNL d   1       0.303  -2.114  -1.909  0.00  0.00     0.284 C 
ATOM      9  H3  UNL d   1       1.804  -1.121  -0.863  0.00  0.00     0.395 HD
ENDBRANCH   1   7
TORSDOF 1
ENDMDL
