MODEL 1
REMARK minimizedAffinity -1.32239342
REMARK minimizedRMSD -1
REMARK  1 active torsions:
REMARK  status: ('A' for Active; 'I' for Inactive)
REMARK    1  A    between atoms: N_2  and  C1_3 
ROOT
ATOM      1  C1  UNL d   1      -0.394   0.489  -0.279  0.00  0.00     0.143 A 
ATOM      2  C2  UNL d   1       0.239  -0.068  -1.395  0.00  0.00    -0.057 A 
ATOM      3  C3  UNL d   1       1.060  -1.196  -1.277  0.00  0.00     0.033 A 
ATOM      4  C4  UNL d   1       1.288  -1.770  -0.031  0.00  0.00    -0.042 A 
ATOM      5  C5  UNL d   1       0.690  -1.219   1.096  0.00  0.00     0.033 A 
ATOM      6  C6  UNL d   1      -0.135  -0.097   0.971  0.00  0.00    -0.057 A 
ENDROOT
BRANCH   1   7
ATOM      7  N   UNL d   1      -1.143   1.667  -0.316  0.00  0.00    -0.732 N 
ATOM      8  C   UNL d   1      -1.888   2.105   0.845  0.00  0.00     0.284 C 
ATOM      9  H3  UNL d   1      -0.663   2.417  -0.809  0.00  0.00     0.395 HD
ENDBRANCH   1   7
TORSDOF 1
ENDMDL
