MODEL 1
REMARK minimizedAffinity -3.73846889
REMARK minimizedRMSD -1
REMARK  1 active torsions:
REMARK  status: ('A' for Active; 'I' for Inactive)
REMARK    1  A    between atoms: N_2  and  C1_3 
ROOT
ATOM      1  C1  UNL d   1      -0.173  -0.099  -0.749  0.00  0.00     0.143 A 
ATOM      2  C2  UNL d   1      -1.124   0.927  -0.769  0.00  0.00    -0.057 A 
ATOM      3  C3  UNL d   1      -1.748   1.361   0.407  0.00  0.00     0.033 A 
ATOM      4  C4  UNL d   1      -1.452   0.755   1.623  0.00  0.00    -0.042 A 
ATOM      5  C5  UNL d   1      -0.529  -0.283   1.663  0.00  0.00     0.033 A 
ATOM      6  C6  UNL d   1       0.096  -0.708   0.486  0.00  0.00    -0.057 A 
ENDROOT
BRANCH   1   7
ATOM      7  N   UNL d   1       0.409  -0.642  -1.897  0.00  0.00    -0.732 N 
ATOM      8  C   UNL d   1      -0.186  -1.784  -2.556  0.00  0.00     0.284 C 
ATOM      9  H3  UNL d   1       0.752   0.074  -2.534  0.00  0.00     0.395 HD
ENDBRANCH   1   7
TORSDOF 1
ENDMDL
