MODEL 1
REMARK minimizedAffinity -4.9025774
REMARK minimizedRMSD -1
REMARK  1 active torsions:
REMARK  status: ('A' for Active; 'I' for Inactive)
REMARK    1  A    between atoms: N_2  and  C1_3 
ROOT
ATOM      1  C1  UNL d   1      -0.039   0.023   0.088  0.00  0.00     0.143 A 
ATOM      2  C2  UNL d   1      -0.148  -0.016   1.482  0.00  0.00    -0.057 A 
ATOM      3  C3  UNL d   1      -0.955   0.896   2.173  0.00  0.00     0.033 A 
ATOM      4  C4  UNL d   1      -1.648   1.884   1.481  0.00  0.00    -0.042 A 
ATOM      5  C5  UNL d   1      -1.534   1.958   0.098  0.00  0.00     0.033 A 
ATOM      6  C6  UNL d   1      -0.732   1.040  -0.587  0.00  0.00    -0.057 A 
ENDROOT
BRANCH   1   7
ATOM      7  N   UNL d   1       0.824  -0.792  -0.648  0.00  0.00    -0.732 N 
ATOM      8  C   UNL d   1       0.309  -1.898  -1.426  0.00  0.00     0.284 C 
ATOM      9  H3  UNL d   1       1.557  -0.262  -1.114  0.00  0.00     0.395 HD
ENDBRANCH   1   7
TORSDOF 1
ENDMDL
