MODEL 1
REMARK minimizedAffinity -1.97336745
REMARK minimizedRMSD -1
REMARK  1 active torsions:
REMARK  status: ('A' for Active; 'I' for Inactive)
REMARK    1  A    between atoms: N_2  and  C1_3 
ROOT
ATOM      1  C1  UNL d   1      -0.425  -0.048   0.678  0.00  0.00     0.143 A 
ATOM      2  C2  UNL d   1      -0.469   0.300   2.032  0.00  0.00    -0.057 A 
ATOM      3  C3  UNL d   1      -1.200   1.410   2.473  0.00  0.00     0.033 A 
ATOM      4  C4  UNL d   1      -1.878   2.210   1.561  0.00  0.00    -0.042 A 
ATOM      5  C5  UNL d   1      -1.828   1.898   0.207  0.00  0.00     0.033 A 
ATOM      6  C6  UNL d   1      -1.102   0.785  -0.227  0.00  0.00    -0.057 A 
ENDROOT
BRANCH   1   7
ATOM      7  N   UNL d   1       0.364  -1.081   0.165  0.00  0.00    -0.732 N 
ATOM      8  C   UNL d   1       1.243  -0.848  -0.960  0.00  0.00     0.284 C 
ATOM      9  H3  UNL d   1       0.770  -1.660   0.897  0.00  0.00     0.395 HD
ENDBRANCH   1   7
TORSDOF 1
ENDMDL
