MODEL 1
REMARK minimizedAffinity -1.9893012
REMARK minimizedRMSD -1
REMARK  1 active torsions:
REMARK  status: ('A' for Active; 'I' for Inactive)
REMARK    1  A    between atoms: N_2  and  C1_3 
ROOT
ATOM      1  C1  UNL d   1       0.820  -1.572  -1.349  0.00  0.00     0.143 A 
ATOM      2  C2  UNL d   1       1.053  -2.801  -0.723  0.00  0.00    -0.057 A 
ATOM      3  C3  UNL d   1       0.651  -4.005  -1.314  0.00  0.00     0.033 A 
ATOM      4  C4  UNL d   1      -0.019  -3.999  -2.532  0.00  0.00    -0.042 A 
ATOM      5  C5  UNL d   1      -0.284  -2.787  -3.161  0.00  0.00     0.033 A 
ATOM      6  C6  UNL d   1       0.126  -1.589  -2.569  0.00  0.00    -0.057 A 
ENDROOT
BRANCH   1   7
ATOM      7  N   UNL d   1       1.107  -0.335  -0.767  0.00  0.00    -0.732 N 
ATOM      8  C   UNL d   1       0.278   0.189   0.298  0.00  0.00     0.284 C 
ATOM      9  H3  UNL d   1       2.104  -0.195  -0.624  0.00  0.00     0.395 HD
ENDBRANCH   1   7
TORSDOF 1
ENDMDL
