MODEL 1
REMARK minimizedAffinity -3.03957272
REMARK minimizedRMSD -1
REMARK  1 active torsions:
REMARK  status: ('A' for Active; 'I' for Inactive)
REMARK    1  A    between atoms: N_2  and  C1_3 
ROOT
ATOM      1  C1  UNL d   1       0.148   1.259  -0.519  0.00  0.00     0.143 A 
ATOM      2  C2  UNL d   1       0.338   0.083   0.213  0.00  0.00    -0.057 A 
ATOM      3  C3  UNL d   1      -0.270  -0.103   1.460  0.00  0.00     0.033 A 
ATOM      4  C4  UNL d   1      -1.059   0.901   2.012  0.00  0.00    -0.042 A 
ATOM      5  C5  UNL d   1      -1.242   2.089   1.313  0.00  0.00     0.033 A 
ATOM      6  C6  UNL d   1      -0.637   2.266   0.065  0.00  0.00    -0.057 A 
ENDROOT
BRANCH   1   7
ATOM      7  N   UNL d   1       0.805   1.544  -1.719  0.00  0.00    -0.732 N 
ATOM      8  C   UNL d   1       0.483   2.738  -2.471  0.00  0.00     0.284 C 
ATOM      9  H3  UNL d   1       1.800   1.335  -1.676  0.00  0.00     0.395 HD
ENDBRANCH   1   7
TORSDOF 1
ENDMDL
