MODEL 1
REMARK minimizedAffinity 8.92893982
REMARK minimizedRMSD -1
REMARK  1 active torsions:
REMARK  status: ('A' for Active; 'I' for Inactive)
REMARK    1  A    between atoms: C1_2  and  C2_3 
ROOT
ATOM      1  C2  UNL d   1      -0.918  -4.800   1.756  0.00  0.00    -0.077 A 
ATOM      2  C3  UNL d   1      -1.346  -3.623   2.387  0.00  0.00     0.002 A 
ATOM      3  C4  UNL d   1      -1.788  -2.536   1.629  0.00  0.00     0.002 A 
ATOM      4  C5  UNL d   1      -1.810  -2.618   0.238  0.00  0.00    -0.004 A 
ATOM      5  C6  UNL d   1      -1.385  -3.783  -0.398  0.00  0.00     0.002 A 
ATOM      6  C7  UNL d   1      -0.941  -4.870   0.358  0.00  0.00     0.002 A 
ENDROOT
BRANCH   1   7
ATOM      7  C1  UNL d   1      -0.487  -5.990   2.573  0.00  0.00     0.055 C 
ATOM      8  C   UNL d   1      -1.155  -5.994   3.940  0.00  0.00     0.019 C 
ENDBRANCH   1   7
TORSDOF 1
ENDMDL
