MODEL 1
REMARK minimizedAffinity 2.88353419
REMARK minimizedRMSD -1
REMARK  1 active torsions:
REMARK  status: ('A' for Active; 'I' for Inactive)
REMARK    1  A    between atoms: C1_2  and  C2_3 
ROOT
ATOM      1  C2  UNL d   1      -4.058   5.040  -3.906  0.00  0.00    -0.077 A 
ATOM      2  C3  UNL d   1      -3.988   4.014  -4.860  0.00  0.00     0.002 A 
ATOM      3  C4  UNL d   1      -4.918   3.952  -5.899  0.00  0.00     0.002 A 
ATOM      4  C5  UNL d   1      -5.921   4.914  -5.998  0.00  0.00    -0.004 A 
ATOM      5  C6  UNL d   1      -6.000   5.937  -5.053  0.00  0.00     0.002 A 
ATOM      6  C7  UNL d   1      -5.072   6.000  -4.013  0.00  0.00     0.002 A 
ENDROOT
BRANCH   1   7
ATOM      7  C1  UNL d   1      -3.026   5.137  -2.813  0.00  0.00     0.055 C 
ATOM      8  C   UNL d   1      -3.668   5.472  -1.475  0.00  0.00     0.019 C 
ENDBRANCH   1   7
TORSDOF 1
ENDMDL
