MODEL 1
REMARK minimizedAffinity 14.6515741
REMARK minimizedRMSD -1
REMARK  1 active torsions:
REMARK  status: ('A' for Active; 'I' for Inactive)
REMARK    1  A    between atoms: C1_2  and  C2_3 
ROOT
ATOM      1  C2  UNL d   1      -1.708  -3.897   2.584  0.00  0.00    -0.077 A 
ATOM      2  C3  UNL d   1      -1.527  -3.475   1.259  0.00  0.00     0.002 A 
ATOM      3  C4  UNL d   1      -0.893  -4.306   0.333  0.00  0.00     0.002 A 
ATOM      4  C5  UNL d   1      -0.439  -5.565   0.720  0.00  0.00    -0.004 A 
ATOM      5  C6  UNL d   1      -0.612  -5.993   2.036  0.00  0.00     0.002 A 
ATOM      6  C7  UNL d   1      -1.244  -5.164   2.963  0.00  0.00     0.002 A 
ENDROOT
BRANCH   1   7
ATOM      7  C1  UNL d   1      -2.435  -3.023   3.571  0.00  0.00     0.055 C 
ATOM      8  C   UNL d   1      -1.476  -2.421   4.588  0.00  0.00     0.019 C 
ENDBRANCH   1   7
TORSDOF 1
ENDMDL
