MODEL 1
REMARK minimizedAffinity 10.317709
REMARK minimizedRMSD -1
REMARK  1 active torsions:
REMARK  status: ('A' for Active; 'I' for Inactive)
REMARK    1  A    between atoms: C1_2  and  C2_3 
ROOT
ATOM      1  C2  UNL d   1      -1.101  -3.402   0.836  0.00  0.00    -0.077 A 
ATOM      2  C3  UNL d   1      -2.184  -2.835   1.523  0.00  0.00     0.002 A 
ATOM      3  C4  UNL d   1      -2.778  -1.660   1.058  0.00  0.00     0.002 A 
ATOM      4  C5  UNL d   1      -2.299  -1.045  -0.097  0.00  0.00    -0.004 A 
ATOM      5  C6  UNL d   1      -1.221  -1.600  -0.786  0.00  0.00     0.002 A 
ATOM      6  C7  UNL d   1      -0.626  -2.774  -0.322  0.00  0.00     0.002 A 
ENDROOT
BRANCH   1   7
ATOM      7  C1  UNL d   1      -0.491  -4.696   1.308  0.00  0.00     0.055 C 
ATOM      8  C   UNL d   1      -0.785  -5.832   0.339  0.00  0.00     0.019 C 
ENDBRANCH   1   7
TORSDOF 1
ENDMDL
