MODEL 1
REMARK minimizedAffinity 9.14130878
REMARK minimizedRMSD -1
REMARK  1 active torsions:
REMARK  status: ('A' for Active; 'I' for Inactive)
REMARK    1  A    between atoms: C1_2  and  C2_3 
ROOT
ATOM      1  C2  UNL d   1      -4.836   3.365  -0.286  0.00  0.00    -0.077 A 
ATOM      2  C3  UNL d   1      -3.673   3.921   0.264  0.00  0.00     0.002 A 
ATOM      3  C4  UNL d   1      -3.674   5.234   0.739  0.00  0.00     0.002 A 
ATOM      4  C5  UNL d   1      -4.836   5.999   0.673  0.00  0.00    -0.004 A 
ATOM      5  C6  UNL d   1      -5.997   5.456   0.125  0.00  0.00     0.002 A 
ATOM      6  C7  UNL d   1      -5.998   4.145  -0.351  0.00  0.00     0.002 A 
ENDROOT
BRANCH   1   7
ATOM      7  C1  UNL d   1      -4.850   1.933  -0.754  0.00  0.00     0.055 C 
ATOM      8  C   UNL d   1      -3.777   1.683  -1.803  0.00  0.00     0.019 C 
ENDBRANCH   1   7
TORSDOF 1
ENDMDL
