MODEL 1
REMARK minimizedAffinity 7.89151096
REMARK minimizedRMSD -1
REMARK  1 active torsions:
REMARK  status: ('A' for Active; 'I' for Inactive)
REMARK    1  A    between atoms: C1_2  and  C2_3 
ROOT
ATOM      1  C2  UNL d   1      -0.569  -2.611  -0.896  0.00  0.00    -0.077 A 
ATOM      2  C3  UNL d   1      -1.448  -2.145   0.092  0.00  0.00     0.002 A 
ATOM      3  C4  UNL d   1      -1.772  -2.950   1.186  0.00  0.00     0.002 A 
ATOM      4  C5  UNL d   1      -1.219  -4.223   1.304  0.00  0.00    -0.004 A 
ATOM      5  C6  UNL d   1      -0.346  -4.697   0.325  0.00  0.00     0.002 A 
ATOM      6  C7  UNL d   1      -0.022  -3.894  -0.769  0.00  0.00     0.002 A 
ENDROOT
BRANCH   1   7
ATOM      7  C1  UNL d   1      -0.180  -1.726  -2.051  0.00  0.00     0.055 C 
ATOM      8  C   UNL d   1      -0.849  -2.174  -3.342  0.00  0.00     0.019 C 
ENDBRANCH   1   7
TORSDOF 1
ENDMDL
