MODEL 1
REMARK minimizedAffinity 4.70051718
REMARK minimizedRMSD -1
REMARK  1 active torsions:
REMARK  status: ('A' for Active; 'I' for Inactive)
REMARK    1  A    between atoms: C1_2  and  C2_3 
ROOT
ATOM      1  C2  UNL d   1      -1.870  -2.320  -0.902  0.00  0.00    -0.077 A 
ATOM      2  C3  UNL d   1      -1.483  -3.659  -1.045  0.00  0.00     0.002 A 
ATOM      3  C4  UNL d   1      -1.100  -4.407   0.070  0.00  0.00     0.002 A 
ATOM      4  C5  UNL d   1      -1.104  -3.826   1.336  0.00  0.00    -0.004 A 
ATOM      5  C6  UNL d   1      -1.486  -2.493   1.489  0.00  0.00     0.002 A 
ATOM      6  C7  UNL d   1      -1.868  -1.744   0.375  0.00  0.00     0.002 A 
ENDROOT
BRANCH   1   7
ATOM      7  C1  UNL d   1      -2.331  -1.526  -2.096  0.00  0.00     0.055 C 
ATOM      8  C   UNL d   1      -1.508  -1.858  -3.332  0.00  0.00     0.019 C 
ENDBRANCH   1   7
TORSDOF 1
ENDMDL
