MODEL 1
REMARK minimizedAffinity 9.7566433
REMARK minimizedRMSD -1
REMARK  1 active torsions:
REMARK  status: ('A' for Active; 'I' for Inactive)
REMARK    1  A    between atoms: C1_2  and  C2_3 
ROOT
ATOM      1  C2  UNL d   1      -2.727  -0.007   5.450  0.00  0.00    -0.077 A 
ATOM      2  C3  UNL d   1      -1.488  -0.368   5.999  0.00  0.00     0.002 A 
ATOM      3  C4  UNL d   1      -0.799  -1.482   5.515  0.00  0.00     0.002 A 
ATOM      4  C5  UNL d   1      -1.338  -2.241   4.479  0.00  0.00    -0.004 A 
ATOM      5  C6  UNL d   1      -2.570  -1.891   3.928  0.00  0.00     0.002 A 
ATOM      6  C7  UNL d   1      -3.261  -0.779   4.411  0.00  0.00     0.002 A 
ENDROOT
BRANCH   1   7
ATOM      7  C1  UNL d   1      -3.448   1.222   5.937  0.00  0.00     0.055 C 
ATOM      8  C   UNL d   1      -4.957   1.057   5.832  0.00  0.00     0.019 C 
ENDBRANCH   1   7
TORSDOF 1
ENDMDL
