MODEL 1
REMARK minimizedAffinity 13.7064285
REMARK minimizedRMSD -1
REMARK  1 active torsions:
REMARK  status: ('A' for Active; 'I' for Inactive)
REMARK    1  A    between atoms: C1_2  and  C2_3 
ROOT
ATOM      1  C2  UNL d   1      -3.910  -0.978   5.663  0.00  0.00    -0.077 A 
ATOM      2  C3  UNL d   1      -2.606  -0.865   5.162  0.00  0.00     0.002 A 
ATOM      3  C4  UNL d   1      -1.885  -2.007   4.807  0.00  0.00     0.002 A 
ATOM      4  C5  UNL d   1      -2.461  -3.268   4.945  0.00  0.00    -0.004 A 
ATOM      5  C6  UNL d   1      -3.756  -3.390   5.445  0.00  0.00     0.002 A 
ATOM      6  C7  UNL d   1      -4.478  -2.250   5.801  0.00  0.00     0.002 A 
ENDROOT
BRANCH   1   7
ATOM      7  C1  UNL d   1      -4.708   0.255   6.000  0.00  0.00     0.055 C 
ATOM      8  C   UNL d   1      -3.957   1.522   5.615  0.00  0.00     0.019 C 
ENDBRANCH   1   7
TORSDOF 1
ENDMDL
