MODEL 1
REMARK minimizedAffinity 9.25271225
REMARK minimizedRMSD -1
REMARK  1 active torsions:
REMARK  status: ('A' for Active; 'I' for Inactive)
REMARK    1  A    between atoms: C1_2  and  C2_3 
ROOT
ATOM      1  C2  UNL d   1      -1.030  -2.523  -1.959  0.00  0.00    -0.077 A 
ATOM      2  C3  UNL d   1      -1.394  -1.688  -0.893  0.00  0.00     0.002 A 
ATOM      3  C4  UNL d   1      -1.417  -2.179   0.413  0.00  0.00     0.002 A 
ATOM      4  C5  UNL d   1      -1.073  -3.505   0.667  0.00  0.00    -0.004 A 
ATOM      5  C6  UNL d   1      -0.711  -4.344  -0.387  0.00  0.00     0.002 A 
ATOM      6  C7  UNL d   1      -0.689  -3.855  -1.693  0.00  0.00     0.002 A 
ENDROOT
BRANCH   1   7
ATOM      7  C1  UNL d   1      -0.957  -1.981  -3.363  0.00  0.00     0.055 C 
ATOM      8  C   UNL d   1      -2.204  -2.339  -4.159  0.00  0.00     0.019 C 
ENDBRANCH   1   7
TORSDOF 1
ENDMDL
