MODEL 1
REMARK minimizedAffinity 13.7464037
REMARK minimizedRMSD -1
REMARK  1 active torsions:
REMARK  status: ('A' for Active; 'I' for Inactive)
REMARK    1  A    between atoms: C1_2  and  C2_3 
ROOT
ATOM      1  C2  UNL d   1      -0.115  -1.385   5.538  0.00  0.00    -0.077 A 
ATOM      2  C3  UNL d   1      -1.039  -0.759   4.689  0.00  0.00     0.002 A 
ATOM      3  C4  UNL d   1      -2.205  -1.423   4.302  0.00  0.00     0.002 A 
ATOM      4  C5  UNL d   1      -2.459  -2.713   4.762  0.00  0.00    -0.004 A 
ATOM      5  C6  UNL d   1      -1.545  -3.345   5.605  0.00  0.00     0.002 A 
ATOM      6  C7  UNL d   1      -0.379  -2.683   5.992  0.00  0.00     0.002 A 
ENDROOT
BRANCH   1   7
ATOM      7  C1  UNL d   1       1.118  -0.652   5.996  0.00  0.00     0.055 C 
ATOM      8  C   UNL d   1       2.336  -1.565   6.000  0.00  0.00     0.019 C 
ENDBRANCH   1   7
TORSDOF 1
ENDMDL
