MODEL 1
REMARK minimizedAffinity 2.46094275
REMARK minimizedRMSD -1
REMARK  1 active torsions:
REMARK  status: ('A' for Active; 'I' for Inactive)
REMARK    1  A    between atoms: C1_2  and  C2_3 
ROOT
ATOM      1  C2  UNL d   1      -2.682  -0.331   5.944  0.00  0.00    -0.077 A 
ATOM      2  C3  UNL d   1      -3.877  -1.063   5.968  0.00  0.00     0.002 A 
ATOM      3  C4  UNL d   1      -3.850  -2.459   5.994  0.00  0.00     0.002 A 
ATOM      4  C5  UNL d   1      -2.631  -3.134   6.000  0.00  0.00    -0.004 A 
ATOM      5  C6  UNL d   1      -1.437  -2.415   5.975  0.00  0.00     0.002 A 
ATOM      6  C7  UNL d   1      -1.462  -1.020   5.948  0.00  0.00     0.002 A 
ENDROOT
BRANCH   1   7
ATOM      7  C1  UNL d   1      -2.709   1.175   5.966  0.00  0.00     0.055 C 
ATOM      8  C   UNL d   1      -4.135   1.703   5.998  0.00  0.00     0.019 C 
ENDBRANCH   1   7
TORSDOF 1
ENDMDL
