MODEL 1
REMARK minimizedAffinity 3.89048481
REMARK minimizedRMSD -1
REMARK  1 active torsions:
REMARK  status: ('A' for Active; 'I' for Inactive)
REMARK    1  A    between atoms: C1_2  and  C2_3 
ROOT
ATOM      1  C2  UNL d   1      -4.005   5.146  -0.391  0.00  0.00    -0.077 A 
ATOM      2  C3  UNL d   1      -5.114   6.000  -0.312  0.00  0.00     0.002 A 
ATOM      3  C4  UNL d   1      -5.995   5.914   0.768  0.00  0.00     0.002 A 
ATOM      4  C5  UNL d   1      -5.774   4.979   1.778  0.00  0.00    -0.004 A 
ATOM      5  C6  UNL d   1      -4.674   4.125   1.706  0.00  0.00     0.002 A 
ATOM      6  C7  UNL d   1      -3.793   4.208   0.627  0.00  0.00     0.002 A 
ENDROOT
BRANCH   1   7
ATOM      7  C1  UNL d   1      -3.026   5.271  -1.530  0.00  0.00     0.055 C 
ATOM      8  C   UNL d   1      -3.645   6.000  -2.714  0.00  0.00     0.019 C 
ENDBRANCH   1   7
TORSDOF 1
ENDMDL
