MODEL 1
REMARK minimizedAffinity 13.8711138
REMARK minimizedRMSD -1
REMARK  1 active torsions:
REMARK  status: ('A' for Active; 'I' for Inactive)
REMARK    1  A    between atoms: C1_2  and  C2_3 
ROOT
ATOM      1  C2  UNL d   1      -5.823   5.157   2.958  0.00  0.00    -0.077 A 
ATOM      2  C3  UNL d   1      -5.999   3.781   2.759  0.00  0.00     0.002 A 
ATOM      3  C4  UNL d   1      -5.955   3.242   1.471  0.00  0.00     0.002 A 
ATOM      4  C5  UNL d   1      -5.732   4.072   0.374  0.00  0.00    -0.004 A 
ATOM      5  C6  UNL d   1      -5.557   5.442   0.562  0.00  0.00     0.002 A 
ATOM      6  C7  UNL d   1      -5.602   5.983   1.848  0.00  0.00     0.002 A 
ENDROOT
BRANCH   1   7
ATOM      7  C1  UNL d   1      -5.821   5.733   4.350  0.00  0.00     0.055 C 
ATOM      8  C   UNL d   1      -5.917   4.638   5.402  0.00  0.00     0.019 C 
ENDBRANCH   1   7
TORSDOF 1
ENDMDL
