MODEL 1
REMARK minimizedAffinity 9.4706831
REMARK minimizedRMSD -1
REMARK  1 active torsions:
REMARK  status: ('A' for Active; 'I' for Inactive)
REMARK    1  A    between atoms: C1_2  and  C2_3 
ROOT
ATOM      1  C2  UNL d   1       5.328   1.519   1.969  0.00  0.00    -0.077 A 
ATOM      2  C3  UNL d   1       4.024   1.982   2.192  0.00  0.00     0.002 A 
ATOM      3  C4  UNL d   1       3.404   2.821   1.264  0.00  0.00     0.002 A 
ATOM      4  C5  UNL d   1       4.078   3.200   0.105  0.00  0.00    -0.004 A 
ATOM      5  C6  UNL d   1       5.377   2.746  -0.124  0.00  0.00     0.002 A 
ATOM      6  C7  UNL d   1       5.998   1.909   0.803  0.00  0.00     0.002 A 
ENDROOT
BRANCH   1   7
ATOM      7  C1  UNL d   1       5.980   0.575   2.945  0.00  0.00     0.055 C 
ATOM      8  C   UNL d   1       4.965  -0.384   3.550  0.00  0.00     0.019 C 
ENDBRANCH   1   7
TORSDOF 1
ENDMDL
