MODEL 1
REMARK minimizedAffinity 5.82523537
REMARK minimizedRMSD -1
REMARK  1 active torsions:
REMARK  status: ('A' for Active; 'I' for Inactive)
REMARK    1  A    between atoms: C1_2  and  C2_3 
ROOT
ATOM      1  C2  UNL d   1      -4.796   5.385  -1.196  0.00  0.00    -0.077 A 
ATOM      2  C3  UNL d   1      -4.208   4.165  -0.831  0.00  0.00     0.002 A 
ATOM      3  C4  UNL d   1      -4.512   3.574   0.396  0.00  0.00     0.002 A 
ATOM      4  C5  UNL d   1      -5.407   4.193   1.267  0.00  0.00    -0.004 A 
ATOM      5  C6  UNL d   1      -5.995   5.407   0.914  0.00  0.00     0.002 A 
ATOM      6  C7  UNL d   1      -5.692   6.000  -0.312  0.00  0.00     0.002 A 
ENDROOT
BRANCH   1   7
ATOM      7  C1  UNL d   1      -4.507   5.999  -2.541  0.00  0.00     0.055 C 
ATOM      8  C   UNL d   1      -5.744   5.997  -3.427  0.00  0.00     0.019 C 
ENDBRANCH   1   7
TORSDOF 1
ENDMDL
