MODEL 1
REMARK minimizedAffinity -1.33288062
REMARK minimizedRMSD -1
REMARK  0 active torsions:
REMARK  status: ('A' for Active; 'I' for Inactive)
ROOT
ATOM      1  C   UNL d   1       1.464  -0.778  -0.604  0.00  0.00     0.172 C 
ATOM      2  N   UNL d   1       0.598  -0.714   0.551  0.00  0.00    -0.070 N 
ATOM      3  C1  UNL d   1       0.931  -1.102   1.821  0.00  0.00    -0.004 A 
ATOM      4  C2  UNL d   1      -0.163  -0.883   2.630  0.00  0.00    -0.047 A 
ATOM      5  C3  UNL d   1      -1.189  -0.345   1.818  0.00  0.00    -0.047 A 
ATOM      6  C4  UNL d   1      -0.691  -0.251   0.535  0.00  0.00    -0.004 A 
ENDROOT
TORSDOF 0
ENDMDL
