MODEL 1
REMARK minimizedAffinity -1.33254111
REMARK minimizedRMSD -1
REMARK  0 active torsions:
REMARK  status: ('A' for Active; 'I' for Inactive)
ROOT
ATOM      1  C   UNL d   1      -0.512  -1.602   2.490  0.00  0.00     0.172 C 
ATOM      2  N   UNL d   1      -0.613  -0.695   1.371  0.00  0.00    -0.070 N 
ATOM      3  C1  UNL d   1      -1.605   0.230   1.181  0.00  0.00    -0.004 A 
ATOM      4  C2  UNL d   1      -1.342   0.894   0.002  0.00  0.00    -0.047 A 
ATOM      5  C3  UNL d   1      -0.152   0.349  -0.535  0.00  0.00    -0.047 A 
ATOM      6  C4  UNL d   1       0.278  -0.633   0.333  0.00  0.00    -0.004 A 
ENDROOT
TORSDOF 0
ENDMDL
