MODEL 1
REMARK minimizedAffinity 2.37490225
REMARK minimizedRMSD -1
REMARK  0 active torsions:
REMARK  status: ('A' for Active; 'I' for Inactive)
ROOT
ATOM      1  C   UNL d   1      -1.973   3.574  -3.372  0.00  0.00     0.172 C 
ATOM      2  N   UNL d   1      -0.557   3.291  -3.355  0.00  0.00    -0.070 N 
ATOM      3  C1  UNL d   1       0.129   2.708  -2.322  0.00  0.00    -0.004 A 
ATOM      4  C2  UNL d   1       1.452   2.613  -2.695  0.00  0.00    -0.047 A 
ATOM      5  C3  UNL d   1       1.566   3.158  -3.996  0.00  0.00    -0.047 A 
ATOM      6  C4  UNL d   1       0.308   3.570  -4.380  0.00  0.00    -0.004 A 
ENDROOT
TORSDOF 0
ENDMDL
