MODEL 1
REMARK minimizedAffinity 8.48048019
REMARK minimizedRMSD -1
REMARK  0 active torsions:
REMARK  status: ('A' for Active; 'I' for Inactive)
ROOT
ATOM      1  C   UNL d   1       2.059  -1.508  -0.100  0.00  0.00     0.172 C 
ATOM      2  N   UNL d   1       1.711  -1.072   1.232  0.00  0.00    -0.070 N 
ATOM      3  C1  UNL d   1       2.484  -0.283   2.042  0.00  0.00    -0.004 A 
ATOM      4  C2  UNL d   1       1.801  -0.095   3.224  0.00  0.00    -0.047 A 
ATOM      5  C3  UNL d   1       0.576  -0.795   3.121  0.00  0.00    -0.047 A 
ATOM      6  C4  UNL d   1       0.546  -1.390   1.878  0.00  0.00    -0.004 A 
ENDROOT
TORSDOF 0
ENDMDL
