MODEL 1
REMARK minimizedAffinity -3.09318161
REMARK minimizedRMSD -1
REMARK  0 active torsions:
REMARK  status: ('A' for Active; 'I' for Inactive)
ROOT
ATOM      1  C   UNL d   1      -1.171   1.335  -2.094  0.00  0.00     0.172 C 
ATOM      2  N   UNL d   1      -1.173   0.772  -0.764  0.00  0.00    -0.070 N 
ATOM      3  C1  UNL d   1      -0.088   0.237  -0.122  0.00  0.00    -0.004 A 
ATOM      4  C2  UNL d   1      -0.502  -0.190   1.121  0.00  0.00    -0.047 A 
ATOM      5  C3  UNL d   1      -1.883   0.097   1.229  0.00  0.00    -0.047 A 
ATOM      6  C4  UNL d   1      -2.273   0.692   0.048  0.00  0.00    -0.004 A 
ENDROOT
TORSDOF 0
ENDMDL
