MODEL 1
REMARK minimizedAffinity -2.1996696
REMARK minimizedRMSD -1
REMARK  0 active torsions:
REMARK  status: ('A' for Active; 'I' for Inactive)
ROOT
ATOM      1  C   UNL d   1       0.117  -1.004   1.970  0.00  0.00     0.172 C 
ATOM      2  N   UNL d   1      -0.260  -0.323   0.754  0.00  0.00    -0.070 N 
ATOM      3  C1  UNL d   1       0.084   0.959   0.417  0.00  0.00    -0.004 A 
ATOM      4  C2  UNL d   1      -0.467   1.234  -0.816  0.00  0.00    -0.047 A 
ATOM      5  C3  UNL d   1      -1.167   0.078  -1.234  0.00  0.00    -0.047 A 
ATOM      6  C4  UNL d   1      -1.022  -0.871  -0.244  0.00  0.00    -0.004 A 
ENDROOT
TORSDOF 0
ENDMDL
