MODEL 1
REMARK minimizedAffinity -1.98111713
REMARK minimizedRMSD -1
REMARK  0 active torsions:
REMARK  status: ('A' for Active; 'I' for Inactive)
ROOT
ATOM      1  C   UNL d   1      -0.103  -0.846  -1.545  0.00  0.00     0.172 C 
ATOM      2  N   UNL d   1      -0.330  -0.331  -0.215  0.00  0.00    -0.070 N 
ATOM      3  C1  UNL d   1      -0.778  -1.058   0.856  0.00  0.00    -0.004 A 
ATOM      4  C2  UNL d   1      -0.862  -0.207   1.937  0.00  0.00    -0.047 A 
ATOM      5  C3  UNL d   1      -0.452   1.075   1.500  0.00  0.00    -0.047 A 
ATOM      6  C4  UNL d   1      -0.128   0.969   0.164  0.00  0.00    -0.004 A 
ENDROOT
TORSDOF 0
ENDMDL
