MODEL 1
REMARK minimizedAffinity -1.47475243
REMARK minimizedRMSD -1
REMARK  0 active torsions:
REMARK  status: ('A' for Active; 'I' for Inactive)
ROOT
ATOM      1  C   UNL d   1      -0.443   0.167  -1.798  0.00  0.00     0.172 C 
ATOM      2  N   UNL d   1      -0.897   1.484  -2.178  0.00  0.00    -0.070 N 
ATOM      3  C1  UNL d   1      -0.141   2.439  -2.803  0.00  0.00    -0.004 A 
ATOM      4  C2  UNL d   1      -0.935   3.549  -2.992  0.00  0.00    -0.047 A 
ATOM      5  C3  UNL d   1      -2.213   3.251  -2.461  0.00  0.00    -0.047 A 
ATOM      6  C4  UNL d   1      -2.161   1.966  -1.964  0.00  0.00    -0.004 A 
ENDROOT
TORSDOF 0
ENDMDL
