MODEL 1
REMARK minimizedAffinity -1.23145366
REMARK minimizedRMSD -1
REMARK  0 active torsions:
REMARK  status: ('A' for Active; 'I' for Inactive)
ROOT
ATOM      1  C   UNL d   1       1.100  -2.046   2.416  0.00  0.00     0.172 C 
ATOM      2  N   UNL d   1       0.301  -0.991   1.836  0.00  0.00    -0.070 N 
ATOM      3  C1  UNL d   1       0.281  -0.640   0.513  0.00  0.00    -0.004 A 
ATOM      4  C2  UNL d   1      -0.605   0.405   0.367  0.00  0.00    -0.047 A 
ATOM      5  C3  UNL d   1      -1.136   0.692   1.647  0.00  0.00    -0.047 A 
ATOM      6  C4  UNL d   1      -0.558  -0.187   2.538  0.00  0.00    -0.004 A 
ENDROOT
TORSDOF 0
ENDMDL
