MODEL 1
REMARK minimizedAffinity 9.7592144
REMARK minimizedRMSD -1
REMARK  0 active torsions:
REMARK  status: ('A' for Active; 'I' for Inactive)
ROOT
ATOM      1  C4' PXY d   1       3.493  -2.001   0.513  0.00  0.00     0.077 C 
ATOM      2  C1' PXY d   1       5.699   2.736  -1.958  0.00  0.00     0.077 C 
ATOM      3  C1  PXY d   1       5.132   1.488  -1.309  0.00  0.00    -0.082 A 
ATOM      4  C2  PXY d   1       3.877   1.143  -1.541  0.00  0.00     0.003 A 
ATOM      5  C3  PXY d   1       3.339   0.036  -0.937  0.00  0.00     0.003 A 
ATOM      6  C4  PXY d   1       4.110  -0.756  -0.129  0.00  0.00    -0.082 A 
ATOM      7  C5  PXY d   1       5.395  -0.416   0.105  0.00  0.00     0.003 A 
ATOM      8  C6  PXY d   1       5.910   0.735  -0.485  0.00  0.00     0.003 A 
ENDROOT
TORSDOF 0
ENDMDL
