MODEL 1
REMARK minimizedAffinity 14.742609
REMARK minimizedRMSD -1
REMARK  0 active torsions:
REMARK  status: ('A' for Active; 'I' for Inactive)
ROOT
ATOM      1  C4' PXY d   1       2.982  -2.440   1.115  0.00  0.00     0.077 C 
ATOM      2  C1' PXY d   1       5.254   2.030  -1.762  0.00  0.00     0.077 C 
ATOM      3  C1  PXY d   1       4.670   0.853  -1.005  0.00  0.00    -0.082 A 
ATOM      4  C2  PXY d   1       3.439   0.448  -1.273  0.00  0.00     0.003 A 
ATOM      5  C3  PXY d   1       2.884  -0.594  -0.576  0.00  0.00     0.003 A 
ATOM      6  C4  PXY d   1       3.616  -1.263   0.369  0.00  0.00    -0.082 A 
ATOM      7  C5  PXY d   1       4.876  -0.863   0.640  0.00  0.00     0.003 A 
ATOM      8  C6  PXY d   1       5.407   0.223  -0.050  0.00  0.00     0.003 A 
ENDROOT
TORSDOF 0
ENDMDL
