MODEL 1
REMARK minimizedAffinity 2.70519423
REMARK minimizedRMSD -1
REMARK  0 active torsions:
REMARK  status: ('A' for Active; 'I' for Inactive)
ROOT
ATOM      1  C4' PXY d   1       3.675   0.577  -0.445  0.00  0.00     0.077 C 
ATOM      2  C1' PXY d   1       0.491  -4.113  -1.575  0.00  0.00     0.077 C 
ATOM      3  C1  PXY d   1       1.334  -2.891  -1.272  0.00  0.00    -0.082 A 
ATOM      4  C2  PXY d   1       0.774  -1.692  -1.276  0.00  0.00     0.003 A 
ATOM      5  C3  PXY d   1       1.529  -0.573  -1.036  0.00  0.00     0.003 A 
ATOM      6  C4  PXY d   1       2.860  -0.686  -0.735  0.00  0.00    -0.082 A 
ATOM      7  C5  PXY d   1       3.436  -1.907  -0.718  0.00  0.00     0.003 A 
ATOM      8  C6  PXY d   1       2.662  -3.027  -1.006  0.00  0.00     0.003 A 
ENDROOT
TORSDOF 0
ENDMDL
