MODEL 1
REMARK minimizedAffinity 1.71305931
REMARK minimizedRMSD -1
REMARK  0 active torsions:
REMARK  status: ('A' for Active; 'I' for Inactive)
ROOT
ATOM      1  C4' PXY d   1       5.998   2.543  -0.739  0.00  0.00     0.077 C 
ATOM      2  C1' PXY d   1       3.059  -2.418  -0.326  0.00  0.00     0.077 C 
ATOM      3  C1  PXY d   1       3.839  -1.122  -0.427  0.00  0.00    -0.082 A 
ATOM      4  C2  PXY d   1       3.200   0.008  -0.682  0.00  0.00     0.003 A 
ATOM      5  C3  PXY d   1       3.894   1.184  -0.809  0.00  0.00     0.003 A 
ATOM      6  C4  PXY d   1       5.250   1.212  -0.619  0.00  0.00    -0.082 A 
ATOM      7  C5  PXY d   1       5.908   0.065  -0.347  0.00  0.00     0.003 A 
ATOM      8  C6  PXY d   1       5.190  -1.125  -0.264  0.00  0.00     0.003 A 
ENDROOT
TORSDOF 0
ENDMDL
