MODEL 1
REMARK minimizedAffinity 6.95184851
REMARK minimizedRMSD -1
REMARK  0 active torsions:
REMARK  status: ('A' for Active; 'I' for Inactive)
ROOT
ATOM      1  C4' PXY d   1       2.869  -2.834  -1.207  0.00  0.00     0.077 C 
ATOM      2  C1' PXY d   1       4.822   2.604  -1.041  0.00  0.00     0.077 C 
ATOM      3  C1  PXY d   1       4.309   1.178  -1.071  0.00  0.00    -0.082 A 
ATOM      4  C2  PXY d   1       4.581   0.407  -2.111  0.00  0.00     0.003 A 
ATOM      5  C3  PXY d   1       4.098  -0.875  -2.170  0.00  0.00     0.003 A 
ATOM      6  C4  PXY d   1       3.374  -1.391  -1.129  0.00  0.00    -0.082 A 
ATOM      7  C5  PXY d   1       3.101  -0.614  -0.059  0.00  0.00     0.003 A 
ATOM      8  C6  PXY d   1       3.565   0.698  -0.037  0.00  0.00     0.003 A 
ENDROOT
TORSDOF 0
ENDMDL
