MODEL 1
REMARK minimizedAffinity 2.88080239
REMARK minimizedRMSD -1
REMARK  0 active torsions:
REMARK  status: ('A' for Active; 'I' for Inactive)
ROOT
ATOM      1  C4' PXY d   1       3.237  -2.812   0.534  0.00  0.00     0.077 C 
ATOM      2  C1' PXY d   1       5.270   2.323  -1.172  0.00  0.00     0.077 C 
ATOM      3  C1  PXY d   1       4.749   0.972  -0.723  0.00  0.00    -0.082 A 
ATOM      4  C2  PXY d   1       3.531   0.592  -1.073  0.00  0.00     0.003 A 
ATOM      5  C3  PXY d   1       3.032  -0.613  -0.649  0.00  0.00     0.003 A 
ATOM      6  C4  PXY d   1       3.808  -1.460   0.096  0.00  0.00    -0.082 A 
ATOM      7  C5  PXY d   1       5.056  -1.084   0.447  0.00  0.00     0.003 A 
ATOM      8  C6  PXY d   1       5.528   0.160   0.042  0.00  0.00     0.003 A 
ENDROOT
TORSDOF 0
ENDMDL
