MODEL 1
REMARK minimizedAffinity 9.17721939
REMARK minimizedRMSD -1
REMARK  0 active torsions:
REMARK  status: ('A' for Active; 'I' for Inactive)
ROOT
ATOM      1  C4' PXY d   1       6.000   2.476  -1.836  0.00  0.00     0.077 C 
ATOM      2  C1' PXY d   1       3.284  -2.231   0.135  0.00  0.00     0.077 C 
ATOM      3  C1  PXY d   1       4.004  -0.997  -0.372  0.00  0.00    -0.082 A 
ATOM      4  C2  PXY d   1       3.366  -0.142  -1.154  0.00  0.00     0.003 A 
ATOM      5  C3  PXY d   1       4.012   0.962  -1.647  0.00  0.00     0.003 A 
ATOM      6  C4  PXY d   1       5.309   1.222  -1.293  0.00  0.00    -0.082 A 
ATOM      7  C5  PXY d   1       5.964   0.359  -0.487  0.00  0.00     0.003 A 
ATOM      8  C6  PXY d   1       5.303  -0.777  -0.031  0.00  0.00     0.003 A 
ENDROOT
TORSDOF 0
ENDMDL
