MODEL 1
REMARK minimizedAffinity 14.8769493
REMARK minimizedRMSD -1
REMARK  0 active torsions:
REMARK  status: ('A' for Active; 'I' for Inactive)
ROOT
ATOM      1  C4' PXY d   1      -0.595  -4.720  -1.225  0.00  0.00     0.077 C 
ATOM      2  C1' PXY d   1      -3.781  -5.396  -6.000  0.00  0.00     0.077 C 
ATOM      3  C1  PXY d   1      -2.949  -5.207  -4.747  0.00  0.00    -0.082 A 
ATOM      4  C2  PXY d   1      -1.915  -6.000  -4.522  0.00  0.00     0.003 A 
ATOM      5  C3  PXY d   1      -1.171  -5.863  -3.379  0.00  0.00     0.003 A 
ATOM      6  C4  PXY d   1      -1.457  -4.869  -2.481  0.00  0.00    -0.082 A 
ATOM      7  C5  PXY d   1      -2.505  -4.049  -2.708  0.00  0.00     0.003 A 
ATOM      8  C6  PXY d   1      -3.272  -4.231  -3.855  0.00  0.00     0.003 A 
ENDROOT
TORSDOF 0
ENDMDL
