MODEL 1
REMARK minimizedAffinity 6.94617224
REMARK minimizedRMSD -1
REMARK  0 active torsions:
REMARK  status: ('A' for Active; 'I' for Inactive)
ROOT
ATOM      1  C4' PXY d   1       5.999   5.380  -1.582  0.00  0.00     0.077 C 
ATOM      2  C1' PXY d   1       4.587   0.003   0.002  0.00  0.00     0.077 C 
ATOM      3  C1  PXY d   1       4.955   1.417  -0.401  0.00  0.00    -0.082 A 
ATOM      4  C2  PXY d   1       4.891   1.772  -1.674  0.00  0.00     0.003 A 
ATOM      5  C3  PXY d   1       5.250   3.038  -2.061  0.00  0.00     0.003 A 
ATOM      6  C4  PXY d   1       5.628   3.966  -1.127  0.00  0.00    -0.082 A 
ATOM      7  C5  PXY d   1       5.686   3.614   0.175  0.00  0.00     0.003 A 
ATOM      8  C6  PXY d   1       5.357   2.313   0.541  0.00  0.00     0.003 A 
ENDROOT
TORSDOF 0
ENDMDL
