MODEL 1
REMARK minimizedAffinity 7.38466072
REMARK minimizedRMSD -1
REMARK  0 active torsions:
REMARK  status: ('A' for Active; 'I' for Inactive)
ROOT
ATOM      1  C4' PXY d   1       2.824  -2.484  -2.086  0.00  0.00     0.077 C 
ATOM      2  C1' PXY d   1       5.209   2.614  -0.771  0.00  0.00     0.077 C 
ATOM      3  C1  PXY d   1       4.580   1.276  -1.103  0.00  0.00    -0.082 A 
ATOM      4  C2  PXY d   1       5.011   0.593  -2.152  0.00  0.00     0.003 A 
ATOM      5  C3  PXY d   1       4.431  -0.604  -2.485  0.00  0.00     0.003 A 
ATOM      6  C4  PXY d   1       3.436  -1.133  -1.707  0.00  0.00    -0.082 A 
ATOM      7  C5  PXY d   1       2.999  -0.447  -0.630  0.00  0.00     0.003 A 
ATOM      8  C6  PXY d   1       3.572   0.785  -0.332  0.00  0.00     0.003 A 
ENDROOT
TORSDOF 0
ENDMDL
