MODEL 1
REMARK minimizedAffinity 9.75245571
REMARK minimizedRMSD -1
REMARK  0 active torsions:
REMARK  status: ('A' for Active; 'I' for Inactive)
ROOT
ATOM      1  C4' PXY d   1      -3.023   2.521  -6.000  0.00  0.00     0.077 C 
ATOM      2  C1' PXY d   1      -3.483  -1.697  -2.074  0.00  0.00     0.077 C 
ATOM      3  C1  PXY d   1      -3.373  -0.594  -3.109  0.00  0.00    -0.082 A 
ATOM      4  C2  PXY d   1      -2.186  -0.089  -3.404  0.00  0.00     0.003 A 
ATOM      5  C3  PXY d   1      -2.073   0.930  -4.314  0.00  0.00     0.003 A 
ATOM      6  C4  PXY d   1      -3.180   1.401  -4.968  0.00  0.00    -0.082 A 
ATOM      7  C5  PXY d   1      -4.393   0.883  -4.681  0.00  0.00     0.003 A 
ATOM      8  C6  PXY d   1      -4.492  -0.122  -3.724  0.00  0.00     0.003 A 
ENDROOT
TORSDOF 0
ENDMDL
