MODEL 1
REMARK minimizedAffinity 7.36072683
REMARK minimizedRMSD -1
REMARK  0 active torsions:
REMARK  status: ('A' for Active; 'I' for Inactive)
ROOT
ATOM      1  C4' PXY d   1       5.999  -2.145  -4.383  0.00  0.00     0.077 C 
ATOM      2  C1' PXY d   1       2.779   0.285  -0.243  0.00  0.00     0.077 C 
ATOM      3  C1  PXY d   1       3.631  -0.342  -1.329  0.00  0.00    -0.082 A 
ATOM      4  C2  PXY d   1       3.111  -1.271  -2.114  0.00  0.00     0.003 A 
ATOM      5  C3  PXY d   1       3.877  -1.871  -3.080  0.00  0.00     0.003 A 
ATOM      6  C4  PXY d   1       5.173  -1.478  -3.280  0.00  0.00    -0.082 A 
ATOM      7  C5  PXY d   1       5.708  -0.523  -2.490  0.00  0.00     0.003 A 
ATOM      8  C6  PXY d   1       4.926   0.045  -1.488  0.00  0.00     0.003 A 
ENDROOT
TORSDOF 0
ENDMDL
