MODEL 1
REMARK minimizedAffinity 4.75615025
REMARK minimizedRMSD -1
REMARK  1 active torsions:
REMARK  status: ('A' for Active; 'I' for Inactive)
REMARK    1  A    between atoms: C1_2  and  C2_3 
ROOT
ATOM      1  C2  UNL d   1       0.090   1.607   2.191  0.00  0.00    -0.081 A 
ATOM      2  C3  UNL d   1      -0.736   1.444   3.310  0.00  0.00     0.006 A 
ATOM      3  C4  UNL d   1      -0.421   0.500   4.291  0.00  0.00     0.002 A 
ATOM      4  C5  UNL d   1       0.728  -0.289   4.174  0.00  0.00    -0.080 A 
ATOM      5  C6  UNL d   1       1.094  -1.284   5.235  0.00  0.00     0.076 C 
ATOM      6  C7  UNL d   1       1.544  -0.138   3.047  0.00  0.00     0.002 A 
ATOM      7  C8  UNL d   1       1.229   0.805   2.066  0.00  0.00     0.006 A 
ENDROOT
BRANCH   1   8
ATOM      8  C1  UNL d   1      -0.212   2.668   1.164  0.00  0.00     0.054 C 
ATOM      9  C   UNL d   1      -0.308   2.074  -0.234  0.00  0.00     0.018 C 
ENDBRANCH   1   8
TORSDOF 1
ENDMDL
