MODEL 1
REMARK minimizedAffinity 8.68619061
REMARK minimizedRMSD -1
REMARK  1 active torsions:
REMARK  status: ('A' for Active; 'I' for Inactive)
REMARK    1  A    between atoms: C1_2  and  C2_3 
ROOT
ATOM      1  C2  UNL d   1      -3.618   3.379  -2.269  0.00  0.00    -0.081 A 
ATOM      2  C3  UNL d   1      -2.314   2.868  -2.237  0.00  0.00     0.006 A 
ATOM      3  C4  UNL d   1      -2.085   1.535  -1.886  0.00  0.00     0.002 A 
ATOM      4  C5  UNL d   1      -3.154   0.690  -1.571  0.00  0.00    -0.080 A 
ATOM      5  C6  UNL d   1      -2.924  -0.750  -1.223  0.00  0.00     0.076 C 
ATOM      6  C7  UNL d   1      -4.455   1.205  -1.587  0.00  0.00     0.002 A 
ATOM      7  C8  UNL d   1      -4.685   2.538  -1.936  0.00  0.00     0.006 A 
ENDROOT
BRANCH   1   8
ATOM      8  C1  UNL d   1      -3.874   4.798  -2.709  0.00  0.00     0.054 C 
ATOM      9  C   UNL d   1      -4.195   4.867  -4.196  0.00  0.00     0.018 C 
ENDBRANCH   1   8
TORSDOF 1
ENDMDL
