MODEL 1
REMARK minimizedAffinity 6.43703985
REMARK minimizedRMSD -1
REMARK  1 active torsions:
REMARK  status: ('A' for Active; 'I' for Inactive)
REMARK    1  A    between atoms: C1_2  and  C2_3 
ROOT
ATOM      1  C2  UNL d   1      -0.115   1.646   0.117  0.00  0.00    -0.081 A 
ATOM      2  C3  UNL d   1       0.752   0.667  -0.385  0.00  0.00     0.006 A 
ATOM      3  C4  UNL d   1       0.611   0.201  -1.694  0.00  0.00     0.002 A 
ATOM      4  C5  UNL d   1      -0.391   0.710  -2.526  0.00  0.00    -0.080 A 
ATOM      5  C6  UNL d   1      -0.533   0.240  -3.943  0.00  0.00     0.076 C 
ATOM      6  C7  UNL d   1      -1.268   1.676  -2.019  0.00  0.00     0.002 A 
ATOM      7  C8  UNL d   1      -1.129   2.142  -0.710  0.00  0.00     0.006 A 
ENDROOT
BRANCH   1   8
ATOM      8  C1  UNL d   1       0.074   2.198   1.507  0.00  0.00     0.054 C 
ATOM      9  C   UNL d   1      -0.148   1.124   2.563  0.00  0.00     0.018 C 
ENDBRANCH   1   8
TORSDOF 1
ENDMDL
