MODEL 1
REMARK minimizedAffinity 6.15242863
REMARK minimizedRMSD -1
REMARK  1 active torsions:
REMARK  status: ('A' for Active; 'I' for Inactive)
REMARK    1  A    between atoms: C1_2  and  C2_3 
ROOT
ATOM      1  C2  UNL d   1      -4.105  -0.531   2.206  0.00  0.00    -0.081 A 
ATOM      2  C3  UNL d   1      -5.402  -0.161   2.583  0.00  0.00     0.006 A 
ATOM      3  C4  UNL d   1      -6.000  -0.724   3.713  0.00  0.00     0.002 A 
ATOM      4  C5  UNL d   1      -5.308  -1.660   4.489  0.00  0.00    -0.080 A 
ATOM      5  C6  UNL d   1      -5.926  -2.250   5.722  0.00  0.00     0.076 C 
ATOM      6  C7  UNL d   1      -4.019  -2.043   4.103  0.00  0.00     0.002 A 
ATOM      7  C8  UNL d   1      -3.421  -1.480   2.973  0.00  0.00     0.006 A 
ENDROOT
BRANCH   1   8
ATOM      8  C1  UNL d   1      -3.434   0.123   1.026  0.00  0.00     0.054 C 
ATOM      9  C   UNL d   1      -3.357  -0.825  -0.162  0.00  0.00     0.018 C 
ENDBRANCH   1   8
TORSDOF 1
ENDMDL
