MODEL 1
REMARK minimizedAffinity 10.8897648
REMARK minimizedRMSD -1
REMARK  1 active torsions:
REMARK  status: ('A' for Active; 'I' for Inactive)
REMARK    1  A    between atoms: C1_2  and  C2_3 
ROOT
ATOM      1  C2  UNL d   1      -0.475   0.653  -0.226  0.00  0.00    -0.081 A 
ATOM      2  C3  UNL d   1       0.737   0.076  -0.625  0.00  0.00     0.006 A 
ATOM      3  C4  UNL d   1       1.752  -0.154   0.308  0.00  0.00     0.002 A 
ATOM      4  C5  UNL d   1       1.569   0.181   1.654  0.00  0.00    -0.080 A 
ATOM      5  C6  UNL d   1       2.638  -0.089   2.670  0.00  0.00     0.076 C 
ATOM      6  C7  UNL d   1       0.364   0.773   2.048  0.00  0.00     0.002 A 
ATOM      7  C8  UNL d   1      -0.650   1.004   1.117  0.00  0.00     0.006 A 
ENDROOT
BRANCH   1   8
ATOM      8  C1  UNL d   1      -1.595   0.843  -1.217  0.00  0.00     0.054 C 
ATOM      9  C   UNL d   1      -2.894   1.218  -0.518  0.00  0.00     0.018 C 
ENDBRANCH   1   8
TORSDOF 1
ENDMDL
