MODEL 1
REMARK minimizedAffinity -2.05632162
REMARK minimizedRMSD -1
REMARK  1 active torsions:
REMARK  status: ('A' for Active; 'I' for Inactive)
REMARK    1  A    between atoms: C1_2  and  C2_3 
ROOT
ATOM      1  C2  UNL d   1       0.619   2.978   0.183  0.00  0.00    -0.081 A 
ATOM      2  C3  UNL d   1       0.616   2.635   1.541  0.00  0.00     0.006 A 
ATOM      3  C4  UNL d   1       0.621   1.294   1.932  0.00  0.00     0.002 A 
ATOM      4  C5  UNL d   1       0.638   0.275   0.974  0.00  0.00    -0.080 A 
ATOM      5  C6  UNL d   1       0.675  -1.169   1.381  0.00  0.00     0.076 C 
ATOM      6  C7  UNL d   1       0.624   0.617  -0.382  0.00  0.00     0.002 A 
ATOM      7  C8  UNL d   1       0.618   1.957  -0.774  0.00  0.00     0.006 A 
ENDROOT
BRANCH   1   8
ATOM      8  C1  UNL d   1       0.679   4.423  -0.242  0.00  0.00     0.054 C 
ATOM      9  C   UNL d   1       1.991   5.069   0.176  0.00  0.00     0.018 C 
ENDBRANCH   1   8
TORSDOF 1
ENDMDL
