MODEL 1
REMARK minimizedAffinity -2.41164184
REMARK minimizedRMSD -1
REMARK  1 active torsions:
REMARK  status: ('A' for Active; 'I' for Inactive)
REMARK    1  A    between atoms: N_2  and  C1_3 
ROOT
ATOM      1  C1  UNL d   1      -1.918   1.709   2.535  0.00  0.00     0.143 A 
ATOM      2  C2  UNL d   1      -0.779   2.313   1.993  0.00  0.00    -0.057 A 
ATOM      3  C3  UNL d   1       0.171   1.568   1.285  0.00  0.00     0.033 A 
ATOM      4  C4  UNL d   1       0.013   0.194   1.131  0.00  0.00    -0.042 A 
ATOM      5  C5  UNL d   1      -1.099  -0.432   1.684  0.00  0.00     0.033 A 
ATOM      6  C6  UNL d   1      -2.048   0.320   2.384  0.00  0.00    -0.057 A 
ENDROOT
BRANCH   1   7
ATOM      7  N   UNL d   1      -2.848   2.379   3.334  0.00  0.00    -0.732 N 
ATOM      8  C   UNL d   1      -3.906   1.651   4.001  0.00  0.00     0.284 C 
ATOM      9  H3  UNL d   1      -2.420   3.105   3.903  0.00  0.00     0.395 HD
ENDBRANCH   1   7
TORSDOF 1
ENDMDL
