MODEL 1
REMARK minimizedAffinity -2.47667456
REMARK minimizedRMSD -1
REMARK  1 active torsions:
REMARK  status: ('A' for Active; 'I' for Inactive)
REMARK    1  A    between atoms: N_2  and  C1_3 
ROOT
ATOM      1  C1  UNL d   1      -3.337   1.305   3.427  0.00  0.00     0.143 A 
ATOM      2  C2  UNL d   1      -2.952   0.033   2.992  0.00  0.00    -0.057 A 
ATOM      3  C3  UNL d   1      -1.781  -0.157   2.249  0.00  0.00     0.033 A 
ATOM      4  C4  UNL d   1      -0.986   0.931   1.903  0.00  0.00    -0.042 A 
ATOM      5  C5  UNL d   1      -1.362   2.208   2.304  0.00  0.00     0.033 A 
ATOM      6  C6  UNL d   1      -2.530   2.390   3.051  0.00  0.00    -0.057 A 
ENDROOT
BRANCH   1   7
ATOM      7  N   UNL d   1      -4.541   1.571   4.084  0.00  0.00    -0.732 N 
ATOM      8  C   UNL d   1      -4.552   2.278   5.347  0.00  0.00     0.284 C 
ATOM      9  H3  UNL d   1      -5.279   1.855   3.443  0.00  0.00     0.395 HD
ENDBRANCH   1   7
TORSDOF 1
ENDMDL
