MODEL 1
REMARK minimizedAffinity -5.12149286
REMARK minimizedRMSD -1
REMARK  1 active torsions:
REMARK  status: ('A' for Active; 'I' for Inactive)
REMARK    1  A    between atoms: N_2  and  C1_3 
ROOT
ATOM      1  C1  UNL d   1      -2.214   1.364   2.585  0.00  0.00     0.143 A 
ATOM      2  C2  UNL d   1      -1.033   1.799   1.975  0.00  0.00    -0.057 A 
ATOM      3  C3  UNL d   1      -0.219   0.914   1.257  0.00  0.00     0.033 A 
ATOM      4  C4  UNL d   1      -0.559  -0.431   1.161  0.00  0.00    -0.042 A 
ATOM      5  C5  UNL d   1      -1.716  -0.890   1.781  0.00  0.00     0.033 A 
ATOM      6  C6  UNL d   1      -2.528  -0.001   2.491  0.00  0.00    -0.057 A 
ENDROOT
BRANCH   1   7
ATOM      7  N   UNL d   1      -3.015   2.174   3.395  0.00  0.00    -0.732 N 
ATOM      8  C   UNL d   1      -4.128   1.612   4.129  0.00  0.00     0.284 C 
ATOM      9  H3  UNL d   1      -2.472   2.855   3.921  0.00  0.00     0.395 HD
ENDBRANCH   1   7
TORSDOF 1
ENDMDL
