MODEL 1
REMARK minimizedAffinity -0.657103062
REMARK minimizedRMSD -1
REMARK  1 active torsions:
REMARK  status: ('A' for Active; 'I' for Inactive)
REMARK    1  A    between atoms: N_2  and  C1_3 
ROOT
ATOM      1  C1  UNL d   1      -1.408   0.263   2.142  0.00  0.00     0.143 A 
ATOM      2  C2  UNL d   1      -1.167   1.390   1.349  0.00  0.00    -0.057 A 
ATOM      3  C3  UNL d   1       0.111   1.955   1.261  0.00  0.00     0.033 A 
ATOM      4  C4  UNL d   1       1.167   1.419   1.990  0.00  0.00    -0.042 A 
ATOM      5  C5  UNL d   1       0.945   0.314   2.804  0.00  0.00     0.033 A 
ATOM      6  C6  UNL d   1      -0.332  -0.250   2.883  0.00  0.00    -0.057 A 
ENDROOT
BRANCH   1   7
ATOM      7  N   UNL d   1      -2.676  -0.286   2.348  0.00  0.00    -0.732 N 
ATOM      8  C   UNL d   1      -3.651   0.397   3.172  0.00  0.00     0.284 C 
ATOM      9  H3  UNL d   1      -3.063  -0.699   1.503  0.00  0.00     0.395 HD
ENDBRANCH   1   7
TORSDOF 1
ENDMDL
