MODEL 1
REMARK minimizedAffinity -1.94533837
REMARK minimizedRMSD -1
REMARK  1 active torsions:
REMARK  status: ('A' for Active; 'I' for Inactive)
REMARK    1  A    between atoms: N_2  and  C1_3 
ROOT
ATOM      1  C1  UNL d   1      -1.385  -0.109   2.140  0.00  0.00     0.143 A 
ATOM      2  C2  UNL d   1      -2.511   0.289   2.869  0.00  0.00    -0.057 A 
ATOM      3  C3  UNL d   1      -2.817   1.644   3.050  0.00  0.00     0.033 A 
ATOM      4  C4  UNL d   1      -1.984   2.627   2.527  0.00  0.00    -0.042 A 
ATOM      5  C5  UNL d   1      -0.846   2.255   1.821  0.00  0.00     0.033 A 
ATOM      6  C6  UNL d   1      -0.549   0.901   1.638  0.00  0.00    -0.057 A 
ENDROOT
BRANCH   1   7
ATOM      7  N   UNL d   1      -0.973  -1.437   2.010  0.00  0.00    -0.732 N 
ATOM      8  C   UNL d   1      -1.154  -2.376   3.096  0.00  0.00     0.284 C 
ATOM      9  H3  UNL d   1      -1.183  -1.820   1.091  0.00  0.00     0.395 HD
ENDBRANCH   1   7
TORSDOF 1
ENDMDL
