MODEL 1
REMARK minimizedAffinity -0.883290589
REMARK minimizedRMSD -1
REMARK  1 active torsions:
REMARK  status: ('A' for Active; 'I' for Inactive)
REMARK    1  A    between atoms: N_2  and  C1_3 
ROOT
ATOM      1  C1  UNL d   1      -0.966   0.932   1.919  0.00  0.00     0.143 A 
ATOM      2  C2  UNL d   1      -1.982   1.590   2.621  0.00  0.00    -0.057 A 
ATOM      3  C3  UNL d   1      -3.046   0.881   3.193  0.00  0.00     0.033 A 
ATOM      4  C4  UNL d   1      -3.127  -0.500   3.048  0.00  0.00    -0.042 A 
ATOM      5  C5  UNL d   1      -2.142  -1.172   2.334  0.00  0.00     0.033 A 
ATOM      6  C6  UNL d   1      -1.079  -0.460   1.770  0.00  0.00    -0.057 A 
ENDROOT
BRANCH   1   7
ATOM      7  N   UNL d   1       0.064   1.590   1.243  0.00  0.00    -0.732 N 
ATOM      8  C   UNL d   1       1.220   0.858   0.769  0.00  0.00     0.284 C 
ATOM      9  H3  UNL d   1      -0.283   2.287   0.590  0.00  0.00     0.395 HD
ENDBRANCH   1   7
TORSDOF 1
ENDMDL
