MODEL 1
REMARK minimizedAffinity 1.7154696
REMARK minimizedRMSD -1
REMARK  1 active torsions:
REMARK  status: ('A' for Active; 'I' for Inactive)
REMARK    1  A    between atoms: N_2  and  C1_3 
ROOT
ATOM      1  C1  UNL d   1      -3.561   2.021   3.923  0.00  0.00     0.143 A 
ATOM      2  C2  UNL d   1      -3.662   0.652   3.651  0.00  0.00    -0.057 A 
ATOM      3  C3  UNL d   1      -2.712  -0.004   2.860  0.00  0.00     0.033 A 
ATOM      4  C4  UNL d   1      -1.655   0.707   2.299  0.00  0.00    -0.042 A 
ATOM      5  C5  UNL d   1      -1.549   2.073   2.535  0.00  0.00     0.033 A 
ATOM      6  C6  UNL d   1      -2.498   2.721   3.332  0.00  0.00    -0.057 A 
ENDROOT
BRANCH   1   7
ATOM      7  N   UNL d   1      -4.528   2.749   4.621  0.00  0.00    -0.732 N 
ATOM      8  C   UNL d   1      -4.883   2.391   5.977  0.00  0.00     0.284 C 
ATOM      9  H3  UNL d   1      -4.449   3.750   4.462  0.00  0.00     0.395 HD
ENDBRANCH   1   7
TORSDOF 1
ENDMDL
