MODEL 1
REMARK minimizedAffinity 1.36292481
REMARK minimizedRMSD -1
REMARK  1 active torsions:
REMARK  status: ('A' for Active; 'I' for Inactive)
REMARK    1  A    between atoms: N_2  and  C1_3 
ROOT
ATOM      1  C1  UNL d   1      -1.978  -1.460   2.613  0.00  0.00     0.143 A 
ATOM      2  C2  UNL d   1      -1.334  -2.468   3.340  0.00  0.00    -0.057 A 
ATOM      3  C3  UNL d   1      -2.054  -3.341   4.165  0.00  0.00     0.033 A 
ATOM      4  C4  UNL d   1      -3.431  -3.202   4.300  0.00  0.00    -0.042 A 
ATOM      5  C5  UNL d   1      -4.088  -2.192   3.607  0.00  0.00     0.033 A 
ATOM      6  C6  UNL d   1      -3.365  -1.328   2.780  0.00  0.00    -0.057 A 
ENDROOT
BRANCH   1   7
ATOM      7  N   UNL d   1      -1.306  -0.499   1.853  0.00  0.00    -0.732 N 
ATOM      8  C   UNL d   1      -1.134   0.848   2.354  0.00  0.00     0.284 C 
ATOM      9  H3  UNL d   1      -0.485  -0.878   1.387  0.00  0.00     0.395 HD
ENDBRANCH   1   7
TORSDOF 1
ENDMDL
