MODEL 1
REMARK minimizedAffinity 0.622317314
REMARK minimizedRMSD -1
REMARK  1 active torsions:
REMARK  status: ('A' for Active; 'I' for Inactive)
REMARK    1  A    between atoms: N_2  and  C1_3 
ROOT
ATOM      1  C1  UNL d   1      -2.993  -3.876  -1.965  0.00  0.00     0.143 A 
ATOM      2  C2  UNL d   1      -2.808  -3.097  -3.112  0.00  0.00    -0.057 A 
ATOM      3  C3  UNL d   1      -2.948  -1.705  -3.075  0.00  0.00     0.033 A 
ATOM      4  C4  UNL d   1      -3.306  -1.067  -1.892  0.00  0.00    -0.042 A 
ATOM      5  C5  UNL d   1      -3.519  -1.823  -0.745  0.00  0.00     0.033 A 
ATOM      6  C6  UNL d   1      -3.371  -3.213  -0.787  0.00  0.00    -0.057 A 
ENDROOT
BRANCH   1   7
ATOM      7  N   UNL d   1      -2.965  -5.272  -1.959  0.00  0.00    -0.732 N 
ATOM      8  C   UNL d   1      -2.669  -5.999  -0.743  0.00  0.00     0.284 C 
ATOM      9  H3  UNL d   1      -3.715  -5.678  -2.514  0.00  0.00     0.395 HD
ENDBRANCH   1   7
TORSDOF 1
ENDMDL
