MODEL 1
REMARK minimizedAffinity 13.6281376
REMARK minimizedRMSD -1
REMARK  0 active torsions:
REMARK  status: ('A' for Active; 'I' for Inactive)
ROOT
ATOM      1  C   UNL d   1      -0.131  -1.777   1.168  0.00  0.00     0.020 A 
ATOM      2  C1  UNL d   1       1.120  -1.297   1.554  0.00  0.00     0.020 A 
ATOM      3  C2  UNL d   1       1.340   0.079   1.651  0.00  0.00     0.034 A 
ATOM      4  C3  UNL d   1       0.308   0.979   1.360  0.00  0.00     0.017 A 
ATOM      5  C4  UNL d   1      -0.947   0.496   0.972  0.00  0.00     0.017 A 
ATOM      6  C5  UNL d   1      -1.162  -0.883   0.877  0.00  0.00     0.034 A 
ATOM      7 Cl   UNL d   1      -2.269   1.544   0.598  0.00  0.00    -0.070 Cl
ATOM      8 Cl1  UNL d   1       0.650   2.667   1.501  0.00  0.00    -0.070 Cl
ENDROOT
TORSDOF 0
ENDMDL
