MODEL 1
REMARK minimizedAffinity 7.21687746
REMARK minimizedRMSD -1
REMARK  0 active torsions:
REMARK  status: ('A' for Active; 'I' for Inactive)
ROOT
ATOM      1  C   UNL d   1      -5.463  -5.971  -5.264  0.00  0.00     0.020 A 
ATOM      2  C1  UNL d   1      -4.205  -5.990  -5.866  0.00  0.00     0.020 A 
ATOM      3  C2  UNL d   1      -3.473  -4.808  -5.992  0.00  0.00     0.034 A 
ATOM      4  C3  UNL d   1      -3.997  -3.601  -5.516  0.00  0.00     0.017 A 
ATOM      5  C4  UNL d   1      -5.260  -3.582  -4.912  0.00  0.00     0.017 A 
ATOM      6  C5  UNL d   1      -5.989  -4.769  -4.788  0.00  0.00     0.034 A 
ATOM      7 Cl   UNL d   1      -5.973  -2.131  -4.300  0.00  0.00    -0.070 Cl
ATOM      8 Cl1  UNL d   1      -3.037  -2.177  -5.705  0.00  0.00    -0.070 Cl
ENDROOT
TORSDOF 0
ENDMDL
