MODEL 1
REMARK minimizedAffinity 9.77456284
REMARK minimizedRMSD -1
REMARK  0 active torsions:
REMARK  status: ('A' for Active; 'I' for Inactive)
ROOT
ATOM      1  C   UNL d   1       5.875   0.163  -5.999  0.00  0.00     0.020 A 
ATOM      2  C1  UNL d   1       5.972  -0.995  -5.227  0.00  0.00     0.020 A 
ATOM      3  C2  UNL d   1       5.201  -1.128  -4.070  0.00  0.00     0.034 A 
ATOM      4  C3  UNL d   1       4.330  -0.104  -3.682  0.00  0.00     0.017 A 
ATOM      5  C4  UNL d   1       4.234   1.057  -4.457  0.00  0.00     0.017 A 
ATOM      6  C5  UNL d   1       5.008   1.186  -5.615  0.00  0.00     0.034 A 
ATOM      7 Cl   UNL d   1       3.182   2.364  -4.043  0.00  0.00    -0.070 Cl
ATOM      8 Cl1  UNL d   1       3.407  -0.337  -2.240  0.00  0.00    -0.070 Cl
ENDROOT
TORSDOF 0
ENDMDL
