MODEL 1
REMARK minimizedAffinity 11.1283035
REMARK minimizedRMSD -1
REMARK  0 active torsions:
REMARK  status: ('A' for Active; 'I' for Inactive)
ROOT
ATOM      1  C   UNL d   1       1.472  -1.873   4.020  0.00  0.00     0.020 A 
ATOM      2  C1  UNL d   1       0.871  -1.344   2.879  0.00  0.00     0.020 A 
ATOM      3  C2  UNL d   1       0.785  -2.112   1.715  0.00  0.00     0.034 A 
ATOM      4  C3  UNL d   1       1.301  -3.413   1.691  0.00  0.00     0.017 A 
ATOM      5  C4  UNL d   1       1.904  -3.943   2.837  0.00  0.00     0.017 A 
ATOM      6  C5  UNL d   1       1.987  -3.170   3.999  0.00  0.00     0.034 A 
ATOM      7 Cl   UNL d   1       2.563  -5.540   2.883  0.00  0.00    -0.070 Cl
ATOM      8 Cl1  UNL d   1       1.160  -4.305   0.218  0.00  0.00    -0.070 Cl
ENDROOT
TORSDOF 0
ENDMDL
