MODEL 1
REMARK minimizedAffinity 12.7136889
REMARK minimizedRMSD -1
REMARK  0 active torsions:
REMARK  status: ('A' for Active; 'I' for Inactive)
ROOT
ATOM      1  C   UNL d   1       3.817  -1.074  -2.673  0.00  0.00     0.020 A 
ATOM      2  C1  UNL d   1       3.419   0.263  -2.672  0.00  0.00     0.020 A 
ATOM      3  C2  UNL d   1       3.817   1.110  -3.708  0.00  0.00     0.034 A 
ATOM      4  C3  UNL d   1       4.615   0.623  -4.749  0.00  0.00     0.017 A 
ATOM      5  C4  UNL d   1       5.013  -0.719  -4.749  0.00  0.00     0.017 A 
ATOM      6  C5  UNL d   1       4.612  -1.563  -3.709  0.00  0.00     0.034 A 
ATOM      7 Cl   UNL d   1       5.998  -1.393  -6.000  0.00  0.00    -0.070 Cl
ATOM      8 Cl1  UNL d   1       5.070   1.727  -5.998  0.00  0.00    -0.070 Cl
ENDROOT
TORSDOF 0
ENDMDL
