MODEL 1
REMARK minimizedAffinity 3.70506883
REMARK minimizedRMSD -1
REMARK  0 active torsions:
REMARK  status: ('A' for Active; 'I' for Inactive)
ROOT
ATOM      1  C   UNL d   1       4.125   1.500  -5.313  0.00  0.00     0.020 A 
ATOM      2  C1  UNL d   1       5.316   1.262  -5.999  0.00  0.00     0.020 A 
ATOM      3  C2  UNL d   1       5.877  -0.016  -5.999  0.00  0.00     0.034 A 
ATOM      4  C3  UNL d   1       5.248  -1.062  -5.313  0.00  0.00     0.017 A 
ATOM      5  C4  UNL d   1       4.053  -0.822  -4.625  0.00  0.00     0.017 A 
ATOM      6  C5  UNL d   1       3.495   0.460  -4.628  0.00  0.00     0.034 A 
ATOM      7 Cl   UNL d   1       3.219  -2.061  -3.756  0.00  0.00    -0.070 Cl
ATOM      8 Cl1  UNL d   1       5.999  -2.618  -5.357  0.00  0.00    -0.070 Cl
ENDROOT
TORSDOF 0
ENDMDL
