MODEL 1
REMARK minimizedAffinity 2.20670986
REMARK minimizedRMSD -1
REMARK  0 active torsions:
REMARK  status: ('A' for Active; 'I' for Inactive)
ROOT
ATOM      1  C   UNL d   1       1.224  -2.681   3.991  0.00  0.00     0.020 A 
ATOM      2  C1  UNL d   1       0.772  -1.933   2.904  0.00  0.00     0.020 A 
ATOM      3  C2  UNL d   1       1.690  -1.358   2.023  0.00  0.00     0.034 A 
ATOM      4  C3  UNL d   1       3.064  -1.531   2.226  0.00  0.00     0.017 A 
ATOM      5  C4  UNL d   1       3.516  -2.282   3.317  0.00  0.00     0.017 A 
ATOM      6  C5  UNL d   1       2.593  -2.855   4.196  0.00  0.00     0.034 A 
ATOM      7 Cl   UNL d   1       5.196  -2.540   3.633  0.00  0.00    -0.070 Cl
ATOM      8 Cl1  UNL d   1       4.143  -0.793   1.095  0.00  0.00    -0.070 Cl
ENDROOT
TORSDOF 0
ENDMDL
