MODEL 1
REMARK minimizedAffinity 3.56937981
REMARK minimizedRMSD -1
REMARK  0 active torsions:
REMARK  status: ('A' for Active; 'I' for Inactive)
ROOT
ATOM      1  C   UNL d   1       5.039   0.047  -5.602  0.00  0.00     0.020 A 
ATOM      2  C1  UNL d   1       5.999  -0.914  -5.916  0.00  0.00     0.020 A 
ATOM      3  C2  UNL d   1       5.977  -2.157  -5.280  0.00  0.00     0.034 A 
ATOM      4  C3  UNL d   1       4.993  -2.442  -4.326  0.00  0.00     0.017 A 
ATOM      5  C4  UNL d   1       4.030  -1.477  -4.012  0.00  0.00     0.017 A 
ATOM      6  C5  UNL d   1       4.056  -0.234  -4.651  0.00  0.00     0.034 A 
ATOM      7 Cl   UNL d   1       2.784  -1.756  -2.846  0.00  0.00    -0.070 Cl
ATOM      8 Cl1  UNL d   1       5.025  -4.000  -3.580  0.00  0.00    -0.070 Cl
ENDROOT
TORSDOF 0
ENDMDL
