MODEL 1
REMARK minimizedAffinity 6.67783165
REMARK minimizedRMSD -1
REMARK  0 active torsions:
REMARK  status: ('A' for Active; 'I' for Inactive)
ROOT
ATOM      1  C   UNL d   1       6.000  -1.830  -5.024  0.00  0.00     0.020 A 
ATOM      2  C1  UNL d   1       5.650  -0.897  -6.000  0.00  0.00     0.020 A 
ATOM      3  C2  UNL d   1       4.723   0.105  -5.707  0.00  0.00     0.034 A 
ATOM      4  C3  UNL d   1       4.142   0.177  -4.435  0.00  0.00     0.017 A 
ATOM      5  C4  UNL d   1       4.494  -0.760  -3.457  0.00  0.00     0.017 A 
ATOM      6  C5  UNL d   1       5.423  -1.761  -3.756  0.00  0.00     0.034 A 
ATOM      7 Cl   UNL d   1       3.820  -0.735  -1.865  0.00  0.00    -0.070 Cl
ATOM      8 Cl1  UNL d   1       3.003   1.443  -4.142  0.00  0.00    -0.070 Cl
ENDROOT
TORSDOF 0
ENDMDL
