MODEL 1
REMARK minimizedAffinity -0.627114356
REMARK minimizedRMSD -1
REMARK  0 active torsions:
REMARK  status: ('A' for Active; 'I' for Inactive)
ROOT
ATOM      1  C   UNL d   1       5.764  -2.756   3.293  0.00  0.00     0.020 A 
ATOM      2  C1  UNL d   1       5.753  -4.010   3.902  0.00  0.00     0.020 A 
ATOM      3  C2  UNL d   1       4.546  -4.690   4.077  0.00  0.00     0.034 A 
ATOM      4  C3  UNL d   1       3.345  -4.116   3.643  0.00  0.00     0.017 A 
ATOM      5  C4  UNL d   1       3.358  -2.857   3.033  0.00  0.00     0.017 A 
ATOM      6  C5  UNL d   1       4.569  -2.180   2.860  0.00  0.00     0.034 A 
ATOM      7 Cl   UNL d   1       1.917  -2.085   2.472  0.00  0.00    -0.070 Cl
ATOM      8 Cl1  UNL d   1       1.890  -5.014   3.892  0.00  0.00    -0.070 Cl
ENDROOT
TORSDOF 0
ENDMDL
