MODEL 1
REMARK minimizedAffinity 15.8116827
REMARK minimizedRMSD -1
REMARK  0 active torsions:
REMARK  status: ('A' for Active; 'I' for Inactive)
ROOT
ATOM      1  C   UNL d   1       0.943  -2.891   2.611  0.00  0.00     0.020 A 
ATOM      2  C1  UNL d   1       1.049  -1.953   3.636  0.00  0.00     0.020 A 
ATOM      3  C2  UNL d   1       1.373  -0.627   3.339  0.00  0.00     0.034 A 
ATOM      4  C3  UNL d   1       1.593  -0.236   2.014  0.00  0.00     0.017 A 
ATOM      5  C4  UNL d   1       1.487  -1.179   0.985  0.00  0.00     0.017 A 
ATOM      6  C5  UNL d   1       1.162  -2.505   1.288  0.00  0.00     0.034 A 
ATOM      7 Cl   UNL d   1       1.745  -0.772  -0.675  0.00  0.00    -0.070 Cl
ATOM      8 Cl1  UNL d   1       1.990   1.419   1.719  0.00  0.00    -0.070 Cl
ENDROOT
TORSDOF 0
ENDMDL
