MODEL 1
REMARK minimizedAffinity 1.46714532
REMARK minimizedRMSD -1
REMARK  0 active torsions:
REMARK  status: ('A' for Active; 'I' for Inactive)
ROOT
ATOM      1  C   UNL d   1       3.367   1.130  -5.205  0.00  0.00     0.020 A 
ATOM      2  C1  UNL d   1       4.507   1.015  -5.999  0.00  0.00     0.020 A 
ATOM      3  C2  UNL d   1       5.241  -0.172  -5.999  0.00  0.00     0.034 A 
ATOM      4  C3  UNL d   1       4.837  -1.250  -5.203  0.00  0.00     0.017 A 
ATOM      5  C4  UNL d   1       3.693  -1.134  -4.406  0.00  0.00     0.017 A 
ATOM      6  C5  UNL d   1       2.961   0.058  -4.410  0.00  0.00     0.034 A 
ATOM      7 Cl   UNL d   1       3.131  -2.420  -3.397  0.00  0.00    -0.070 Cl
ATOM      8 Cl1  UNL d   1       5.792  -2.689  -5.252  0.00  0.00    -0.070 Cl
ENDROOT
TORSDOF 0
ENDMDL
