MODEL 1
REMARK minimizedAffinity 21.0598698
REMARK minimizedRMSD -1
REMARK  0 active torsions:
REMARK  status: ('A' for Active; 'I' for Inactive)
ROOT
ATOM      1  C   UNL d   1      -5.550   2.617  -4.388  0.00  0.00     0.020 A 
ATOM      2  C1  UNL d   1      -4.491   1.724  -4.230  0.00  0.00     0.020 A 
ATOM      3  C2  UNL d   1      -3.880   1.581  -2.982  0.00  0.00     0.034 A 
ATOM      4  C3  UNL d   1      -4.328   2.330  -1.889  0.00  0.00     0.017 A 
ATOM      5  C4  UNL d   1      -5.392   3.226  -2.049  0.00  0.00     0.017 A 
ATOM      6  C5  UNL d   1      -6.000   3.366  -3.300  0.00  0.00     0.034 A 
ATOM      7 Cl   UNL d   1      -6.000   4.185  -0.746  0.00  0.00    -0.070 Cl
ATOM      8 Cl1  UNL d   1      -3.526   2.101  -0.375  0.00  0.00    -0.070 Cl
ENDROOT
TORSDOF 0
ENDMDL
