MODEL 1
REMARK minimizedAffinity 6.72218704
REMARK minimizedRMSD -1
REMARK  0 active torsions:
REMARK  status: ('A' for Active; 'I' for Inactive)
ROOT
ATOM      1  C   UNL d   1      -4.981   2.387  -3.603  0.00  0.00     0.020 A 
ATOM      2  C1  UNL d   1      -3.761   1.758  -3.360  0.00  0.00     0.020 A 
ATOM      3  C2  UNL d   1      -3.213   1.770  -2.076  0.00  0.00     0.034 A 
ATOM      4  C3  UNL d   1      -3.884   2.413  -1.030  0.00  0.00     0.017 A 
ATOM      5  C4  UNL d   1      -5.109   3.044  -1.275  0.00  0.00     0.017 A 
ATOM      6  C5  UNL d   1      -5.654   3.029  -2.563  0.00  0.00     0.034 A 
ATOM      7 Cl   UNL d   1      -5.997   3.858  -0.035  0.00  0.00    -0.070 Cl
ATOM      8 Cl1  UNL d   1      -3.148   2.389   0.533  0.00  0.00    -0.070 Cl
ENDROOT
TORSDOF 0
ENDMDL
