MODEL 1
REMARK minimizedAffinity -0.334828913
REMARK minimizedRMSD -1
REMARK  0 active torsions:
REMARK  status: ('A' for Active; 'I' for Inactive)
ROOT
ATOM      1  C   UNL d   1       0.987   0.388   0.643  0.00  0.00    -0.002 A 
ATOM      2  C1  UNL d   1       0.504  -0.431  -0.368  0.00  0.00     0.010 A 
ATOM      3  C2  UNL d   1      -0.860  -0.464  -0.664  0.00  0.00     0.041 A 
ATOM      4  C3  UNL d   1      -1.739   0.349   0.079  0.00  0.00    -0.075 A 
ATOM      5  S   UNL d   1      -3.448   0.473  -0.108  0.00  0.00     0.015 SA
ATOM      6  C4  UNL d   1      -3.577   1.617   1.150  0.00  0.00     0.022 A 
ATOM      7  C5  UNL d   1      -2.355   1.908   1.709  0.00  0.00     0.026 A 
ATOM      8  C6  UNL d   1      -1.276   1.182   1.101  0.00  0.00    -0.082 A 
ATOM      9  C7  UNL d   1       0.113   1.193   1.378  0.00  0.00     0.045 A 
ENDROOT
TORSDOF 0
ENDMDL
