MODEL 1
REMARK minimizedAffinity -1.71708596
REMARK minimizedRMSD -1
REMARK  0 active torsions:
REMARK  status: ('A' for Active; 'I' for Inactive)
ROOT
ATOM      1  C   UNL d   1       2.463  -1.721  -0.462  0.00  0.00    -0.002 A 
ATOM      2  C1  UNL d   1       2.273  -1.902   0.901  0.00  0.00     0.010 A 
ATOM      3  C2  UNL d   1       1.179  -1.324   1.548  0.00  0.00     0.041 A 
ATOM      4  C3  UNL d   1       0.270  -0.556   0.796  0.00  0.00    -0.075 A 
ATOM      5  S   UNL d   1      -1.142   0.247   1.375  0.00  0.00     0.015 SA
ATOM      6  C4  UNL d   1      -1.527   0.847  -0.173  0.00  0.00     0.022 A 
ATOM      7  C5  UNL d   1      -0.611   0.456  -1.120  0.00  0.00     0.026 A 
ATOM      8  C6  UNL d   1       0.439  -0.360  -0.578  0.00  0.00    -0.082 A 
ATOM      9  C7  UNL d   1       1.559  -0.958  -1.205  0.00  0.00     0.045 A 
ENDROOT
TORSDOF 0
ENDMDL
