MODEL 1
REMARK minimizedAffinity -3.2328198
REMARK minimizedRMSD -1
REMARK  0 active torsions:
REMARK  status: ('A' for Active; 'I' for Inactive)
ROOT
ATOM      1  C   UNL d   1       1.951   2.523   0.012  0.00  0.00    -0.002 A 
ATOM      2  C1  UNL d   1       0.599   2.414  -0.281  0.00  0.00     0.010 A 
ATOM      3  C2  UNL d   1       0.016   1.163  -0.490  0.00  0.00     0.041 A 
ATOM      4  C3  UNL d   1       0.822   0.011  -0.398  0.00  0.00    -0.075 A 
ATOM      5  S   UNL d   1       0.326  -1.626  -0.615  0.00  0.00     0.015 SA
ATOM      6  C4  UNL d   1       1.897  -2.219  -0.323  0.00  0.00     0.022 A 
ATOM      7  C5  UNL d   1       2.791  -1.207  -0.065  0.00  0.00     0.026 A 
ATOM      8  C6  UNL d   1       2.186   0.095  -0.104  0.00  0.00    -0.082 A 
ATOM      9  C7  UNL d   1       2.748   1.378   0.103  0.00  0.00     0.045 A 
ENDROOT
TORSDOF 0
ENDMDL
