MODEL 1
REMARK minimizedAffinity -2.5390861
REMARK minimizedRMSD -1
REMARK  0 active torsions:
REMARK  status: ('A' for Active; 'I' for Inactive)
ROOT
ATOM      1  C   UNL d   1       0.782  -1.470  -0.132  0.00  0.00    -0.002 A 
ATOM      2  C1  UNL d   1      -0.020  -2.448   0.437  0.00  0.00     0.010 A 
ATOM      3  C2  UNL d   1      -1.338  -2.164   0.802  0.00  0.00     0.041 A 
ATOM      4  C3  UNL d   1      -1.841  -0.866   0.580  0.00  0.00    -0.075 A 
ATOM      5  S   UNL d   1      -3.424  -0.289   0.945  0.00  0.00     0.015 SA
ATOM      6  C4  UNL d   1      -3.072   1.270   0.353  0.00  0.00     0.022 A 
ATOM      7  C5  UNL d   1      -1.783   1.366  -0.115  0.00  0.00     0.026 A 
ATOM      8  C6  UNL d   1      -1.052   0.136   0.007  0.00  0.00    -0.082 A 
ATOM      9  C7  UNL d   1       0.279  -0.184  -0.350  0.00  0.00     0.045 A 
ENDROOT
TORSDOF 0
ENDMDL
