MODEL 1
REMARK minimizedAffinity -2.81003976
REMARK minimizedRMSD -1
REMARK  0 active torsions:
REMARK  status: ('A' for Active; 'I' for Inactive)
ROOT
ATOM      1  C   UNL d   1       2.781  -2.252   0.344  0.00  0.00    -0.002 A 
ATOM      2  C1  UNL d   1       3.201  -1.161   1.093  0.00  0.00     0.010 A 
ATOM      3  C2  UNL d   1       2.406  -0.018   1.189  0.00  0.00     0.041 A 
ATOM      4  C3  UNL d   1       1.168   0.011   0.517  0.00  0.00    -0.075 A 
ATOM      5  S   UNL d   1       0.027   1.303   0.493  0.00  0.00     0.015 SA
ATOM      6  C4  UNL d   1      -1.045   0.438  -0.510  0.00  0.00     0.022 A 
ATOM      7  C5  UNL d   1      -0.560  -0.809  -0.829  0.00  0.00     0.026 A 
ATOM      8  C6  UNL d   1       0.723  -1.075  -0.242  0.00  0.00    -0.082 A 
ATOM      9  C7  UNL d   1       1.553  -2.220  -0.321  0.00  0.00     0.045 A 
ENDROOT
TORSDOF 0
ENDMDL
