MODEL 1
REMARK minimizedAffinity -0.501671314
REMARK minimizedRMSD -1
REMARK  0 active torsions:
REMARK  status: ('A' for Active; 'I' for Inactive)
ROOT
ATOM      1  C   UNL d   1       0.263  -1.388  -0.830  0.00  0.00    -0.002 A 
ATOM      2  C1  UNL d   1       0.016  -2.053   0.363  0.00  0.00     0.010 A 
ATOM      3  C2  UNL d   1      -0.906  -1.545   1.281  0.00  0.00     0.041 A 
ATOM      4  C3  UNL d   1      -1.583  -0.348   0.975  0.00  0.00    -0.075 A 
ATOM      5  S   UNL d   1      -2.755   0.460   1.947  0.00  0.00     0.015 SA
ATOM      6  C4  UNL d   1      -2.956   1.706   0.801  0.00  0.00     0.022 A 
ATOM      7  C5  UNL d   1      -2.156   1.525  -0.302  0.00  0.00     0.026 A 
ATOM      8  C6  UNL d   1      -1.351   0.339  -0.220  0.00  0.00    -0.082 A 
ATOM      9  C7  UNL d   1      -0.410  -0.201  -1.130  0.00  0.00     0.045 A 
ENDROOT
TORSDOF 0
ENDMDL
