MODEL 1
REMARK minimizedAffinity 0.379353076
REMARK minimizedRMSD -1
REMARK  0 active torsions:
REMARK  status: ('A' for Active; 'I' for Inactive)
ROOT
ATOM      1  C   UNL d   1       1.578  -2.285  -0.416  0.00  0.00    -0.002 A 
ATOM      2  C1  UNL d   1       2.435  -1.205  -0.575  0.00  0.00     0.010 A 
ATOM      3  C2  UNL d   1       1.933   0.097  -0.632  0.00  0.00     0.041 A 
ATOM      4  C3  UNL d   1       0.543   0.297  -0.523  0.00  0.00    -0.075 A 
ATOM      5  S   UNL d   1      -0.297   1.802  -0.564  0.00  0.00     0.015 SA
ATOM      6  C4  UNL d   1      -1.812   1.047  -0.371  0.00  0.00     0.022 A 
ATOM      7  C5  UNL d   1      -1.699  -0.320  -0.276  0.00  0.00     0.026 A 
ATOM      8  C6  UNL d   1      -0.340  -0.775  -0.361  0.00  0.00    -0.082 A 
ATOM      9  C7  UNL d   1       0.200  -2.083  -0.309  0.00  0.00     0.045 A 
ENDROOT
TORSDOF 0
ENDMDL
