MODEL 1
REMARK minimizedAffinity -0.109393328
REMARK minimizedRMSD -1
REMARK  0 active torsions:
REMARK  status: ('A' for Active; 'I' for Inactive)
ROOT
ATOM      1  C   UNL d   1       1.835  -0.208   2.130  0.00  0.00     0.077 C 
ATOM      2  C1  UNL d   1       0.659   0.556   1.598  0.00  0.00    -0.074 A 
ATOM      3  C2  UNL d   1       0.172   1.684   2.267  0.00  0.00    -0.005 A 
ATOM      4  C3  UNL d   1      -0.916   2.390   1.755  0.00  0.00     0.006 A 
ATOM      5  C4  UNL d   1      -1.528   1.976   0.571  0.00  0.00    -0.005 A 
ATOM      6  C5  UNL d   1      -1.055   0.852  -0.112  0.00  0.00    -0.074 A 
ATOM      7  C6  UNL d   1      -1.695   0.399  -1.391  0.00  0.00     0.077 C 
ATOM      8  C7  UNL d   1       0.044   0.152   0.405  0.00  0.00    -0.001 A 
ENDROOT
TORSDOF 0
ENDMDL
