MODEL 1
REMARK minimizedAffinity -3.02738857
REMARK minimizedRMSD -1
REMARK  0 active torsions:
REMARK  status: ('A' for Active; 'I' for Inactive)
ROOT
ATOM      1  C   UNL d   1       0.146   0.813  -2.671  0.00  0.00     0.077 C 
ATOM      2  C1  UNL d   1       0.106   0.684  -1.177  0.00  0.00    -0.074 A 
ATOM      3  C2  UNL d   1       0.825  -0.322  -0.523  0.00  0.00    -0.005 A 
ATOM      4  C3  UNL d   1       0.786  -0.424   0.867  0.00  0.00     0.006 A 
ATOM      5  C4  UNL d   1       0.028   0.477   1.617  0.00  0.00    -0.005 A 
ATOM      6  C5  UNL d   1      -0.697   1.489   0.981  0.00  0.00    -0.074 A 
ATOM      7  C6  UNL d   1      -1.508   2.472   1.772  0.00  0.00     0.077 C 
ATOM      8  C7  UNL d   1      -0.647   1.590  -0.416  0.00  0.00    -0.001 A 
ENDROOT
TORSDOF 0
ENDMDL
