MODEL 1
REMARK minimizedAffinity -3.83661103
REMARK minimizedRMSD -1
REMARK  0 active torsions:
REMARK  status: ('A' for Active; 'I' for Inactive)
ROOT
ATOM      1  C   UNL d   1      -0.953  -3.206  -1.671  0.00  0.00     0.077 C 
ATOM      2  C1  UNL d   1      -0.380  -2.014  -0.964  0.00  0.00    -0.074 A 
ATOM      3  C2  UNL d   1       0.574  -1.201  -1.584  0.00  0.00    -0.005 A 
ATOM      4  C3  UNL d   1       1.092  -0.090  -0.918  0.00  0.00     0.006 A 
ATOM      5  C4  UNL d   1       0.661   0.218   0.373  0.00  0.00    -0.005 A 
ATOM      6  C5  UNL d   1      -0.293  -0.583   1.009  0.00  0.00    -0.074 A 
ATOM      7  C6  UNL d   1      -0.773  -0.260   2.393  0.00  0.00     0.077 C 
ATOM      8  C7  UNL d   1      -0.813  -1.693   0.330  0.00  0.00    -0.001 A 
ENDROOT
TORSDOF 0
ENDMDL
