MODEL 1
REMARK minimizedAffinity 0.337602615
REMARK minimizedRMSD -1
REMARK  0 active torsions:
REMARK  status: ('A' for Active; 'I' for Inactive)
ROOT
ATOM      1  C   UNL d   1      -0.065   3.621  -1.088  0.00  0.00     0.077 C 
ATOM      2  C1  UNL d   1      -0.034   2.405  -0.211  0.00  0.00    -0.074 A 
ATOM      3  C2  UNL d   1       0.103   2.521   1.176  0.00  0.00    -0.005 A 
ATOM      4  C3  UNL d   1       0.120   1.381   1.979  0.00  0.00     0.006 A 
ATOM      5  C4  UNL d   1       0.002   0.115   1.404  0.00  0.00    -0.005 A 
ATOM      6  C5  UNL d   1      -0.136  -0.021   0.020  0.00  0.00    -0.074 A 
ATOM      7  C6  UNL d   1      -0.274  -1.374  -0.613  0.00  0.00     0.077 C 
ATOM      8  C7  UNL d   1      -0.160   1.129  -0.780  0.00  0.00    -0.001 A 
ENDROOT
TORSDOF 0
ENDMDL
