MODEL 1
REMARK minimizedAffinity 5.1285429
REMARK minimizedRMSD -1
REMARK  0 active torsions:
REMARK  status: ('A' for Active; 'I' for Inactive)
ROOT
ATOM      1  C   UNL d   1       0.628  -0.236   1.100  0.00  0.00     0.077 C 
ATOM      2  C1  UNL d   1      -0.141   0.255  -0.091  0.00  0.00    -0.074 A 
ATOM      3  C2  UNL d   1       0.452   1.109  -1.027  0.00  0.00    -0.005 A 
ATOM      4  C3  UNL d   1      -0.273   1.550  -2.134  0.00  0.00     0.006 A 
ATOM      5  C4  UNL d   1      -1.595   1.142  -2.317  0.00  0.00    -0.005 A 
ATOM      6  C5  UNL d   1      -2.203   0.287  -1.392  0.00  0.00    -0.074 A 
ATOM      7  C6  UNL d   1      -3.620  -0.169  -1.579  0.00  0.00     0.077 C 
ATOM      8  C7  UNL d   1      -1.466  -0.157  -0.286  0.00  0.00    -0.001 A 
ENDROOT
TORSDOF 0
ENDMDL
