MODEL 1
REMARK minimizedAffinity 6.65460968
REMARK minimizedRMSD -1
REMARK  0 active torsions:
REMARK  status: ('A' for Active; 'I' for Inactive)
ROOT
ATOM      1  C   UNL d   1       1.799   5.896   0.180  0.00  0.00     0.077 C 
ATOM      2  C1  UNL d   1       1.471   4.788   1.137  0.00  0.00    -0.074 A 
ATOM      3  C2  UNL d   1       2.036   4.753   2.416  0.00  0.00    -0.005 A 
ATOM      4  C3  UNL d   1       1.714   3.721   3.298  0.00  0.00     0.006 A 
ATOM      5  C4  UNL d   1       0.826   2.717   2.911  0.00  0.00    -0.005 A 
ATOM      6  C5  UNL d   1       0.251   2.737   1.637  0.00  0.00    -0.074 A 
ATOM      7  C6  UNL d   1      -0.713   1.670   1.208  0.00  0.00     0.077 C 
ATOM      8  C7  UNL d   1       0.574   3.780   0.758  0.00  0.00    -0.001 A 
ENDROOT
TORSDOF 0
ENDMDL
