MODEL 1
REMARK minimizedAffinity -0.460978657
REMARK minimizedRMSD -1
REMARK  0 active torsions:
REMARK  status: ('A' for Active; 'I' for Inactive)
ROOT
ATOM      1  C   UNL d   1       1.654  -1.730   0.778  0.00  0.00     0.077 C 
ATOM      2  C1  UNL d   1       1.021  -0.770   1.741  0.00  0.00    -0.074 A 
ATOM      3  C2  UNL d   1       0.726  -1.157   3.052  0.00  0.00    -0.005 A 
ATOM      4  C3  UNL d   1       0.146  -0.250   3.939  0.00  0.00     0.006 A 
ATOM      5  C4  UNL d   1      -0.144   1.050   3.525  0.00  0.00    -0.005 A 
ATOM      6  C5  UNL d   1       0.144   1.455   2.218  0.00  0.00    -0.074 A 
ATOM      7  C6  UNL d   1      -0.153   2.852   1.760  0.00  0.00     0.077 C 
ATOM      8  C7  UNL d   1       0.733   0.541   1.334  0.00  0.00    -0.001 A 
ENDROOT
TORSDOF 0
ENDMDL
