MODEL 1
REMARK minimizedAffinity 4.33595467
REMARK minimizedRMSD -1
REMARK  1 active torsions:
REMARK  status: ('A' for Active; 'I' for Inactive)
REMARK    1  A    between atoms: C1_2  and  C2_3 
ROOT
ATOM      1  C2  UNL d   1      -3.345  -3.589  -5.976  0.00  0.00    -0.076 A 
ATOM      2  C3  UNL d   1      -3.243  -2.187  -5.985  0.00  0.00     0.004 A 
ATOM      3  C4  UNL d   1      -2.000  -1.558  -5.971  0.00  0.00    -0.003 A 
ATOM      4  C5  UNL d   1      -0.837  -2.321  -5.951  0.00  0.00     0.000 A 
ATOM      5  C6  UNL d   1      -0.919  -3.713  -5.960  0.00  0.00     0.000 A 
ATOM      6  C7  UNL d   1      -2.165  -4.363  -5.990  0.00  0.00    -0.073 A 
ATOM      7  C8  UNL d   1      -2.194  -5.867  -5.992  0.00  0.00     0.078 C 
ENDROOT
BRANCH   1   8
ATOM      8  C1  UNL d   1      -4.721  -4.215  -5.964  0.00  0.00     0.053 C 
ATOM      9  C   UNL d   1      -4.670  -5.735  -5.954  0.00  0.00     0.018 C 
ENDBRANCH   1   8
TORSDOF 1
ENDMDL
