MODEL 1
REMARK minimizedAffinity 5.3761363
REMARK minimizedRMSD -1
REMARK  1 active torsions:
REMARK  status: ('A' for Active; 'I' for Inactive)
REMARK    1  A    between atoms: C1_2  and  C2_3 
ROOT
ATOM      1  C2  UNL d   1      -5.331  -0.159   2.651  0.00  0.00    -0.076 A 
ATOM      2  C3  UNL d   1      -5.840   0.671   1.638  0.00  0.00     0.004 A 
ATOM      3  C4  UNL d   1      -5.247   0.711   0.377  0.00  0.00    -0.003 A 
ATOM      4  C5  UNL d   1      -4.135  -0.079   0.109  0.00  0.00     0.000 A 
ATOM      5  C6  UNL d   1      -3.627  -0.923   1.097  0.00  0.00     0.000 A 
ATOM      6  C7  UNL d   1      -4.224  -0.987   2.368  0.00  0.00    -0.073 A 
ATOM      7  C8  UNL d   1      -3.631  -1.909   3.398  0.00  0.00     0.078 C 
ENDROOT
BRANCH   1   8
ATOM      8  C1  UNL d   1      -6.000  -0.140   4.007  0.00  0.00     0.053 C 
ATOM      9  C   UNL d   1      -6.000  -1.506   4.676  0.00  0.00     0.018 C 
ENDBRANCH   1   8
TORSDOF 1
ENDMDL
