MODEL 1
REMARK minimizedAffinity 0.420456201
REMARK minimizedRMSD -1
REMARK  1 active torsions:
REMARK  status: ('A' for Active; 'I' for Inactive)
REMARK    1  A    between atoms: C1_2  and  C2_3 
ROOT
ATOM      1  C2  UNL d   1      -5.586  -1.549   4.047  0.00  0.00    -0.076 A 
ATOM      2  C3  UNL d   1      -6.000  -1.813   5.365  0.00  0.00     0.004 A 
ATOM      3  C4  UNL d   1      -5.668  -3.011   5.995  0.00  0.00    -0.003 A 
ATOM      4  C5  UNL d   1      -4.917  -3.965   5.318  0.00  0.00     0.000 A 
ATOM      5  C6  UNL d   1      -4.482  -3.713   4.017  0.00  0.00     0.000 A 
ATOM      6  C7  UNL d   1      -4.794  -2.503   3.373  0.00  0.00    -0.073 A 
ATOM      7  C8  UNL d   1      -4.305  -2.287   1.967  0.00  0.00     0.078 C 
ENDROOT
BRANCH   1   8
ATOM      8  C1  UNL d   1      -5.999  -0.244   3.406  0.00  0.00     0.053 C 
ATOM      9  C   UNL d   1      -4.904   0.347   2.530  0.00  0.00     0.018 C 
ENDBRANCH   1   8
TORSDOF 1
ENDMDL
