MODEL 1
REMARK minimizedAffinity 5.14322424
REMARK minimizedRMSD -1
REMARK  1 active torsions:
REMARK  status: ('A' for Active; 'I' for Inactive)
REMARK    1  A    between atoms: C1_2  and  C2_3 
ROOT
ATOM      1  C2  UNL d   1      -4.922   0.304   1.609  0.00  0.00    -0.076 A 
ATOM      2  C3  UNL d   1      -5.654   0.133   0.422  0.00  0.00     0.004 A 
ATOM      3  C4  UNL d   1      -5.170   0.610  -0.795  0.00  0.00    -0.003 A 
ATOM      4  C5  UNL d   1      -3.945   1.266  -0.844  0.00  0.00     0.000 A 
ATOM      5  C6  UNL d   1      -3.197   1.429   0.321  0.00  0.00     0.000 A 
ATOM      6  C7  UNL d   1      -3.663   0.939   1.553  0.00  0.00    -0.073 A 
ATOM      7  C8  UNL d   1      -2.817   1.148   2.780  0.00  0.00     0.078 C 
ENDROOT
BRANCH   1   8
ATOM      8  C1  UNL d   1      -5.510  -0.211   2.903  0.00  0.00     0.053 C 
ATOM      9  C   UNL d   1      -4.875  -1.519   3.352  0.00  0.00     0.018 C 
ENDBRANCH   1   8
TORSDOF 1
ENDMDL
