MODEL 1
REMARK minimizedAffinity 9.6493721
REMARK minimizedRMSD -1
REMARK  1 active torsions:
REMARK  status: ('A' for Active; 'I' for Inactive)
REMARK    1  A    between atoms: C1_2  and  C2_3 
ROOT
ATOM      1  C2  UNL d   1      -2.950   3.064  -2.505  0.00  0.00    -0.076 A 
ATOM      2  C3  UNL d   1      -1.586   2.727  -2.450  0.00  0.00     0.004 A 
ATOM      3  C4  UNL d   1      -0.601   3.697  -2.627  0.00  0.00    -0.003 A 
ATOM      4  C5  UNL d   1      -0.962   5.019  -2.861  0.00  0.00     0.000 A 
ATOM      5  C6  UNL d   1      -2.310   5.374  -2.901  0.00  0.00     0.000 A 
ATOM      6  C7  UNL d   1      -3.317   4.412  -2.708  0.00  0.00    -0.073 A 
ATOM      7  C8  UNL d   1      -4.755   4.849  -2.768  0.00  0.00     0.078 C 
ENDROOT
BRANCH   1   8
ATOM      8  C1  UNL d   1      -3.975   1.966  -2.332  0.00  0.00     0.053 C 
ATOM      9  C   UNL d   1      -4.000   1.409  -0.917  0.00  0.00     0.018 C 
ENDBRANCH   1   8
TORSDOF 1
ENDMDL
