MODEL 1
REMARK minimizedAffinity 6.24061155
REMARK minimizedRMSD -1
REMARK  1 active torsions:
REMARK  status: ('A' for Active; 'I' for Inactive)
REMARK    1  A    between atoms: C1_2  and  C2_3 
ROOT
ATOM      1  C2  UNL d   1      -4.775  -0.086   1.667  0.00  0.00    -0.076 A 
ATOM      2  C3  UNL d   1      -5.594   0.411   2.696  0.00  0.00     0.004 A 
ATOM      3  C4  UNL d   1      -5.996  -0.406   3.751  0.00  0.00    -0.003 A 
ATOM      4  C5  UNL d   1      -5.585  -1.734   3.795  0.00  0.00     0.000 A 
ATOM      5  C6  UNL d   1      -4.759  -2.239   2.792  0.00  0.00     0.000 A 
ATOM      6  C7  UNL d   1      -4.331  -1.424   1.729  0.00  0.00    -0.073 A 
ATOM      7  C8  UNL d   1      -3.445  -2.023   0.672  0.00  0.00     0.078 C 
ENDROOT
BRANCH   1   8
ATOM      8  C1  UNL d   1      -4.394   0.840   0.534  0.00  0.00     0.053 C 
ATOM      9  C   UNL d   1      -4.842   0.317  -0.822  0.00  0.00     0.018 C 
ENDBRANCH   1   8
TORSDOF 1
ENDMDL
