MODEL 1
REMARK minimizedAffinity 8.14451981
REMARK minimizedRMSD -1
REMARK  1 active torsions:
REMARK  status: ('A' for Active; 'I' for Inactive)
REMARK    1  A    between atoms: C1_2  and  C2_3 
ROOT
ATOM      1  C2  UNL d   1      -3.730  -3.582  -5.477  0.00  0.00    -0.076 A 
ATOM      2  C3  UNL d   1      -2.395  -3.682  -5.048  0.00  0.00     0.004 A 
ATOM      3  C4  UNL d   1      -1.892  -4.880  -4.544  0.00  0.00    -0.003 A 
ATOM      4  C5  UNL d   1      -2.715  -5.998  -4.460  0.00  0.00     0.000 A 
ATOM      5  C6  UNL d   1      -4.037  -5.921  -4.897  0.00  0.00     0.000 A 
ATOM      6  C7  UNL d   1      -4.556  -4.725  -5.423  0.00  0.00    -0.073 A 
ATOM      7  C8  UNL d   1      -5.991  -4.698  -5.874  0.00  0.00     0.078 C 
ENDROOT
BRANCH   1   8
ATOM      8  C1  UNL d   1      -4.228  -2.249  -5.989  0.00  0.00     0.053 C 
ATOM      9  C   UNL d   1      -3.422  -1.079  -5.448  0.00  0.00     0.018 C 
ENDBRANCH   1   8
TORSDOF 1
ENDMDL
