MODEL 1
REMARK minimizedAffinity 11.6460896
REMARK minimizedRMSD -1
REMARK  1 active torsions:
REMARK  status: ('A' for Active; 'I' for Inactive)
REMARK    1  A    between atoms: C1_2  and  C2_3 
ROOT
ATOM      1  C2  UNL d   1      -2.414   1.399  -0.237  0.00  0.00    -0.076 A 
ATOM      2  C3  UNL d   1      -2.770   1.654  -1.573  0.00  0.00     0.004 A 
ATOM      3  C4  UNL d   1      -4.023   1.292  -2.064  0.00  0.00    -0.003 A 
ATOM      4  C5  UNL d   1      -4.942   0.670  -1.226  0.00  0.00     0.000 A 
ATOM      5  C6  UNL d   1      -4.613   0.425   0.107  0.00  0.00     0.000 A 
ATOM      6  C7  UNL d   1      -3.359   0.798   0.621  0.00  0.00    -0.073 A 
ATOM      7  C8  UNL d   1      -3.055   0.504   2.065  0.00  0.00     0.078 C 
ENDROOT
BRANCH   1   8
ATOM      8  C1  UNL d   1      -1.031   1.789   0.231  0.00  0.00     0.053 C 
ATOM      9  C   UNL d   1      -0.319   2.705  -0.753  0.00  0.00     0.018 C 
ENDBRANCH   1   8
TORSDOF 1
ENDMDL
