MODEL 1
REMARK minimizedAffinity -4.13858032
REMARK minimizedRMSD -1
REMARK  0 active torsions:
REMARK  status: ('A' for Active; 'I' for Inactive)
ROOT
ATOM      1  C   UNL d   1      -3.043  -4.445  -1.079  0.00  0.00     0.077 C 
ATOM      2  C1  UNL d   1      -1.765  -3.692  -1.302  0.00  0.00    -0.074 A 
ATOM      3  C2  UNL d   1      -0.831  -4.125  -2.249  0.00  0.00    -0.005 A 
ATOM      4  C3  UNL d   1       0.348  -3.409  -2.452  0.00  0.00     0.006 A 
ATOM      5  C4  UNL d   1       0.606  -2.255  -1.712  0.00  0.00    -0.005 A 
ATOM      6  C5  UNL d   1      -0.316  -1.806  -0.761  0.00  0.00    -0.074 A 
ATOM      7  C6  UNL d   1      -0.059  -0.562   0.036  0.00  0.00     0.077 C 
ATOM      8  C7  UNL d   1      -1.502  -2.527  -0.568  0.00  0.00    -0.001 A 
ENDROOT
TORSDOF 0
ENDMDL
