MODEL 1
REMARK minimizedAffinity -4.04053831
REMARK minimizedRMSD -1
REMARK  0 active torsions:
REMARK  status: ('A' for Active; 'I' for Inactive)
ROOT
ATOM      1  C   UNL d   1       2.319   1.459   0.949  0.00  0.00     0.077 C 
ATOM      2  C1  UNL d   1       0.900   1.226   0.524  0.00  0.00    -0.074 A 
ATOM      3  C2  UNL d   1      -0.037   2.264   0.548  0.00  0.00    -0.005 A 
ATOM      4  C3  UNL d   1      -1.351   2.035   0.141  0.00  0.00     0.006 A 
ATOM      5  C4  UNL d   1      -1.741   0.767  -0.295  0.00  0.00    -0.005 A 
ATOM      6  C5  UNL d   1      -0.817  -0.282  -0.327  0.00  0.00    -0.074 A 
ATOM      7  C6  UNL d   1      -1.217  -1.648  -0.802  0.00  0.00     0.077 C 
ATOM      8  C7  UNL d   1       0.503  -0.042   0.077  0.00  0.00    -0.001 A 
ENDROOT
TORSDOF 0
ENDMDL
