MODEL 1
REMARK minimizedAffinity -3.81029773
REMARK minimizedRMSD -1
REMARK  0 active torsions:
REMARK  status: ('A' for Active; 'I' for Inactive)
ROOT
ATOM      1  C   UNL d   1      -0.805   3.019   0.370  0.00  0.00     0.077 C 
ATOM      2  C1  UNL d   1      -0.288   1.613   0.445  0.00  0.00    -0.074 A 
ATOM      3  C2  UNL d   1      -1.166   0.526   0.501  0.00  0.00    -0.005 A 
ATOM      4  C3  UNL d   1      -0.671  -0.776   0.561  0.00  0.00     0.006 A 
ATOM      5  C4  UNL d   1       0.706  -1.005   0.566  0.00  0.00    -0.005 A 
ATOM      6  C5  UNL d   1       1.599   0.070   0.510  0.00  0.00    -0.074 A 
ATOM      7  C6  UNL d   1       3.082  -0.158   0.504  0.00  0.00     0.077 C 
ATOM      8  C7  UNL d   1       1.094   1.375   0.442  0.00  0.00    -0.001 A 
ENDROOT
TORSDOF 0
ENDMDL
