MODEL 1
REMARK minimizedAffinity -3.46481466
REMARK minimizedRMSD -1
REMARK  0 active torsions:
REMARK  status: ('A' for Active; 'I' for Inactive)
ROOT
ATOM      1  C   UNL d   1       1.985  -1.217   0.249  0.00  0.00     0.077 C 
ATOM      2  C1  UNL d   1       0.858  -0.229   0.311  0.00  0.00    -0.074 A 
ATOM      3  C2  UNL d   1      -0.390  -0.593   0.828  0.00  0.00    -0.005 A 
ATOM      4  C3  UNL d   1      -1.425   0.340   0.888  0.00  0.00     0.006 A 
ATOM      5  C4  UNL d   1      -1.223   1.644   0.433  0.00  0.00    -0.005 A 
ATOM      6  C5  UNL d   1       0.018   2.026  -0.086  0.00  0.00    -0.074 A 
ATOM      7  C6  UNL d   1       0.254   3.426  -0.570  0.00  0.00     0.077 C 
ATOM      8  C7  UNL d   1       1.055   1.085  -0.137  0.00  0.00    -0.001 A 
ENDROOT
TORSDOF 0
ENDMDL
