MODEL 1
REMARK minimizedAffinity -3.25305057
REMARK minimizedRMSD -1
REMARK  0 active torsions:
REMARK  status: ('A' for Active; 'I' for Inactive)
ROOT
ATOM      1  C   UNL d   1      -3.281  -4.732  -0.678  0.00  0.00     0.077 C 
ATOM      2  C1  UNL d   1      -1.933  -4.216  -1.086  0.00  0.00    -0.074 A 
ATOM      3  C2  UNL d   1      -1.376  -4.560  -2.322  0.00  0.00    -0.005 A 
ATOM      4  C3  UNL d   1      -0.125  -4.065  -2.691  0.00  0.00     0.006 A 
ATOM      5  C4  UNL d   1       0.580  -3.223  -1.831  0.00  0.00    -0.005 A 
ATOM      6  C5  UNL d   1       0.038  -2.867  -0.591  0.00  0.00    -0.074 A 
ATOM      7  C6  UNL d   1       0.778  -1.955   0.341  0.00  0.00     0.077 C 
ATOM      8  C7  UNL d   1      -1.222  -3.363  -0.230  0.00  0.00    -0.001 A 
ENDROOT
TORSDOF 0
ENDMDL
