MODEL 1
REMARK minimizedAffinity -1.33691072
REMARK minimizedRMSD -1
REMARK  0 active torsions:
REMARK  status: ('A' for Active; 'I' for Inactive)
ROOT
ATOM      1  C   UNL d   1       2.697  -0.995   0.037  0.00  0.00     0.077 C 
ATOM      2  C1  UNL d   1       1.363  -0.325   0.183  0.00  0.00    -0.074 A 
ATOM      3  C2  UNL d   1       0.179  -1.070   0.166  0.00  0.00    -0.005 A 
ATOM      4  C3  UNL d   1      -1.054  -0.435   0.313  0.00  0.00     0.006 A 
ATOM      5  C4  UNL d   1      -1.116   0.949   0.478  0.00  0.00    -0.005 A 
ATOM      6  C5  UNL d   1       0.057   1.710   0.499  0.00  0.00    -0.074 A 
ATOM      7  C6  UNL d   1       0.009   3.198   0.685  0.00  0.00     0.077 C 
ATOM      8  C7  UNL d   1       1.293   1.064   0.357  0.00  0.00    -0.001 A 
ENDROOT
TORSDOF 0
ENDMDL
