MODEL 1
REMARK minimizedAffinity -5.205616
REMARK minimizedRMSD -1
REMARK  0 active torsions:
REMARK  status: ('A' for Active; 'I' for Inactive)
ROOT
ATOM      1  C   UNL d   1      -0.129   1.914   0.878  0.00  0.00     0.077 C 
ATOM      2  C1  UNL d   1       0.238   0.460   0.842  0.00  0.00    -0.074 A 
ATOM      3  C2  UNL d   1       1.568   0.058   0.681  0.00  0.00    -0.005 A 
ATOM      4  C3  UNL d   1       1.895  -1.298   0.659  0.00  0.00     0.006 A 
ATOM      5  C4  UNL d   1       0.897  -2.263   0.799  0.00  0.00    -0.005 A 
ATOM      6  C5  UNL d   1      -0.438  -1.880   0.962  0.00  0.00    -0.074 A 
ATOM      7  C6  UNL d   1      -1.521  -2.905   1.123  0.00  0.00     0.077 C 
ATOM      8  C7  UNL d   1      -0.758  -0.516   0.989  0.00  0.00    -0.001 A 
ENDROOT
TORSDOF 0
ENDMDL
