MODEL 1
REMARK minimizedAffinity -4.40680122
REMARK minimizedRMSD -1
REMARK  0 active torsions:
REMARK  status: ('A' for Active; 'I' for Inactive)
ROOT
ATOM      1  C   UNL d   1       0.672   3.266  -0.396  0.00  0.00     0.077 C 
ATOM      2  C1  UNL d   1      -0.020   2.002   0.018  0.00  0.00    -0.074 A 
ATOM      3  C2  UNL d   1      -1.366   2.011   0.399  0.00  0.00    -0.005 A 
ATOM      4  C3  UNL d   1      -1.999   0.825   0.773  0.00  0.00     0.006 A 
ATOM      5  C4  UNL d   1      -1.294  -0.379   0.770  0.00  0.00    -0.005 A 
ATOM      6  C5  UNL d   1       0.052  -0.407   0.392  0.00  0.00    -0.074 A 
ATOM      7  C6  UNL d   1       0.822  -1.694   0.374  0.00  0.00     0.077 C 
ATOM      8  C7  UNL d   1       0.679   0.787   0.011  0.00  0.00    -0.001 A 
ENDROOT
TORSDOF 0
ENDMDL
