MODEL 1
REMARK minimizedAffinity -5.16886806
REMARK minimizedRMSD -1
REMARK  0 active torsions:
REMARK  status: ('A' for Active; 'I' for Inactive)
ROOT
ATOM      1  C   UNL d   1       0.125   2.982  -0.501  0.00  0.00     0.077 C 
ATOM      2  C1  UNL d   1      -0.267   1.599  -0.074  0.00  0.00    -0.074 A 
ATOM      3  C2  UNL d   1      -1.600   1.285   0.210  0.00  0.00    -0.005 A 
ATOM      4  C3  UNL d   1      -1.951  -0.009   0.597  0.00  0.00     0.006 A 
ATOM      5  C4  UNL d   1      -0.974  -0.999   0.703  0.00  0.00    -0.005 A 
ATOM      6  C5  UNL d   1       0.364  -0.704   0.421  0.00  0.00    -0.074 A 
ATOM      7  C6  UNL d   1       1.425  -1.760   0.521  0.00  0.00     0.077 C 
ATOM      8  C7  UNL d   1       0.707   0.596   0.027  0.00  0.00    -0.001 A 
ENDROOT
TORSDOF 0
ENDMDL
