MODEL 1
REMARK minimizedAffinity -2.21413231
REMARK minimizedRMSD -1
REMARK  0 active torsions:
REMARK  status: ('A' for Active; 'I' for Inactive)
ROOT
ATOM      1  C   UNL d   1      -1.924  -2.786  -2.634  0.00  0.00     0.077 C 
ATOM      2  C1  UNL d   1      -1.098  -1.936  -1.716  0.00  0.00    -0.074 A 
ATOM      3  C2  UNL d   1       0.247  -2.236  -1.475  0.00  0.00    -0.005 A 
ATOM      4  C3  UNL d   1       1.006  -1.431  -0.626  0.00  0.00     0.006 A 
ATOM      5  C4  UNL d   1       0.429  -0.319  -0.010  0.00  0.00    -0.005 A 
ATOM      6  C5  UNL d   1      -0.914  -0.004  -0.240  0.00  0.00    -0.074 A 
ATOM      7  C6  UNL d   1      -1.547   1.193   0.406  0.00  0.00     0.077 C 
ATOM      8  C7  UNL d   1      -1.668  -0.814  -1.100  0.00  0.00    -0.001 A 
ENDROOT
TORSDOF 0
ENDMDL
