MODEL 1
REMARK minimizedAffinity -4.50578117
REMARK minimizedRMSD -1
REMARK  0 active torsions:
REMARK  status: ('A' for Active; 'I' for Inactive)
ROOT
ATOM      1  C   UNL d   1      -0.083  -1.902  -0.089  0.00  0.00     0.077 C 
ATOM      2  C1  UNL d   1       0.212  -0.450   0.144  0.00  0.00    -0.074 A 
ATOM      3  C2  UNL d   1      -0.819   0.495   0.191  0.00  0.00    -0.005 A 
ATOM      4  C3  UNL d   1      -0.530   1.840   0.419  0.00  0.00     0.006 A 
ATOM      5  C4  UNL d   1       0.790   2.254   0.601  0.00  0.00    -0.005 A 
ATOM      6  C5  UNL d   1       1.834   1.324   0.558  0.00  0.00    -0.074 A 
ATOM      7  C6  UNL d   1       3.257   1.751   0.761  0.00  0.00     0.077 C 
ATOM      8  C7  UNL d   1       1.535  -0.027   0.336  0.00  0.00    -0.001 A 
ENDROOT
TORSDOF 0
ENDMDL
