MODEL 1
REMARK minimizedAffinity -4.8780303
REMARK minimizedRMSD -1
REMARK  0 active torsions:
REMARK  status: ('A' for Active; 'I' for Inactive)
ROOT
ATOM      1  C   UNL d   1      -0.390  -2.039   0.101  0.00  0.00     0.077 C 
ATOM      2  C1  UNL d   1       0.546  -0.875   0.245  0.00  0.00    -0.074 A 
ATOM      3  C2  UNL d   1       1.902  -1.074   0.523  0.00  0.00    -0.005 A 
ATOM      4  C3  UNL d   1       2.762   0.017   0.645  0.00  0.00     0.006 A 
ATOM      5  C4  UNL d   1       2.276   1.316   0.491  0.00  0.00    -0.005 A 
ATOM      6  C5  UNL d   1       0.923   1.534   0.212  0.00  0.00    -0.074 A 
ATOM      7  C6  UNL d   1       0.385   2.923   0.034  0.00  0.00     0.077 C 
ATOM      8  C7  UNL d   1       0.066   0.432   0.084  0.00  0.00    -0.001 A 
ENDROOT
TORSDOF 0
ENDMDL
