MODEL 1
REMARK minimizedAffinity -4.88431358
REMARK minimizedRMSD -1
REMARK  0 active torsions:
REMARK  status: ('A' for Active; 'I' for Inactive)
ROOT
ATOM      1  C   UNL d   1       1.124   3.218  -0.375  0.00  0.00     0.077 C 
ATOM      2  C1  UNL d   1       0.215   2.088   0.005  0.00  0.00    -0.074 A 
ATOM      3  C2  UNL d   1      -0.961   2.323   0.725  0.00  0.00    -0.005 A 
ATOM      4  C3  UNL d   1      -1.802   1.263   1.063  0.00  0.00     0.006 A 
ATOM      5  C4  UNL d   1      -1.475  -0.041   0.687  0.00  0.00    -0.005 A 
ATOM      6  C5  UNL d   1      -0.304  -0.295  -0.033  0.00  0.00    -0.074 A 
ATOM      7  C6  UNL d   1       0.057  -1.688  -0.454  0.00  0.00     0.077 C 
ATOM      8  C7  UNL d   1       0.532   0.777  -0.376  0.00  0.00    -0.001 A 
ENDROOT
TORSDOF 0
ENDMDL
