MODEL 1
REMARK minimizedAffinity -2.53636336
REMARK minimizedRMSD -1
REMARK  0 active torsions:
REMARK  status: ('A' for Active; 'I' for Inactive)
ROOT
ATOM      1  C   UNL d   1       0.205   3.231  -0.227  0.00  0.00     0.077 C 
ATOM      2  C1  UNL d   1       0.719   1.822  -0.226  0.00  0.00    -0.074 A 
ATOM      3  C2  UNL d   1       2.084   1.555  -0.078  0.00  0.00    -0.005 A 
ATOM      4  C3  UNL d   1       2.545   0.239  -0.069  0.00  0.00     0.006 A 
ATOM      5  C4  UNL d   1       1.649  -0.822  -0.208  0.00  0.00    -0.005 A 
ATOM      6  C5  UNL d   1       0.281  -0.573  -0.357  0.00  0.00    -0.074 A 
ATOM      7  C6  UNL d   1      -0.698  -1.702  -0.498  0.00  0.00     0.077 C 
ATOM      8  C7  UNL d   1      -0.176   0.752  -0.358  0.00  0.00    -0.001 A 
ENDROOT
TORSDOF 0
ENDMDL
