MODEL 1
REMARK minimizedAffinity -5.48128796
REMARK minimizedRMSD -1
REMARK  0 active torsions:
REMARK  status: ('A' for Active; 'I' for Inactive)
ROOT
ATOM      1  C   UNL d   1       0.001  -0.587  -1.201  0.00  0.00     0.078 C 
ATOM      2  C1  UNL d   1      -0.442  -0.017   0.113  0.00  0.00    -0.077 A 
ATOM      3  C2  UNL d   1      -1.765  -0.158   0.551  0.00  0.00    -0.001 A 
ATOM      4  C3  UNL d   1      -2.166   0.386   1.772  0.00  0.00     0.003 A 
ATOM      5  C4  UNL d   1      -1.251   1.075   2.566  0.00  0.00    -0.005 A 
ATOM      6  C5  UNL d   1       0.067   1.221   2.138  0.00  0.00     0.003 A 
ATOM      7  C6  UNL d   1       0.470   0.678   0.917  0.00  0.00    -0.001 A 
ENDROOT
TORSDOF 0
ENDMDL
