MODEL 1
REMARK minimizedAffinity -2.74996781
REMARK minimizedRMSD -1
REMARK  0 active torsions:
REMARK  status: ('A' for Active; 'I' for Inactive)
ROOT
ATOM      1  C   UNL d   1      -0.884   1.529   2.385  0.00  0.00     0.078 C 
ATOM      2  C1  UNL d   1      -0.001   0.722   1.480  0.00  0.00    -0.077 A 
ATOM      3  C2  UNL d   1      -0.461   0.271   0.237  0.00  0.00    -0.001 A 
ATOM      4  C3  UNL d   1       0.368  -0.487  -0.590  0.00  0.00     0.003 A 
ATOM      5  C4  UNL d   1       1.663  -0.803  -0.183  0.00  0.00    -0.005 A 
ATOM      6  C5  UNL d   1       2.130  -0.360   1.053  0.00  0.00     0.003 A 
ATOM      7  C6  UNL d   1       1.301   0.398   1.882  0.00  0.00    -0.001 A 
ENDROOT
TORSDOF 0
ENDMDL
