MODEL 1
REMARK minimizedAffinity -4.54610682
REMARK minimizedRMSD -1
REMARK  0 active torsions:
REMARK  status: ('A' for Active; 'I' for Inactive)
ROOT
ATOM      1  C   UNL d   1       0.116  -0.595  -0.666  0.00  0.00     0.078 C 
ATOM      2  C1  UNL d   1      -0.303   0.003   0.644  0.00  0.00    -0.077 A 
ATOM      3  C2  UNL d   1       0.577   0.799   1.388  0.00  0.00    -0.001 A 
ATOM      4  C3  UNL d   1       0.177   1.341   2.610  0.00  0.00     0.003 A 
ATOM      5  C4  UNL d   1      -1.104   1.093   3.100  0.00  0.00    -0.005 A 
ATOM      6  C5  UNL d   1      -1.986   0.301   2.367  0.00  0.00     0.003 A 
ATOM      7  C6  UNL d   1      -1.587  -0.242   1.145  0.00  0.00    -0.001 A 
ENDROOT
TORSDOF 0
ENDMDL
