MODEL 1
REMARK minimizedAffinity -4.95784044
REMARK minimizedRMSD -1
REMARK  0 active torsions:
REMARK  status: ('A' for Active; 'I' for Inactive)
ROOT
ATOM      1  C   UNL d   1       0.446  -0.445  -0.954  0.00  0.00     0.078 C 
ATOM      2  C1  UNL d   1      -0.231   0.015   0.302  0.00  0.00    -0.077 A 
ATOM      3  C2  UNL d   1      -1.628   0.085   0.384  0.00  0.00    -0.001 A 
ATOM      4  C3  UNL d   1      -2.245   0.525   1.556  0.00  0.00     0.003 A 
ATOM      5  C4  UNL d   1      -1.474   0.899   2.655  0.00  0.00    -0.005 A 
ATOM      6  C5  UNL d   1      -0.084   0.835   2.582  0.00  0.00     0.003 A 
ATOM      7  C6  UNL d   1       0.535   0.395   1.411  0.00  0.00    -0.001 A 
ENDROOT
TORSDOF 0
ENDMDL
