MODEL 1
REMARK minimizedAffinity -5.29064417
REMARK minimizedRMSD -1
REMARK  0 active torsions:
REMARK  status: ('A' for Active; 'I' for Inactive)
ROOT
ATOM      1  C   UNL d   1      -0.212  -0.749  -1.149  0.00  0.00     0.078 C 
ATOM      2  C1  UNL d   1      -0.479  -0.130   0.191  0.00  0.00    -0.077 A 
ATOM      3  C2  UNL d   1      -1.782  -0.033   0.694  0.00  0.00    -0.001 A 
ATOM      4  C3  UNL d   1      -2.016   0.554   1.939  0.00  0.00     0.003 A 
ATOM      5  C4  UNL d   1      -0.952   1.050   2.690  0.00  0.00    -0.005 A 
ATOM      6  C5  UNL d   1       0.348   0.960   2.196  0.00  0.00     0.003 A 
ATOM      7  C6  UNL d   1       0.584   0.373   0.952  0.00  0.00    -0.001 A 
ENDROOT
TORSDOF 0
ENDMDL
