MODEL 1
REMARK minimizedAffinity -3.92546153
REMARK minimizedRMSD -1
REMARK  0 active torsions:
REMARK  status: ('A' for Active; 'I' for Inactive)
ROOT
ATOM      1  C   UNL d   1       0.402  -0.446  -0.375  0.00  0.00     0.078 C 
ATOM      2  C1  UNL d   1      -0.175   0.355   0.754  0.00  0.00    -0.077 A 
ATOM      3  C2  UNL d   1      -1.524   0.233   1.109  0.00  0.00    -0.001 A 
ATOM      4  C3  UNL d   1      -2.050   0.993   2.156  0.00  0.00     0.003 A 
ATOM      5  C4  UNL d   1      -1.234   1.879   2.855  0.00  0.00    -0.005 A 
ATOM      6  C5  UNL d   1       0.109   2.009   2.508  0.00  0.00     0.003 A 
ATOM      7  C6  UNL d   1       0.636   1.250   1.462  0.00  0.00    -0.001 A 
ENDROOT
TORSDOF 0
ENDMDL
