MODEL 1
REMARK minimizedAffinity -5.42241049
REMARK minimizedRMSD -1
REMARK  0 active torsions:
REMARK  status: ('A' for Active; 'I' for Inactive)
ROOT
ATOM      1  C   UNL d   1       0.860  -0.720  -0.788  0.00  0.00     0.078 C 
ATOM      2  C1  UNL d   1       0.583  -0.280   0.619  0.00  0.00    -0.077 A 
ATOM      3  C2  UNL d   1      -0.558   0.470   0.929  0.00  0.00    -0.001 A 
ATOM      4  C3  UNL d   1      -0.797   0.881   2.241  0.00  0.00     0.003 A 
ATOM      5  C4  UNL d   1       0.101   0.548   3.253  0.00  0.00    -0.005 A 
ATOM      6  C5  UNL d   1       1.240  -0.196   2.954  0.00  0.00     0.003 A 
ATOM      7  C6  UNL d   1       1.481  -0.608   1.642  0.00  0.00    -0.001 A 
ENDROOT
TORSDOF 0
ENDMDL
