MODEL 1
REMARK minimizedAffinity -1.91209531
REMARK minimizedRMSD -1
REMARK  0 active torsions:
REMARK  status: ('A' for Active; 'I' for Inactive)
ROOT
ATOM      1  C2' OXE d   1      -1.620   0.787   0.735  0.00  0.00     0.078 C 
ATOM      2  C1' OXE d   1       0.366  -1.049   1.486  0.00  0.00     0.078 C 
ATOM      3  C1  OXE d   1       0.806   0.228   0.816  0.00  0.00    -0.078 A 
ATOM      4  C2  OXE d   1      -0.175   1.100   0.410  0.00  0.00    -0.078 A 
ATOM      5  C3  OXE d   1       0.179   2.318  -0.164  0.00  0.00     0.003 A 
ATOM      6  C4  OXE d   1       1.517   2.595  -0.470  0.00  0.00    -0.002 A 
ATOM      7  C5  OXE d   1       2.529   1.703  -0.101  0.00  0.00    -0.002 A 
ATOM      8  C6  OXE d   1       2.195   0.537   0.580  0.00  0.00     0.003 A 
ENDROOT
TORSDOF 0
ENDMDL
