MODEL 1
REMARK minimizedAffinity 1.11694539
REMARK minimizedRMSD -1
REMARK  0 active torsions:
REMARK  status: ('A' for Active; 'I' for Inactive)
ROOT
ATOM      1  C2' OXE d   1      -5.224   3.737   2.259  0.00  0.00     0.078 C 
ATOM      2  C1' OXE d   1      -5.999   4.287  -0.382  0.00  0.00     0.078 C 
ATOM      3  C1  OXE d   1      -5.790   2.844   0.004  0.00  0.00    -0.078 A 
ATOM      4  C2  OXE d   1      -5.365   2.587   1.285  0.00  0.00    -0.078 A 
ATOM      5  C3  OXE d   1      -5.210   1.271   1.709  0.00  0.00     0.003 A 
ATOM      6  C4  OXE d   1      -5.334   0.214   0.799  0.00  0.00    -0.002 A 
ATOM      7  C5  OXE d   1      -5.727   0.456  -0.522  0.00  0.00    -0.002 A 
ATOM      8  C6  OXE d   1      -6.000   1.759  -0.923  0.00  0.00     0.003 A 
ENDROOT
TORSDOF 0
ENDMDL
