MODEL 1
REMARK minimizedAffinity 6.72668314
REMARK minimizedRMSD -1
REMARK  0 active torsions:
REMARK  status: ('A' for Active; 'I' for Inactive)
ROOT
ATOM      1  C2' OXE d   1       2.017  -1.441   4.397  0.00  0.00     0.078 C 
ATOM      2  C1' OXE d   1       2.528   0.747   2.714  0.00  0.00     0.078 C 
ATOM      3  C1  OXE d   1       1.750  -0.413   2.143  0.00  0.00    -0.078 A 
ATOM      4  C2  OXE d   1       1.545  -1.499   2.960  0.00  0.00    -0.078 A 
ATOM      5  C3  OXE d   1       0.787  -2.573   2.501  0.00  0.00     0.003 A 
ATOM      6  C4  OXE d   1       0.363  -2.623   1.168  0.00  0.00    -0.002 A 
ATOM      7  C5  OXE d   1       0.595  -1.544   0.308  0.00  0.00    -0.002 A 
ATOM      8  C6  OXE d   1       1.249  -0.416   0.791  0.00  0.00     0.003 A 
ENDROOT
TORSDOF 0
ENDMDL
