MODEL 1
REMARK minimizedAffinity 4.3351841
REMARK minimizedRMSD -1
REMARK  0 active torsions:
REMARK  status: ('A' for Active; 'I' for Inactive)
ROOT
ATOM      1  C2' OXE d   1      -2.955   3.712  -1.212  0.00  0.00     0.078 C 
ATOM      2  C1' OXE d   1      -4.939   2.122  -2.402  0.00  0.00     0.078 C 
ATOM      3  C1  OXE d   1      -4.869   2.149  -0.895  0.00  0.00    -0.078 A 
ATOM      4  C2  OXE d   1      -3.865   2.893  -0.322  0.00  0.00    -0.078 A 
ATOM      5  C3  OXE d   1      -3.789   2.996   1.064  0.00  0.00     0.003 A 
ATOM      6  C4  OXE d   1      -4.628   2.227   1.879  0.00  0.00    -0.002 A 
ATOM      7  C5  OXE d   1      -5.631   1.431   1.315  0.00  0.00    -0.002 A 
ATOM      8  C6  OXE d   1      -5.792   1.414  -0.066  0.00  0.00     0.003 A 
ENDROOT
TORSDOF 0
ENDMDL
