MODEL 1
REMARK minimizedAffinity 5.73226643
REMARK minimizedRMSD -1
REMARK  0 active torsions:
REMARK  status: ('A' for Active; 'I' for Inactive)
ROOT
ATOM      1  C2' OXE d   1       1.449  -3.865  -0.724  0.00  0.00     0.078 C 
ATOM      2  C1' OXE d   1       2.143  -5.315   1.577  0.00  0.00     0.078 C 
ATOM      3  C1  OXE d   1       1.858  -3.842   1.733  0.00  0.00    -0.078 A 
ATOM      4  C2  OXE d   1       1.565  -3.131   0.594  0.00  0.00    -0.078 A 
ATOM      5  C3  OXE d   1       1.240  -1.781   0.689  0.00  0.00     0.003 A 
ATOM      6  C4  OXE d   1       1.359  -1.107   1.910  0.00  0.00    -0.002 A 
ATOM      7  C5  OXE d   1       1.695  -1.804   3.076  0.00  0.00    -0.002 A 
ATOM      8  C6  OXE d   1       1.905  -3.177   3.012  0.00  0.00     0.003 A 
ENDROOT
TORSDOF 0
ENDMDL
