MODEL 1
REMARK minimizedAffinity 7.97708797
REMARK minimizedRMSD -1
REMARK  0 active torsions:
REMARK  status: ('A' for Active; 'I' for Inactive)
ROOT
ATOM      1  C2' OXE d   1       0.804  -3.827  -0.886  0.00  0.00     0.078 C 
ATOM      2  C1' OXE d   1       2.062  -5.320   1.131  0.00  0.00     0.078 C 
ATOM      3  C1  OXE d   1       1.623  -3.916   1.465  0.00  0.00    -0.078 A 
ATOM      4  C2  OXE d   1       1.050  -3.177   0.459  0.00  0.00    -0.078 A 
ATOM      5  C3  OXE d   1       0.577  -1.895   0.728  0.00  0.00     0.003 A 
ATOM      6  C4  OXE d   1       0.818  -1.298   1.971  0.00  0.00    -0.002 A 
ATOM      7  C5  OXE d   1       1.435  -2.019   2.998  0.00  0.00    -0.002 A 
ATOM      8  C6  OXE d   1       1.804  -3.341   2.775  0.00  0.00     0.003 A 
ENDROOT
TORSDOF 0
ENDMDL
