MODEL 1
REMARK minimizedAffinity 2.87209368
REMARK minimizedRMSD -1
REMARK  0 active torsions:
REMARK  status: ('A' for Active; 'I' for Inactive)
ROOT
ATOM      1  C2' OXE d   1      -4.901   0.477   0.782  0.00  0.00     0.078 C 
ATOM      2  C1' OXE d   1      -6.000   1.128  -1.718  0.00  0.00     0.078 C 
ATOM      3  C1  OXE d   1      -5.733   2.255  -0.752  0.00  0.00    -0.078 A 
ATOM      4  C2  OXE d   1      -5.239   1.922   0.487  0.00  0.00    -0.078 A 
ATOM      5  C3  OXE d   1      -4.924   2.928   1.396  0.00  0.00     0.003 A 
ATOM      6  C4  OXE d   1      -5.249   4.261   1.119  0.00  0.00    -0.002 A 
ATOM      7  C5  OXE d   1      -5.789   4.617  -0.121  0.00  0.00    -0.002 A 
ATOM      8  C6  OXE d   1      -5.998   3.633  -1.081  0.00  0.00     0.003 A 
ENDROOT
TORSDOF 0
ENDMDL
