MODEL 1
REMARK minimizedAffinity 1.29791689
REMARK minimizedRMSD -1
REMARK  0 active torsions:
REMARK  status: ('A' for Active; 'I' for Inactive)
ROOT
ATOM      1  C2' OXE d   1       2.608   2.789   3.132  0.00  0.00     0.078 C 
ATOM      2  C1' OXE d   1       2.971   1.463   0.685  0.00  0.00     0.078 C 
ATOM      3  C1  OXE d   1       2.480   0.652   1.858  0.00  0.00    -0.078 A 
ATOM      4  C2  OXE d   1       2.350   1.300   3.063  0.00  0.00    -0.078 A 
ATOM      5  C3  OXE d   1       1.848   0.612   4.165  0.00  0.00     0.003 A 
ATOM      6  C4  OXE d   1       1.621  -0.768   4.095  0.00  0.00    -0.002 A 
ATOM      7  C5  OXE d   1       1.786  -1.455   2.888  0.00  0.00    -0.002 A 
ATOM      8  C6  OXE d   1       2.173  -0.753   1.752  0.00  0.00     0.003 A 
ENDROOT
TORSDOF 0
ENDMDL
