MODEL 1
REMARK minimizedAffinity -2.0241046
REMARK minimizedRMSD -1
REMARK  0 active torsions:
REMARK  status: ('A' for Active; 'I' for Inactive)
ROOT
ATOM      1  C   UNL d   1       0.982  -2.356   0.527  0.00  0.00    -0.002 A 
ATOM      2  C1  UNL d   1      -0.306  -2.430   1.039  0.00  0.00     0.010 A 
ATOM      3  C2  UNL d   1      -1.111  -1.292   1.104  0.00  0.00     0.041 A 
ATOM      4  C3  UNL d   1      -0.596  -0.065   0.640  0.00  0.00    -0.075 A 
ATOM      5  S   UNL d   1      -1.400   1.459   0.620  0.00  0.00     0.015 SA
ATOM      6  C4  UNL d   1      -0.054   2.245  -0.069  0.00  0.00     0.022 A 
ATOM      7  C5  UNL d   1       0.993   1.380  -0.286  0.00  0.00     0.026 A 
ATOM      8  C6  UNL d   1       0.698   0.034   0.119  0.00  0.00    -0.082 A 
ATOM      9  C7  UNL d   1       1.489  -1.138   0.067  0.00  0.00     0.045 A 
ENDROOT
TORSDOF 0
ENDMDL
