MODEL 1
REMARK minimizedAffinity -2.25045156
REMARK minimizedRMSD -1
REMARK  0 active torsions:
REMARK  status: ('A' for Active; 'I' for Inactive)
ROOT
ATOM      1  C   UNL d   1       0.587  -2.611   0.771  0.00  0.00    -0.002 A 
ATOM      2  C1  UNL d   1      -0.783  -2.651   0.992  0.00  0.00     0.010 A 
ATOM      3  C2  UNL d   1      -1.550  -1.487   0.912  0.00  0.00     0.041 A 
ATOM      4  C3  UNL d   1      -0.911  -0.271   0.600  0.00  0.00    -0.075 A 
ATOM      5  S   UNL d   1      -1.649   1.280   0.447  0.00  0.00     0.015 SA
ATOM      6  C4  UNL d   1      -0.163   2.033   0.083  0.00  0.00     0.022 A 
ATOM      7  C5  UNL d   1       0.880   1.138   0.075  0.00  0.00     0.026 A 
ATOM      8  C6  UNL d   1       0.466  -0.205   0.372  0.00  0.00    -0.082 A 
ATOM      9  C7  UNL d   1       1.216  -1.402   0.462  0.00  0.00     0.045 A 
ENDROOT
TORSDOF 0
ENDMDL
