MODEL 1
REMARK minimizedAffinity -4.46429396
REMARK minimizedRMSD -1
REMARK  0 active torsions:
REMARK  status: ('A' for Active; 'I' for Inactive)
ROOT
ATOM      1  C   UNL d   1      -1.108  -2.816   0.765  0.00  0.00    -0.002 A 
ATOM      2  C1  UNL d   1      -2.230  -2.029   0.977  0.00  0.00     0.010 A 
ATOM      3  C2  UNL d   1      -2.195  -0.657   0.719  0.00  0.00     0.041 A 
ATOM      4  C3  UNL d   1      -1.001  -0.085   0.237  0.00  0.00    -0.075 A 
ATOM      5  S   UNL d   1      -0.725   1.572  -0.150  0.00  0.00     0.015 SA
ATOM      6  C4  UNL d   1       0.890   1.274  -0.607  0.00  0.00     0.022 A 
ATOM      7  C5  UNL d   1       1.227  -0.053  -0.474  0.00  0.00     0.026 A 
ATOM      8  C6  UNL d   1       0.142  -0.858   0.015  0.00  0.00    -0.082 A 
ATOM      9  C7  UNL d   1       0.075  -2.245   0.287  0.00  0.00     0.045 A 
ENDROOT
TORSDOF 0
ENDMDL
