MODEL 1
REMARK minimizedAffinity -0.948764265
REMARK minimizedRMSD -1
REMARK  0 active torsions:
REMARK  status: ('A' for Active; 'I' for Inactive)
ROOT
ATOM      1  C   UNL d   1      -0.954  -2.968   1.304  0.00  0.00    -0.002 A 
ATOM      2  C1  UNL d   1      -2.053  -2.456   0.630  0.00  0.00     0.010 A 
ATOM      3  C2  UNL d   1      -1.945  -1.276  -0.110  0.00  0.00     0.041 A 
ATOM      4  C3  UNL d   1      -0.702  -0.615  -0.162  0.00  0.00    -0.075 A 
ATOM      5  S   UNL d   1      -0.335   0.843  -1.005  0.00  0.00     0.015 SA
ATOM      6  C4  UNL d   1       1.290   0.819  -0.490  0.00  0.00     0.022 A 
ATOM      7  C5  UNL d   1       1.562  -0.268   0.307  0.00  0.00     0.026 A 
ATOM      8  C6  UNL d   1       0.419  -1.113   0.509  0.00  0.00    -0.082 A 
ATOM      9  C7  UNL d   1       0.277  -2.310   1.251  0.00  0.00     0.045 A 
ENDROOT
TORSDOF 0
ENDMDL
