MODEL 1
REMARK minimizedAffinity -2.8624928
REMARK minimizedRMSD -1
REMARK  0 active torsions:
REMARK  status: ('A' for Active; 'I' for Inactive)
ROOT
ATOM      1  C   UNL d   1       0.545  -2.222   0.360  0.00  0.00    -0.002 A 
ATOM      2  C1  UNL d   1      -0.477  -1.688   1.133  0.00  0.00     0.010 A 
ATOM      3  C2  UNL d   1      -0.706  -0.311   1.155  0.00  0.00     0.041 A 
ATOM      4  C3  UNL d   1       0.116   0.529   0.378  0.00  0.00    -0.075 A 
ATOM      5  S   UNL d   1       0.021   2.246   0.248  0.00  0.00     0.015 SA
ATOM      6  C4  UNL d   1       1.333   2.311  -0.837  0.00  0.00     0.022 A 
ATOM      7  C5  UNL d   1       1.844   1.063  -1.105  0.00  0.00     0.026 A 
ATOM      8  C6  UNL d   1       1.151   0.016  -0.409  0.00  0.00    -0.082 A 
ATOM      9  C7  UNL d   1       1.358  -1.385  -0.410  0.00  0.00     0.045 A 
ENDROOT
TORSDOF 0
ENDMDL
