MODEL 1
REMARK minimizedAffinity -0.977517068
REMARK minimizedRMSD -1
REMARK  0 active torsions:
REMARK  status: ('A' for Active; 'I' for Inactive)
ROOT
ATOM      1  C   UNL d   1      -0.662  -2.405   1.831  0.00  0.00    -0.002 A 
ATOM      2  C1  UNL d   1       0.720  -2.338   1.736  0.00  0.00     0.010 A 
ATOM      3  C2  UNL d   1       1.335  -1.280   1.064  0.00  0.00     0.041 A 
ATOM      4  C3  UNL d   1       0.529  -0.280   0.484  0.00  0.00    -0.075 A 
ATOM      5  S   UNL d   1       1.061   1.110  -0.386  0.00  0.00     0.015 SA
ATOM      6  C4  UNL d   1      -0.534   1.647  -0.652  0.00  0.00     0.022 A 
ATOM      7  C5  UNL d   1      -1.463   0.799  -0.097  0.00  0.00     0.026 A 
ATOM      8  C6  UNL d   1      -0.866  -0.326   0.568  0.00  0.00    -0.082 A 
ATOM      9  C7  UNL d   1      -1.459  -1.412   1.255  0.00  0.00     0.045 A 
ENDROOT
TORSDOF 0
ENDMDL
