MODEL 1
REMARK minimizedAffinity -4.22265673
REMARK minimizedRMSD -1
REMARK  0 active torsions:
REMARK  status: ('A' for Active; 'I' for Inactive)
ROOT
ATOM      1  C   UNL d   1      -2.830   1.064   1.911  0.00  0.00    -0.002 A 
ATOM      2  C1  UNL d   1      -1.862   1.889   1.356  0.00  0.00     0.010 A 
ATOM      3  C2  UNL d   1      -0.708   1.347   0.787  0.00  0.00     0.041 A 
ATOM      4  C3  UNL d   1      -0.543  -0.052   0.784  0.00  0.00    -0.075 A 
ATOM      5  S   UNL d   1       0.789  -0.940   0.143  0.00  0.00     0.015 SA
ATOM      6  C4  UNL d   1       0.104  -2.435   0.591  0.00  0.00     0.022 A 
ATOM      7  C5  UNL d   1      -1.111  -2.279   1.216  0.00  0.00     0.026 A 
ATOM      8  C6  UNL d   1      -1.504  -0.904   1.337  0.00  0.00    -0.082 A 
ATOM      9  C7  UNL d   1      -2.662  -0.323   1.907  0.00  0.00     0.045 A 
ENDROOT
TORSDOF 0
ENDMDL
