MODEL 1
REMARK minimizedAffinity -3.80430412
REMARK minimizedRMSD -1
REMARK  0 active torsions:
REMARK  status: ('A' for Active; 'I' for Inactive)
ROOT
ATOM      1  C   UNL d   1      -1.475  -3.030   1.486  0.00  0.00    -0.002 A 
ATOM      2  C1  UNL d   1      -2.401  -2.292   0.762  0.00  0.00     0.010 A 
ATOM      3  C2  UNL d   1      -2.015  -1.130   0.091  0.00  0.00     0.041 A 
ATOM      4  C3  UNL d   1      -0.669  -0.720   0.158  0.00  0.00    -0.075 A 
ATOM      5  S   UNL d   1       0.033   0.669  -0.585  0.00  0.00     0.015 SA
ATOM      6  C4  UNL d   1       1.579   0.314   0.039  0.00  0.00     0.022 A 
ATOM      7  C5  UNL d   1       1.577  -0.832   0.799  0.00  0.00     0.026 A 
ATOM      8  C6  UNL d   1       0.282  -1.447   0.879  0.00  0.00    -0.082 A 
ATOM      9  C7  UNL d   1      -0.141  -2.620   1.550  0.00  0.00     0.045 A 
ENDROOT
TORSDOF 0
ENDMDL
