MODEL 1
REMARK minimizedAffinity -1.40301204
REMARK minimizedRMSD -1
REMARK  0 active torsions:
REMARK  status: ('A' for Active; 'I' for Inactive)
ROOT
ATOM      1  C   UNL d   1       0.176  -2.071   1.031  0.00  0.00    -0.002 A 
ATOM      2  C1  UNL d   1      -1.183  -1.820   0.898  0.00  0.00     0.010 A 
ATOM      3  C2  UNL d   1      -1.640  -0.836   0.018  0.00  0.00     0.041 A 
ATOM      4  C3  UNL d   1      -0.700  -0.104  -0.733  0.00  0.00    -0.075 A 
ATOM      5  S   UNL d   1      -1.028   1.148  -1.872  0.00  0.00     0.015 SA
ATOM      6  C4  UNL d   1       0.627   1.378  -2.209  0.00  0.00     0.022 A 
ATOM      7  C5  UNL d   1       1.424   0.529  -1.479  0.00  0.00     0.026 A 
ATOM      8  C6  UNL d   1       0.673  -0.339  -0.616  0.00  0.00    -0.082 A 
ATOM      9  C7  UNL d   1       1.105  -1.342   0.284  0.00  0.00     0.045 A 
ENDROOT
TORSDOF 0
ENDMDL
