MODEL 1
REMARK minimizedAffinity -3.91265965
REMARK minimizedRMSD -1
REMARK  0 active torsions:
REMARK  status: ('A' for Active; 'I' for Inactive)
ROOT
ATOM      1  C   UNL d   1       0.764   2.349  -3.355  0.00  0.00    -0.002 A 
ATOM      2  C1  UNL d   1       1.983   2.197  -2.710  0.00  0.00     0.010 A 
ATOM      3  C2  UNL d   1       2.075   1.457  -1.530  0.00  0.00     0.041 A 
ATOM      4  C3  UNL d   1       0.909   0.865  -1.004  0.00  0.00    -0.075 A 
ATOM      5  S   UNL d   1       0.782  -0.086   0.428  0.00  0.00     0.015 SA
ATOM      6  C4  UNL d   1      -0.894  -0.313   0.217  0.00  0.00     0.022 A 
ATOM      7  C5  UNL d   1      -1.361   0.314  -0.913  0.00  0.00     0.026 A 
ATOM      8  C6  UNL d   1      -0.330   1.003  -1.636  0.00  0.00    -0.082 A 
ATOM      9  C7  UNL d   1      -0.390   1.760  -2.831  0.00  0.00     0.045 A 
ENDROOT
TORSDOF 0
ENDMDL
