MODEL 1
REMARK minimizedAffinity -1.89895678
REMARK minimizedRMSD -1
REMARK  0 active torsions:
REMARK  status: ('A' for Active; 'I' for Inactive)
ROOT
ATOM      1  C   UNL d   1      -1.517  -2.697   0.759  0.00  0.00    -0.002 A 
ATOM      2  C1  UNL d   1      -2.481  -1.703   0.851  0.00  0.00     0.010 A 
ATOM      3  C2  UNL d   1      -2.126  -0.358   0.733  0.00  0.00     0.041 A 
ATOM      4  C3  UNL d   1      -0.775  -0.025   0.516  0.00  0.00    -0.075 A 
ATOM      5  S   UNL d   1      -0.108   1.555   0.339  0.00  0.00     0.015 SA
ATOM      6  C4  UNL d   1       1.471   0.947   0.136  0.00  0.00     0.022 A 
ATOM      7  C5  UNL d   1       1.508  -0.426   0.200  0.00  0.00     0.026 A 
ATOM      8  C6  UNL d   1       0.214  -1.009   0.419  0.00  0.00    -0.082 A 
ATOM      9  C7  UNL d   1      -0.177  -2.364   0.544  0.00  0.00     0.045 A 
ENDROOT
TORSDOF 0
ENDMDL
