MODEL 1
REMARK minimizedAffinity -3.67447448
REMARK minimizedRMSD -1
REMARK  0 active torsions:
REMARK  status: ('A' for Active; 'I' for Inactive)
ROOT
ATOM      1  C   UNL d   1      -6.000  -1.632  -3.831  0.00  0.00    -0.002 A 
ATOM      2  C1  UNL d   1      -5.882  -1.442  -5.200  0.00  0.00     0.010 A 
ATOM      3  C2  UNL d   1      -4.977  -2.199  -5.947  0.00  0.00     0.041 A 
ATOM      4  C3  UNL d   1      -4.187  -3.161  -5.288  0.00  0.00    -0.075 A 
ATOM      5  S   UNL d   1      -3.012  -4.205  -5.998  0.00  0.00     0.015 SA
ATOM      6  C4  UNL d   1      -2.641  -4.928  -4.500  0.00  0.00     0.022 A 
ATOM      7  C5  UNL d   1      -3.385  -4.398  -3.473  0.00  0.00     0.026 A 
ATOM      8  C6  UNL d   1      -4.288  -3.371  -3.910  0.00  0.00    -0.082 A 
ATOM      9  C7  UNL d   1      -5.214  -2.587  -3.180  0.00  0.00     0.045 A 
ENDROOT
TORSDOF 0
ENDMDL
