MODEL 1
REMARK minimizedAffinity -1.8010416
REMARK minimizedRMSD -1
REMARK  3 active torsions:
REMARK  status: ('A' for Active; 'I' for Inactive)
REMARK    1  A    between atoms: C3'_2  and  C2'_3 
REMARK    2  A    between atoms: C2'_3  and  C1'_4 
REMARK    3  A    between atoms: C1'_4  and  C1_5 
ROOT
ATOM      1  C1  N4B d   1       1.268  -1.872   5.017  0.00  0.00    -0.075 A 
ATOM      2  C2  N4B d   1       0.179  -1.857   4.117  0.00  0.00     0.002 A 
ATOM      3  C3  N4B d   1      -0.777  -2.841   4.181  0.00  0.00     0.002 A 
ATOM      4  C4  N4B d   1      -0.657  -3.855   5.118  0.00  0.00    -0.004 A 
ATOM      5  C5  N4B d   1       0.384  -3.848   6.000  0.00  0.00     0.002 A 
ATOM      6  C6  N4B d   1       1.351  -2.864   5.950  0.00  0.00     0.002 A 
ENDROOT
BRANCH   1   7
ATOM      7  C1' N4B d   1       2.383  -0.867   4.930  0.00  0.00     0.057 C 
BRANCH   7   8
ATOM      8  C2' N4B d   1       2.138   0.243   5.948  0.00  0.00     0.009 C 
BRANCH   8   9
ATOM      9  C3' N4B d   1       3.290   1.232   6.000  0.00  0.00     0.004 C 
ATOM     10  C4' N4B d   1       2.830   2.659   5.999  0.00  0.00     0.003 C 
ENDBRANCH   8   9
ENDBRANCH   7   8
ENDBRANCH   1   7
TORSDOF 3
ENDMDL
