MODEL 1
REMARK minimizedAffinity 3.91497993
REMARK minimizedRMSD -1
REMARK  3 active torsions:
REMARK  status: ('A' for Active; 'I' for Inactive)
REMARK    1  A    between atoms: C3'_2  and  C2'_3 
REMARK    2  A    between atoms: C2'_3  and  C1'_4 
REMARK    3  A    between atoms: C1'_4  and  C1_5 
ROOT
ATOM      1  C1  N4B d   1       2.265   4.310   5.815  0.00  0.00    -0.075 A 
ATOM      2  C2  N4B d   1       3.434   5.101   5.777  0.00  0.00     0.002 A 
ATOM      3  C3  N4B d   1       4.669   4.506   5.855  0.00  0.00     0.002 A 
ATOM      4  C4  N4B d   1       4.759   3.129   5.990  0.00  0.00    -0.004 A 
ATOM      5  C5  N4B d   1       3.626   2.369   6.000  0.00  0.00     0.002 A 
ATOM      6  C6  N4B d   1       2.378   2.953   5.918  0.00  0.00     0.002 A 
ENDROOT
BRANCH   1   7
ATOM      7  C1' N4B d   1       0.891   4.922   5.819  0.00  0.00     0.057 C 
BRANCH   7   8
ATOM      8  C2' N4B d   1       0.688   5.704   4.525  0.00  0.00     0.009 C 
BRANCH   8   9
ATOM      9  C3' N4B d   1      -0.780   5.992   4.260  0.00  0.00     0.004 C 
ATOM     10  C4' N4B d   1      -1.244   5.473   2.932  0.00  0.00     0.003 C 
ENDBRANCH   8   9
ENDBRANCH   7   8
ENDBRANCH   1   7
TORSDOF 3
ENDMDL
