MODEL 1
REMARK minimizedAffinity 1.7831291
REMARK minimizedRMSD -1
REMARK  3 active torsions:
REMARK  status: ('A' for Active; 'I' for Inactive)
REMARK    1  A    between atoms: C3'_2  and  C2'_3 
REMARK    2  A    between atoms: C2'_3  and  C1'_4 
REMARK    3  A    between atoms: C1'_4  and  C1_5 
ROOT
ATOM      1  C1  N4B d   1       2.941   1.141   4.801  0.00  0.00    -0.075 A 
ATOM      2  C2  N4B d   1       2.187   0.797   5.945  0.00  0.00     0.002 A 
ATOM      3  C3  N4B d   1       1.528  -0.407   5.997  0.00  0.00     0.002 A 
ATOM      4  C4  N4B d   1       1.593  -1.271   4.914  0.00  0.00    -0.004 A 
ATOM      5  C5  N4B d   1       2.343  -0.943   3.824  0.00  0.00     0.002 A 
ATOM      6  C6  N4B d   1       3.014   0.262   3.759  0.00  0.00     0.002 A 
ENDROOT
BRANCH   1   7
ATOM      7  C1' N4B d   1       3.608   2.482   4.663  0.00  0.00     0.057 C 
BRANCH   7   8
ATOM      8  C2' N4B d   1       3.365   3.295   5.931  0.00  0.00     0.009 C 
BRANCH   8   9
ATOM      9  C3' N4B d   1       2.724   4.639   5.630  0.00  0.00     0.004 C 
ATOM     10  C4' N4B d   1       1.229   4.609   5.744  0.00  0.00     0.003 C 
ENDBRANCH   8   9
ENDBRANCH   7   8
ENDBRANCH   1   7
TORSDOF 3
ENDMDL
