MODEL 1
REMARK minimizedAffinity 6.06882858
REMARK minimizedRMSD -1
REMARK  3 active torsions:
REMARK  status: ('A' for Active; 'I' for Inactive)
REMARK    1  A    between atoms: C3'_2  and  C2'_3 
REMARK    2  A    between atoms: C2'_3  and  C1'_4 
REMARK    3  A    between atoms: C1'_4  and  C1_5 
ROOT
ATOM      1  C1  N4B d   1       3.033   2.538   5.951  0.00  0.00    -0.075 A 
ATOM      2  C2  N4B d   1       4.055   3.512   5.971  0.00  0.00     0.002 A 
ATOM      3  C3  N4B d   1       3.731   4.847   6.000  0.00  0.00     0.002 A 
ATOM      4  C4  N4B d   1       2.398   5.229   5.989  0.00  0.00    -0.004 A 
ATOM      5  C5  N4B d   1       1.417   4.282   5.995  0.00  0.00     0.002 A 
ATOM      6  C6  N4B d   1       1.728   2.937   5.970  0.00  0.00     0.002 A 
ENDROOT
BRANCH   1   7
ATOM      7  C1' N4B d   1       3.338   1.070   5.833  0.00  0.00     0.057 C 
BRANCH   7   8
ATOM      8  C2' N4B d   1       2.044   0.276   5.986  0.00  0.00     0.009 C 
BRANCH   8   9
ATOM      9  C3' N4B d   1       2.263  -1.213   5.781  0.00  0.00     0.004 C 
ATOM     10  C4' N4B d   1       1.748  -1.699   4.459  0.00  0.00     0.003 C 
ENDBRANCH   8   9
ENDBRANCH   7   8
ENDBRANCH   1   7
TORSDOF 3
ENDMDL
