MODEL 1
REMARK minimizedAffinity -2.94393444
REMARK minimizedRMSD -1
REMARK  3 active torsions:
REMARK  status: ('A' for Active; 'I' for Inactive)
REMARK    1  A    between atoms: C3'_2  and  C2'_3 
REMARK    2  A    between atoms: C2'_3  and  C1'_4 
REMARK    3  A    between atoms: C1'_4  and  C1_5 
ROOT
ATOM      1  C1  N4B d   1       2.679   3.833   5.095  0.00  0.00    -0.075 A 
ATOM      2  C2  N4B d   1       3.668   3.468   4.155  0.00  0.00     0.002 A 
ATOM      3  C3  N4B d   1       4.187   2.197   4.164  0.00  0.00     0.002 A 
ATOM      4  C4  N4B d   1       3.749   1.284   5.111  0.00  0.00    -0.004 A 
ATOM      5  C5  N4B d   1       2.776   1.637   5.999  0.00  0.00     0.002 A 
ATOM      6  C6  N4B d   1       2.242   2.910   6.000  0.00  0.00     0.002 A 
ENDROOT
BRANCH   1   7
ATOM      7  C1' N4B d   1       2.143   5.237   5.179  0.00  0.00     0.057 C 
BRANCH   7   8
ATOM      8  C2' N4B d   1       0.743   5.202   5.785  0.00  0.00     0.009 C 
BRANCH   8   9
ATOM      9  C3' N4B d   1      -0.261   5.962   4.936  0.00  0.00     0.004 C 
ATOM     10  C4' N4B d   1       0.095   5.968   3.479  0.00  0.00     0.003 C 
ENDBRANCH   8   9
ENDBRANCH   7   8
ENDBRANCH   1   7
TORSDOF 3
ENDMDL
