MODEL 1
REMARK minimizedAffinity 1.19310749
REMARK minimizedRMSD -1
REMARK  3 active torsions:
REMARK  status: ('A' for Active; 'I' for Inactive)
REMARK    1  A    between atoms: C3'_2  and  C2'_3 
REMARK    2  A    between atoms: C2'_3  and  C1'_4 
REMARK    3  A    between atoms: C1'_4  and  C1_5 
ROOT
ATOM      1  C1  N4B d   1       2.894   3.810   5.989  0.00  0.00    -0.075 A 
ATOM      2  C2  N4B d   1       2.227   2.565   6.000  0.00  0.00     0.002 A 
ATOM      3  C3  N4B d   1       2.952   1.399   5.977  0.00  0.00     0.002 A 
ATOM      4  C4  N4B d   1       4.336   1.452   5.924  0.00  0.00    -0.004 A 
ATOM      5  C5  N4B d   1       4.973   2.658   5.940  0.00  0.00     0.002 A 
ATOM      6  C6  N4B d   1       4.259   3.839   5.966  0.00  0.00     0.002 A 
ENDROOT
BRANCH   1   7
ATOM      7  C1' N4B d   1       2.144   5.112   5.926  0.00  0.00     0.057 C 
BRANCH   7   8
ATOM      8  C2' N4B d   1       0.646   4.831   6.000  0.00  0.00     0.009 C 
BRANCH   8   9
ATOM      9  C3' N4B d   1      -0.160   5.822   5.178  0.00  0.00     0.004 C 
ATOM     10  C4' N4B d   1       0.052   5.660   3.702  0.00  0.00     0.003 C 
ENDBRANCH   8   9
ENDBRANCH   7   8
ENDBRANCH   1   7
TORSDOF 3
ENDMDL
