MODEL 1
REMARK minimizedAffinity 4.82380199
REMARK minimizedRMSD -1
REMARK  3 active torsions:
REMARK  status: ('A' for Active; 'I' for Inactive)
REMARK    1  A    between atoms: C3'_2  and  C2'_3 
REMARK    2  A    between atoms: C2'_3  and  C1'_4 
REMARK    3  A    between atoms: C1'_4  and  C1_5 
ROOT
ATOM      1  C1  N4B d   1      -3.482   0.244  -0.460  0.00  0.00    -0.075 A 
ATOM      2  C2  N4B d   1      -3.353   0.881   0.794  0.00  0.00     0.002 A 
ATOM      3  C3  N4B d   1      -4.460   1.070   1.584  0.00  0.00     0.002 A 
ATOM      4  C4  N4B d   1      -5.703   0.650   1.135  0.00  0.00    -0.004 A 
ATOM      5  C5  N4B d   1      -5.815   0.013  -0.066  0.00  0.00     0.002 A 
ATOM      6  C6  N4B d   1      -4.710  -0.188  -0.869  0.00  0.00     0.002 A 
ENDROOT
BRANCH   1   7
ATOM      7  C1' N4B d   1      -2.314   0.091  -1.397  0.00  0.00     0.057 C 
BRANCH   7   8
ATOM      8  C2' N4B d   1      -2.824  -0.351  -2.765  0.00  0.00     0.009 C 
BRANCH   8   9
ATOM      9  C3' N4B d   1      -2.878   0.802  -3.752  0.00  0.00     0.004 C 
ATOM     10  C4' N4B d   1      -4.147   0.824  -4.551  0.00  0.00     0.003 C 
ENDBRANCH   8   9
ENDBRANCH   7   8
ENDBRANCH   1   7
TORSDOF 3
ENDMDL
