MODEL 1
REMARK minimizedAffinity 1.79040706
REMARK minimizedRMSD -1
REMARK  3 active torsions:
REMARK  status: ('A' for Active; 'I' for Inactive)
REMARK    1  A    between atoms: C3'_2  and  C2'_3 
REMARK    2  A    between atoms: C2'_3  and  C1'_4 
REMARK    3  A    between atoms: C1'_4  and  C1_5 
ROOT
ATOM      1  C1  N4B d   1       4.821   3.154   3.381  0.00  0.00    -0.075 A 
ATOM      2  C2  N4B d   1       5.056   1.887   3.959  0.00  0.00     0.002 A 
ATOM      3  C3  N4B d   1       4.679   1.644   5.257  0.00  0.00     0.002 A 
ATOM      4  C4  N4B d   1       4.087   2.654   6.000  0.00  0.00    -0.004 A 
ATOM      5  C5  N4B d   1       3.841   3.867   5.427  0.00  0.00     0.002 A 
ATOM      6  C6  N4B d   1       4.210   4.124   4.122  0.00  0.00     0.002 A 
ENDROOT
BRANCH   1   7
ATOM      7  C1' N4B d   1       5.293   3.495   1.994  0.00  0.00     0.057 C 
BRANCH   7   8
ATOM      8  C2' N4B d   1       5.300   2.228   1.143  0.00  0.00     0.009 C 
BRANCH   8   9
ATOM      9  C3' N4B d   1       4.161   2.212   0.138  0.00  0.00     0.004 C 
ATOM     10  C4' N4B d   1       4.154   0.978  -0.713  0.00  0.00     0.003 C 
ENDBRANCH   8   9
ENDBRANCH   7   8
ENDBRANCH   1   7
TORSDOF 3
ENDMDL
