MODEL 1
REMARK minimizedAffinity 3.61244106
REMARK minimizedRMSD -1
REMARK  3 active torsions:
REMARK  status: ('A' for Active; 'I' for Inactive)
REMARK    1  A    between atoms: C3'_2  and  C2'_3 
REMARK    2  A    between atoms: C2'_3  and  C1'_4 
REMARK    3  A    between atoms: C1'_4  and  C1_5 
ROOT
ATOM      1  C1  N4B d   1       0.178  -4.886   3.409  0.00  0.00    -0.075 A 
ATOM      2  C2  N4B d   1      -0.366  -5.777   4.360  0.00  0.00     0.002 A 
ATOM      3  C3  N4B d   1       0.116  -5.788   5.646  0.00  0.00     0.002 A 
ATOM      4  C4  N4B d   1       1.151  -4.934   5.997  0.00  0.00    -0.004 A 
ATOM      5  C5  N4B d   1       1.654  -4.059   5.080  0.00  0.00     0.002 A 
ATOM      6  C6  N4B d   1       1.176  -4.034   3.785  0.00  0.00     0.002 A 
ENDROOT
BRANCH   1   7
ATOM      7  C1' N4B d   1      -0.258  -4.897   1.969  0.00  0.00     0.057 C 
BRANCH   7   8
ATOM      8  C2' N4B d   1       0.971  -4.784   1.073  0.00  0.00     0.009 C 
BRANCH   8   9
ATOM      9  C3' N4B d   1       0.632  -5.021  -0.389  0.00  0.00     0.004 C 
ATOM     10  C4' N4B d   1      -0.768  -5.521  -0.587  0.00  0.00     0.003 C 
ENDBRANCH   8   9
ENDBRANCH   7   8
ENDBRANCH   1   7
TORSDOF 3
ENDMDL
