MODEL 1
REMARK minimizedAffinity 0.764936745
REMARK minimizedRMSD -1
REMARK  2 active torsions:
REMARK  status: ('A' for Active; 'I' for Inactive)
REMARK    1  A    between atoms: C2'_3  and  C1'_4 
REMARK    2  A    between atoms: C1'_4  and  C1_5 
ROOT
ATOM      1  C1  I4B d   1       2.047   3.999   3.734  0.00  0.00    -0.075 A 
ATOM      2  C2  I4B d   1       0.748   3.838   3.320  0.00  0.00     0.003 A 
ATOM      3  C3  I4B d   1      -0.242   4.777   3.699  0.00  0.00     0.002 A 
ATOM      4  C4  I4B d   1       0.098   5.826   4.528  0.00  0.00    -0.004 A 
ATOM      5  C5  I4B d   1       1.420   6.000   4.928  0.00  0.00     0.002 A 
ATOM      6  C6  I4B d   1       2.403   5.088   4.518  0.00  0.00     0.003 A 
ENDROOT
BRANCH   1   7
ATOM      7  C1' I4B d   1       3.060   2.970   3.342  0.00  0.00     0.060 C 
BRANCH   7   8
ATOM      8  C2' I4B d   1       2.799   2.582   1.901  0.00  0.00    -0.013 C 
ATOM      9  C4' I4B d   1       4.067   2.609   1.090  0.00  0.00     0.013 C 
ATOM     10  C3' I4B d   1       2.181   1.216   1.895  0.00  0.00     0.013 C 
ENDBRANCH   7   8
ENDBRANCH   1   7
TORSDOF 2
ENDMDL
