MODEL 1
REMARK minimizedAffinity 8.67067528
REMARK minimizedRMSD -1
REMARK  2 active torsions:
REMARK  status: ('A' for Active; 'I' for Inactive)
REMARK    1  A    between atoms: C2'_3  and  C1'_4 
REMARK    2  A    between atoms: C1'_4  and  C1_5 
ROOT
ATOM      1  C1  I4B d   1       4.324  -0.170   0.100  0.00  0.00    -0.075 A 
ATOM      2  C2  I4B d   1       5.597  -0.683   0.074  0.00  0.00     0.003 A 
ATOM      3  C3  I4B d   1       5.805  -2.064  -0.161  0.00  0.00     0.002 A 
ATOM      4  C4  I4B d   1       4.716  -2.898  -0.314  0.00  0.00    -0.004 A 
ATOM      5  C5  I4B d   1       3.427  -2.372  -0.311  0.00  0.00     0.002 A 
ATOM      6  C6  I4B d   1       3.230  -0.998  -0.114  0.00  0.00     0.003 A 
ENDROOT
BRANCH   1   7
ATOM      7  C1' I4B d   1       4.140   1.287   0.384  0.00  0.00     0.060 C 
BRANCH   7   8
ATOM      8  C2' I4B d   1       2.970   1.433   1.336  0.00  0.00    -0.013 C 
ATOM      9  C4' I4B d   1       3.405   2.034   2.646  0.00  0.00     0.013 C 
ATOM     10  C3' I4B d   1       1.933   2.284   0.667  0.00  0.00     0.013 C 
ENDBRANCH   7   8
ENDBRANCH   1   7
TORSDOF 2
ENDMDL
