MODEL 1
REMARK minimizedAffinity 4.56389093
REMARK minimizedRMSD -1
REMARK  2 active torsions:
REMARK  status: ('A' for Active; 'I' for Inactive)
REMARK    1  A    between atoms: C2'_3  and  C1'_4 
REMARK    2  A    between atoms: C1'_4  and  C1_5 
ROOT
ATOM      1  C1  I4B d   1       4.216  -3.768   2.491  0.00  0.00    -0.075 A 
ATOM      2  C2  I4B d   1       4.930  -4.282   1.438  0.00  0.00     0.003 A 
ATOM      3  C3  I4B d   1       4.599  -3.920   0.109  0.00  0.00     0.002 A 
ATOM      4  C4  I4B d   1       3.523  -3.087  -0.121  0.00  0.00    -0.004 A 
ATOM      5  C5  I4B d   1       2.815  -2.550   0.950  0.00  0.00     0.002 A 
ATOM      6  C6  I4B d   1       3.170  -2.882   2.265  0.00  0.00     0.003 A 
ENDROOT
BRANCH   1   7
ATOM      7  C1' I4B d   1       4.571  -4.197   3.880  0.00  0.00     0.060 C 
BRANCH   7   8
ATOM      8  C2' I4B d   1       5.210  -3.018   4.584  0.00  0.00    -0.013 C 
ATOM      9  C4' I4B d   1       4.187  -1.965   4.921  0.00  0.00     0.013 C 
ATOM     10  C3' I4B d   1       5.889  -3.528   5.820  0.00  0.00     0.013 C 
ENDBRANCH   7   8
ENDBRANCH   1   7
TORSDOF 2
ENDMDL
