MODEL 1
REMARK minimizedAffinity 1.37761211
REMARK minimizedRMSD -1
REMARK  2 active torsions:
REMARK  status: ('A' for Active; 'I' for Inactive)
REMARK    1  A    between atoms: C2'_3  and  C1'_4 
REMARK    2  A    between atoms: C1'_4  and  C1_5 
ROOT
ATOM      1  C1  I4B d   1       2.623   4.254   3.720  0.00  0.00    -0.075 A 
ATOM      2  C2  I4B d   1       2.969   4.964   4.842  0.00  0.00     0.003 A 
ATOM      3  C3  I4B d   1       2.033   5.834   5.453  0.00  0.00     0.002 A 
ATOM      4  C4  I4B d   1       0.787   6.000   4.882  0.00  0.00    -0.004 A 
ATOM      5  C5  I4B d   1       0.431   5.262   3.757  0.00  0.00     0.002 A 
ATOM      6  C6  I4B d   1       1.350   4.374   3.179  0.00  0.00     0.003 A 
ENDROOT
BRANCH   1   7
ATOM      7  C1' I4B d   1       3.648   3.371   3.082  0.00  0.00     0.060 C 
BRANCH   7   8
ATOM      8  C2' I4B d   1       3.088   2.886   1.760  0.00  0.00    -0.013 C 
ATOM      9  C4' I4B d   1       4.117   2.982   0.664  0.00  0.00     0.013 C 
ATOM     10  C3' I4B d   1       2.623   1.472   1.944  0.00  0.00     0.013 C 
ENDBRANCH   7   8
ENDBRANCH   1   7
TORSDOF 2
ENDMDL
