MODEL 1
REMARK minimizedAffinity 10.9088402
REMARK minimizedRMSD -1
REMARK  2 active torsions:
REMARK  status: ('A' for Active; 'I' for Inactive)
REMARK    1  A    between atoms: C2'_3  and  C1'_4 
REMARK    2  A    between atoms: C1'_4  and  C1_5 
ROOT
ATOM      1  C1  I4B d   1       2.235   3.758   4.175  0.00  0.00    -0.075 A 
ATOM      2  C2  I4B d   1       3.240   3.829   5.107  0.00  0.00     0.003 A 
ATOM      3  C3  I4B d   1       3.341   4.954   5.962  0.00  0.00     0.002 A 
ATOM      4  C4  I4B d   1       2.452   6.000   5.816  0.00  0.00    -0.004 A 
ATOM      5  C5  I4B d   1       1.420   5.915   4.886  0.00  0.00     0.002 A 
ATOM      6  C6  I4B d   1       1.303   4.782   4.068  0.00  0.00     0.003 A 
ENDROOT
BRANCH   1   7
ATOM      7  C1' I4B d   1       2.178   2.570   3.267  0.00  0.00     0.060 C 
BRANCH   7   8
ATOM      8  C2' I4B d   1       2.679   3.001   1.903  0.00  0.00    -0.013 C 
ATOM      9  C4' I4B d   1       4.145   2.698   1.740  0.00  0.00     0.013 C 
ATOM     10  C3' I4B d   1       1.860   2.293   0.865  0.00  0.00     0.013 C 
ENDBRANCH   7   8
ENDBRANCH   1   7
TORSDOF 2
ENDMDL
