MODEL 1
REMARK minimizedAffinity 15.2758999
REMARK minimizedRMSD -1
REMARK  2 active torsions:
REMARK  status: ('A' for Active; 'I' for Inactive)
REMARK    1  A    between atoms: C2'_3  and  C1'_4 
REMARK    2  A    between atoms: C1'_4  and  C1_5 
ROOT
ATOM      1  C1  I4B d   1       3.558   2.874   2.770  0.00  0.00    -0.075 A 
ATOM      2  C2  I4B d   1       4.864   2.809   2.352  0.00  0.00     0.003 A 
ATOM      3  C3  I4B d   1       5.165   2.543   0.995  0.00  0.00     0.002 A 
ATOM      4  C4  I4B d   1       4.138   2.299   0.106  0.00  0.00    -0.004 A 
ATOM      5  C5  I4B d   1       2.815   2.388   0.526  0.00  0.00     0.002 A 
ATOM      6  C6  I4B d   1       2.522   2.689   1.864  0.00  0.00     0.003 A 
ENDROOT
BRANCH   1   7
ATOM      7  C1' I4B d   1       3.276   3.125   4.218  0.00  0.00     0.060 C 
BRANCH   7   8
ATOM      8  C2' I4B d   1       2.898   4.583   4.374  0.00  0.00    -0.013 C 
ATOM      9  C4' I4B d   1       1.408   4.747   4.519  0.00  0.00     0.013 C 
ATOM     10  C3' I4B d   1       3.621   5.124   5.571  0.00  0.00     0.013 C 
ENDBRANCH   7   8
ENDBRANCH   1   7
TORSDOF 2
ENDMDL
