MODEL 1
REMARK minimizedAffinity -5.35965872
REMARK minimizedRMSD -1
REMARK  3 active torsions:
REMARK  status: ('A' for Active; 'I' for Inactive)
REMARK    1  A    between atoms: C3'_2  and  C2'_3 
REMARK    2  A    between atoms: C2'_3  and  C1'_4 
REMARK    3  A    between atoms: C1'_4  and  C1_5 
ROOT
ATOM      1  C1  N4B d   1       0.329  -0.361  -2.094  0.00  0.00    -0.075 A 
ATOM      2  C2  N4B d   1      -0.715  -0.041  -2.990  0.00  0.00     0.002 A 
ATOM      3  C3  N4B d   1      -0.447   0.685  -4.125  0.00  0.00     0.002 A 
ATOM      4  C4  N4B d   1       0.848   1.116  -4.374  0.00  0.00    -0.004 A 
ATOM      5  C5  N4B d   1       1.854   0.781  -3.516  0.00  0.00     0.002 A 
ATOM      6  C6  N4B d   1       1.600   0.049  -2.374  0.00  0.00     0.002 A 
ENDROOT
BRANCH   1   7
ATOM      7  C1' N4B d   1       0.070  -1.078  -0.797  0.00  0.00     0.057 C 
BRANCH   7   8
ATOM      8  C2' N4B d   1       0.338  -0.125   0.364  0.00  0.00     0.009 C 
BRANCH   8   9
ATOM      9  C3' N4B d   1      -0.901   0.665   0.749  0.00  0.00     0.004 C 
ATOM     10  C4' N4B d   1      -0.931   1.025   2.204  0.00  0.00     0.003 C 
ENDBRANCH   8   9
ENDBRANCH   7   8
ENDBRANCH   1   7
TORSDOF 3
ENDMDL
