MODEL 1
REMARK minimizedAffinity -2.45134926
REMARK minimizedRMSD -1
REMARK  3 active torsions:
REMARK  status: ('A' for Active; 'I' for Inactive)
REMARK    1  A    between atoms: C3'_2  and  C2'_3 
REMARK    2  A    between atoms: C2'_3  and  C1'_4 
REMARK    3  A    between atoms: C1'_4  and  C1_5 
ROOT
ATOM      1  C1  N4B d   1       1.065   0.067  -3.169  0.00  0.00    -0.075 A 
ATOM      2  C2  N4B d   1      -0.076  -0.706  -3.476  0.00  0.00     0.002 A 
ATOM      3  C3  N4B d   1      -0.622  -0.656  -4.735  0.00  0.00     0.002 A 
ATOM      4  C4  N4B d   1      -0.058   0.171  -5.694  0.00  0.00    -0.004 A 
ATOM      5  C5  N4B d   1       1.060   0.896  -5.398  0.00  0.00     0.002 A 
ATOM      6  C6  N4B d   1       1.622   0.852  -4.138  0.00  0.00     0.002 A 
ENDROOT
BRANCH   1   7
ATOM      7  C1' N4B d   1       1.647   0.111  -1.783  0.00  0.00     0.057 C 
BRANCH   7   8
ATOM      8  C2' N4B d   1       0.684  -0.570  -0.815  0.00  0.00     0.009 C 
BRANCH   8   9
ATOM      9  C3' N4B d   1       0.549   0.199   0.489  0.00  0.00     0.004 C 
ATOM     10  C4' N4B d   1       1.714  -0.011   1.409  0.00  0.00     0.003 C 
ENDBRANCH   8   9
ENDBRANCH   7   8
ENDBRANCH   1   7
TORSDOF 3
ENDMDL
