MODEL 1
REMARK minimizedAffinity -2.93258643
REMARK minimizedRMSD -1
REMARK  3 active torsions:
REMARK  status: ('A' for Active; 'I' for Inactive)
REMARK    1  A    between atoms: C3'_2  and  C2'_3 
REMARK    2  A    between atoms: C2'_3  and  C1'_4 
REMARK    3  A    between atoms: C1'_4  and  C1_5 
ROOT
ATOM      1  C1  N4B d   1       0.740  -0.019  -0.602  0.00  0.00    -0.075 A 
ATOM      2  C2  N4B d   1       1.835  -0.797  -0.167  0.00  0.00     0.002 A 
ATOM      3  C3  N4B d   1       2.269  -0.705   1.133  0.00  0.00     0.002 A 
ATOM      4  C4  N4B d   1       1.638   0.168   2.006  0.00  0.00    -0.004 A 
ATOM      5  C5  N4B d   1       0.565   0.897   1.585  0.00  0.00     0.002 A 
ATOM      6  C6  N4B d   1       0.116   0.811   0.283  0.00  0.00     0.002 A 
ENDROOT
BRANCH   1   7
ATOM      7  C1' N4B d   1       0.284  -0.022  -2.036  0.00  0.00     0.057 C 
BRANCH   7   8
ATOM      8  C2' N4B d   1       1.063   1.037  -2.811  0.00  0.00     0.009 C 
BRANCH   8   9
ATOM      9  C3' N4B d   1       0.970   0.824  -4.312  0.00  0.00     0.004 C 
ATOM     10  C4' N4B d   1      -0.296   0.135  -4.724  0.00  0.00     0.003 C 
ENDBRANCH   8   9
ENDBRANCH   7   8
ENDBRANCH   1   7
TORSDOF 3
ENDMDL
