MODEL 1
REMARK minimizedAffinity -3.25834775
REMARK minimizedRMSD -1
REMARK  3 active torsions:
REMARK  status: ('A' for Active; 'I' for Inactive)
REMARK    1  A    between atoms: C3'_2  and  C2'_3 
REMARK    2  A    between atoms: C2'_3  and  C1'_4 
REMARK    3  A    between atoms: C1'_4  and  C1_5 
ROOT
ATOM      1  C1  N4B d   1       0.245   0.353   0.762  0.00  0.00    -0.075 A 
ATOM      2  C2  N4B d   1      -0.793   1.187   1.234  0.00  0.00     0.002 A 
ATOM      3  C3  N4B d   1      -0.852   1.522   2.564  0.00  0.00     0.002 A 
ATOM      4  C4  N4B d   1       0.099   1.022   3.441  0.00  0.00    -0.004 A 
ATOM      5  C5  N4B d   1       1.112   0.238   2.973  0.00  0.00     0.002 A 
ATOM      6  C6  N4B d   1       1.187  -0.104   1.637  0.00  0.00     0.002 A 
ENDROOT
BRANCH   1   7
ATOM      7  C1' N4B d   1       0.303  -0.110  -0.668  0.00  0.00     0.057 C 
BRANCH   7   8
ATOM      8  C2' N4B d   1       0.767   1.045  -1.550  0.00  0.00     0.009 C 
BRANCH   8   9
ATOM      9  C3' N4B d   1       0.386   0.836  -3.006  0.00  0.00     0.004 C 
ATOM     10  C4' N4B d   1       1.333   1.507  -3.956  0.00  0.00     0.003 C 
ENDBRANCH   8   9
ENDBRANCH   7   8
ENDBRANCH   1   7
TORSDOF 3
ENDMDL
