MODEL 1
REMARK minimizedAffinity -3.08519697
REMARK minimizedRMSD -1
REMARK  3 active torsions:
REMARK  status: ('A' for Active; 'I' for Inactive)
REMARK    1  A    between atoms: C3'_2  and  C2'_3 
REMARK    2  A    between atoms: C2'_3  and  C1'_4 
REMARK    3  A    between atoms: C1'_4  and  C1_5 
ROOT
ATOM      1  C1  N4B d   1      -0.256   0.042  -0.083  0.00  0.00    -0.075 A 
ATOM      2  C2  N4B d   1       0.864   0.300   0.738  0.00  0.00     0.002 A 
ATOM      3  C3  N4B d   1       0.688   0.819   1.997  0.00  0.00     0.002 A 
ATOM      4  C4  N4B d   1      -0.591   1.105   2.448  0.00  0.00    -0.004 A 
ATOM      5  C5  N4B d   1      -1.670   0.830   1.659  0.00  0.00     0.002 A 
ATOM      6  C6  N4B d   1      -1.508   0.304   0.393  0.00  0.00     0.002 A 
ENDROOT
BRANCH   1   7
ATOM      7  C1' N4B d   1      -0.109  -0.444  -1.498  0.00  0.00     0.057 C 
BRANCH   7   8
ATOM      8  C2' N4B d   1      -0.198   0.746  -2.449  0.00  0.00     0.009 C 
BRANCH   8   9
ATOM      9  C3' N4B d   1       0.251   0.385  -3.855  0.00  0.00     0.004 C 
ATOM     10  C4' N4B d   1      -0.867  -0.144  -4.703  0.00  0.00     0.003 C 
ENDBRANCH   8   9
ENDBRANCH   7   8
ENDBRANCH   1   7
TORSDOF 3
ENDMDL
