MODEL 1
REMARK minimizedAffinity -3.88844609
REMARK minimizedRMSD -1
REMARK  3 active torsions:
REMARK  status: ('A' for Active; 'I' for Inactive)
REMARK    1  A    between atoms: C3'_2  and  C2'_3 
REMARK    2  A    between atoms: C2'_3  and  C1'_4 
REMARK    3  A    between atoms: C1'_4  and  C1_5 
ROOT
ATOM      1  C1  N4B d   1       0.059   0.071   0.361  0.00  0.00    -0.075 A 
ATOM      2  C2  N4B d   1       0.988   0.814   1.123  0.00  0.00     0.002 A 
ATOM      3  C3  N4B d   1       0.579   1.462   2.262  0.00  0.00     0.002 A 
ATOM      4  C4  N4B d   1      -0.752   1.399   2.647  0.00  0.00    -0.004 A 
ATOM      5  C5  N4B d   1      -1.638   0.659   1.919  0.00  0.00     0.002 A 
ATOM      6  C6  N4B d   1      -1.240  -0.001   0.774  0.00  0.00     0.002 A 
ENDROOT
BRANCH   1   7
ATOM      7  C1' N4B d   1       0.441  -0.584  -0.939  0.00  0.00     0.057 C 
BRANCH   7   8
ATOM      8  C2' N4B d   1       0.987   0.475  -1.892  0.00  0.00     0.009 C 
BRANCH   8   9
ATOM      9  C3' N4B d   1       0.252   0.476  -3.221  0.00  0.00     0.004 C 
ATOM     10  C4' N4B d   1       0.944   1.299  -4.267  0.00  0.00     0.003 C 
ENDBRANCH   8   9
ENDBRANCH   7   8
ENDBRANCH   1   7
TORSDOF 3
ENDMDL
