MODEL 1
REMARK minimizedAffinity -5.19024134
REMARK minimizedRMSD -1
REMARK  3 active torsions:
REMARK  status: ('A' for Active; 'I' for Inactive)
REMARK    1  A    between atoms: C3'_2  and  C2'_3 
REMARK    2  A    between atoms: C2'_3  and  C1'_4 
REMARK    3  A    between atoms: C1'_4  and  C1_5 
ROOT
ATOM      1  C1  N4B d   1      -0.050   0.213   0.425  0.00  0.00    -0.075 A 
ATOM      2  C2  N4B d   1       0.690   1.024   1.313  0.00  0.00     0.002 A 
ATOM      3  C3  N4B d   1       0.100   1.505   2.457  0.00  0.00     0.002 A 
ATOM      4  C4  N4B d   1      -1.227   1.205   2.722  0.00  0.00    -0.004 A 
ATOM      5  C5  N4B d   1      -1.927   0.400   1.872  0.00  0.00     0.002 A 
ATOM      6  C6  N4B d   1      -1.346  -0.093   0.721  0.00  0.00     0.002 A 
ENDROOT
BRANCH   1   7
ATOM      7  C1' N4B d   1       0.526  -0.265  -0.880  0.00  0.00     0.057 C 
BRANCH   7   8
ATOM      8  C2' N4B d   1      -0.260   0.356  -2.031  0.00  0.00     0.009 C 
BRANCH   8   9
ATOM      9  C3' N4B d   1       0.355   0.028  -3.381  0.00  0.00     0.004 C 
ATOM     10  C4' N4B d   1      -0.663  -0.412  -4.391  0.00  0.00     0.003 C 
ENDBRANCH   8   9
ENDBRANCH   7   8
ENDBRANCH   1   7
TORSDOF 3
ENDMDL
