MODEL 1
REMARK minimizedAffinity -4.32889509
REMARK minimizedRMSD -1
REMARK  3 active torsions:
REMARK  status: ('A' for Active; 'I' for Inactive)
REMARK    1  A    between atoms: C3'_2  and  C2'_3 
REMARK    2  A    between atoms: C2'_3  and  C1'_4 
REMARK    3  A    between atoms: C1'_4  and  C1_5 
ROOT
ATOM      1  C1  N4B d   1       0.542  -0.262  -3.625  0.00  0.00    -0.075 A 
ATOM      2  C2  N4B d   1      -0.616  -1.057  -3.768  0.00  0.00     0.002 A 
ATOM      3  C3  N4B d   1      -1.310  -1.053  -4.953  0.00  0.00     0.002 A 
ATOM      4  C4  N4B d   1      -0.878  -0.250  -5.998  0.00  0.00    -0.004 A 
ATOM      5  C5  N4B d   1       0.256   0.495  -5.861  0.00  0.00     0.002 A 
ATOM      6  C6  N4B d   1       0.966   0.498  -4.677  0.00  0.00     0.002 A 
ENDROOT
BRANCH   1   7
ATOM      7  C1' N4B d   1       1.286  -0.168  -2.321  0.00  0.00     0.057 C 
BRANCH   7   8
ATOM      8  C2' N4B d   1       0.408  -0.724  -1.203  0.00  0.00     0.009 C 
BRANCH   8   9
ATOM      9  C3' N4B d   1       0.940  -0.359   0.172  0.00  0.00     0.004 C 
ATOM     10  C4' N4B d   1       2.269  -0.989   0.467  0.00  0.00     0.003 C 
ENDBRANCH   8   9
ENDBRANCH   7   8
ENDBRANCH   1   7
TORSDOF 3
ENDMDL
