MODEL 1
REMARK minimizedAffinity 5.38403082
REMARK minimizedRMSD -1
REMARK  0 active torsions:
REMARK  status: ('A' for Active; 'I' for Inactive)
ROOT
ATOM      1  C   UNL d   1      -2.282   0.278   2.683  0.00  0.00     0.023 A 
ATOM      2  C1  UNL d   1      -1.174  -0.388   3.209  0.00  0.00     0.003 A 
ATOM      3  C2  UNL d   1       0.005  -0.479   2.466  0.00  0.00     0.048 A 
ATOM      4  C3  UNL d   1       0.070   0.099   1.199  0.00  0.00     0.023 A 
ATOM      5  C4  UNL d   1      -1.035   0.766   0.669  0.00  0.00     0.048 A 
ATOM      6  C5  UNL d   1      -2.212   0.854   1.415  0.00  0.00     0.003 A 
ATOM      7  I   UNL d   1       1.824  -0.035   0.092  0.00  0.00    -0.146 I 
ENDROOT
TORSDOF 0
ENDMDL
