MODEL 1
REMARK minimizedAffinity 2.98196983
REMARK minimizedRMSD -1
REMARK  0 active torsions:
REMARK  status: ('A' for Active; 'I' for Inactive)
ROOT
ATOM      1  C   UNL d   1       0.323   0.398   0.518  0.00  0.00     0.023 A 
ATOM      2  C1  UNL d   1      -0.925   0.220  -0.080  0.00  0.00     0.003 A 
ATOM      3  C2  UNL d   1      -1.997  -0.267   0.670  0.00  0.00     0.048 A 
ATOM      4  C3  UNL d   1      -1.815  -0.574   2.018  0.00  0.00     0.023 A 
ATOM      5  C4  UNL d   1      -0.568  -0.397   2.621  0.00  0.00     0.048 A 
ATOM      6  C5  UNL d   1       0.501   0.090   1.866  0.00  0.00     0.003 A 
ATOM      7  I   UNL d   1      -3.409  -1.300   3.137  0.00  0.00    -0.146 I 
ENDROOT
TORSDOF 0
ENDMDL
