MODEL 1
REMARK minimizedAffinity 12.2877798
REMARK minimizedRMSD -1
REMARK  0 active torsions:
REMARK  status: ('A' for Active; 'I' for Inactive)
ROOT
ATOM      1  C   UNL d   1      -3.183   0.207   0.414  0.00  0.00     0.023 A 
ATOM      2  C1  UNL d   1      -2.365  -0.103  -0.673  0.00  0.00     0.003 A 
ATOM      3  C2  UNL d   1      -0.976  -0.047  -0.541  0.00  0.00     0.048 A 
ATOM      4  C3  UNL d   1      -0.411   0.318   0.681  0.00  0.00     0.023 A 
ATOM      5  C4  UNL d   1      -1.226   0.628   1.771  0.00  0.00     0.048 A 
ATOM      6  C5  UNL d   1      -2.614   0.572   1.634  0.00  0.00     0.003 A 
ATOM      7  I   UNL d   1       1.656   0.401   0.880  0.00  0.00    -0.146 I 
ENDROOT
TORSDOF 0
ENDMDL
