MODEL 1
REMARK minimizedAffinity 6.57379293
REMARK minimizedRMSD -1
REMARK  0 active torsions:
REMARK  status: ('A' for Active; 'I' for Inactive)
ROOT
ATOM      1  C   UNL d   1      -3.196   0.454   0.909  0.00  0.00     0.023 A 
ATOM      2  C1  UNL d   1      -2.265   0.670   1.925  0.00  0.00     0.003 A 
ATOM      3  C2  UNL d   1      -0.909   0.433   1.692  0.00  0.00     0.048 A 
ATOM      4  C3  UNL d   1      -0.491  -0.020   0.441  0.00  0.00     0.023 A 
ATOM      5  C4  UNL d   1      -1.419  -0.236  -0.578  0.00  0.00     0.048 A 
ATOM      6  C5  UNL d   1      -2.774   0.001  -0.341  0.00  0.00     0.003 A 
ATOM      7  I   UNL d   1       1.527  -0.373   0.092  0.00  0.00    -0.146 I 
ENDROOT
TORSDOF 0
ENDMDL
