MODEL 1
REMARK minimizedAffinity 2.84694147
REMARK minimizedRMSD -1
REMARK  0 active torsions:
REMARK  status: ('A' for Active; 'I' for Inactive)
ROOT
ATOM      1  C   UNL d   1      -1.858  -0.024   0.310  0.00  0.00     0.023 A 
ATOM      2  C1  UNL d   1      -0.521  -0.419   0.265  0.00  0.00     0.003 A 
ATOM      3  C2  UNL d   1       0.144  -0.776   1.440  0.00  0.00     0.048 A 
ATOM      4  C3  UNL d   1      -0.535  -0.737   2.657  0.00  0.00     0.023 A 
ATOM      5  C4  UNL d   1      -1.873  -0.343   2.708  0.00  0.00     0.048 A 
ATOM      6  C5  UNL d   1      -2.533   0.014   1.530  0.00  0.00     0.003 A 
ATOM      7  I   UNL d   1       0.451  -1.269   4.408  0.00  0.00    -0.146 I 
ENDROOT
TORSDOF 0
ENDMDL
