MODEL 1
REMARK minimizedAffinity 9.33368778
REMARK minimizedRMSD -1
REMARK  0 active torsions:
REMARK  status: ('A' for Active; 'I' for Inactive)
ROOT
ATOM      1  C   UNL d   1      -2.361  -0.790  -0.400  0.00  0.00     0.023 A 
ATOM      2  C1  UNL d   1      -1.146  -1.237  -0.920  0.00  0.00     0.003 A 
ATOM      3  C2  UNL d   1       0.054  -0.681  -0.472  0.00  0.00     0.048 A 
ATOM      4  C3  UNL d   1       0.032   0.321   0.498  0.00  0.00     0.023 A 
ATOM      5  C4  UNL d   1      -1.181   0.771   1.022  0.00  0.00     0.048 A 
ATOM      6  C5  UNL d   1      -2.378   0.212   0.569  0.00  0.00     0.003 A 
ATOM      7  I   UNL d   1       1.816   1.150   1.167  0.00  0.00    -0.146 I 
ENDROOT
TORSDOF 0
ENDMDL
