MODEL 1
REMARK minimizedAffinity 4.14010048
REMARK minimizedRMSD -1
REMARK  0 active torsions:
REMARK  status: ('A' for Active; 'I' for Inactive)
ROOT
ATOM      1  C   UNL d   1      -0.495  -0.567   4.341  0.00  0.00     0.023 A 
ATOM      2  C1  UNL d   1      -1.827  -0.207   4.134  0.00  0.00     0.003 A 
ATOM      3  C2  UNL d   1      -2.245   0.231   2.876  0.00  0.00     0.048 A 
ATOM      4  C3  UNL d   1      -1.327   0.307   1.830  0.00  0.00     0.023 A 
ATOM      5  C4  UNL d   1       0.006  -0.053   2.032  0.00  0.00     0.048 A 
ATOM      6  C5  UNL d   1       0.420  -0.490   3.291  0.00  0.00     0.003 A 
ATOM      7  I   UNL d   1      -1.948   0.959  -0.044  0.00  0.00    -0.146 I 
ENDROOT
TORSDOF 0
ENDMDL
