MODEL 1
REMARK minimizedAffinity 6.5349617
REMARK minimizedRMSD -1
REMARK  0 active torsions:
REMARK  status: ('A' for Active; 'I' for Inactive)
ROOT
ATOM      1  C   UNL d   1       1.830   0.957  -1.546  0.00  0.00     0.023 A 
ATOM      2  C1  UNL d   1       2.342   0.648  -2.806  0.00  0.00     0.003 A 
ATOM      3  C2  UNL d   1       1.971   1.408  -3.917  0.00  0.00     0.048 A 
ATOM      4  C3  UNL d   1       1.088   2.476  -3.760  0.00  0.00     0.023 A 
ATOM      5  C4  UNL d   1       0.574   2.789  -2.501  0.00  0.00     0.048 A 
ATOM      6  C5  UNL d   1       0.947   2.026  -1.393  0.00  0.00     0.003 A 
ATOM      7  I   UNL d   1       0.533   3.609  -5.412  0.00  0.00    -0.146 I 
ENDROOT
TORSDOF 0
ENDMDL
