MODEL 1
REMARK minimizedAffinity 0.22419785
REMARK minimizedRMSD -1
REMARK  0 active torsions:
REMARK  status: ('A' for Active; 'I' for Inactive)
ROOT
ATOM      1  C   UNL d   1      -0.676   4.749  -5.980  0.00  0.00     0.023 A 
ATOM      2  C1  UNL d   1      -1.569   5.821  -5.977  0.00  0.00     0.003 A 
ATOM      3  C2  UNL d   1      -2.945   5.585  -5.983  0.00  0.00     0.048 A 
ATOM      4  C3  UNL d   1      -3.422   4.275  -5.991  0.00  0.00     0.023 A 
ATOM      5  C4  UNL d   1      -2.532   3.199  -5.992  0.00  0.00     0.048 A 
ATOM      6  C5  UNL d   1      -1.157   3.440  -5.987  0.00  0.00     0.003 A 
ATOM      7  I   UNL d   1      -5.470   3.921  -5.999  0.00  0.00    -0.146 I 
ENDROOT
TORSDOF 0
ENDMDL
