MODEL 1
REMARK minimizedAffinity 4.97337437
REMARK minimizedRMSD -1
REMARK  0 active torsions:
REMARK  status: ('A' for Active; 'I' for Inactive)
ROOT
ATOM      1  C   UNL d   1       0.612   3.502  -5.943  0.00  0.00     0.023 A 
ATOM      2  C1  UNL d   1       0.700   4.894  -5.983  0.00  0.00     0.003 A 
ATOM      3  C2  UNL d   1       1.951   5.515  -5.997  0.00  0.00     0.048 A 
ATOM      4  C3  UNL d   1       3.109   4.739  -5.970  0.00  0.00     0.023 A 
ATOM      5  C4  UNL d   1       3.025   3.346  -5.931  0.00  0.00     0.048 A 
ATOM      6  C5  UNL d   1       1.772   2.730  -5.916  0.00  0.00     0.003 A 
ATOM      7  I   UNL d   1       4.971   5.661  -5.990  0.00  0.00    -0.146 I 
ENDROOT
TORSDOF 0
ENDMDL
