MODEL 1
REMARK minimizedAffinity 7.04327869
REMARK minimizedRMSD -1
REMARK  0 active torsions:
REMARK  status: ('A' for Active; 'I' for Inactive)
ROOT
ATOM      1  C   UNL d   1      -3.337   4.515  -5.572  0.00  0.00     0.023 A 
ATOM      2  C1  UNL d   1      -2.710   5.723  -5.877  0.00  0.00     0.003 A 
ATOM      3  C2  UNL d   1      -1.320   5.778  -6.000  0.00  0.00     0.048 A 
ATOM      4  C3  UNL d   1      -0.564   4.621  -5.817  0.00  0.00     0.023 A 
ATOM      5  C4  UNL d   1      -1.187   3.410  -5.512  0.00  0.00     0.048 A 
ATOM      6  C5  UNL d   1      -2.577   3.360  -5.390  0.00  0.00     0.003 A 
ATOM      7  I   UNL d   1       1.505   4.701  -5.999  0.00  0.00    -0.146 I 
ENDROOT
TORSDOF 0
ENDMDL
