MODEL 1
REMARK minimizedAffinity 11.6491051
REMARK minimizedRMSD -1
REMARK  0 active torsions:
REMARK  status: ('A' for Active; 'I' for Inactive)
ROOT
ATOM      1  C   UNL d   1      -2.256   5.253  -5.964  0.00  0.00     0.023 A 
ATOM      2  C1  UNL d   1      -1.077   6.000  -5.952  0.00  0.00     0.003 A 
ATOM      3  C2  UNL d   1       0.160   5.353  -5.962  0.00  0.00     0.048 A 
ATOM      4  C3  UNL d   1       0.212   3.960  -5.985  0.00  0.00     0.023 A 
ATOM      5  C4  UNL d   1      -0.964   3.209  -5.997  0.00  0.00     0.048 A 
ATOM      6  C5  UNL d   1      -2.199   3.860  -5.986  0.00  0.00     0.003 A 
ATOM      7  I   UNL d   1       2.053   2.995  -6.000  0.00  0.00    -0.146 I 
ENDROOT
TORSDOF 0
ENDMDL
