MODEL 1
REMARK minimizedAffinity -1.14603388
REMARK minimizedRMSD -1
REMARK  0 active torsions:
REMARK  status: ('A' for Active; 'I' for Inactive)
ROOT
ATOM      1  C   UNL d   1      -0.497   4.197  -5.761  0.00  0.00     0.023 A 
ATOM      2  C1  UNL d   1      -1.542   3.274  -5.701  0.00  0.00     0.003 A 
ATOM      3  C2  UNL d   1      -2.866   3.712  -5.769  0.00  0.00     0.048 A 
ATOM      4  C3  UNL d   1      -3.139   5.073  -5.898  0.00  0.00     0.023 A 
ATOM      5  C4  UNL d   1      -2.097   6.000  -5.959  0.00  0.00     0.048 A 
ATOM      6  C5  UNL d   1      -0.774   5.558  -5.890  0.00  0.00     0.003 A 
ATOM      7  I   UNL d   1      -5.109   5.726  -6.000  0.00  0.00    -0.146 I 
ENDROOT
TORSDOF 0
ENDMDL
