MODEL 1
REMARK minimizedAffinity 5.7997632
REMARK minimizedRMSD -1
REMARK  0 active torsions:
REMARK  status: ('A' for Active; 'I' for Inactive)
ROOT
ATOM      1  C   UNL d   1      -3.167   4.106  -5.850  0.00  0.00     0.023 A 
ATOM      2  C1  UNL d   1      -2.964   5.482  -5.942  0.00  0.00     0.003 A 
ATOM      3  C2  UNL d   1      -1.666   5.996  -5.984  0.00  0.00     0.048 A 
ATOM      4  C3  UNL d   1      -0.576   5.128  -5.936  0.00  0.00     0.023 A 
ATOM      5  C4  UNL d   1      -0.775   3.749  -5.845  0.00  0.00     0.048 A 
ATOM      6  C5  UNL d   1      -2.074   3.240  -5.801  0.00  0.00     0.003 A 
ATOM      7  I   UNL d   1       1.356   5.890  -5.999  0.00  0.00    -0.146 I 
ENDROOT
TORSDOF 0
ENDMDL
