MODEL 1
REMARK minimizedAffinity 14.0602665
REMARK minimizedRMSD -1
REMARK  0 active torsions:
REMARK  status: ('A' for Active; 'I' for Inactive)
ROOT
ATOM      1  C   UNL d   1       1.839   0.764  -1.871  0.00  0.00     0.023 A 
ATOM      2  C1  UNL d   1       1.966   2.152  -1.940  0.00  0.00     0.003 A 
ATOM      3  C2  UNL d   1       2.426   2.755  -3.112  0.00  0.00     0.048 A 
ATOM      4  C3  UNL d   1       2.757   1.965  -4.212  0.00  0.00     0.023 A 
ATOM      5  C4  UNL d   1       2.630   0.576  -4.149  0.00  0.00     0.048 A 
ATOM      6  C5  UNL d   1       2.170  -0.022  -2.975  0.00  0.00     0.003 A 
ATOM      7  I   UNL d   1       3.442   2.861  -5.958  0.00  0.00    -0.146 I 
ENDROOT
TORSDOF 0
ENDMDL
