MODEL 1
REMARK minimizedAffinity 3.60683489
REMARK minimizedRMSD -1
REMARK  0 active torsions:
REMARK  status: ('A' for Active; 'I' for Inactive)
ROOT
ATOM      1  C   UNL d   1      -5.999   5.777  -4.165  0.00  0.00     0.023 A 
ATOM      2  C1  UNL d   1      -5.737   4.625  -3.423  0.00  0.00     0.003 A 
ATOM      3  C2  UNL d   1      -4.897   3.637  -3.941  0.00  0.00     0.048 A 
ATOM      4  C3  UNL d   1      -4.322   3.808  -5.200  0.00  0.00     0.023 A 
ATOM      5  C4  UNL d   1      -4.581   4.959  -5.945  0.00  0.00     0.048 A 
ATOM      6  C5  UNL d   1      -5.423   5.944  -5.424  0.00  0.00     0.003 A 
ATOM      7  I   UNL d   1      -3.071   2.338  -5.972  0.00  0.00    -0.146 I 
ENDROOT
TORSDOF 0
ENDMDL
