MODEL 1
REMARK minimizedAffinity 4.1973815
REMARK minimizedRMSD -1
REMARK  0 active torsions:
REMARK  status: ('A' for Active; 'I' for Inactive)
ROOT
ATOM      1  C   UNL d   1      -0.137   4.034  -5.917  0.00  0.00     0.023 A 
ATOM      2  C1  UNL d   1      -0.288   5.420  -5.964  0.00  0.00     0.003 A 
ATOM      3  C2  UNL d   1      -1.565   5.985  -5.987  0.00  0.00     0.048 A 
ATOM      4  C3  UNL d   1      -2.687   5.157  -5.963  0.00  0.00     0.023 A 
ATOM      5  C4  UNL d   1      -2.541   3.769  -5.915  0.00  0.00     0.048 A 
ATOM      6  C5  UNL d   1      -1.262   3.210  -5.893  0.00  0.00     0.003 A 
ATOM      7  I   UNL d   1      -4.589   5.994  -5.997  0.00  0.00    -0.146 I 
ENDROOT
TORSDOF 0
ENDMDL
