MODEL 1
REMARK minimizedAffinity 2.4873786
REMARK minimizedRMSD -1
REMARK  0 active torsions:
REMARK  status: ('A' for Active; 'I' for Inactive)
ROOT
ATOM      1  C   UNL d   1       0.529   4.040  -5.689  0.00  0.00     0.023 A 
ATOM      2  C1  UNL d   1      -0.599   3.225  -5.586  0.00  0.00     0.003 A 
ATOM      3  C2  UNL d   1      -1.876   3.784  -5.674  0.00  0.00     0.048 A 
ATOM      4  C3  UNL d   1      -2.018   5.157  -5.867  0.00  0.00     0.023 A 
ATOM      5  C4  UNL d   1      -0.893   5.977  -5.971  0.00  0.00     0.048 A 
ATOM      6  C5  UNL d   1       0.382   5.414  -5.882  0.00  0.00     0.003 A 
ATOM      7  I   UNL d   1      -3.918   5.991  -5.998  0.00  0.00    -0.146 I 
ENDROOT
TORSDOF 0
ENDMDL
