MODEL 1
REMARK minimizedAffinity 6.43185043
REMARK minimizedRMSD -1
REMARK  0 active torsions:
REMARK  status: ('A' for Active; 'I' for Inactive)
ROOT
ATOM      1  C   UNL d   1      -5.324   3.265  -5.421  0.00  0.00     0.023 A 
ATOM      2  C1  UNL d   1      -4.061   2.672  -5.388  0.00  0.00     0.003 A 
ATOM      3  C2  UNL d   1      -2.917   3.455  -5.554  0.00  0.00     0.048 A 
ATOM      4  C3  UNL d   1      -3.041   4.829  -5.751  0.00  0.00     0.023 A 
ATOM      5  C4  UNL d   1      -4.302   5.427  -5.783  0.00  0.00     0.048 A 
ATOM      6  C5  UNL d   1      -5.444   4.641  -5.618  0.00  0.00     0.003 A 
ATOM      7  I   UNL d   1      -1.339   5.996  -5.997  0.00  0.00    -0.146 I 
ENDROOT
TORSDOF 0
ENDMDL
