MODEL 1
REMARK minimizedAffinity 12.8454065
REMARK minimizedRMSD -1
REMARK  0 active torsions:
REMARK  status: ('A' for Active; 'I' for Inactive)
ROOT
ATOM      1  C   UNL d   1       5.836   4.509  -5.997  0.00  0.00     0.023 A 
ATOM      2  C1  UNL d   1       5.019   5.639  -5.990  0.00  0.00     0.003 A 
ATOM      3  C2  UNL d   1       3.630   5.498  -5.988  0.00  0.00     0.048 A 
ATOM      4  C3  UNL d   1       3.064   4.224  -5.990  0.00  0.00     0.023 A 
ATOM      5  C4  UNL d   1       3.878   3.090  -5.996  0.00  0.00     0.048 A 
ATOM      6  C5  UNL d   1       5.266   3.236  -6.000  0.00  0.00     0.003 A 
ATOM      7  I   UNL d   1       0.997   4.011  -5.986  0.00  0.00    -0.146 I 
ENDROOT
TORSDOF 0
ENDMDL
