MODEL 1
REMARK minimizedAffinity 9.23177719
REMARK minimizedRMSD -1
REMARK  0 active torsions:
REMARK  status: ('A' for Active; 'I' for Inactive)
ROOT
ATOM      1  C   UNL d   1      -0.181  -3.043   2.560  0.00  0.00     0.023 A 
ATOM      2  C1  UNL d   1      -1.274  -2.188   2.705  0.00  0.00     0.003 A 
ATOM      3  C2  UNL d   1      -2.231  -2.435   3.691  0.00  0.00     0.048 A 
ATOM      4  C3  UNL d   1      -2.089  -3.540   4.530  0.00  0.00     0.023 A 
ATOM      5  C4  UNL d   1      -0.997  -4.398   4.390  0.00  0.00     0.048 A 
ATOM      6  C5  UNL d   1      -0.043  -4.147   3.402  0.00  0.00     0.003 A 
ATOM      7  I   UNL d   1      -3.511  -3.911   5.999  0.00  0.00    -0.146 I 
ENDROOT
TORSDOF 0
ENDMDL
