MODEL 1
REMARK minimizedAffinity 0.666173398
REMARK minimizedRMSD -1
REMARK  0 active torsions:
REMARK  status: ('A' for Active; 'I' for Inactive)
ROOT
ATOM      1  C   UNL d   1      -2.710   4.817  -5.997  0.00  0.00     0.023 A 
ATOM      2  C1  UNL d   1      -2.444   3.448  -5.999  0.00  0.00     0.003 A 
ATOM      3  C2  UNL d   1      -1.125   2.991  -5.999  0.00  0.00     0.048 A 
ATOM      4  C3  UNL d   1      -0.075   3.910  -5.996  0.00  0.00     0.023 A 
ATOM      5  C4  UNL d   1      -0.337   5.281  -5.993  0.00  0.00     0.048 A 
ATOM      6  C5  UNL d   1      -1.658   5.733  -5.994  0.00  0.00     0.003 A 
ATOM      7  I   UNL d   1       1.890   3.233  -5.996  0.00  0.00    -0.146 I 
ENDROOT
TORSDOF 0
ENDMDL
