MODEL 1
REMARK minimizedAffinity 5.88830614
REMARK minimizedRMSD -1
REMARK  0 active torsions:
REMARK  status: ('A' for Active; 'I' for Inactive)
ROOT
ATOM      1  C   UNL d   1      -0.994   4.636  -5.977  0.00  0.00     0.023 A 
ATOM      2  C1  UNL d   1      -1.320   3.281  -5.905  0.00  0.00     0.003 A 
ATOM      3  C2  UNL d   1      -0.504   2.403  -5.188  0.00  0.00     0.048 A 
ATOM      4  C3  UNL d   1       0.635   2.887  -4.545  0.00  0.00     0.023 A 
ATOM      5  C4  UNL d   1       0.964   4.241  -4.613  0.00  0.00     0.048 A 
ATOM      6  C5  UNL d   1       0.146   5.115  -5.332  0.00  0.00     0.003 A 
ATOM      7  I   UNL d   1       1.850   1.582  -3.477  0.00  0.00    -0.146 I 
ENDROOT
TORSDOF 0
ENDMDL
