MODEL 1
REMARK minimizedAffinity -0.410074949
REMARK minimizedRMSD -1
REMARK  0 active torsions:
REMARK  status: ('A' for Active; 'I' for Inactive)
ROOT
ATOM      1  C   UNL d   1      -0.757   3.759  -5.659  0.00  0.00     0.023 A 
ATOM      2  C1  UNL d   1      -0.931   5.122  -5.903  0.00  0.00     0.003 A 
ATOM      3  C2  UNL d   1      -2.217   5.657  -6.000  0.00  0.00     0.048 A 
ATOM      4  C3  UNL d   1      -3.325   4.824  -5.851  0.00  0.00     0.023 A 
ATOM      5  C4  UNL d   1      -3.156   3.460  -5.605  0.00  0.00     0.048 A 
ATOM      6  C5  UNL d   1      -1.869   2.929  -5.510  0.00  0.00     0.003 A 
ATOM      7  I   UNL d   1      -5.241   5.618  -5.994  0.00  0.00    -0.146 I 
ENDROOT
TORSDOF 0
ENDMDL
