MODEL 1
REMARK minimizedAffinity 19.7947617
REMARK minimizedRMSD -1
REMARK  0 active torsions:
REMARK  status: ('A' for Active; 'I' for Inactive)
ROOT
ATOM      1  C   UNL d   1       1.478  -0.287   2.854  0.00  0.00     0.124 A 
ATOM      2  C1  UNL d   1       0.872  -1.416   3.387  0.00  0.00     0.062 A 
ATOM      3  C2  UNL d   1       0.703  -2.555   2.605  0.00  0.00     0.162 A 
ATOM      4  C3  UNL d   1       1.144  -2.572   1.281  0.00  0.00    -0.034 A 
ATOM      5  C4  UNL d   1       1.752  -1.432   0.752  0.00  0.00     0.162 A 
ATOM      6  C5  UNL d   1       1.918  -0.296   1.537  0.00  0.00     0.062 A 
ATOM      7  F   UNL d   1       2.504   0.794   1.021  0.00  0.00    -0.097 F 
ATOM      8  F1  UNL d   1       2.187  -1.414  -0.517  0.00  0.00    -0.096 F 
ATOM      9  I   UNL d   1       0.894  -4.273   0.109  0.00  0.00    -0.060 I 
ATOM     10  F2  UNL d   1       0.114  -3.632   3.146  0.00  0.00    -0.096 F 
ATOM     11  F3  UNL d   1       0.445  -1.409   4.658  0.00  0.00    -0.097 F 
ATOM     12  F4  UNL d   1       1.638   0.808   3.608  0.00  0.00    -0.092 F 
ENDROOT
TORSDOF 0
ENDMDL
