MODEL 1
REMARK minimizedAffinity 14.2511911
REMARK minimizedRMSD -1
REMARK  0 active torsions:
REMARK  status: ('A' for Active; 'I' for Inactive)
ROOT
ATOM      1  C   UNL d   1       2.612  -4.576   4.140  0.00  0.00     0.124 A 
ATOM      2  C1  UNL d   1       2.511  -3.311   4.703  0.00  0.00     0.062 A 
ATOM      3  C2  UNL d   1       2.110  -2.228   3.926  0.00  0.00     0.162 A 
ATOM      4  C3  UNL d   1       1.805  -2.405   2.577  0.00  0.00    -0.034 A 
ATOM      5  C4  UNL d   1       1.910  -3.679   2.017  0.00  0.00     0.162 A 
ATOM      6  C5  UNL d   1       2.311  -4.759   2.797  0.00  0.00     0.062 A 
ATOM      7  F   UNL d   1       2.408  -5.979   2.251  0.00  0.00    -0.097 F 
ATOM      8  F1  UNL d   1       1.624  -3.885   0.722  0.00  0.00    -0.096 F 
ATOM      9  I   UNL d   1       1.205  -0.788   1.411  0.00  0.00    -0.060 I 
ATOM     10  F2  UNL d   1       2.021  -1.018   4.497  0.00  0.00    -0.096 F 
ATOM     11  F3  UNL d   1       2.802  -3.131   6.000  0.00  0.00    -0.097 F 
ATOM     12  F4  UNL d   1       2.999  -5.615   4.889  0.00  0.00    -0.092 F 
ENDROOT
TORSDOF 0
ENDMDL
