MODEL 1
REMARK minimizedAffinity 14.2628889
REMARK minimizedRMSD -1
REMARK  0 active torsions:
REMARK  status: ('A' for Active; 'I' for Inactive)
ROOT
ATOM      1  C   UNL d   1       1.870  -3.002   4.137  0.00  0.00     0.124 A 
ATOM      2  C1  UNL d   1       3.096  -2.801   4.756  0.00  0.00     0.062 A 
ATOM      3  C2  UNL d   1       4.276  -3.116   4.089  0.00  0.00     0.162 A 
ATOM      4  C3  UNL d   1       4.237  -3.635   2.795  0.00  0.00    -0.034 A 
ATOM      5  C4  UNL d   1       3.000  -3.835   2.180  0.00  0.00     0.162 A 
ATOM      6  C5  UNL d   1       1.823  -3.519   2.850  0.00  0.00     0.062 A 
ATOM      7  F   UNL d   1       0.639  -3.713   2.251  0.00  0.00    -0.097 F 
ATOM      8  F1  UNL d   1       2.926  -4.332   0.936  0.00  0.00    -0.096 F 
ATOM      9  I   UNL d   1       6.000  -4.108   1.795  0.00  0.00    -0.060 I 
ATOM     10  F2  UNL d   1       5.447  -2.912   4.712  0.00  0.00    -0.096 F 
ATOM     11  F3  UNL d   1       3.144  -2.303   6.000  0.00  0.00    -0.097 F 
ATOM     12  F4  UNL d   1       0.735  -2.699   4.781  0.00  0.00    -0.092 F 
ENDROOT
TORSDOF 0
ENDMDL
