MODEL 1
REMARK minimizedAffinity 5.58033466
REMARK minimizedRMSD -1
REMARK  0 active torsions:
REMARK  status: ('A' for Active; 'I' for Inactive)
ROOT
ATOM      1  C   UNL d   1      -1.924   0.906  -1.385  0.00  0.00     0.124 A 
ATOM      2  C1  UNL d   1      -1.866   1.494  -0.129  0.00  0.00     0.062 A 
ATOM      3  C2  UNL d   1      -2.843   2.404   0.264  0.00  0.00     0.162 A 
ATOM      4  C3  UNL d   1      -3.888   2.731  -0.600  0.00  0.00    -0.034 A 
ATOM      5  C4  UNL d   1      -3.939   2.136  -1.862  0.00  0.00     0.162 A 
ATOM      6  C5  UNL d   1      -2.960   1.227  -2.250  0.00  0.00     0.062 A 
ATOM      7  F   UNL d   1      -3.019   0.660  -3.464  0.00  0.00    -0.097 F 
ATOM      8  F1  UNL d   1      -4.930   2.428  -2.717  0.00  0.00    -0.096 F 
ATOM      9  I   UNL d   1      -5.351   4.091  -0.016  0.00  0.00    -0.060 I 
ATOM     10  F2  UNL d   1      -2.761   2.956   1.483  0.00  0.00    -0.096 F 
ATOM     11  F3  UNL d   1      -0.865   1.185   0.708  0.00  0.00    -0.097 F 
ATOM     12  F4  UNL d   1      -0.982   0.031  -1.761  0.00  0.00    -0.092 F 
ENDROOT
TORSDOF 0
ENDMDL
