MODEL 1
REMARK minimizedAffinity 14.5328608
REMARK minimizedRMSD -1
REMARK  0 active torsions:
REMARK  status: ('A' for Active; 'I' for Inactive)
ROOT
ATOM      1  C   UNL d   1       1.774  -3.437   2.321  0.00  0.00     0.124 A 
ATOM      2  C1  UNL d   1       1.819  -2.528   3.369  0.00  0.00     0.062 A 
ATOM      3  C2  UNL d   1       3.023  -2.264   4.016  0.00  0.00     0.162 A 
ATOM      4  C3  UNL d   1       4.193  -2.911   3.618  0.00  0.00    -0.034 A 
ATOM      5  C4  UNL d   1       4.140  -3.826   2.564  0.00  0.00     0.162 A 
ATOM      6  C5  UNL d   1       2.934  -4.085   1.920  0.00  0.00     0.062 A 
ATOM      7  F   UNL d   1       2.893  -4.964   0.908  0.00  0.00    -0.097 F 
ATOM      8  F1  UNL d   1       5.245  -4.465   2.155  0.00  0.00    -0.096 F 
ATOM      9  I   UNL d   1       5.995  -2.521   4.583  0.00  0.00    -0.060 I 
ATOM     10  F2  UNL d   1       3.037  -1.381   5.025  0.00  0.00    -0.096 F 
ATOM     11  F3  UNL d   1       0.700  -1.901   3.759  0.00  0.00    -0.097 F 
ATOM     12  F4  UNL d   1       0.615  -3.689   1.701  0.00  0.00    -0.092 F 
ENDROOT
TORSDOF 0
ENDMDL
