MODEL 1
REMARK minimizedAffinity 6.66927147
REMARK minimizedRMSD -1
REMARK  0 active torsions:
REMARK  status: ('A' for Active; 'I' for Inactive)
ROOT
ATOM      1  C   UNL d   1       1.832  -1.594   4.068  0.00  0.00     0.124 A 
ATOM      2  C1  UNL d   1       2.997  -2.009   4.698  0.00  0.00     0.062 A 
ATOM      3  C2  UNL d   1       4.188  -2.093   3.983  0.00  0.00     0.162 A 
ATOM      4  C3  UNL d   1       4.220  -1.760   2.629  0.00  0.00    -0.034 A 
ATOM      5  C4  UNL d   1       3.045  -1.344   2.001  0.00  0.00     0.162 A 
ATOM      6  C5  UNL d   1       1.857  -1.262   2.721  0.00  0.00     0.062 A 
ATOM      7  F   UNL d   1       0.732  -0.861   2.110  0.00  0.00    -0.097 F 
ATOM      8  F1  UNL d   1       3.040  -1.017   0.701  0.00  0.00    -0.096 F 
ATOM      9  I   UNL d   1       5.999  -1.884   1.556  0.00  0.00    -0.060 I 
ATOM     10  F2  UNL d   1       5.298  -2.497   4.617  0.00  0.00    -0.096 F 
ATOM     11  F3  UNL d   1       2.975  -2.331   5.999  0.00  0.00    -0.097 F 
ATOM     12  F4  UNL d   1       0.687  -1.515   4.758  0.00  0.00    -0.092 F 
ENDROOT
TORSDOF 0
ENDMDL
