MODEL 1
REMARK minimizedAffinity 21.0762596
REMARK minimizedRMSD -1
REMARK  0 active torsions:
REMARK  status: ('A' for Active; 'I' for Inactive)
ROOT
ATOM      1  C   UNL d   1       1.767  -2.460   2.114  0.00  0.00     0.124 A 
ATOM      2  C1  UNL d   1       1.335  -1.911   3.313  0.00  0.00     0.062 A 
ATOM      3  C2  UNL d   1       0.784  -2.727   4.298  0.00  0.00     0.162 A 
ATOM      4  C3  UNL d   1       0.662  -4.100   4.087  0.00  0.00    -0.034 A 
ATOM      5  C4  UNL d   1       1.098  -4.644   2.877  0.00  0.00     0.162 A 
ATOM      6  C5  UNL d   1       1.648  -3.825   1.897  0.00  0.00     0.062 A 
ATOM      7  F   UNL d   1       2.064  -4.357   0.738  0.00  0.00    -0.097 F 
ATOM      8  F1  UNL d   1       0.996  -5.961   2.642  0.00  0.00    -0.096 F 
ATOM      9  I   UNL d   1      -0.161  -5.323   5.556  0.00  0.00    -0.060 I 
ATOM     10  F2  UNL d   1       0.375  -2.170   5.447  0.00  0.00    -0.096 F 
ATOM     11  F3  UNL d   1       1.448  -0.592   3.525  0.00  0.00    -0.097 F 
ATOM     12  F4  UNL d   1       2.295  -1.672   1.168  0.00  0.00    -0.092 F 
ENDROOT
TORSDOF 0
ENDMDL
