MODEL 1
REMARK minimizedAffinity 6.31823826
REMARK minimizedRMSD -1
REMARK  0 active torsions:
REMARK  status: ('A' for Active; 'I' for Inactive)
ROOT
ATOM      1  C   UNL d   1       2.362  -2.151   2.424  0.00  0.00     0.124 A 
ATOM      2  C1  UNL d   1       1.131  -2.303   3.048  0.00  0.00     0.062 A 
ATOM      3  C2  UNL d   1       0.938  -3.324   3.974  0.00  0.00     0.162 A 
ATOM      4  C3  UNL d   1       1.978  -4.201   4.282  0.00  0.00    -0.034 A 
ATOM      5  C4  UNL d   1       3.212  -4.042   3.650  0.00  0.00     0.162 A 
ATOM      6  C5  UNL d   1       3.401  -3.020   2.725  0.00  0.00     0.062 A 
ATOM      7  F   UNL d   1       4.590  -2.875   2.123  0.00  0.00    -0.097 F 
ATOM      8  F1  UNL d   1       4.233  -4.868   3.923  0.00  0.00    -0.096 F 
ATOM      9  I   UNL d   1       1.692  -5.729   5.666  0.00  0.00    -0.060 I 
ATOM     10  F2  UNL d   1      -0.262  -3.448   4.561  0.00  0.00    -0.096 F 
ATOM     11  F3  UNL d   1       0.126  -1.465   2.758  0.00  0.00    -0.097 F 
ATOM     12  F4  UNL d   1       2.545  -1.168   1.533  0.00  0.00    -0.092 F 
ENDROOT
TORSDOF 0
ENDMDL
