MODEL 1
REMARK minimizedAffinity 2.34505892
REMARK minimizedRMSD -1
REMARK  0 active torsions:
REMARK  status: ('A' for Active; 'I' for Inactive)
ROOT
ATOM      1  C   UNL d   1       2.131  -1.985   2.622  0.00  0.00     0.124 A 
ATOM      2  C1  UNL d   1       0.847  -2.300   3.045  0.00  0.00     0.062 A 
ATOM      3  C2  UNL d   1       0.643  -3.328   3.960  0.00  0.00     0.162 A 
ATOM      4  C3  UNL d   1       1.727  -4.050   4.460  0.00  0.00    -0.034 A 
ATOM      5  C4  UNL d   1       3.016  -3.728   4.030  0.00  0.00     0.162 A 
ATOM      6  C5  UNL d   1       3.214  -2.699   3.115  0.00  0.00     0.062 A 
ATOM      7  F   UNL d   1       4.455  -2.397   2.708  0.00  0.00    -0.097 F 
ATOM      8  F1  UNL d   1       4.080  -4.401   4.491  0.00  0.00    -0.096 F 
ATOM      9  I   UNL d   1       1.427  -5.588   5.829  0.00  0.00    -0.060 I 
ATOM     10  F2  UNL d   1      -0.609  -3.610   4.351  0.00  0.00    -0.096 F 
ATOM     11  F3  UNL d   1      -0.201  -1.612   2.569  0.00  0.00    -0.097 F 
ATOM     12  F4  UNL d   1       2.324  -0.995   1.741  0.00  0.00    -0.092 F 
ENDROOT
TORSDOF 0
ENDMDL
