MODEL 1
REMARK minimizedAffinity 12.601347
REMARK minimizedRMSD -1
REMARK  0 active torsions:
REMARK  status: ('A' for Active; 'I' for Inactive)
ROOT
ATOM      1  C   UNL d   1       1.041  -2.140   2.823  0.00  0.00     0.124 A 
ATOM      2  C1  UNL d   1       1.839  -1.439   1.929  0.00  0.00     0.062 A 
ATOM      3  C2  UNL d   1       3.212  -1.663   1.893  0.00  0.00     0.162 A 
ATOM      4  C3  UNL d   1       3.797  -2.594   2.752  0.00  0.00    -0.034 A 
ATOM      5  C4  UNL d   1       2.988  -3.294   3.648  0.00  0.00     0.162 A 
ATOM      6  C5  UNL d   1       1.616  -3.067   3.681  0.00  0.00     0.062 A 
ATOM      7  F   UNL d   1       0.846  -3.745   4.545  0.00  0.00    -0.097 F 
ATOM      8  F1  UNL d   1       3.517  -4.196   4.488  0.00  0.00    -0.096 F 
ATOM      9  I   UNL d   1       5.850  -2.931   2.700  0.00  0.00    -0.060 I 
ATOM     10  F2  UNL d   1       3.959  -0.971   1.019  0.00  0.00    -0.096 F 
ATOM     11  F3  UNL d   1       1.286  -0.542   1.100  0.00  0.00    -0.097 F 
ATOM     12  F4  UNL d   1      -0.280  -1.922   2.856  0.00  0.00    -0.092 F 
ENDROOT
TORSDOF 0
ENDMDL
