MODEL 1
REMARK minimizedAffinity 2.8862474
REMARK minimizedRMSD -1
REMARK  1 active torsions:
REMARK  status: ('A' for Active; 'I' for Inactive)
REMARK    1  A    between atoms: C3_4  and  O_7 
ROOT
ATOM      1  C   UNL d   1       1.032  -0.798   1.952  0.00  0.00    -0.033 A 
ATOM      2  C1  UNL d   1       1.569  -1.116   0.703  0.00  0.00     0.039 A 
ATOM      3  C2  UNL d   1       1.110  -0.464  -0.443  0.00  0.00    -0.080 A 
ATOM      4  C3  UNL d   1       0.116   0.504  -0.326  0.00  0.00     0.150 A 
ATOM      5  C4  UNL d   1      -0.421   0.829   0.916  0.00  0.00    -0.007 A 
ATOM      6  C5  UNL d   1       0.038   0.176   2.059  0.00  0.00     0.039 A 
ENDROOT
BRANCH   4   7
ATOM      7  O   UNL d   1      -0.367   1.164  -1.416  0.00  0.00    -0.526 OA
ATOM      8  H5  UNL d   1       0.075   0.816  -2.208  0.00  0.00     0.418 HD
ENDBRANCH   4   7
TORSDOF 1
ENDMDL
