MODEL 1
REMARK minimizedAffinity 2.82512331
REMARK minimizedRMSD -1
REMARK  1 active torsions:
REMARK  status: ('A' for Active; 'I' for Inactive)
REMARK    1  A    between atoms: C3_4  and  O_7 
ROOT
ATOM      1  C   UNL d   1       1.037  -0.677  -0.064  0.00  0.00    -0.033 A 
ATOM      2  C1  UNL d   1       0.366   0.446  -0.551  0.00  0.00     0.039 A 
ATOM      3  C2  UNL d   1      -0.288   1.308   0.331  0.00  0.00    -0.080 A 
ATOM      4  C3  UNL d   1      -0.263   1.036   1.696  0.00  0.00     0.150 A 
ATOM      5  C4  UNL d   1       0.406  -0.080   2.189  0.00  0.00    -0.007 A 
ATOM      6  C5  UNL d   1       1.058  -0.940   1.306  0.00  0.00     0.039 A 
ENDROOT
BRANCH   4   7
ATOM      7  O   UNL d   1      -0.892   1.845   2.596  0.00  0.00    -0.526 OA
ATOM      8  H5  UNL d   1      -1.336   2.559   2.109  0.00  0.00     0.418 HD
ENDBRANCH   4   7
TORSDOF 1
ENDMDL
