MODEL 1
REMARK minimizedAffinity 2.34833622
REMARK minimizedRMSD -1
REMARK  1 active torsions:
REMARK  status: ('A' for Active; 'I' for Inactive)
REMARK    1  A    between atoms: C3_4  and  O_7 
ROOT
ATOM      1  C   UNL d   1      -0.409   3.149  -1.858  0.00  0.00    -0.033 A 
ATOM      2  C1  UNL d   1      -0.371   4.191  -0.929  0.00  0.00     0.039 A 
ATOM      3  C2  UNL d   1      -0.315   3.909   0.437  0.00  0.00    -0.080 A 
ATOM      4  C3  UNL d   1      -0.295   2.583   0.861  0.00  0.00     0.150 A 
ATOM      5  C4  UNL d   1      -0.328   1.540  -0.059  0.00  0.00    -0.007 A 
ATOM      6  C5  UNL d   1      -0.386   1.823  -1.422  0.00  0.00     0.039 A 
ENDROOT
BRANCH   4   7
ATOM      7  O   UNL d   1      -0.245   2.259   2.184  0.00  0.00    -0.526 OA
ATOM      8  H5  UNL d   1      -0.256   3.080   2.703  0.00  0.00     0.418 HD
ENDBRANCH   4   7
TORSDOF 1
ENDMDL
