MODEL 1
REMARK minimizedAffinity 1.63076556
REMARK minimizedRMSD -1
REMARK  1 active torsions:
REMARK  status: ('A' for Active; 'I' for Inactive)
REMARK    1  A    between atoms: C3_4  and  O_7 
ROOT
ATOM      1  C   UNL d   1       0.568   1.917   0.960  0.00  0.00    -0.033 A 
ATOM      2  C1  UNL d   1       1.561   0.937   1.011  0.00  0.00     0.039 A 
ATOM      3  C2  UNL d   1       1.616   0.052   2.089  0.00  0.00    -0.080 A 
ATOM      4  C3  UNL d   1       0.673   0.157   3.108  0.00  0.00     0.150 A 
ATOM      5  C4  UNL d   1      -0.322   1.128   3.061  0.00  0.00    -0.007 A 
ATOM      6  C5  UNL d   1      -0.375   2.012   1.984  0.00  0.00     0.039 A 
ENDROOT
BRANCH   4   7
ATOM      7  O   UNL d   1       0.689  -0.681   4.183  0.00  0.00    -0.526 OA
ATOM      8  H5  UNL d   1       1.448  -1.282   4.094  0.00  0.00     0.418 HD
ENDBRANCH   4   7
TORSDOF 1
ENDMDL
