MODEL 1
REMARK minimizedAffinity 6.08260584
REMARK minimizedRMSD -1
REMARK  1 active torsions:
REMARK  status: ('A' for Active; 'I' for Inactive)
REMARK    1  A    between atoms: C3_4  and  O_7 
ROOT
ATOM      1  C   UNL d   1       1.329  -2.591  -1.011  0.00  0.00    -0.033 A 
ATOM      2  C1  UNL d   1      -0.022  -2.378  -1.291  0.00  0.00     0.039 A 
ATOM      3  C2  UNL d   1      -0.430  -1.196  -1.913  0.00  0.00    -0.080 A 
ATOM      4  C3  UNL d   1       0.522  -0.238  -2.251  0.00  0.00     0.150 A 
ATOM      5  C4  UNL d   1       1.870  -0.446  -1.979  0.00  0.00    -0.007 A 
ATOM      6  C5  UNL d   1       2.275  -1.626  -1.356  0.00  0.00     0.039 A 
ENDROOT
BRANCH   4   7
ATOM      7  O   UNL d   1       0.171   0.932  -2.855  0.00  0.00    -0.526 OA
ATOM      8  H5  UNL d   1      -0.795   0.950  -2.955  0.00  0.00     0.418 HD
ENDBRANCH   4   7
TORSDOF 1
ENDMDL
