MODEL 1
REMARK minimizedAffinity 7.11047554
REMARK minimizedRMSD -1
REMARK  0 active torsions:
REMARK  status: ('A' for Active; 'I' for Inactive)
ROOT
ATOM      1  C   UNL d   1       4.800  -4.317   5.952  0.00  0.00     0.023 A 
ATOM      2  C1  UNL d   1       4.437  -2.983   5.762  0.00  0.00     0.003 A 
ATOM      3  C2  UNL d   1       3.673  -2.617   4.652  0.00  0.00     0.048 A 
ATOM      4  C3  UNL d   1       3.275  -3.590   3.735  0.00  0.00     0.023 A 
ATOM      5  C4  UNL d   1       3.635  -4.926   3.921  0.00  0.00     0.048 A 
ATOM      6  C5  UNL d   1       4.400  -5.287   5.032  0.00  0.00     0.003 A 
ATOM      7  I   UNL d   1       2.139  -3.047   2.082  0.00  0.00    -0.146 I 
ENDROOT
TORSDOF 0
ENDMDL
