MODEL 1
REMARK minimizedAffinity 8.45119667
REMARK minimizedRMSD -1
REMARK  0 active torsions:
REMARK  status: ('A' for Active; 'I' for Inactive)
ROOT
ATOM      1  C   UNL d   1      -1.293  -0.645   3.389  0.00  0.00     0.023 A 
ATOM      2  C1  UNL d   1      -1.451  -1.662   2.449  0.00  0.00     0.003 A 
ATOM      3  C2  UNL d   1      -0.349  -2.417   2.042  0.00  0.00     0.048 A 
ATOM      4  C3  UNL d   1       0.909  -2.148   2.581  0.00  0.00     0.023 A 
ATOM      5  C4  UNL d   1       1.072  -1.132   3.523  0.00  0.00     0.048 A 
ATOM      6  C5  UNL d   1      -0.033  -0.379   3.926  0.00  0.00     0.003 A 
ATOM      7  I   UNL d   1       2.551  -3.270   1.978  0.00  0.00    -0.146 I 
ENDROOT
TORSDOF 0
ENDMDL
