MODEL 1
REMARK minimizedAffinity 15.2587023
REMARK minimizedRMSD -1
REMARK  0 active torsions:
REMARK  status: ('A' for Active; 'I' for Inactive)
ROOT
ATOM      1  C   UNL d   1      -3.768  -0.195   3.313  0.00  0.00     0.023 A 
ATOM      2  C1  UNL d   1      -2.629   0.049   4.081  0.00  0.00     0.003 A 
ATOM      3  C2  UNL d   1      -1.476  -0.713   3.883  0.00  0.00     0.048 A 
ATOM      4  C3  UNL d   1      -1.467  -1.715   2.913  0.00  0.00     0.023 A 
ATOM      5  C4  UNL d   1      -2.604  -1.961   2.141  0.00  0.00     0.048 A 
ATOM      6  C5  UNL d   1      -3.755  -1.198   2.344  0.00  0.00     0.003 A 
ATOM      7  I   UNL d   1       0.249  -2.849   2.616  0.00  0.00    -0.146 I 
ENDROOT
TORSDOF 0
ENDMDL
