MODEL 1
REMARK minimizedAffinity 10.8355131
REMARK minimizedRMSD -1
REMARK  0 active torsions:
REMARK  status: ('A' for Active; 'I' for Inactive)
ROOT
ATOM      1  C   UNL d   1       3.588  -3.374   2.376  0.00  0.00     0.023 A 
ATOM      2  C1  UNL d   1       4.976  -3.370   2.246  0.00  0.00     0.003 A 
ATOM      3  C2  UNL d   1       5.586  -4.124   1.241  0.00  0.00     0.048 A 
ATOM      4  C3  UNL d   1       4.801  -4.877   0.369  0.00  0.00     0.023 A 
ATOM      5  C4  UNL d   1       3.411  -4.883   0.495  0.00  0.00     0.048 A 
ATOM      6  C5  UNL d   1       2.806  -4.129   1.502  0.00  0.00     0.003 A 
ATOM      7  I   UNL d   1       5.706  -5.999  -1.128  0.00  0.00    -0.146 I 
ENDROOT
TORSDOF 0
ENDMDL
