MODEL 1
REMARK minimizedAffinity 12.6687183
REMARK minimizedRMSD -1
REMARK  0 active torsions:
REMARK  status: ('A' for Active; 'I' for Inactive)
ROOT
ATOM      1  C   UNL d   1      -4.491  -2.144  -4.197  0.00  0.00     0.023 A 
ATOM      2  C1  UNL d   1      -3.634  -2.305  -3.108  0.00  0.00     0.003 A 
ATOM      3  C2  UNL d   1      -3.721  -1.439  -2.016  0.00  0.00     0.048 A 
ATOM      4  C3  UNL d   1      -4.667  -0.415  -2.019  0.00  0.00     0.023 A 
ATOM      5  C4  UNL d   1      -5.528  -0.251  -3.106  0.00  0.00     0.048 A 
ATOM      6  C5  UNL d   1      -5.437  -1.118  -4.196  0.00  0.00     0.003 A 
ATOM      7  I   UNL d   1      -4.799   0.876  -0.395  0.00  0.00    -0.146 I 
ENDROOT
TORSDOF 0
ENDMDL
