MODEL 1
REMARK minimizedAffinity 6.40529919
REMARK minimizedRMSD -1
REMARK  0 active torsions:
REMARK  status: ('A' for Active; 'I' for Inactive)
ROOT
ATOM      1  C   UNL d   1       3.844  -3.385   1.971  0.00  0.00     0.023 A 
ATOM      2  C1  UNL d   1       3.071  -4.115   1.068  0.00  0.00     0.003 A 
ATOM      3  C2  UNL d   1       3.688  -4.865   0.065  0.00  0.00     0.048 A 
ATOM      4  C3  UNL d   1       5.079  -4.883  -0.029  0.00  0.00     0.023 A 
ATOM      5  C4  UNL d   1       5.857  -4.155   0.873  0.00  0.00     0.048 A 
ATOM      6  C5  UNL d   1       5.235  -3.405   1.874  0.00  0.00     0.003 A 
ATOM      7  I   UNL d   1       6.000  -5.999  -1.520  0.00  0.00    -0.146 I 
ENDROOT
TORSDOF 0
ENDMDL
