MODEL 1
REMARK minimizedAffinity 12.0290508
REMARK minimizedRMSD -1
REMARK  0 active torsions:
REMARK  status: ('A' for Active; 'I' for Inactive)
ROOT
ATOM      1  C   UNL d   1       0.934  -1.938   2.377  0.00  0.00     0.023 A 
ATOM      2  C1  UNL d   1       1.010  -0.687   2.989  0.00  0.00     0.003 A 
ATOM      3  C2  UNL d   1      -0.159  -0.002   3.327  0.00  0.00     0.048 A 
ATOM      4  C3  UNL d   1      -1.400  -0.574   3.051  0.00  0.00     0.023 A 
ATOM      5  C4  UNL d   1      -1.481  -1.827   2.439  0.00  0.00     0.048 A 
ATOM      6  C5  UNL d   1      -0.309  -2.507   2.102  0.00  0.00     0.003 A 
ATOM      7  I   UNL d   1      -3.141   0.443   3.554  0.00  0.00    -0.146 I 
ENDROOT
TORSDOF 0
ENDMDL
