MODEL 1
REMARK minimizedAffinity -3.26656032
REMARK minimizedRMSD -1
REMARK  0 active torsions:
REMARK  status: ('A' for Active; 'I' for Inactive)
ROOT
ATOM      1  C   UNL d   1       4.868  -2.255   2.320  0.00  0.00     0.023 A 
ATOM      2  C1  UNL d   1       4.911  -3.577   1.879  0.00  0.00     0.003 A 
ATOM      3  C2  UNL d   1       4.769  -4.624   2.792  0.00  0.00     0.048 A 
ATOM      4  C3  UNL d   1       4.584  -4.341   4.145  0.00  0.00     0.023 A 
ATOM      5  C4  UNL d   1       4.539  -3.019   4.590  0.00  0.00     0.048 A 
ATOM      6  C5  UNL d   1       4.682  -1.976   3.674  0.00  0.00     0.003 A 
ATOM      7  I   UNL d   1       4.372  -5.898   5.506  0.00  0.00    -0.146 I 
ENDROOT
TORSDOF 0
ENDMDL
