MODEL 1
REMARK minimizedAffinity 10.7599707
REMARK minimizedRMSD -1
REMARK  0 active torsions:
REMARK  status: ('A' for Active; 'I' for Inactive)
ROOT
ATOM      1  C   UNL d   1      -4.122  -0.177  -2.380  0.00  0.00     0.023 A 
ATOM      2  C1  UNL d   1      -5.057  -0.062  -3.408  0.00  0.00     0.003 A 
ATOM      3  C2  UNL d   1      -5.515  -1.205  -4.068  0.00  0.00     0.048 A 
ATOM      4  C3  UNL d   1      -5.034  -2.459  -3.694  0.00  0.00     0.023 A 
ATOM      5  C4  UNL d   1      -4.098  -2.579  -2.665  0.00  0.00     0.048 A 
ATOM      6  C5  UNL d   1      -3.643  -1.434  -2.008  0.00  0.00     0.003 A 
ATOM      7  I   UNL d   1      -5.714  -4.161  -4.674  0.00  0.00    -0.146 I 
ENDROOT
TORSDOF 0
ENDMDL
