MODEL 1
REMARK minimizedAffinity -2.47621536
REMARK minimizedRMSD -1
REMARK  0 active torsions:
REMARK  status: ('A' for Active; 'I' for Inactive)
ROOT
ATOM      1  C   UNL d   1       4.871  -5.258   5.939  0.00  0.00     0.023 A 
ATOM      2  C1  UNL d   1       4.899  -6.000   4.758  0.00  0.00     0.003 A 
ATOM      3  C2  UNL d   1       4.201  -5.552   3.634  0.00  0.00     0.048 A 
ATOM      4  C3  UNL d   1       3.478  -4.362   3.698  0.00  0.00     0.023 A 
ATOM      5  C4  UNL d   1       3.448  -3.616   4.878  0.00  0.00     0.048 A 
ATOM      6  C5  UNL d   1       4.146  -4.068   5.999  0.00  0.00     0.003 A 
ATOM      7  I   UNL d   1       2.438  -3.693   2.027  0.00  0.00    -0.146 I 
ENDROOT
TORSDOF 0
ENDMDL
