MODEL 1
REMARK minimizedAffinity -4.7009778
REMARK minimizedRMSD -1
REMARK  1 active torsions:
REMARK  status: ('A' for Active; 'I' for Inactive)
REMARK    1  A    between atoms: C1_2  and  C2_3 
ROOT
ATOM      1  C2  UNL d   1       1.114   0.632   0.741  0.00  0.00    -0.081 A 
ATOM      2  C3  UNL d   1       0.095   1.372   0.128  0.00  0.00     0.006 A 
ATOM      3  C4  UNL d   1      -1.205   0.865   0.060  0.00  0.00     0.002 A 
ATOM      4  C5  UNL d   1      -1.509  -0.384   0.611  0.00  0.00    -0.080 A 
ATOM      5  C6  UNL d   1      -2.907  -0.926   0.572  0.00  0.00     0.076 C 
ATOM      6  C7  UNL d   1      -0.488  -1.130   1.209  0.00  0.00     0.002 A 
ATOM      7  C8  UNL d   1       0.812  -0.625   1.276  0.00  0.00     0.006 A 
ENDROOT
BRANCH   1   8
ATOM      8  C1  UNL d   1       2.503   1.204   0.873  0.00  0.00     0.054 C 
ATOM      9  C   UNL d   1       2.471   2.600   1.479  0.00  0.00     0.018 C 
ENDBRANCH   1   8
TORSDOF 1
ENDMDL
