MODEL 1
REMARK minimizedAffinity -4.11211681
REMARK minimizedRMSD -1
REMARK  1 active torsions:
REMARK  status: ('A' for Active; 'I' for Inactive)
REMARK    1  A    between atoms: C1_2  and  C2_3 
ROOT
ATOM      1  C2  UNL d   1       0.587   0.523   0.346  0.00  0.00    -0.081 A 
ATOM      2  C3  UNL d   1       0.086   0.398  -0.956  0.00  0.00     0.006 A 
ATOM      3  C4  UNL d   1      -1.153  -0.205  -1.183  0.00  0.00     0.002 A 
ATOM      4  C5  UNL d   1      -1.915  -0.685  -0.113  0.00  0.00    -0.080 A 
ATOM      5  C6  UNL d   1      -3.261  -1.307  -0.340  0.00  0.00     0.076 C 
ATOM      6  C7  UNL d   1      -1.407  -0.576   1.186  0.00  0.00     0.002 A 
ATOM      7  C8  UNL d   1      -0.168   0.026   1.414  0.00  0.00     0.006 A 
ENDROOT
BRANCH   1   8
ATOM      8  C1  UNL d   1       1.894   1.231   0.600  0.00  0.00     0.054 C 
ATOM      9  C   UNL d   1       1.923   1.858   1.986  0.00  0.00     0.018 C 
ENDBRANCH   1   8
TORSDOF 1
ENDMDL
