MODEL 1
REMARK minimizedAffinity -4.1125741
REMARK minimizedRMSD -1
REMARK  1 active torsions:
REMARK  status: ('A' for Active; 'I' for Inactive)
REMARK    1  A    between atoms: C1_2  and  C2_3 
ROOT
ATOM      1  C2  UNL d   1       0.720   0.800  -0.070  0.00  0.00    -0.081 A 
ATOM      2  C3  UNL d   1      -0.131   0.921  -1.176  0.00  0.00     0.006 A 
ATOM      3  C4  UNL d   1      -1.395   0.328  -1.165  0.00  0.00     0.002 A 
ATOM      4  C5  UNL d   1      -1.834  -0.389  -0.046  0.00  0.00    -0.080 A 
ATOM      5  C6  UNL d   1      -3.201  -1.005  -0.009  0.00  0.00     0.076 C 
ATOM      6  C7  UNL d   1      -0.977  -0.525   1.052  0.00  0.00     0.002 A 
ATOM      7  C8  UNL d   1       0.288   0.068   1.041  0.00  0.00     0.006 A 
ENDROOT
BRANCH   1   8
ATOM      8  C1  UNL d   1       2.059   1.492  -0.054  0.00  0.00     0.054 C 
ATOM      9  C   UNL d   1       1.948   2.895   0.525  0.00  0.00     0.018 C 
ENDBRANCH   1   8
TORSDOF 1
ENDMDL
