MODEL 1
REMARK minimizedAffinity -4.41298151
REMARK minimizedRMSD -1
REMARK  1 active torsions:
REMARK  status: ('A' for Active; 'I' for Inactive)
REMARK    1  A    between atoms: C1_2  and  C2_3 
ROOT
ATOM      1  C2  UNL d   1       0.793   0.093   0.101  0.00  0.00    -0.081 A 
ATOM      2  C3  UNL d   1       0.213   0.620  -1.059  0.00  0.00     0.006 A 
ATOM      3  C4  UNL d   1      -1.132   0.380  -1.350  0.00  0.00     0.002 A 
ATOM      4  C5  UNL d   1      -1.920  -0.384  -0.483  0.00  0.00    -0.080 A 
ATOM      5  C6  UNL d   1      -3.373  -0.624  -0.768  0.00  0.00     0.076 C 
ATOM      6  C7  UNL d   1      -1.336  -0.926   0.667  0.00  0.00     0.002 A 
ATOM      7  C8  UNL d   1       0.009  -0.687   0.958  0.00  0.00     0.006 A 
ENDROOT
BRANCH   1   8
ATOM      8  C1  UNL d   1       2.226   0.404   0.450  0.00  0.00     0.054 C 
ATOM      9  C   UNL d   1       2.474   1.905   0.484  0.00  0.00     0.018 C 
ENDBRANCH   1   8
TORSDOF 1
ENDMDL
