MODEL 1
REMARK minimizedAffinity 1.77567172
REMARK minimizedRMSD -1
REMARK  1 active torsions:
REMARK  status: ('A' for Active; 'I' for Inactive)
REMARK    1  A    between atoms: C1_2  and  C2_3 
ROOT
ATOM      1  C2  UNL d   1       1.178   0.167   0.201  0.00  0.00    -0.081 A 
ATOM      2  C3  UNL d   1       0.321   0.539  -0.841  0.00  0.00     0.006 A 
ATOM      3  C4  UNL d   1      -0.967   0.003  -0.924  0.00  0.00     0.002 A 
ATOM      4  C5  UNL d   1      -1.420  -0.906   0.037  0.00  0.00    -0.080 A 
ATOM      5  C6  UNL d   1      -2.811  -1.466  -0.024  0.00  0.00     0.076 C 
ATOM      6  C7  UNL d   1      -0.557  -1.292   1.068  0.00  0.00     0.002 A 
ATOM      7  C8  UNL d   1       0.730  -0.757   1.151  0.00  0.00     0.006 A 
ENDROOT
BRANCH   1   8
ATOM      8  C1  UNL d   1       2.544   0.792   0.330  0.00  0.00     0.054 C 
ATOM      9  C   UNL d   1       2.454   2.310   0.396  0.00  0.00     0.018 C 
ENDBRANCH   1   8
TORSDOF 1
ENDMDL
