MODEL 1
REMARK minimizedAffinity 6.07851171
REMARK minimizedRMSD -1
REMARK  1 active torsions:
REMARK  status: ('A' for Active; 'I' for Inactive)
REMARK    1  A    between atoms: C1_2  and  C2_3 
ROOT
ATOM      1  C2  UNL d   1      -1.259  -0.823  -0.202  0.00  0.00    -0.081 A 
ATOM      2  C3  UNL d   1      -2.405  -1.621  -0.312  0.00  0.00     0.006 A 
ATOM      3  C4  UNL d   1      -2.823  -2.091  -1.559  0.00  0.00     0.002 A 
ATOM      4  C5  UNL d   1      -2.100  -1.779  -2.714  0.00  0.00    -0.080 A 
ATOM      5  C6  UNL d   1      -2.521  -2.303  -4.055  0.00  0.00     0.076 C 
ATOM      6  C7  UNL d   1      -0.965  -0.967  -2.607  0.00  0.00     0.002 A 
ATOM      7  C8  UNL d   1      -0.547  -0.496  -1.361  0.00  0.00     0.006 A 
ENDROOT
BRANCH   1   8
ATOM      8  C1  UNL d   1      -0.769  -0.368   1.149  0.00  0.00     0.054 C 
ATOM      9  C   UNL d   1      -0.347  -1.549   2.011  0.00  0.00     0.018 C 
ENDBRANCH   1   8
TORSDOF 1
ENDMDL
