MODEL 1
REMARK minimizedAffinity 0.340410978
REMARK minimizedRMSD -1
REMARK  1 active torsions:
REMARK  status: ('A' for Active; 'I' for Inactive)
REMARK    1  A    between atoms: C1_2  and  C2_3 
ROOT
ATOM      1  C2  UNL d   1       5.159   3.725  -2.389  0.00  0.00    -0.081 A 
ATOM      2  C3  UNL d   1       4.640   4.881  -1.792  0.00  0.00     0.006 A 
ATOM      3  C4  UNL d   1       3.914   4.799  -0.602  0.00  0.00     0.002 A 
ATOM      4  C5  UNL d   1       3.700   3.562   0.015  0.00  0.00    -0.080 A 
ATOM      5  C6  UNL d   1       2.948   3.463   1.309  0.00  0.00     0.076 C 
ATOM      6  C7  UNL d   1       4.203   2.405  -0.590  0.00  0.00     0.002 A 
ATOM      7  C8  UNL d   1       4.929   2.487  -1.780  0.00  0.00     0.006 A 
ENDROOT
BRANCH   1   8
ATOM      8  C1  UNL d   1       5.997   3.817  -3.638  0.00  0.00     0.054 C 
ATOM      9  C   UNL d   1       5.187   4.350  -4.811  0.00  0.00     0.018 C 
ENDBRANCH   1   8
TORSDOF 1
ENDMDL
