MODEL 1
REMARK minimizedAffinity -3.58962798
REMARK minimizedRMSD -1
REMARK  1 active torsions:
REMARK  status: ('A' for Active; 'I' for Inactive)
REMARK    1  A    between atoms: C1_2  and  C2_3 
ROOT
ATOM      1  C2  UNL d   1      -0.556  -0.322  -0.624  0.00  0.00    -0.081 A 
ATOM      2  C3  UNL d   1      -1.745  -1.042  -0.451  0.00  0.00     0.006 A 
ATOM      3  C4  UNL d   1      -2.370  -1.649  -1.543  0.00  0.00     0.002 A 
ATOM      4  C5  UNL d   1      -1.815  -1.552  -2.823  0.00  0.00    -0.080 A 
ATOM      5  C6  UNL d   1      -2.460  -2.224  -3.999  0.00  0.00     0.076 C 
ATOM      6  C7  UNL d   1      -0.637  -0.818  -2.999  0.00  0.00     0.002 A 
ATOM      7  C8  UNL d   1      -0.011  -0.211  -1.908  0.00  0.00     0.006 A 
ENDROOT
BRANCH   1   8
ATOM      8  C1  UNL d   1       0.156   0.278   0.561  0.00  0.00     0.054 C 
ATOM      9  C   UNL d   1       1.658   0.342   0.330  0.00  0.00     0.018 C 
ENDBRANCH   1   8
TORSDOF 1
ENDMDL
