MODEL 1
REMARK minimizedAffinity -3.50721526
REMARK minimizedRMSD -1
REMARK  1 active torsions:
REMARK  status: ('A' for Active; 'I' for Inactive)
REMARK    1  A    between atoms: C1_2  and  C2_3 
ROOT
ATOM      1  C2  UNL d   1       1.890   0.780   0.289  0.00  0.00    -0.081 A 
ATOM      2  C3  UNL d   1       0.683   1.480   0.403  0.00  0.00     0.006 A 
ATOM      3  C4  UNL d   1      -0.498   0.806   0.723  0.00  0.00     0.002 A 
ATOM      4  C5  UNL d   1      -0.491  -0.575   0.942  0.00  0.00    -0.080 A 
ATOM      5  C6  UNL d   1      -1.746  -1.306   1.316  0.00  0.00     0.076 C 
ATOM      6  C7  UNL d   1       0.712  -1.277   0.811  0.00  0.00     0.002 A 
ATOM      7  C8  UNL d   1       1.894  -0.605   0.490  0.00  0.00     0.006 A 
ENDROOT
BRANCH   1   8
ATOM      8  C1  UNL d   1       3.177   1.513   0.007  0.00  0.00     0.054 C 
ATOM      9  C   UNL d   1       3.059   2.991   0.351  0.00  0.00     0.018 C 
ENDBRANCH   1   8
TORSDOF 1
ENDMDL
