MODEL 1
REMARK minimizedAffinity 0.550972581
REMARK minimizedRMSD -1
REMARK  1 active torsions:
REMARK  status: ('A' for Active; 'I' for Inactive)
REMARK    1  A    between atoms: C1_2  and  C2_3 
ROOT
ATOM      1  C2  UNL d   1       1.314   0.053   0.207  0.00  0.00    -0.081 A 
ATOM      2  C3  UNL d   1       0.341   0.619  -0.626  0.00  0.00     0.006 A 
ATOM      3  C4  UNL d   1      -1.017   0.464  -0.337  0.00  0.00     0.002 A 
ATOM      4  C5  UNL d   1      -1.424  -0.253   0.793  0.00  0.00    -0.080 A 
ATOM      5  C6  UNL d   1      -2.877  -0.402   1.132  0.00  0.00     0.076 C 
ATOM      6  C7  UNL d   1      -0.453  -0.834   1.616  0.00  0.00     0.002 A 
ATOM      7  C8  UNL d   1       0.905  -0.680   1.327  0.00  0.00     0.006 A 
ENDROOT
BRANCH   1   8
ATOM      8  C1  UNL d   1       2.780   0.273  -0.067  0.00  0.00     0.054 C 
ATOM      9  C   UNL d   1       3.170   1.729   0.147  0.00  0.00     0.018 C 
ENDBRANCH   1   8
TORSDOF 1
ENDMDL
