MODEL 1
REMARK minimizedAffinity -3.01604414
REMARK minimizedRMSD -1
REMARK  1 active torsions:
REMARK  status: ('A' for Active; 'I' for Inactive)
REMARK    1  A    between atoms: C1_2  and  C2_3 
ROOT
ATOM      1  C2  UNL d   1       0.710  -0.098  -0.228  0.00  0.00    -0.081 A 
ATOM      2  C3  UNL d   1      -0.147   0.198  -1.295  0.00  0.00     0.006 A 
ATOM      3  C4  UNL d   1      -1.512  -0.085  -1.208  0.00  0.00     0.002 A 
ATOM      4  C5  UNL d   1      -2.044  -0.662  -0.050  0.00  0.00    -0.080 A 
ATOM      5  C6  UNL d   1      -3.513  -0.943   0.069  0.00  0.00     0.076 C 
ATOM      6  C7  UNL d   1      -1.186  -0.974   1.010  0.00  0.00     0.002 A 
ATOM      7  C8  UNL d   1       0.179  -0.691   0.923  0.00  0.00     0.006 A 
ENDROOT
BRANCH   1   8
ATOM      8  C1  UNL d   1       2.171   0.265  -0.294  0.00  0.00     0.054 C 
ATOM      9  C   UNL d   1       2.397   1.720   0.092  0.00  0.00     0.018 C 
ENDBRANCH   1   8
TORSDOF 1
ENDMDL
