MODEL 1
REMARK minimizedAffinity -3.99881005
REMARK minimizedRMSD -1
REMARK  1 active torsions:
REMARK  status: ('A' for Active; 'I' for Inactive)
REMARK    1  A    between atoms: C1_2  and  C2_3 
ROOT
ATOM      1  C2  UNL d   1       0.784   0.632   0.065  0.00  0.00    -0.081 A 
ATOM      2  C3  UNL d   1      -0.193   0.370   1.033  0.00  0.00     0.006 A 
ATOM      3  C4  UNL d   1      -1.465  -0.067   0.656  0.00  0.00     0.002 A 
ATOM      4  C5  UNL d   1      -1.779  -0.255  -0.694  0.00  0.00    -0.080 A 
ATOM      5  C6  UNL d   1      -3.132  -0.753  -1.111  0.00  0.00     0.076 C 
ATOM      6  C7  UNL d   1      -0.809   0.024  -1.663  0.00  0.00     0.002 A 
ATOM      7  C8  UNL d   1       0.463   0.461  -1.286  0.00  0.00     0.006 A 
ENDROOT
BRANCH   1   8
ATOM      8  C1  UNL d   1       2.176   1.041   0.472  0.00  0.00     0.054 C 
ATOM      9  C   UNL d   1       2.146   2.051   1.611  0.00  0.00     0.018 C 
ENDBRANCH   1   8
TORSDOF 1
ENDMDL
