MODEL 1
REMARK minimizedAffinity -2.96195364
REMARK minimizedRMSD -1
REMARK  1 active torsions:
REMARK  status: ('A' for Active; 'I' for Inactive)
REMARK    1  A    between atoms: C1_2  and  C2_3 
ROOT
ATOM      1  C2  UNL d   1       0.051   0.405  -0.826  0.00  0.00    -0.081 A 
ATOM      2  C3  UNL d   1      -0.119   0.120   0.534  0.00  0.00     0.006 A 
ATOM      3  C4  UNL d   1       0.678   0.749   1.494  0.00  0.00     0.002 A 
ATOM      4  C5  UNL d   1       1.652   1.677   1.111  0.00  0.00    -0.080 A 
ATOM      5  C6  UNL d   1       2.493   2.382   2.133  0.00  0.00     0.076 C 
ATOM      6  C7  UNL d   1       1.834   1.948  -0.250  0.00  0.00     0.002 A 
ATOM      7  C8  UNL d   1       1.038   1.320  -1.210  0.00  0.00     0.006 A 
ENDROOT
BRANCH   1   8
ATOM      8  C1  UNL d   1      -0.850  -0.223  -1.859  0.00  0.00     0.054 C 
ATOM      9  C   UNL d   1      -2.284  -0.315  -1.358  0.00  0.00     0.018 C 
ENDBRANCH   1   8
TORSDOF 1
ENDMDL
