MODEL 1
REMARK minimizedAffinity -1.24863756
REMARK minimizedRMSD -1
REMARK  0 active torsions:
REMARK  status: ('A' for Active; 'I' for Inactive)
ROOT
ATOM      1  C   UNL d   1       3.708  -4.629  -1.878  0.00  0.00     0.078 C 
ATOM      2  C1  UNL d   1       3.592  -5.044  -3.315  0.00  0.00    -0.077 A 
ATOM      3  C2  UNL d   1       4.655  -4.857  -4.208  0.00  0.00    -0.001 A 
ATOM      4  C3  UNL d   1       4.529  -5.239  -5.544  0.00  0.00     0.003 A 
ATOM      5  C4  UNL d   1       3.343  -5.810  -6.000  0.00  0.00    -0.005 A 
ATOM      6  C5  UNL d   1       2.279  -5.999  -5.119  0.00  0.00     0.003 A 
ATOM      7  C6  UNL d   1       2.403  -5.617  -3.782  0.00  0.00    -0.001 A 
ENDROOT
TORSDOF 0
ENDMDL
