MODEL 1
REMARK minimizedAffinity 0.0311577879
REMARK minimizedRMSD -1
REMARK  0 active torsions:
REMARK  status: ('A' for Active; 'I' for Inactive)
ROOT
ATOM      1  C   UNL d   1      -5.581   3.169  -5.999  0.00  0.00     0.078 C 
ATOM      2  C1  UNL d   1      -4.139   3.097  -5.596  0.00  0.00    -0.077 A 
ATOM      3  C2  UNL d   1      -3.228   4.082  -5.997  0.00  0.00    -0.001 A 
ATOM      4  C3  UNL d   1      -1.886   3.997  -5.622  0.00  0.00     0.003 A 
ATOM      5  C4  UNL d   1      -1.443   2.929  -4.845  0.00  0.00    -0.005 A 
ATOM      6  C5  UNL d   1      -2.341   1.942  -4.443  0.00  0.00     0.003 A 
ATOM      7  C6  UNL d   1      -3.684   2.026  -4.817  0.00  0.00    -0.001 A 
ENDROOT
TORSDOF 0
ENDMDL
