MODEL 1
REMARK minimizedAffinity 0.858088493
REMARK minimizedRMSD -1
REMARK  0 active torsions:
REMARK  status: ('A' for Active; 'I' for Inactive)
ROOT
ATOM      1  C   UNL d   1       3.349   5.796   0.679  0.00  0.00     0.078 C 
ATOM      2  C1  UNL d   1       2.870   4.382   0.823  0.00  0.00    -0.077 A 
ATOM      3  C2  UNL d   1       3.691   3.397   1.385  0.00  0.00    -0.001 A 
ATOM      4  C3  UNL d   1       3.235   2.083   1.503  0.00  0.00     0.003 A 
ATOM      5  C4  UNL d   1       1.959   1.742   1.061  0.00  0.00    -0.005 A 
ATOM      6  C5  UNL d   1       1.136   2.715   0.499  0.00  0.00     0.003 A 
ATOM      7  C6  UNL d   1       1.589   4.030   0.379  0.00  0.00    -0.001 A 
ENDROOT
TORSDOF 0
ENDMDL
