MODEL 1
REMARK minimizedAffinity -1.0056535
REMARK minimizedRMSD -1
REMARK  0 active torsions:
REMARK  status: ('A' for Active; 'I' for Inactive)
ROOT
ATOM      1  C   UNL d   1       3.596   1.834   1.287  0.00  0.00     0.078 C 
ATOM      2  C1  UNL d   1       2.195   2.264   1.603  0.00  0.00    -0.077 A 
ATOM      3  C2  UNL d   1       1.224   2.353   0.598  0.00  0.00    -0.001 A 
ATOM      4  C3  UNL d   1      -0.074   2.764   0.904  0.00  0.00     0.003 A 
ATOM      5  C4  UNL d   1      -0.413   3.091   2.216  0.00  0.00    -0.005 A 
ATOM      6  C5  UNL d   1       0.547   3.008   3.222  0.00  0.00     0.003 A 
ATOM      7  C6  UNL d   1       1.845   2.597   2.918  0.00  0.00    -0.001 A 
ENDROOT
TORSDOF 0
ENDMDL
