MODEL 1
REMARK minimizedAffinity -0.2306761
REMARK minimizedRMSD -1
REMARK  0 active torsions:
REMARK  status: ('A' for Active; 'I' for Inactive)
ROOT
ATOM      1  C   UNL d   1       2.813   1.947   0.731  0.00  0.00     0.078 C 
ATOM      2  C1  UNL d   1       1.452   2.299   1.252  0.00  0.00    -0.077 A 
ATOM      3  C2  UNL d   1       1.193   2.333   2.628  0.00  0.00    -0.001 A 
ATOM      4  C3  UNL d   1      -0.081   2.652   3.099  0.00  0.00     0.003 A 
ATOM      5  C4  UNL d   1      -1.107   2.940   2.200  0.00  0.00    -0.005 A 
ATOM      6  C5  UNL d   1      -0.860   2.907   0.830  0.00  0.00     0.003 A 
ATOM      7  C6  UNL d   1       0.414   2.588   0.357  0.00  0.00    -0.001 A 
ENDROOT
TORSDOF 0
ENDMDL
