MODEL 1
REMARK minimizedAffinity -3.30354929
REMARK minimizedRMSD -1
REMARK  0 active torsions:
REMARK  status: ('A' for Active; 'I' for Inactive)
ROOT
ATOM      1  C   UNL d   1       2.199  -6.000  -5.904  0.00  0.00     0.078 C 
ATOM      2  C1  UNL d   1       3.524  -5.758  -5.244  0.00  0.00    -0.077 A 
ATOM      3  C2  UNL d   1       4.698  -5.655  -5.999  0.00  0.00    -0.001 A 
ATOM      4  C3  UNL d   1       5.926  -5.440  -5.371  0.00  0.00     0.003 A 
ATOM      5  C4  UNL d   1       5.991  -5.327  -3.983  0.00  0.00    -0.005 A 
ATOM      6  C5  UNL d   1       4.828  -5.430  -3.223  0.00  0.00     0.003 A 
ATOM      7  C6  UNL d   1       3.600  -5.645  -3.850  0.00  0.00    -0.001 A 
ENDROOT
TORSDOF 0
ENDMDL
