MODEL 1
REMARK minimizedAffinity -0.0803954005
REMARK minimizedRMSD -1
REMARK  0 active torsions:
REMARK  status: ('A' for Active; 'I' for Inactive)
ROOT
ATOM      1  C   UNL d   1       4.885   5.996   5.421  0.00  0.00     0.078 C 
ATOM      2  C1  UNL d   1       4.876   5.370   4.059  0.00  0.00    -0.077 A 
ATOM      3  C2  UNL d   1       3.751   5.462   3.231  0.00  0.00    -0.001 A 
ATOM      4  C3  UNL d   1       3.753   4.866   1.969  0.00  0.00     0.003 A 
ATOM      5  C4  UNL d   1       4.877   4.171   1.525  0.00  0.00    -0.005 A 
ATOM      6  C5  UNL d   1       6.000   4.072   2.343  0.00  0.00     0.003 A 
ATOM      7  C6  UNL d   1       6.000   4.668   3.605  0.00  0.00    -0.001 A 
ENDROOT
TORSDOF 0
ENDMDL
