MODEL 1
REMARK minimizedAffinity -2.08302283
REMARK minimizedRMSD -1
REMARK  0 active torsions:
REMARK  status: ('A' for Active; 'I' for Inactive)
ROOT
ATOM      1  C   UNL d   1       5.957  -5.584  -2.395  0.00  0.00     0.078 C 
ATOM      2  C1  UNL d   1       5.081  -5.737  -3.602  0.00  0.00    -0.077 A 
ATOM      3  C2  UNL d   1       5.634  -5.856  -4.884  0.00  0.00    -0.001 A 
ATOM      4  C3  UNL d   1       4.807  -5.987  -6.000  0.00  0.00     0.003 A 
ATOM      5  C4  UNL d   1       3.422  -6.000  -5.847  0.00  0.00    -0.005 A 
ATOM      6  C5  UNL d   1       2.862  -5.880  -4.576  0.00  0.00     0.003 A 
ATOM      7  C6  UNL d   1       3.688  -5.749  -3.459  0.00  0.00    -0.001 A 
ENDROOT
TORSDOF 0
ENDMDL
