MODEL 1
REMARK minimizedAffinity 7.22916269
REMARK minimizedRMSD -1
REMARK  0 active torsions:
REMARK  status: ('A' for Active; 'I' for Inactive)
ROOT
ATOM      1  C   UNL d   1       3.456  -5.247  -1.701  0.00  0.00     0.078 C 
ATOM      2  C1  UNL d   1       3.341  -5.243  -3.196  0.00  0.00    -0.077 A 
ATOM      3  C2  UNL d   1       2.354  -5.995  -3.846  0.00  0.00    -0.001 A 
ATOM      4  C3  UNL d   1       2.265  -5.989  -5.239  0.00  0.00     0.003 A 
ATOM      5  C4  UNL d   1       3.161  -5.235  -5.994  0.00  0.00    -0.005 A 
ATOM      6  C5  UNL d   1       4.148  -4.487  -5.357  0.00  0.00     0.003 A 
ATOM      7  C6  UNL d   1       4.238  -4.491  -3.964  0.00  0.00    -0.001 A 
ENDROOT
TORSDOF 0
ENDMDL
