MODEL 1
REMARK minimizedAffinity -3.17153335
REMARK minimizedRMSD -1
REMARK  0 active torsions:
REMARK  status: ('A' for Active; 'I' for Inactive)
ROOT
ATOM      1  C   UNL d   1       2.270  -6.000  -5.727  0.00  0.00     0.078 C 
ATOM      2  C1  UNL d   1       3.574  -5.821  -5.009  0.00  0.00    -0.077 A 
ATOM      3  C2  UNL d   1       4.793  -5.913  -5.693  0.00  0.00    -0.001 A 
ATOM      4  C3  UNL d   1       5.999  -5.754  -5.010  0.00  0.00     0.003 A 
ATOM      5  C4  UNL d   1       6.000  -5.502  -3.640  0.00  0.00    -0.005 A 
ATOM      6  C5  UNL d   1       4.793  -5.411  -2.950  0.00  0.00     0.003 A 
ATOM      7  C6  UNL d   1       3.585  -5.570  -3.631  0.00  0.00    -0.001 A 
ENDROOT
TORSDOF 0
ENDMDL
