MODEL 1
REMARK minimizedAffinity -0.3508645
REMARK minimizedRMSD -1
REMARK  0 active torsions:
REMARK  status: ('A' for Active; 'I' for Inactive)
ROOT
ATOM      1  C   UNL d   1       1.533  -6.000  -4.972  0.00  0.00     0.078 C 
ATOM      2  C1  UNL d   1       2.910  -5.417  -4.850  0.00  0.00    -0.077 A 
ATOM      3  C2  UNL d   1       3.508  -5.237  -3.597  0.00  0.00    -0.001 A 
ATOM      4  C3  UNL d   1       4.785  -4.684  -3.497  0.00  0.00     0.003 A 
ATOM      5  C4  UNL d   1       5.475  -4.306  -4.647  0.00  0.00    -0.005 A 
ATOM      6  C5  UNL d   1       4.887  -4.479  -5.899  0.00  0.00     0.003 A 
ATOM      7  C6  UNL d   1       3.610  -5.031  -6.000  0.00  0.00    -0.001 A 
ENDROOT
TORSDOF 0
ENDMDL
