MODEL 1
REMARK minimizedAffinity -2.45080638
REMARK minimizedRMSD -1
REMARK  0 active torsions:
REMARK  status: ('A' for Active; 'I' for Inactive)
ROOT
ATOM      1  C   UNL d   1       3.501  -4.870  -2.141  0.00  0.00     0.078 C 
ATOM      2  C1  UNL d   1       4.109  -5.112  -3.490  0.00  0.00    -0.077 A 
ATOM      3  C2  UNL d   1       3.393  -5.772  -4.496  0.00  0.00    -0.001 A 
ATOM      4  C3  UNL d   1       3.974  -5.999  -5.744  0.00  0.00     0.003 A 
ATOM      5  C4  UNL d   1       5.276  -5.570  -5.998  0.00  0.00    -0.005 A 
ATOM      6  C5  UNL d   1       5.997  -4.914  -5.003  0.00  0.00     0.003 A 
ATOM      7  C6  UNL d   1       5.417  -4.686  -3.754  0.00  0.00    -0.001 A 
ENDROOT
TORSDOF 0
ENDMDL
