MODEL 1
REMARK minimizedAffinity 0.772961259
REMARK minimizedRMSD -1
REMARK  0 active torsions:
REMARK  status: ('A' for Active; 'I' for Inactive)
ROOT
ATOM      1  C   UNL d   1       5.269  -5.392  -2.204  0.00  0.00     0.078 C 
ATOM      2  C1  UNL d   1       4.559  -5.481  -3.522  0.00  0.00    -0.077 A 
ATOM      3  C2  UNL d   1       3.203  -5.823  -3.588  0.00  0.00    -0.001 A 
ATOM      4  C3  UNL d   1       2.557  -5.912  -4.822  0.00  0.00     0.003 A 
ATOM      5  C4  UNL d   1       3.259  -5.661  -5.999  0.00  0.00    -0.005 A 
ATOM      6  C5  UNL d   1       4.609  -5.323  -5.943  0.00  0.00     0.003 A 
ATOM      7  C6  UNL d   1       5.257  -5.233  -4.710  0.00  0.00    -0.001 A 
ENDROOT
TORSDOF 0
ENDMDL
