MODEL 1
REMARK minimizedAffinity -3.3470881
REMARK minimizedRMSD -1
REMARK  0 active torsions:
REMARK  status: ('A' for Active; 'I' for Inactive)
ROOT
ATOM      1  C   UNL d   1       2.379  -5.983  -6.000  0.00  0.00     0.078 C 
ATOM      2  C1  UNL d   1       3.567  -5.637  -5.153  0.00  0.00    -0.077 A 
ATOM      3  C2  UNL d   1       4.706  -5.047  -5.716  0.00  0.00    -0.001 A 
ATOM      4  C3  UNL d   1       5.809  -4.739  -4.917  0.00  0.00     0.003 A 
ATOM      5  C4  UNL d   1       5.784  -5.018  -3.552  0.00  0.00    -0.005 A 
ATOM      6  C5  UNL d   1       4.656  -5.606  -2.984  0.00  0.00     0.003 A 
ATOM      7  C6  UNL d   1       3.553  -5.915  -3.781  0.00  0.00    -0.001 A 
ENDROOT
TORSDOF 0
ENDMDL
