MODEL 1
REMARK minimizedAffinity 1.69534171
REMARK minimizedRMSD -1
REMARK  0 active torsions:
REMARK  status: ('A' for Active; 'I' for Inactive)
ROOT
ATOM      1  C   UNL d   1       3.483  -5.730  -1.895  0.00  0.00     0.078 C 
ATOM      2  C1  UNL d   1       4.077  -5.798  -3.270  0.00  0.00    -0.077 A 
ATOM      3  C2  UNL d   1       5.461  -5.706  -3.463  0.00  0.00    -0.001 A 
ATOM      4  C3  UNL d   1       6.000  -5.762  -4.750  0.00  0.00     0.003 A 
ATOM      5  C4  UNL d   1       5.162  -5.909  -5.853  0.00  0.00    -0.005 A 
ATOM      6  C5  UNL d   1       3.783  -5.999  -5.671  0.00  0.00     0.003 A 
ATOM      7  C6  UNL d   1       3.243  -5.943  -4.385  0.00  0.00    -0.001 A 
ENDROOT
TORSDOF 0
ENDMDL
