MODEL 1
REMARK minimizedAffinity -2.7561295
REMARK minimizedRMSD -1
REMARK  0 active torsions:
REMARK  status: ('A' for Active; 'I' for Inactive)
ROOT
ATOM      1  C   UNL d   1       6.000  -5.619  -2.256  0.00  0.00     0.078 C 
ATOM      2  C1  UNL d   1       5.252  -5.609  -3.556  0.00  0.00    -0.077 A 
ATOM      3  C2  UNL d   1       3.853  -5.648  -3.583  0.00  0.00    -0.001 A 
ATOM      4  C3  UNL d   1       3.170  -5.648  -4.801  0.00  0.00     0.003 A 
ATOM      5  C4  UNL d   1       3.879  -5.611  -6.000  0.00  0.00    -0.005 A 
ATOM      6  C5  UNL d   1       5.272  -5.574  -5.983  0.00  0.00     0.003 A 
ATOM      7  C6  UNL d   1       5.956  -5.574  -4.766  0.00  0.00    -0.001 A 
ENDROOT
TORSDOF 0
ENDMDL
