MODEL 1
REMARK minimizedAffinity -1.20083225
REMARK minimizedRMSD -1
REMARK  0 active torsions:
REMARK  status: ('A' for Active; 'I' for Inactive)
ROOT
ATOM      1  C   UNL d   1       3.748  -4.833  -1.932  0.00  0.00     0.078 C 
ATOM      2  C1  UNL d   1       3.487  -5.245  -3.350  0.00  0.00    -0.077 A 
ATOM      3  C2  UNL d   1       4.521  -5.276  -4.294  0.00  0.00    -0.001 A 
ATOM      4  C3  UNL d   1       4.262  -5.653  -5.612  0.00  0.00     0.003 A 
ATOM      5  C4  UNL d   1       2.969  -5.999  -6.000  0.00  0.00    -0.005 A 
ATOM      6  C5  UNL d   1       1.933  -5.969  -5.068  0.00  0.00     0.003 A 
ATOM      7  C6  UNL d   1       2.191  -5.593  -3.749  0.00  0.00    -0.001 A 
ENDROOT
TORSDOF 0
ENDMDL
