MODEL 1
REMARK minimizedAffinity 4.04022503
REMARK minimizedRMSD -1
REMARK  0 active torsions:
REMARK  status: ('A' for Active; 'I' for Inactive)
ROOT
ATOM      1  C2' OXE d   1      -4.788   3.493   1.719  0.00  0.00     0.078 C 
ATOM      2  C1' OXE d   1      -2.273   3.024   0.564  0.00  0.00     0.078 C 
ATOM      3  C1  OXE d   1      -3.481   2.973  -0.337  0.00  0.00    -0.078 A 
ATOM      4  C2  OXE d   1      -4.712   3.157   0.245  0.00  0.00    -0.078 A 
ATOM      5  C3  OXE d   1      -5.855   3.174  -0.549  0.00  0.00     0.003 A 
ATOM      6  C4  OXE d   1      -5.778   2.853  -1.909  0.00  0.00    -0.002 A 
ATOM      7  C5  OXE d   1      -4.538   2.622  -2.515  0.00  0.00    -0.002 A 
ATOM      8  C6  OXE d   1      -3.379   2.720  -1.753  0.00  0.00     0.003 A 
ENDROOT
TORSDOF 0
ENDMDL
