MODEL 1
REMARK minimizedAffinity 11.1639137
REMARK minimizedRMSD -1
REMARK  0 active torsions:
REMARK  status: ('A' for Active; 'I' for Inactive)
ROOT
ATOM      1  C2' OXE d   1      -1.553   0.654   1.258  0.00  0.00     0.078 C 
ATOM      2  C1' OXE d   1       1.197   0.294   1.695  0.00  0.00     0.078 C 
ATOM      3  C1  OXE d   1       0.497  -0.678   0.778  0.00  0.00    -0.078 A 
ATOM      4  C2  OXE d   1      -0.858  -0.523   0.607  0.00  0.00    -0.078 A 
ATOM      5  C3  OXE d   1      -1.542  -1.358  -0.271  0.00  0.00     0.003 A 
ATOM      6  C4  OXE d   1      -0.894  -2.450  -0.861  0.00  0.00    -0.002 A 
ATOM      7  C5  OXE d   1       0.477  -2.650  -0.669  0.00  0.00    -0.002 A 
ATOM      8  C6  OXE d   1       1.194  -1.751   0.112  0.00  0.00     0.003 A 
ENDROOT
TORSDOF 0
ENDMDL
