MODEL 1
REMARK minimizedAffinity 8.42286015
REMARK minimizedRMSD -1
REMARK  0 active torsions:
REMARK  status: ('A' for Active; 'I' for Inactive)
ROOT
ATOM      1  C2' OXE d   1       1.557   1.340   2.550  0.00  0.00     0.078 C 
ATOM      2  C1' OXE d   1       3.633   0.119   1.108  0.00  0.00     0.078 C 
ATOM      3  C1  OXE d   1       3.091  -0.608   2.313  0.00  0.00    -0.078 A 
ATOM      4  C2  OXE d   1       2.107   0.018   3.040  0.00  0.00    -0.078 A 
ATOM      5  C3  OXE d   1       1.534  -0.633   4.128  0.00  0.00     0.003 A 
ATOM      6  C4  OXE d   1       2.055  -1.852   4.580  0.00  0.00    -0.002 A 
ATOM      7  C5  OXE d   1       3.084  -2.488   3.878  0.00  0.00    -0.002 A 
ATOM      8  C6  OXE d   1       3.583  -1.901   2.720  0.00  0.00     0.003 A 
ENDROOT
TORSDOF 0
ENDMDL
