MODEL 1
REMARK minimizedAffinity 6.28906155
REMARK minimizedRMSD -1
REMARK  0 active torsions:
REMARK  status: ('A' for Active; 'I' for Inactive)
ROOT
ATOM      1  C2' OXE d   1       2.493  -5.042   4.084  0.00  0.00     0.078 C 
ATOM      2  C1' OXE d   1       2.241  -2.250   4.224  0.00  0.00     0.078 C 
ATOM      3  C1  OXE d   1       3.570  -2.815   3.788  0.00  0.00    -0.078 A 
ATOM      4  C2  OXE d   1       3.699  -4.183   3.767  0.00  0.00    -0.078 A 
ATOM      5  C3  OXE d   1       4.885  -4.757   3.320  0.00  0.00     0.003 A 
ATOM      6  C4  OXE d   1       5.999  -3.955   3.039  0.00  0.00    -0.002 A 
ATOM      7  C5  OXE d   1       5.901  -2.561   3.092  0.00  0.00    -0.002 A 
ATOM      8  C6  OXE d   1       4.684  -1.975   3.423  0.00  0.00     0.003 A 
ENDROOT
TORSDOF 0
ENDMDL
