MODEL 1
REMARK minimizedAffinity 14.9262934
REMARK minimizedRMSD -1
REMARK  0 active torsions:
REMARK  status: ('A' for Active; 'I' for Inactive)
ROOT
ATOM      1  C2' OXE d   1       4.566  -2.312   4.544  0.00  0.00     0.078 C 
ATOM      2  C1' OXE d   1       2.123  -1.539   3.398  0.00  0.00     0.078 C 
ATOM      3  C1  OXE d   1       2.261  -2.967   3.862  0.00  0.00    -0.078 A 
ATOM      4  C2  OXE d   1       3.476  -3.349   4.378  0.00  0.00    -0.078 A 
ATOM      5  C3  OXE d   1       3.640  -4.641   4.871  0.00  0.00     0.003 A 
ATOM      6  C4  OXE d   1       2.631  -5.596   4.705  0.00  0.00    -0.002 A 
ATOM      7  C5  OXE d   1       1.400  -5.239   4.145  0.00  0.00    -0.002 A 
ATOM      8  C6  OXE d   1       1.185  -3.921   3.758  0.00  0.00     0.003 A 
ENDROOT
TORSDOF 0
ENDMDL
