MODEL 1
REMARK minimizedAffinity 13.9706068
REMARK minimizedRMSD -1
REMARK  0 active torsions:
REMARK  status: ('A' for Active; 'I' for Inactive)
ROOT
ATOM      1  C2' OXE d   1       1.763  -1.167   3.463  0.00  0.00     0.078 C 
ATOM      2  C1' OXE d   1       4.212  -2.539   3.415  0.00  0.00     0.078 C 
ATOM      3  C1  OXE d   1       2.967  -3.331   3.730  0.00  0.00    -0.078 A 
ATOM      4  C2  OXE d   1       1.780  -2.643   3.797  0.00  0.00    -0.078 A 
ATOM      5  C3  OXE d   1       0.595  -3.335   4.030  0.00  0.00     0.003 A 
ATOM      6  C4  OXE d   1       0.621  -4.699   4.348  0.00  0.00    -0.002 A 
ATOM      7  C5  OXE d   1       1.825  -5.410   4.324  0.00  0.00    -0.002 A 
ATOM      8  C6  OXE d   1       2.999  -4.752   3.976  0.00  0.00     0.003 A 
ENDROOT
TORSDOF 0
ENDMDL
