MODEL 1
REMARK minimizedAffinity 5.20315552
REMARK minimizedRMSD -1
REMARK  0 active torsions:
REMARK  status: ('A' for Active; 'I' for Inactive)
ROOT
ATOM      1  C2' OXE d   1       2.742   1.271   2.103  0.00  0.00     0.078 C 
ATOM      2  C1' OXE d   1       2.208   1.496   4.849  0.00  0.00     0.078 C 
ATOM      3  C1  OXE d   1       2.187   0.116   4.240  0.00  0.00    -0.078 A 
ATOM      4  C2  OXE d   1       2.403   0.020   2.886  0.00  0.00    -0.078 A 
ATOM      5  C3  OXE d   1       2.450  -1.233   2.282  0.00  0.00     0.003 A 
ATOM      6  C4  OXE d   1       2.126  -2.383   3.012  0.00  0.00    -0.002 A 
ATOM      7  C5  OXE d   1       1.863  -2.304   4.384  0.00  0.00    -0.002 A 
ATOM      8  C6  OXE d   1       1.931  -1.069   5.020  0.00  0.00     0.003 A 
ENDROOT
TORSDOF 0
ENDMDL
