MODEL 1
REMARK minimizedAffinity 10.5919418
REMARK minimizedRMSD -1
REMARK  0 active torsions:
REMARK  status: ('A' for Active; 'I' for Inactive)
ROOT
ATOM      1  C2' OXE d   1       4.059  -1.912   2.636  0.00  0.00     0.078 C 
ATOM      2  C1' OXE d   1       1.800  -1.184   4.134  0.00  0.00     0.078 C 
ATOM      3  C1  OXE d   1       2.209  -0.283   2.996  0.00  0.00    -0.078 A 
ATOM      4  C2  OXE d   1       3.343  -0.622   2.298  0.00  0.00    -0.078 A 
ATOM      5  C3  OXE d   1       3.734   0.144   1.204  0.00  0.00     0.003 A 
ATOM      6  C4  OXE d   1       3.072   1.341   0.904  0.00  0.00    -0.002 A 
ATOM      7  C5  OXE d   1       1.938   1.726   1.627  0.00  0.00    -0.002 A 
ATOM      8  C6  OXE d   1       1.469   0.904   2.647  0.00  0.00     0.003 A 
ENDROOT
TORSDOF 0
ENDMDL
