MODEL 1
REMARK minimizedAffinity -1.93904853
REMARK minimizedRMSD -1
REMARK  0 active torsions:
REMARK  status: ('A' for Active; 'I' for Inactive)
ROOT
ATOM      1  C2' OXE d   1       6.000  -0.920  -4.874  0.00  0.00     0.078 C 
ATOM      2  C1' OXE d   1       3.395  -0.598  -3.879  0.00  0.00     0.078 C 
ATOM      3  C1  OXE d   1       4.064   0.603  -4.501  0.00  0.00    -0.078 A 
ATOM      4  C2  OXE d   1       5.356   0.448  -4.943  0.00  0.00    -0.078 A 
ATOM      5  C3  OXE d   1       6.000   1.508  -5.575  0.00  0.00     0.003 A 
ATOM      6  C4  OXE d   1       5.401   2.773  -5.625  0.00  0.00    -0.002 A 
ATOM      7  C5  OXE d   1       4.101   2.962  -5.145  0.00  0.00    -0.002 A 
ATOM      8  C6  OXE d   1       3.404   1.879  -4.620  0.00  0.00     0.003 A 
ENDROOT
TORSDOF 0
ENDMDL
