MODEL 1
REMARK minimizedAffinity 8.87332535
REMARK minimizedRMSD -1
REMARK  0 active torsions:
REMARK  status: ('A' for Active; 'I' for Inactive)
ROOT
ATOM      1  C2' OXE d   1       4.250  -1.758   4.455  0.00  0.00     0.078 C 
ATOM      2  C1' OXE d   1       1.857  -3.220   4.325  0.00  0.00     0.078 C 
ATOM      3  C1  OXE d   1       2.015  -2.045   3.393  0.00  0.00    -0.078 A 
ATOM      4  C2  OXE d   1       3.170  -1.307   3.496  0.00  0.00    -0.078 A 
ATOM      5  C3  OXE d   1       3.389  -0.246   2.622  0.00  0.00     0.003 A 
ATOM      6  C4  OXE d   1       2.381   0.170   1.745  0.00  0.00    -0.002 A 
ATOM      7  C5  OXE d   1       1.181  -0.543   1.652  0.00  0.00    -0.002 A 
ATOM      8  C6  OXE d   1       1.000  -1.676   2.438  0.00  0.00     0.003 A 
ENDROOT
TORSDOF 0
ENDMDL
