MODEL 1
REMARK minimizedAffinity 13.7053604
REMARK minimizedRMSD -1
REMARK  0 active torsions:
REMARK  status: ('A' for Active; 'I' for Inactive)
ROOT
ATOM      1  C2' OXE d   1       1.486  -0.275   1.863  0.00  0.00     0.078 C 
ATOM      2  C1' OXE d   1      -1.105   0.626   1.268  0.00  0.00     0.078 C 
ATOM      3  C1  OXE d   1      -0.548  -0.507   0.443  0.00  0.00    -0.078 A 
ATOM      4  C2  OXE d   1       0.738  -0.910   0.710  0.00  0.00    -0.078 A 
ATOM      5  C3  OXE d   1       1.282  -1.987   0.015  0.00  0.00     0.003 A 
ATOM      6  C4  OXE d   1       0.587  -2.562  -1.056  0.00  0.00    -0.002 A 
ATOM      7  C5  OXE d   1      -0.709  -2.139  -1.371  0.00  0.00    -0.002 A 
ATOM      8  C6  OXE d   1      -1.306  -1.144  -0.606  0.00  0.00     0.003 A 
ENDROOT
TORSDOF 0
ENDMDL
