MODEL 1
REMARK minimizedAffinity 0.713928044
REMARK minimizedRMSD -1
REMARK  0 active torsions:
REMARK  status: ('A' for Active; 'I' for Inactive)
ROOT
ATOM      1  C2' OXE d   1       4.011  -0.222   0.749  0.00  0.00     0.078 C 
ATOM      2  C1' OXE d   1       2.328   1.746   1.832  0.00  0.00     0.078 C 
ATOM      3  C1  OXE d   1       2.587   0.510   2.657  0.00  0.00    -0.078 A 
ATOM      4  C2  OXE d   1       3.374  -0.469   2.100  0.00  0.00    -0.078 A 
ATOM      5  C3  OXE d   1       3.688  -1.605   2.840  0.00  0.00     0.003 A 
ATOM      6  C4  OXE d   1       3.087  -1.829   4.084  0.00  0.00    -0.002 A 
ATOM      7  C5  OXE d   1       2.251  -0.863   4.653  0.00  0.00    -0.002 A 
ATOM      8  C6  OXE d   1       2.025   0.328   3.973  0.00  0.00     0.003 A 
ENDROOT
TORSDOF 0
ENDMDL
