MODEL 1
REMARK minimizedAffinity 5.92712402
REMARK minimizedRMSD -1
REMARK  0 active torsions:
REMARK  status: ('A' for Active; 'I' for Inactive)
ROOT
ATOM      1  C   UNL d   1       1.157  -1.056  -1.491  0.00  0.00     0.124 A 
ATOM      2  C1  UNL d   1       1.417  -1.357  -0.161  0.00  0.00     0.062 A 
ATOM      3  C2  UNL d   1       0.910  -0.549   0.852  0.00  0.00     0.162 A 
ATOM      4  C3  UNL d   1       0.137   0.570   0.540  0.00  0.00    -0.034 A 
ATOM      5  C4  UNL d   1      -0.120   0.867  -0.800  0.00  0.00     0.162 A 
ATOM      6  C5  UNL d   1       0.389   0.056  -1.809  0.00  0.00     0.062 A 
ATOM      7  F   UNL d   1       0.137   0.348  -3.093  0.00  0.00    -0.097 F 
ATOM      8  F1  UNL d   1      -0.860   1.934  -1.136  0.00  0.00    -0.096 F 
ATOM      9  I   UNL d   1      -0.623   1.781   2.052  0.00  0.00    -0.060 I 
ATOM     10  F2  UNL d   1       1.177  -0.864   2.128  0.00  0.00    -0.096 F 
ATOM     11  F3  UNL d   1       2.159  -2.430   0.149  0.00  0.00    -0.097 F 
ATOM     12  F4  UNL d   1       1.646  -1.835  -2.464  0.00  0.00    -0.092 F 
ENDROOT
TORSDOF 0
ENDMDL
