MODEL 1
REMARK minimizedAffinity 9.20237637
REMARK minimizedRMSD -1
REMARK  0 active torsions:
REMARK  status: ('A' for Active; 'I' for Inactive)
ROOT
ATOM      1  C   UNL d   1       3.548  -4.961  -1.912  0.00  0.00     0.124 A 
ATOM      2  C1  UNL d   1       2.851  -4.703  -3.084  0.00  0.00     0.062 A 
ATOM      3  C2  UNL d   1       3.211  -3.625  -3.889  0.00  0.00     0.162 A 
ATOM      4  C3  UNL d   1       4.273  -2.798  -3.524  0.00  0.00    -0.034 A 
ATOM      5  C4  UNL d   1       4.969  -3.065  -2.343  0.00  0.00     0.162 A 
ATOM      6  C5  UNL d   1       4.606  -4.143  -1.543  0.00  0.00     0.062 A 
ATOM      7  F   UNL d   1       5.280  -4.391  -0.410  0.00  0.00    -0.097 F 
ATOM      8  F1  UNL d   1       5.996  -2.290  -1.963  0.00  0.00    -0.096 F 
ATOM      9  I   UNL d   1       4.814  -1.187  -4.725  0.00  0.00    -0.060 I 
ATOM     10  F2  UNL d   1       2.520  -3.399  -5.016  0.00  0.00    -0.096 F 
ATOM     11  F3  UNL d   1       1.828  -5.492  -3.443  0.00  0.00    -0.097 F 
ATOM     12  F4  UNL d   1       3.199  -5.998  -1.139  0.00  0.00    -0.092 F 
ENDROOT
TORSDOF 0
ENDMDL
