MODEL 1
REMARK minimizedAffinity 6.69651127
REMARK minimizedRMSD -1
REMARK  0 active torsions:
REMARK  status: ('A' for Active; 'I' for Inactive)
ROOT
ATOM      1  C   UNL d   1      -0.077   3.721  -0.830  0.00  0.00     0.124 A 
ATOM      2  C1  UNL d   1      -0.996   4.702  -1.177  0.00  0.00     0.062 A 
ATOM      3  C2  UNL d   1      -2.245   4.346  -1.676  0.00  0.00     0.162 A 
ATOM      4  C3  UNL d   1      -2.584   3.001  -1.831  0.00  0.00    -0.034 A 
ATOM      5  C4  UNL d   1      -1.655   2.021  -1.481  0.00  0.00     0.162 A 
ATOM      6  C5  UNL d   1      -0.407   2.382  -0.982  0.00  0.00     0.062 A 
ATOM      7  F   UNL d   1       0.479   1.433  -0.648  0.00  0.00    -0.097 F 
ATOM      8  F1  UNL d   1      -1.948   0.719  -1.617  0.00  0.00    -0.096 F 
ATOM      9  I   UNL d   1      -4.452   2.464  -2.577  0.00  0.00    -0.060 I 
ATOM     10  F2  UNL d   1      -3.114   5.314  -2.003  0.00  0.00    -0.096 F 
ATOM     11  F3  UNL d   1      -0.679   5.997  -1.032  0.00  0.00    -0.097 F 
ATOM     12  F4  UNL d   1       1.125   4.067  -0.351  0.00  0.00    -0.092 F 
ENDROOT
TORSDOF 0
ENDMDL
