MODEL 1
REMARK minimizedAffinity 5.85219479
REMARK minimizedRMSD -1
REMARK  0 active torsions:
REMARK  status: ('A' for Active; 'I' for Inactive)
ROOT
ATOM      1  C   UNL d   1       3.992  -2.328  -1.160  0.00  0.00     0.124 A 
ATOM      2  C1  UNL d   1       4.587  -3.496  -0.703  0.00  0.00     0.062 A 
ATOM      3  C2  UNL d   1       5.062  -4.440  -1.608  0.00  0.00     0.162 A 
ATOM      4  C3  UNL d   1       4.946  -4.220  -2.981  0.00  0.00    -0.034 A 
ATOM      5  C4  UNL d   1       4.346  -3.044  -3.433  0.00  0.00     0.162 A 
ATOM      6  C5  UNL d   1       3.872  -2.103  -2.524  0.00  0.00     0.062 A 
ATOM      7  F   UNL d   1       3.298  -0.975  -2.968  0.00  0.00    -0.097 F 
ATOM      8  F1  UNL d   1       4.218  -2.800  -4.746  0.00  0.00    -0.096 F 
ATOM      9  I   UNL d   1       5.655  -5.630  -4.338  0.00  0.00    -0.060 I 
ATOM     10  F2  UNL d   1       5.632  -5.559  -1.138  0.00  0.00    -0.096 F 
ATOM     11  F3  UNL d   1       4.703  -3.716   0.615  0.00  0.00    -0.097 F 
ATOM     12  F4  UNL d   1       3.535  -1.421  -0.287  0.00  0.00    -0.092 F 
ENDROOT
TORSDOF 0
ENDMDL
