MODEL 1
REMARK minimizedAffinity 10.3251705
REMARK minimizedRMSD -1
REMARK  0 active torsions:
REMARK  status: ('A' for Active; 'I' for Inactive)
ROOT
ATOM      1  C   UNL d   1       4.091  -2.274  -1.454  0.00  0.00     0.124 A 
ATOM      2  C1  UNL d   1       4.256  -3.574  -0.998  0.00  0.00     0.062 A 
ATOM      3  C2  UNL d   1       4.219  -4.640  -1.893  0.00  0.00     0.162 A 
ATOM      4  C3  UNL d   1       4.018  -4.409  -3.254  0.00  0.00    -0.034 A 
ATOM      5  C4  UNL d   1       3.852  -3.098  -3.705  0.00  0.00     0.162 A 
ATOM      6  C5  UNL d   1       3.889  -2.037  -2.806  0.00  0.00     0.062 A 
ATOM      7  F   UNL d   1       3.730  -0.781  -3.248  0.00  0.00    -0.097 F 
ATOM      8  F1  UNL d   1       3.657  -2.841  -5.006  0.00  0.00    -0.096 F 
ATOM      9  I   UNL d   1       3.962  -5.999  -4.595  0.00  0.00    -0.060 I 
ATOM     10  F2  UNL d   1       4.381  -5.886  -1.424  0.00  0.00    -0.096 F 
ATOM     11  F3  UNL d   1       4.450  -3.806   0.309  0.00  0.00    -0.097 F 
ATOM     12  F4  UNL d   1       4.126  -1.251  -0.590  0.00  0.00    -0.092 F 
ENDROOT
TORSDOF 0
ENDMDL
