MODEL 1
REMARK minimizedAffinity 15.2924128
REMARK minimizedRMSD -1
REMARK  0 active torsions:
REMARK  status: ('A' for Active; 'I' for Inactive)
ROOT
ATOM      1  C   UNL d   1      -1.668   2.102  -2.183  0.00  0.00     0.124 A 
ATOM      2  C1  UNL d   1      -0.688   3.018  -1.825  0.00  0.00     0.062 A 
ATOM      3  C2  UNL d   1      -0.029   2.896  -0.605  0.00  0.00     0.162 A 
ATOM      4  C3  UNL d   1      -0.346   1.854   0.265  0.00  0.00    -0.034 A 
ATOM      5  C4  UNL d   1      -1.333   0.937  -0.101  0.00  0.00     0.162 A 
ATOM      6  C5  UNL d   1      -1.990   1.063  -1.321  0.00  0.00     0.062 A 
ATOM      7  F   UNL d   1      -2.936   0.178  -1.666  0.00  0.00    -0.097 F 
ATOM      8  F1  UNL d   1      -1.663  -0.077   0.712  0.00  0.00    -0.096 F 
ATOM      9  I   UNL d   1       0.638   1.668   2.090  0.00  0.00    -0.060 I 
ATOM     10  F2  UNL d   1       0.914   3.795  -0.285  0.00  0.00    -0.096 F 
ATOM     11  F3  UNL d   1      -0.377   4.023  -2.655  0.00  0.00    -0.097 F 
ATOM     12  F4  UNL d   1      -2.302   2.223  -3.357  0.00  0.00    -0.092 F 
ENDROOT
TORSDOF 0
ENDMDL
