MODEL 1
REMARK minimizedAffinity 9.31630325
REMARK minimizedRMSD -1
REMARK  0 active torsions:
REMARK  status: ('A' for Active; 'I' for Inactive)
ROOT
ATOM      1  C   UNL d   1      -1.742   1.298  -1.439  0.00  0.00     0.124 A 
ATOM      2  C1  UNL d   1      -2.879   0.504  -1.494  0.00  0.00     0.062 A 
ATOM      3  C2  UNL d   1      -4.095   1.050  -1.892  0.00  0.00     0.162 A 
ATOM      4  C3  UNL d   1      -4.181   2.398  -2.240  0.00  0.00    -0.034 A 
ATOM      5  C4  UNL d   1      -3.034   3.191  -2.182  0.00  0.00     0.162 A 
ATOM      6  C5  UNL d   1      -1.820   2.640  -1.783  0.00  0.00     0.062 A 
ATOM      7  F   UNL d   1      -0.722   3.409  -1.731  0.00  0.00    -0.097 F 
ATOM      8  F1  UNL d   1      -3.081   4.490  -2.510  0.00  0.00    -0.096 F 
ATOM      9  I   UNL d   1      -5.999   3.219  -2.836  0.00  0.00    -0.060 I 
ATOM     10  F2  UNL d   1      -5.178   0.259  -1.935  0.00  0.00    -0.096 F 
ATOM     11  F3  UNL d   1      -2.806  -0.793  -1.161  0.00  0.00    -0.097 F 
ATOM     12  F4  UNL d   1      -0.572   0.770  -1.055  0.00  0.00    -0.092 F 
ENDROOT
TORSDOF 0
ENDMDL
