MODEL 1
REMARK minimizedAffinity 8.62490654
REMARK minimizedRMSD -1
REMARK  0 active torsions:
REMARK  status: ('A' for Active; 'I' for Inactive)
ROOT
ATOM      1  C   UNL d   1       1.958  -5.217  -1.786  0.00  0.00     0.124 A 
ATOM      2  C1  UNL d   1       3.147  -5.234  -2.501  0.00  0.00     0.062 A 
ATOM      3  C2  UNL d   1       4.228  -4.464  -2.081  0.00  0.00     0.162 A 
ATOM      4  C3  UNL d   1       4.124  -3.670  -0.939  0.00  0.00    -0.034 A 
ATOM      5  C4  UNL d   1       2.924  -3.656  -0.226  0.00  0.00     0.162 A 
ATOM      6  C5  UNL d   1       1.847  -4.428  -0.650  0.00  0.00     0.062 A 
ATOM      7  F   UNL d   1       0.698  -4.409   0.041  0.00  0.00    -0.097 F 
ATOM      8  F1  UNL d   1       2.789  -2.904   0.876  0.00  0.00    -0.096 F 
ATOM      9  I   UNL d   1       5.737  -2.516  -0.307  0.00  0.00    -0.060 I 
ATOM     10  F2  UNL d   1       5.365  -4.501  -2.790  0.00  0.00    -0.096 F 
ATOM     11  F3  UNL d   1       3.257  -5.995  -3.600  0.00  0.00    -0.097 F 
ATOM     12  F4  UNL d   1       0.919  -5.958  -2.193  0.00  0.00    -0.092 F 
ENDROOT
TORSDOF 0
ENDMDL
