MODEL 1
REMARK minimizedAffinity -4.94646215
REMARK minimizedRMSD -1
REMARK  0 active torsions:
REMARK  status: ('A' for Active; 'I' for Inactive)
ROOT
ATOM      1  C   UNL d   1       1.194  -2.688   2.393  0.00  0.00     0.078 C 
ATOM      2  C1  UNL d   1       1.328  -1.421   1.601  0.00  0.00    -0.077 A 
ATOM      3  C2  UNL d   1       2.537  -0.714   1.572  0.00  0.00    -0.001 A 
ATOM      4  C3  UNL d   1       2.645   0.468   0.838  0.00  0.00     0.003 A 
ATOM      5  C4  UNL d   1       1.548   0.955   0.129  0.00  0.00    -0.005 A 
ATOM      6  C5  UNL d   1       0.341   0.259   0.154  0.00  0.00     0.003 A 
ATOM      7  C6  UNL d   1       0.231  -0.924   0.887  0.00  0.00    -0.001 A 
ENDROOT
TORSDOF 0
ENDMDL
