MODEL 1
REMARK minimizedAffinity -5.13544035
REMARK minimizedRMSD -1
REMARK  0 active torsions:
REMARK  status: ('A' for Active; 'I' for Inactive)
ROOT
ATOM      1  C   UNL d   1      -1.541   0.179  -0.147  0.00  0.00     0.078 C 
ATOM      2  C1  UNL d   1      -0.053   0.158   0.038  0.00  0.00    -0.077 A 
ATOM      3  C2  UNL d   1       0.680   1.347   0.129  0.00  0.00    -0.001 A 
ATOM      4  C3  UNL d   1       2.066   1.312   0.292  0.00  0.00     0.003 A 
ATOM      5  C4  UNL d   1       2.731   0.090   0.362  0.00  0.00    -0.005 A 
ATOM      6  C5  UNL d   1       2.011  -1.099   0.270  0.00  0.00     0.003 A 
ATOM      7  C6  UNL d   1       0.625  -1.066   0.108  0.00  0.00    -0.001 A 
ENDROOT
TORSDOF 0
ENDMDL
