MODEL 1
REMARK minimizedAffinity 1.21840513
REMARK minimizedRMSD -1
REMARK  0 active torsions:
REMARK  status: ('A' for Active; 'I' for Inactive)
ROOT
ATOM      1  C   UNL d   1       3.092   0.410   1.478  0.00  0.00     0.078 C 
ATOM      2  C1  UNL d   1       1.674   0.570   1.016  0.00  0.00    -0.077 A 
ATOM      3  C2  UNL d   1       0.990   1.779   1.192  0.00  0.00    -0.001 A 
ATOM      4  C3  UNL d   1      -0.332   1.911   0.766  0.00  0.00     0.003 A 
ATOM      5  C4  UNL d   1      -0.983   0.837   0.162  0.00  0.00    -0.005 A 
ATOM      6  C5  UNL d   1      -0.311  -0.371  -0.016  0.00  0.00     0.003 A 
ATOM      7  C6  UNL d   1       1.012  -0.504   0.409  0.00  0.00    -0.001 A 
ENDROOT
TORSDOF 0
ENDMDL
