MODEL 1
REMARK minimizedAffinity -2.49780941
REMARK minimizedRMSD -1
REMARK  0 active torsions:
REMARK  status: ('A' for Active; 'I' for Inactive)
ROOT
ATOM      1  C   UNL d   1      -0.560   0.704  -0.412  0.00  0.00     0.078 C 
ATOM      2  C1  UNL d   1       0.815   0.305   0.036  0.00  0.00    -0.077 A 
ATOM      3  C2  UNL d   1       1.518  -0.715  -0.615  0.00  0.00    -0.001 A 
ATOM      4  C3  UNL d   1       2.792  -1.083  -0.181  0.00  0.00     0.003 A 
ATOM      5  C4  UNL d   1       3.374  -0.436   0.907  0.00  0.00    -0.005 A 
ATOM      6  C5  UNL d   1       2.681   0.579   1.563  0.00  0.00     0.003 A 
ATOM      7  C6  UNL d   1       1.407   0.948   1.130  0.00  0.00    -0.001 A 
ENDROOT
TORSDOF 0
ENDMDL
