MODEL 1
REMARK minimizedAffinity -3.41937208
REMARK minimizedRMSD -1
REMARK  0 active torsions:
REMARK  status: ('A' for Active; 'I' for Inactive)
ROOT
ATOM      1  C   UNL d   1      -0.640   0.049  -0.058  0.00  0.00     0.078 C 
ATOM      2  C1  UNL d   1       0.568  -0.429   0.690  0.00  0.00    -0.077 A 
ATOM      3  C2  UNL d   1       1.651   0.424   0.932  0.00  0.00    -0.001 A 
ATOM      4  C3  UNL d   1       2.774  -0.038   1.621  0.00  0.00     0.003 A 
ATOM      5  C4  UNL d   1       2.824  -1.355   2.074  0.00  0.00    -0.005 A 
ATOM      6  C5  UNL d   1       1.751  -2.212   1.837  0.00  0.00     0.003 A 
ATOM      7  C6  UNL d   1       0.628  -1.752   1.147  0.00  0.00    -0.001 A 
ENDROOT
TORSDOF 0
ENDMDL
