MODEL 1
REMARK minimizedAffinity -2.31498456
REMARK minimizedRMSD -1
REMARK  0 active torsions:
REMARK  status: ('A' for Active; 'I' for Inactive)
ROOT
ATOM      1  C   UNL d   1       2.840   0.345   1.871  0.00  0.00     0.078 C 
ATOM      2  C1  UNL d   1       1.606   0.140   1.044  0.00  0.00    -0.077 A 
ATOM      3  C2  UNL d   1       1.198  -1.144   0.662  0.00  0.00    -0.001 A 
ATOM      4  C3  UNL d   1       0.052  -1.319  -0.115  0.00  0.00     0.003 A 
ATOM      5  C4  UNL d   1      -0.695  -0.214  -0.519  0.00  0.00    -0.005 A 
ATOM      6  C5  UNL d   1      -0.296   1.068  -0.146  0.00  0.00     0.003 A 
ATOM      7  C6  UNL d   1       0.850   1.245   0.632  0.00  0.00    -0.001 A 
ENDROOT
TORSDOF 0
ENDMDL
