MODEL 1
REMARK minimizedAffinity -4.61220121
REMARK minimizedRMSD -1
REMARK  0 active torsions:
REMARK  status: ('A' for Active; 'I' for Inactive)
ROOT
ATOM      1  C   UNL d   1      -1.300  -0.029  -0.479  0.00  0.00     0.078 C 
ATOM      2  C1  UNL d   1       0.140   0.091  -0.077  0.00  0.00    -0.077 A 
ATOM      3  C2  UNL d   1       0.669   1.313   0.357  0.00  0.00    -0.001 A 
ATOM      4  C3  UNL d   1       2.013   1.412   0.718  0.00  0.00     0.003 A 
ATOM      5  C4  UNL d   1       2.841   0.293   0.648  0.00  0.00    -0.005 A 
ATOM      6  C5  UNL d   1       2.325  -0.926   0.215  0.00  0.00     0.003 A 
ATOM      7  C6  UNL d   1       0.980  -1.028  -0.147  0.00  0.00    -0.001 A 
ENDROOT
TORSDOF 0
ENDMDL
