MODEL 1
REMARK minimizedAffinity -4.0148015
REMARK minimizedRMSD -1
REMARK  0 active torsions:
REMARK  status: ('A' for Active; 'I' for Inactive)
ROOT
ATOM      1  C   UNL d   1      -1.490   0.551  -0.533  0.00  0.00     0.078 C 
ATOM      2  C1  UNL d   1      -0.302  -0.274  -0.138  0.00  0.00    -0.077 A 
ATOM      3  C2  UNL d   1       0.983   0.049  -0.592  0.00  0.00    -0.001 A 
ATOM      4  C3  UNL d   1       2.079  -0.734  -0.224  0.00  0.00     0.003 A 
ATOM      5  C4  UNL d   1       1.900  -1.845   0.598  0.00  0.00    -0.005 A 
ATOM      6  C5  UNL d   1       0.625  -2.175   1.052  0.00  0.00     0.003 A 
ATOM      7  C6  UNL d   1      -0.472  -1.394   0.686  0.00  0.00    -0.001 A 
ENDROOT
TORSDOF 0
ENDMDL
