MODEL 1
REMARK minimizedAffinity 8.1143856
REMARK minimizedRMSD -1
REMARK  0 active torsions:
REMARK  status: ('A' for Active; 'I' for Inactive)
ROOT
ATOM      1  N1  IND d   1       3.357   0.334  -1.655  0.00  0.00    -0.196 N 
ATOM      2  C2  IND d   1       4.069   0.951  -0.664  0.00  0.00     0.054 A 
ATOM      3  C3  IND d   1       4.022   0.222   0.473  0.00  0.00    -0.031 A 
ATOM      4  C4  IND d   1       2.922  -2.065   0.905  0.00  0.00     0.051 A 
ATOM      5  C5  IND d   1       2.127  -3.007   0.314  0.00  0.00    -0.031 A 
ATOM      6  C6  IND d   1       1.694  -2.881  -0.990  0.00  0.00     0.015 A 
ATOM      7  C7  IND d   1       2.052  -1.811  -1.760  0.00  0.00    -0.016 A 
ATOM      8  C8  IND d   1       2.854  -0.849  -1.161  0.00  0.00    -0.047 A 
ATOM      9  C9  IND d   1       3.261  -0.950   0.176  0.00  0.00    -0.096 A 
ATOM     10  HN1 IND d   1       3.243   0.635  -2.453  0.00  0.00     0.298 HD
ENDROOT
TORSDOF 0
ENDMDL
