MODEL 1
REMARK minimizedAffinity 6.31069851
REMARK minimizedRMSD -1
REMARK  0 active torsions:
REMARK  status: ('A' for Active; 'I' for Inactive)
ROOT
ATOM      1  N1  IND d   1      -5.300   0.758  -5.363  0.00  0.00    -0.196 N 
ATOM      2  C2  IND d   1      -6.000  -0.185  -4.663  0.00  0.00     0.054 A 
ATOM      3  C3  IND d   1      -5.218  -0.739  -3.709  0.00  0.00    -0.031 A 
ATOM      4  C4  IND d   1      -2.793  -0.177  -3.053  0.00  0.00     0.051 A 
ATOM      5  C5  IND d   1      -1.725   0.588  -3.429  0.00  0.00    -0.031 A 
ATOM      6  C6  IND d   1      -1.797   1.470  -4.488  0.00  0.00     0.015 A 
ATOM      7  C7  IND d   1      -2.948   1.627  -5.208  0.00  0.00    -0.016 A 
ATOM      8  C8  IND d   1      -4.032   0.846  -4.833  0.00  0.00    -0.047 A 
ATOM      9  C9  IND d   1      -3.952  -0.081  -3.786  0.00  0.00    -0.096 A 
ATOM     10  HN1 IND d   1      -5.602   1.218  -6.024  0.00  0.00     0.298 HD
ENDROOT
TORSDOF 0
ENDMDL
