MODEL 1
REMARK minimizedAffinity 1.43681777
REMARK minimizedRMSD -1
REMARK  0 active torsions:
REMARK  status: ('A' for Active; 'I' for Inactive)
ROOT
ATOM      1  N1  IND d   1       3.937   1.292  -1.509  0.00  0.00    -0.196 N 
ATOM      2  C2  IND d   1       4.274   0.213  -0.740  0.00  0.00     0.054 A 
ATOM      3  C3  IND d   1       5.119   0.585   0.247  0.00  0.00    -0.031 A 
ATOM      4  C4  IND d   1       5.999   2.927   0.851  0.00  0.00     0.051 A 
ATOM      5  C5  IND d   1       5.998   4.223   0.417  0.00  0.00    -0.031 A 
ATOM      6  C6  IND d   1       5.294   4.617  -0.702  0.00  0.00     0.015 A 
ATOM      7  C7  IND d   1       4.551   3.727  -1.426  0.00  0.00    -0.016 A 
ATOM      8  C8  IND d   1       4.556   2.409  -0.992  0.00  0.00    -0.047 A 
ATOM      9  C9  IND d   1       5.303   1.995   0.118  0.00  0.00    -0.096 A 
ATOM     10  HN1 IND d   1       3.425   1.275  -2.200  0.00  0.00     0.298 HD
ENDROOT
TORSDOF 0
ENDMDL
