MODEL 1
REMARK minimizedAffinity 11.5218344
REMARK minimizedRMSD -1
REMARK  0 active torsions:
REMARK  status: ('A' for Active; 'I' for Inactive)
ROOT
ATOM      1  N1  IND d   1       0.003   1.267   1.330  0.00  0.00    -0.196 N 
ATOM      2  C2  IND d   1      -0.718   1.296   0.169  0.00  0.00     0.054 A 
ATOM      3  C3  IND d   1       0.086   1.057  -0.890  0.00  0.00    -0.031 A 
ATOM      4  C4  IND d   1       2.598   0.493  -0.943  0.00  0.00     0.051 A 
ATOM      5  C5  IND d   1       3.695   0.387  -0.135  0.00  0.00    -0.031 A 
ATOM      6  C6  IND d   1       3.616   0.571   1.230  0.00  0.00     0.015 A 
ATOM      7  C7  IND d   1       2.429   0.857   1.843  0.00  0.00    -0.016 A 
ATOM      8  C8  IND d   1       1.313   0.971   1.025  0.00  0.00    -0.047 A 
ATOM      9  C9  IND d   1       1.395   0.828  -0.366  0.00  0.00    -0.096 A 
ATOM     10  HN1 IND d   1      -0.309   1.410   2.119  0.00  0.00     0.298 HD
ENDROOT
TORSDOF 0
ENDMDL
