MODEL 1
REMARK minimizedAffinity 7.7190733
REMARK minimizedRMSD -1
REMARK  0 active torsions:
REMARK  status: ('A' for Active; 'I' for Inactive)
ROOT
ATOM      1  N1  IND d   1       3.908   1.130  -1.494  0.00  0.00    -0.196 N 
ATOM      2  C2  IND d   1       5.030   1.912  -1.495  0.00  0.00     0.054 A 
ATOM      3  C3  IND d   1       6.000   1.342  -0.745  0.00  0.00    -0.031 A 
ATOM      4  C4  IND d   1       6.000  -0.916   0.489  0.00  0.00     0.051 A 
ATOM      5  C5  IND d   1       5.188  -1.968   0.811  0.00  0.00    -0.031 A 
ATOM      6  C6  IND d   1       3.883  -2.044   0.370  0.00  0.00     0.015 A 
ATOM      7  C7  IND d   1       3.342  -1.071  -0.423  0.00  0.00    -0.016 A 
ATOM      8  C8  IND d   1       4.161   0.002  -0.745  0.00  0.00    -0.047 A 
ATOM      9  C9  IND d   1       5.473   0.105  -0.266  0.00  0.00    -0.096 A 
ATOM     10  HN1 IND d   1       3.169   1.313  -1.893  0.00  0.00     0.298 HD
ENDROOT
TORSDOF 0
ENDMDL
