MODEL 1
REMARK minimizedAffinity 19.4844856
REMARK minimizedRMSD -1
REMARK  0 active torsions:
REMARK  status: ('A' for Active; 'I' for Inactive)
ROOT
ATOM      1  N1  IND d   1       1.611  -4.410  -0.533  0.00  0.00    -0.196 N 
ATOM      2  C2  IND d   1       2.297  -3.364  -1.086  0.00  0.00     0.054 A 
ATOM      3  C3  IND d   1       1.684  -2.944  -2.215  0.00  0.00    -0.031 A 
ATOM      4  C4  IND d   1      -0.509  -3.762  -3.287  0.00  0.00     0.051 A 
ATOM      5  C5  IND d   1      -1.475  -4.721  -3.166  0.00  0.00    -0.031 A 
ATOM      6  C6  IND d   1      -1.462  -5.643  -2.139  0.00  0.00     0.015 A 
ATOM      7  C7  IND d   1      -0.486  -5.632  -1.184  0.00  0.00    -0.016 A 
ATOM      8  C8  IND d   1       0.501  -4.664  -1.308  0.00  0.00    -0.047 A 
ATOM      9  C9  IND d   1       0.517  -3.753  -2.372  0.00  0.00    -0.096 A 
ATOM     10  HN1 IND d   1       1.836  -4.838   0.178  0.00  0.00     0.298 HD
ENDROOT
TORSDOF 0
ENDMDL
