MODEL 1
REMARK minimizedAffinity 6.91322947
REMARK minimizedRMSD -1
REMARK  0 active torsions:
REMARK  status: ('A' for Active; 'I' for Inactive)
ROOT
ATOM      1  N1  IND d   1       4.790   0.377  -2.214  0.00  0.00    -0.196 N 
ATOM      2  C2  IND d   1       4.676   1.013  -1.009  0.00  0.00     0.054 A 
ATOM      3  C3  IND d   1       3.902   0.290  -0.168  0.00  0.00    -0.031 A 
ATOM      4  C4  IND d   1       2.805  -2.011  -0.524  0.00  0.00     0.051 A 
ATOM      5  C5  IND d   1       2.597  -2.970  -1.476  0.00  0.00    -0.031 A 
ATOM      6  C6  IND d   1       3.123  -2.861  -2.747  0.00  0.00     0.015 A 
ATOM      7  C7  IND d   1       3.889  -1.790  -3.112  0.00  0.00    -0.016 A 
ATOM      8  C8  IND d   1       4.096  -0.811  -2.150  0.00  0.00    -0.047 A 
ATOM      9  C9  IND d   1       3.530  -0.896  -0.872  0.00  0.00    -0.096 A 
ATOM     10  HN1 IND d   1       5.224   0.670  -2.896  0.00  0.00     0.298 HD
ENDROOT
TORSDOF 0
ENDMDL
