MODEL 1
REMARK minimizedAffinity 12.2672482
REMARK minimizedRMSD -1
REMARK  0 active torsions:
REMARK  status: ('A' for Active; 'I' for Inactive)
ROOT
ATOM      1  N1  IND d   1      -0.202   4.969   1.898  0.00  0.00    -0.196 N 
ATOM      2  C2  IND d   1       0.884   5.076   2.721  0.00  0.00     0.054 A 
ATOM      3  C3  IND d   1       1.341   3.849   3.058  0.00  0.00    -0.031 A 
ATOM      4  C4  IND d   1       0.524   1.531   2.291  0.00  0.00     0.051 A 
ATOM      5  C5  IND d   1      -0.462   0.922   1.567  0.00  0.00    -0.031 A 
ATOM      6  C6  IND d   1      -1.430   1.646   0.900  0.00  0.00     0.015 A 
ATOM      7  C7  IND d   1      -1.441   3.012   0.924  0.00  0.00    -0.016 A 
ATOM      8  C8  IND d   1      -0.445   3.633   1.664  0.00  0.00    -0.047 A 
ATOM      9  C9  IND d   1       0.514   2.903   2.377  0.00  0.00    -0.096 A 
ATOM     10  HN1 IND d   1      -0.657   5.626   1.579  0.00  0.00     0.298 HD
ENDROOT
TORSDOF 0
ENDMDL
