MODEL 1
REMARK minimizedAffinity 3.24836731
REMARK minimizedRMSD -1
REMARK  0 active torsions:
REMARK  status: ('A' for Active; 'I' for Inactive)
ROOT
ATOM      1  N1  IND d   1       1.996   0.130  -1.073  0.00  0.00    -0.196 N 
ATOM      2  C2  IND d   1       3.184   0.225  -0.403  0.00  0.00     0.054 A 
ATOM      3  C3  IND d   1       3.496  -0.959   0.170  0.00  0.00    -0.031 A 
ATOM      4  C4  IND d   1       2.256  -3.211   0.052  0.00  0.00     0.051 A 
ATOM      5  C5  IND d   1       1.105  -3.785  -0.412  0.00  0.00    -0.031 A 
ATOM      6  C6  IND d   1       0.176  -3.068  -1.138  0.00  0.00     0.015 A 
ATOM      7  C7  IND d   1       0.368  -1.749  -1.438  0.00  0.00    -0.016 A 
ATOM      8  C8  IND d   1       1.532  -1.162  -0.961  0.00  0.00    -0.047 A 
ATOM      9  C9  IND d   1       2.458  -1.873  -0.188  0.00  0.00    -0.096 A 
ATOM     10  HN1 IND d   1       1.605   0.770  -1.494  0.00  0.00     0.298 HD
ENDROOT
TORSDOF 0
ENDMDL
