MODEL 1
REMARK minimizedAffinity 13.9216127
REMARK minimizedRMSD -1
REMARK  0 active torsions:
REMARK  status: ('A' for Active; 'I' for Inactive)
ROOT
ATOM      1  N1  IND d   1      -3.259   0.644   1.626  0.00  0.00    -0.196 N 
ATOM      2  C2  IND d   1      -4.292   1.434   2.048  0.00  0.00     0.054 A 
ATOM      3  C3  IND d   1      -3.891   2.722   2.141  0.00  0.00    -0.031 A 
ATOM      4  C4  IND d   1      -1.616   3.773   1.551  0.00  0.00     0.051 A 
ATOM      5  C5  IND d   1      -0.348   3.447   1.159  0.00  0.00    -0.031 A 
ATOM      6  C6  IND d   1       0.021   2.144   0.894  0.00  0.00     0.015 A 
ATOM      7  C7  IND d   1      -0.871   1.115   1.002  0.00  0.00    -0.016 A 
ATOM      8  C8  IND d   1      -2.158   1.442   1.406  0.00  0.00    -0.047 A 
ATOM      9  C9  IND d   1      -2.527   2.757   1.717  0.00  0.00    -0.096 A 
ATOM     10  HN1 IND d   1      -3.292  -0.208   1.516  0.00  0.00     0.298 HD
ENDROOT
TORSDOF 0
ENDMDL
