MODEL 1
REMARK minimizedAffinity -2.37808776
REMARK minimizedRMSD -1
REMARK  0 active torsions:
REMARK  status: ('A' for Active; 'I' for Inactive)
ROOT
ATOM      1  C   UNL d   1       1.910  -1.957  -0.950  0.00  0.00     0.020 A 
ATOM      2  C1  UNL d   1       2.796  -1.241  -1.754  0.00  0.00     0.020 A 
ATOM      3  C2  UNL d   1       2.615   0.131  -1.942  0.00  0.00     0.034 A 
ATOM      4  C3  UNL d   1       1.546   0.791  -1.326  0.00  0.00     0.017 A 
ATOM      5  C4  UNL d   1       0.657   0.072  -0.519  0.00  0.00     0.017 A 
ATOM      6  C5  UNL d   1       0.843  -1.302  -0.333  0.00  0.00     0.034 A 
ATOM      7 Cl   UNL d   1      -0.685   0.817   0.275  0.00  0.00    -0.070 Cl
ATOM      8 Cl1  UNL d   1       1.383   2.489  -1.602  0.00  0.00    -0.070 Cl
ENDROOT
TORSDOF 0
ENDMDL
