MODEL 1
REMARK minimizedAffinity 0.361991316
REMARK minimizedRMSD -1
REMARK  0 active torsions:
REMARK  status: ('A' for Active; 'I' for Inactive)
ROOT
ATOM      1  C   UNL d   1      -0.821  -1.709  -0.584  0.00  0.00     0.020 A 
ATOM      2  C1  UNL d   1       0.196  -2.631  -0.827  0.00  0.00     0.020 A 
ATOM      3  C2  UNL d   1       1.509  -2.191  -1.006  0.00  0.00     0.034 A 
ATOM      4  C3  UNL d   1       1.809  -0.825  -0.942  0.00  0.00     0.017 A 
ATOM      5  C4  UNL d   1       0.787   0.100  -0.697  0.00  0.00     0.017 A 
ATOM      6  C5  UNL d   1      -0.526  -0.346  -0.519  0.00  0.00     0.034 A 
ATOM      7 Cl   UNL d   1       1.079   1.801  -0.603  0.00  0.00    -0.070 Cl
ATOM      8 Cl1  UNL d   1       3.454  -0.352  -1.172  0.00  0.00    -0.070 Cl
ENDROOT
TORSDOF 0
ENDMDL
