MODEL 1
REMARK minimizedAffinity -3.87796879
REMARK minimizedRMSD -1
REMARK  0 active torsions:
REMARK  status: ('A' for Active; 'I' for Inactive)
ROOT
ATOM      1  C   UNL d   1       2.990   0.663  -0.999  0.00  0.00     0.020 A 
ATOM      2  C1  UNL d   1       3.226  -0.711  -1.051  0.00  0.00     0.020 A 
ATOM      3  C2  UNL d   1       2.193  -1.608  -0.773  0.00  0.00     0.034 A 
ATOM      4  C3  UNL d   1       0.918  -1.133  -0.443  0.00  0.00     0.017 A 
ATOM      5  C4  UNL d   1       0.682   0.245  -0.391  0.00  0.00     0.017 A 
ATOM      6  C5  UNL d   1       1.721   1.139  -0.670  0.00  0.00     0.034 A 
ATOM      7 Cl   UNL d   1      -0.864   0.906   0.009  0.00  0.00    -0.070 Cl
ATOM      8 Cl1  UNL d   1      -0.313  -2.300  -0.112  0.00  0.00    -0.070 Cl
ENDROOT
TORSDOF 0
ENDMDL
