MODEL 1
REMARK minimizedAffinity -4.2851429
REMARK minimizedRMSD -1
REMARK  0 active torsions:
REMARK  status: ('A' for Active; 'I' for Inactive)
ROOT
ATOM      1  C   UNL d   1      -1.156   1.063  -0.980  0.00  0.00     0.020 A 
ATOM      2  C1  UNL d   1      -0.159   1.911  -1.461  0.00  0.00     0.020 A 
ATOM      3  C2  UNL d   1       1.169   1.478  -1.496  0.00  0.00     0.034 A 
ATOM      4  C3  UNL d   1       1.503   0.195  -1.049  0.00  0.00     0.017 A 
ATOM      5  C4  UNL d   1       0.501  -0.656  -0.566  0.00  0.00     0.017 A 
ATOM      6  C5  UNL d   1      -0.826  -0.217  -0.534  0.00  0.00     0.034 A 
ATOM      7 Cl   UNL d   1       0.836  -2.253   0.002  0.00  0.00    -0.070 Cl
ATOM      8 Cl1  UNL d   1       3.164  -0.274  -1.121  0.00  0.00    -0.070 Cl
ENDROOT
TORSDOF 0
ENDMDL
