MODEL 1
REMARK minimizedAffinity -2.88456678
REMARK minimizedRMSD -1
REMARK  0 active torsions:
REMARK  status: ('A' for Active; 'I' for Inactive)
ROOT
ATOM      1  C   UNL d   1       1.555  -1.671  -0.497  0.00  0.00     0.020 A 
ATOM      2  C1  UNL d   1       0.344  -1.925   0.146  0.00  0.00     0.020 A 
ATOM      3  C2  UNL d   1      -0.700  -1.002   0.060  0.00  0.00     0.034 A 
ATOM      4  C3  UNL d   1      -0.535   0.181  -0.670  0.00  0.00     0.017 A 
ATOM      5  C4  UNL d   1       0.681   0.436  -1.315  0.00  0.00     0.017 A 
ATOM      6  C5  UNL d   1       1.723  -0.493  -1.226  0.00  0.00     0.034 A 
ATOM      7 Cl   UNL d   1       0.959   1.873  -2.234  0.00  0.00    -0.070 Cl
ATOM      8 Cl1  UNL d   1      -1.868   1.278  -0.734  0.00  0.00    -0.070 Cl
ENDROOT
TORSDOF 0
ENDMDL
