MODEL 1
REMARK minimizedAffinity -3.1411314
REMARK minimizedRMSD -1
REMARK  0 active torsions:
REMARK  status: ('A' for Active; 'I' for Inactive)
ROOT
ATOM      1  C   UNL d   1      -0.234  -1.117   0.726  0.00  0.00     0.020 A 
ATOM      2  C1  UNL d   1      -0.922   0.095   0.685  0.00  0.00     0.020 A 
ATOM      3  C2  UNL d   1      -0.413   1.162  -0.059  0.00  0.00     0.034 A 
ATOM      4  C3  UNL d   1       0.788   1.019  -0.764  0.00  0.00     0.017 A 
ATOM      5  C4  UNL d   1       1.477  -0.199  -0.722  0.00  0.00     0.017 A 
ATOM      6  C5  UNL d   1       0.963  -1.263   0.024  0.00  0.00     0.034 A 
ATOM      7 Cl   UNL d   1       2.964  -0.451  -1.566  0.00  0.00    -0.070 Cl
ATOM      8 Cl1  UNL d   1       1.359   2.379  -1.663  0.00  0.00    -0.070 Cl
ENDROOT
TORSDOF 0
ENDMDL
