MODEL 1
REMARK minimizedAffinity -3.2691803
REMARK minimizedRMSD -1
REMARK  0 active torsions:
REMARK  status: ('A' for Active; 'I' for Inactive)
ROOT
ATOM      1  C   UNL d   1       1.599  -1.830  -0.508  0.00  0.00     0.020 A 
ATOM      2  C1  UNL d   1       1.949  -1.157  -1.678  0.00  0.00     0.020 A 
ATOM      3  C2  UNL d   1       1.323   0.048  -2.004  0.00  0.00     0.034 A 
ATOM      4  C3  UNL d   1       0.343   0.583  -1.160  0.00  0.00     0.017 A 
ATOM      5  C4  UNL d   1      -0.008  -0.094   0.014  0.00  0.00     0.017 A 
ATOM      6  C5  UNL d   1       0.623  -1.299   0.336  0.00  0.00     0.034 A 
ATOM      7 Cl   UNL d   1      -1.207   0.504   1.106  0.00  0.00    -0.070 Cl
ATOM      8 Cl1  UNL d   1      -0.390   2.077  -1.625  0.00  0.00    -0.070 Cl
ENDROOT
TORSDOF 0
ENDMDL
