MODEL 1
REMARK minimizedAffinity -3.45025158
REMARK minimizedRMSD -1
REMARK  0 active torsions:
REMARK  status: ('A' for Active; 'I' for Inactive)
ROOT
ATOM      1  C   UNL d   1       2.185  -1.623  -0.487  0.00  0.00     0.020 A 
ATOM      2  C1  UNL d   1       3.077  -1.007  -1.364  0.00  0.00     0.020 A 
ATOM      3  C2  UNL d   1       2.728   0.195  -1.984  0.00  0.00     0.034 A 
ATOM      4  C3  UNL d   1       1.484   0.784  -1.729  0.00  0.00     0.017 A 
ATOM      5  C4  UNL d   1       0.590   0.164  -0.849  0.00  0.00     0.017 A 
ATOM      6  C5  UNL d   1       0.944  -1.039  -0.230  0.00  0.00     0.034 A 
ATOM      7 Cl   UNL d   1      -0.963   0.830  -0.483  0.00  0.00    -0.070 Cl
ATOM      8 Cl1  UNL d   1       1.119   2.270  -2.531  0.00  0.00    -0.070 Cl
ENDROOT
TORSDOF 0
ENDMDL
