MODEL 1
REMARK minimizedAffinity -3.47535682
REMARK minimizedRMSD -1
REMARK  0 active torsions:
REMARK  status: ('A' for Active; 'I' for Inactive)
ROOT
ATOM      1  C   UNL d   1       1.749  -1.386  -1.454  0.00  0.00     0.020 A 
ATOM      2  C1  UNL d   1       1.379  -1.950  -0.235  0.00  0.00     0.020 A 
ATOM      3  C2  UNL d   1       0.408  -1.330   0.555  0.00  0.00     0.034 A 
ATOM      4  C3  UNL d   1      -0.196  -0.143   0.126  0.00  0.00     0.017 A 
ATOM      5  C4  UNL d   1       0.177   0.423  -1.099  0.00  0.00     0.017 A 
ATOM      6  C5  UNL d   1       1.150  -0.202  -1.885  0.00  0.00     0.034 A 
ATOM      7 Cl   UNL d   1      -0.523   1.887  -1.695  0.00  0.00    -0.070 Cl
ATOM      8 Cl1  UNL d   1      -1.389   0.569   1.153  0.00  0.00    -0.070 Cl
ENDROOT
TORSDOF 0
ENDMDL
