MODEL 1
REMARK minimizedAffinity -2.261971
REMARK minimizedRMSD -1
REMARK  0 active torsions:
REMARK  status: ('A' for Active; 'I' for Inactive)
ROOT
ATOM      1  C   UNL d   1      -0.772   1.107   3.748  0.00  0.00     0.020 A 
ATOM      2  C1  UNL d   1      -1.924   0.818   4.478  0.00  0.00     0.020 A 
ATOM      3  C2  UNL d   1      -3.048   0.299   3.832  0.00  0.00     0.034 A 
ATOM      4  C3  UNL d   1      -3.022   0.067   2.452  0.00  0.00     0.017 A 
ATOM      5  C4  UNL d   1      -1.864   0.357   1.720  0.00  0.00     0.017 A 
ATOM      6  C5  UNL d   1      -0.742   0.877   2.372  0.00  0.00     0.034 A 
ATOM      7 Cl   UNL d   1      -1.757   0.097   0.015  0.00  0.00    -0.070 Cl
ATOM      8 Cl1  UNL d   1      -4.447  -0.578   1.719  0.00  0.00    -0.070 Cl
ENDROOT
TORSDOF 0
ENDMDL
