MODEL 1
REMARK minimizedAffinity -3.90047312
REMARK minimizedRMSD -1
REMARK  0 active torsions:
REMARK  status: ('A' for Active; 'I' for Inactive)
ROOT
ATOM      1  C   UNL d   1      -1.277  -0.700   0.133  0.00  0.00     0.020 A 
ATOM      2  C1  UNL d   1      -0.313  -1.637   0.503  0.00  0.00     0.020 A 
ATOM      3  C2  UNL d   1       1.016  -1.463   0.112  0.00  0.00     0.034 A 
ATOM      4  C3  UNL d   1       1.385  -0.349  -0.652  0.00  0.00     0.017 A 
ATOM      5  C4  UNL d   1       0.417   0.591  -1.022  0.00  0.00     0.017 A 
ATOM      6  C5  UNL d   1      -0.913   0.412  -0.628  0.00  0.00     0.034 A 
ATOM      7 Cl   UNL d   1       0.796   1.991  -1.963  0.00  0.00    -0.070 Cl
ATOM      8 Cl1  UNL d   1       3.047  -0.197  -1.100  0.00  0.00    -0.070 Cl
ENDROOT
TORSDOF 0
ENDMDL
