MODEL 1
REMARK minimizedAffinity -3.98097682
REMARK minimizedRMSD -1
REMARK  0 active torsions:
REMARK  status: ('A' for Active; 'I' for Inactive)
ROOT
ATOM      1  C   UNL d   1       2.116  -1.257  -0.600  0.00  0.00     0.020 A 
ATOM      2  C1  UNL d   1       3.042  -0.665  -1.458  0.00  0.00     0.020 A 
ATOM      3  C2  UNL d   1       2.677   0.447  -2.219  0.00  0.00     0.034 A 
ATOM      4  C3  UNL d   1       1.382   0.971  -2.124  0.00  0.00     0.017 A 
ATOM      5  C4  UNL d   1       0.454   0.376  -1.262  0.00  0.00     0.017 A 
ATOM      6  C5  UNL d   1       0.824  -0.737  -0.502  0.00  0.00     0.034 A 
ATOM      7 Cl   UNL d   1      -1.162   0.966  -1.091  0.00  0.00    -0.070 Cl
ATOM      8 Cl1  UNL d   1       1.000   2.349  -3.094  0.00  0.00    -0.070 Cl
ENDROOT
TORSDOF 0
ENDMDL
