MODEL 1
REMARK minimizedAffinity -4.33714771
REMARK minimizedRMSD -1
REMARK  0 active torsions:
REMARK  status: ('A' for Active; 'I' for Inactive)
ROOT
ATOM      1  C   UNL d   1      -1.145  -0.028  -0.081  0.00  0.00     0.020 A 
ATOM      2  C1  UNL d   1      -0.454  -1.184   0.279  0.00  0.00     0.020 A 
ATOM      3  C2  UNL d   1       0.873  -1.357  -0.120  0.00  0.00     0.034 A 
ATOM      4  C3  UNL d   1       1.514  -0.373  -0.880  0.00  0.00     0.017 A 
ATOM      5  C4  UNL d   1       0.820   0.788  -1.241  0.00  0.00     0.017 A 
ATOM      6  C5  UNL d   1      -0.509   0.956  -0.839  0.00  0.00     0.034 A 
ATOM      7 Cl   UNL d   1       1.543   2.047  -2.178  0.00  0.00    -0.070 Cl
ATOM      8 Cl1  UNL d   1       3.156  -0.653  -1.338  0.00  0.00    -0.070 Cl
ENDROOT
TORSDOF 0
ENDMDL
