MODEL 1
REMARK minimizedAffinity -5.35650253
REMARK minimizedRMSD -1
REMARK  0 active torsions:
REMARK  status: ('A' for Active; 'I' for Inactive)
ROOT
ATOM      1  C   UNL d   1       2.390   0.584  -1.395  0.00  0.00     0.020 A 
ATOM      2  C1  UNL d   1       2.706  -0.738  -1.703  0.00  0.00     0.020 A 
ATOM      3  C2  UNL d   1       1.877  -1.774  -1.266  0.00  0.00     0.034 A 
ATOM      4  C3  UNL d   1       0.729  -1.489  -0.518  0.00  0.00     0.017 A 
ATOM      5  C4  UNL d   1       0.413  -0.161  -0.209  0.00  0.00     0.017 A 
ATOM      6  C5  UNL d   1       1.246   0.872  -0.650  0.00  0.00     0.034 A 
ATOM      7 Cl   UNL d   1      -0.986   0.270   0.709  0.00  0.00    -0.070 Cl
ATOM      8 Cl1  UNL d   1      -0.250  -2.819  -0.010  0.00  0.00    -0.070 Cl
ENDROOT
TORSDOF 0
ENDMDL
