MODEL 1
REMARK minimizedAffinity -4.28267336
REMARK minimizedRMSD -1
REMARK  0 active torsions:
REMARK  status: ('A' for Active; 'I' for Inactive)
ROOT
ATOM      1  C   UNL d   1      -1.924   1.443   2.595  0.00  0.00     0.020 A 
ATOM      2  C1  UNL d   1      -1.605   0.185   3.106  0.00  0.00     0.020 A 
ATOM      3  C2  UNL d   1      -0.868  -0.715   2.334  0.00  0.00     0.034 A 
ATOM      4  C3  UNL d   1      -0.446  -0.359   1.048  0.00  0.00     0.017 A 
ATOM      5  C4  UNL d   1      -0.767   0.904   0.536  0.00  0.00     0.017 A 
ATOM      6  C5  UNL d   1      -1.506   1.801   1.313  0.00  0.00     0.034 A 
ATOM      7 Cl   UNL d   1      -0.282   1.415  -1.042  0.00  0.00    -0.070 Cl
ATOM      8 Cl1  UNL d   1       0.463  -1.522   0.149  0.00  0.00    -0.070 Cl
ENDROOT
TORSDOF 0
ENDMDL
