MODEL 1
REMARK minimizedAffinity -1.42269123
REMARK minimizedRMSD -1
REMARK  0 active torsions:
REMARK  status: ('A' for Active; 'I' for Inactive)
ROOT
ATOM      1  C   UNL d   1       5.643  -0.642   5.427  0.00  0.00     0.020 A 
ATOM      2  C1  UNL d   1       5.352  -0.749   4.067  0.00  0.00     0.020 A 
ATOM      3  C2  UNL d   1       5.256   0.400   3.280  0.00  0.00     0.034 A 
ATOM      4  C3  UNL d   1       5.453   1.663   3.852  0.00  0.00     0.017 A 
ATOM      5  C4  UNL d   1       5.745   1.770   5.217  0.00  0.00     0.017 A 
ATOM      6  C5  UNL d   1       5.839   0.615   6.000  0.00  0.00     0.034 A 
ATOM      7 Cl   UNL d   1       6.000   3.292   5.994  0.00  0.00    -0.070 Cl
ATOM      8 Cl1  UNL d   1       5.320   3.042   2.820  0.00  0.00    -0.070 Cl
ENDROOT
TORSDOF 0
ENDMDL
