MODEL 1
REMARK minimizedAffinity 0.299004048
REMARK minimizedRMSD -1
REMARK  1 active torsions:
REMARK  status: ('A' for Active; 'I' for Inactive)
REMARK    1  A    between atoms: N_2  and  C1_3 
ROOT
ATOM      1  C1  UNL d   1       0.397   0.974   1.299  0.00  0.00     0.143 A 
ATOM      2  C2  UNL d   1       0.780   1.915   2.261  0.00  0.00    -0.057 A 
ATOM      3  C3  UNL d   1       0.789   3.285   1.973  0.00  0.00     0.033 A 
ATOM      4  C4  UNL d   1       0.443   3.738   0.705  0.00  0.00    -0.042 A 
ATOM      5  C5  UNL d   1       0.083   2.819  -0.275  0.00  0.00     0.033 A 
ATOM      6  C6  UNL d   1       0.069   1.452   0.021  0.00  0.00    -0.057 A 
ENDROOT
BRANCH   1   7
ATOM      7  N   UNL d   1       0.461  -0.408   1.494  0.00  0.00    -0.732 N 
ATOM      8  C   UNL d   1       1.458  -0.983   2.371  0.00  0.00     0.284 C 
ATOM      9  H3  UNL d   1      -0.460  -0.832   1.578  0.00  0.00     0.395 HD
ENDBRANCH   1   7
TORSDOF 1
ENDMDL
