MODEL 1
REMARK minimizedAffinity 1.16554737
REMARK minimizedRMSD -1
REMARK  1 active torsions:
REMARK  status: ('A' for Active; 'I' for Inactive)
REMARK    1  A    between atoms: N_2  and  C1_3 
ROOT
ATOM      1  C1  UNL d   1       0.207   2.788   1.111  0.00  0.00     0.143 A 
ATOM      2  C2  UNL d   1      -0.083   2.989  -0.242  0.00  0.00    -0.057 A 
ATOM      3  C3  UNL d   1      -0.550   1.943  -1.048  0.00  0.00     0.033 A 
ATOM      4  C4  UNL d   1      -0.707   0.666  -0.518  0.00  0.00    -0.042 A 
ATOM      5  C5  UNL d   1      -0.401   0.438   0.819  0.00  0.00     0.033 A 
ATOM      6  C6  UNL d   1       0.059   1.488   1.619  0.00  0.00    -0.057 A 
ENDROOT
BRANCH   1   7
ATOM      7  N   UNL d   1       0.767   3.764   1.940  0.00  0.00    -0.732 N 
ATOM      8  C   UNL d   1       1.857   3.435   2.834  0.00  0.00     0.284 C 
ATOM      9  H3  UNL d   1       0.872   4.659   1.469  0.00  0.00     0.395 HD
ENDBRANCH   1   7
TORSDOF 1
ENDMDL
