MODEL 1
REMARK minimizedAffinity 9.73533535
REMARK minimizedRMSD -1
REMARK  1 active torsions:
REMARK  status: ('A' for Active; 'I' for Inactive)
REMARK    1  A    between atoms: N_2  and  C1_3 
ROOT
ATOM      1  C1  UNL d   1      -1.317   1.575  -1.544  0.00  0.00     0.143 A 
ATOM      2  C2  UNL d   1      -2.686   1.309  -1.444  0.00  0.00    -0.057 A 
ATOM      3  C3  UNL d   1      -3.260   0.202  -2.082  0.00  0.00     0.033 A 
ATOM      4  C4  UNL d   1      -2.475  -0.645  -2.858  0.00  0.00    -0.042 A 
ATOM      5  C5  UNL d   1      -1.116  -0.386  -2.992  0.00  0.00     0.033 A 
ATOM      6  C6  UNL d   1      -0.548   0.717  -2.347  0.00  0.00    -0.057 A 
ENDROOT
BRANCH   1   7
ATOM      7  N   UNL d   1      -0.705   2.713  -1.015  0.00  0.00    -0.732 N 
ATOM      8  C   UNL d   1      -0.451   2.821   0.406  0.00  0.00     0.284 C 
ATOM      9  H3  UNL d   1       0.056   3.053  -1.600  0.00  0.00     0.395 HD
ENDBRANCH   1   7
TORSDOF 1
ENDMDL
