MODEL 1
REMARK minimizedAffinity -2.75423646
REMARK minimizedRMSD -1
REMARK  1 active torsions:
REMARK  status: ('A' for Active; 'I' for Inactive)
REMARK    1  A    between atoms: N_2  and  C1_3 
ROOT
ATOM      1  C1  UNL d   1      -0.349   2.438  -0.396  0.00  0.00     0.143 A 
ATOM      2  C2  UNL d   1      -0.227   1.110  -0.819  0.00  0.00    -0.057 A 
ATOM      3  C3  UNL d   1       0.030   0.078   0.092  0.00  0.00     0.033 A 
ATOM      4  C4  UNL d   1       0.199   0.361   1.443  0.00  0.00    -0.042 A 
ATOM      5  C5  UNL d   1       0.107   1.677   1.883  0.00  0.00     0.033 A 
ATOM      6  C6  UNL d   1      -0.157   2.702   0.969  0.00  0.00    -0.057 A 
ENDROOT
BRANCH   1   7
ATOM      7  N   UNL d   1      -0.506   3.520  -1.265  0.00  0.00    -0.732 N 
ATOM      8  C   UNL d   1       0.098   4.800  -0.965  0.00  0.00     0.284 C 
ATOM      9  H3  UNL d   1      -0.436   3.246  -2.243  0.00  0.00     0.395 HD
ENDBRANCH   1   7
TORSDOF 1
ENDMDL
