MODEL 1
REMARK minimizedAffinity 7.75542355
REMARK minimizedRMSD -1
REMARK  0 active torsions:
REMARK  status: ('A' for Active; 'I' for Inactive)
ROOT
ATOM      1  O1  BZF d   1       0.279   1.902  -0.940  0.00  0.00    -0.204 OA
ATOM      2  C2  BZF d   1       1.023   2.176   0.192  0.00  0.00     0.174 A 
ATOM      3  C3  BZF d   1       0.749   3.412   0.656  0.00  0.00    -0.012 A 
ATOM      4  C3A BZF d   1      -0.294   3.909  -0.187  0.00  0.00    -0.107 A 
ATOM      5  C4  BZF d   1      -1.000   5.078  -0.217  0.00  0.00     0.055 A 
ATOM      6  C5  BZF d   1      -1.901   5.279  -1.214  0.00  0.00    -0.016 A 
ATOM      7  C6  BZF d   1      -2.117   4.337  -2.199  0.00  0.00     0.022 A 
ATOM      8  C7  BZF d   1      -1.444   3.161  -2.208  0.00  0.00     0.029 A 
ATOM      9  C7A BZF d   1      -0.557   2.940  -1.183  0.00  0.00     0.058 A 
ENDROOT
TORSDOF 0
ENDMDL
