MODEL 1
REMARK minimizedAffinity 1.21985829
REMARK minimizedRMSD -1
REMARK  0 active torsions:
REMARK  status: ('A' for Active; 'I' for Inactive)
ROOT
ATOM      1  O1  BZF d   1      -1.130   2.835   2.487  0.00  0.00    -0.204 OA
ATOM      2  C2  BZF d   1      -0.221   1.824   2.732  0.00  0.00     0.174 A 
ATOM      3  C3  BZF d   1       0.906   2.010   2.015  0.00  0.00    -0.012 A 
ATOM      4  C3A BZF d   1       0.724   3.262   1.347  0.00  0.00    -0.107 A 
ATOM      5  C4  BZF d   1       1.504   3.996   0.500  0.00  0.00     0.055 A 
ATOM      6  C5  BZF d   1       1.003   5.141  -0.035  0.00  0.00    -0.016 A 
ATOM      7  C6  BZF d   1      -0.274   5.578   0.251  0.00  0.00     0.022 A 
ATOM      8  C7  BZF d   1      -1.083   4.886   1.090  0.00  0.00     0.029 A 
ATOM      9  C7A BZF d   1      -0.568   3.746   1.658  0.00  0.00     0.058 A 
ENDROOT
TORSDOF 0
ENDMDL
