MODEL 1
REMARK minimizedAffinity 1.11677945
REMARK minimizedRMSD -1
REMARK  0 active torsions:
REMARK  status: ('A' for Active; 'I' for Inactive)
ROOT
ATOM      1  O1  BZF d   1      -1.789   1.627  -0.527  0.00  0.00    -0.204 OA
ATOM      2  C2  BZF d   1      -1.053   2.794  -0.590  0.00  0.00     0.174 A 
ATOM      3  C3  BZF d   1       0.242   2.529  -0.855  0.00  0.00    -0.012 A 
ATOM      4  C3A BZF d   1       0.303   1.114  -1.056  0.00  0.00    -0.107 A 
ATOM      5  C4  BZF d   1       1.317   0.252  -1.366  0.00  0.00     0.055 A 
ATOM      6  C5  BZF d   1       1.058  -1.081  -1.418  0.00  0.00    -0.016 A 
ATOM      7  C6  BZF d   1      -0.200  -1.587  -1.161  0.00  0.00     0.022 A 
ATOM      8  C7  BZF d   1      -1.238  -0.771  -0.854  0.00  0.00     0.029 A 
ATOM      9  C7A BZF d   1      -0.987   0.579  -0.833  0.00  0.00     0.058 A 
ENDROOT
TORSDOF 0
ENDMDL
