MODEL 1
REMARK minimizedAffinity 6.39326334
REMARK minimizedRMSD -1
REMARK  0 active torsions:
REMARK  status: ('A' for Active; 'I' for Inactive)
ROOT
ATOM      1  O1  BZF d   1      -1.320  -2.721  -1.494  0.00  0.00    -0.204 OA
ATOM      2  C2  BZF d   1      -0.390  -3.571  -2.061  0.00  0.00     0.174 A 
ATOM      3  C3  BZF d   1       0.745  -2.908  -2.359  0.00  0.00    -0.012 A 
ATOM      4  C3A BZF d   1       0.545  -1.579  -1.869  0.00  0.00    -0.107 A 
ATOM      5  C4  BZF d   1       1.323  -0.457  -1.854  0.00  0.00     0.055 A 
ATOM      6  C5  BZF d   1       0.804   0.700  -1.365  0.00  0.00    -0.016 A 
ATOM      7  C6  BZF d   1      -0.489   0.772  -0.890  0.00  0.00     0.022 A 
ATOM      8  C7  BZF d   1      -1.297  -0.316  -0.879  0.00  0.00     0.029 A 
ATOM      9  C7A BZF d   1      -0.764  -1.495  -1.341  0.00  0.00     0.058 A 
ENDROOT
TORSDOF 0
ENDMDL
