MODEL 1
REMARK minimizedAffinity 8.16359138
REMARK minimizedRMSD -1
REMARK  0 active torsions:
REMARK  status: ('A' for Active; 'I' for Inactive)
ROOT
ATOM      1  O1  BZF d   1      -6.000   2.487  -2.956  0.00  0.00    -0.204 OA
ATOM      2  C2  BZF d   1      -5.084   2.237  -1.953  0.00  0.00     0.174 A 
ATOM      3  C3  BZF d   1      -3.948   2.935  -2.156  0.00  0.00    -0.012 A 
ATOM      4  C3A BZF d   1      -4.202   3.738  -3.313  0.00  0.00    -0.107 A 
ATOM      5  C4  BZF d   1      -3.460   4.655  -4.001  0.00  0.00     0.055 A 
ATOM      6  C5  BZF d   1      -3.974   5.206  -5.132  0.00  0.00    -0.016 A 
ATOM      7  C6  BZF d   1      -5.222   4.860  -5.606  0.00  0.00     0.022 A 
ATOM      8  C7  BZF d   1      -5.997   3.958  -4.956  0.00  0.00     0.029 A 
ATOM      9  C7A BZF d   1      -5.494   3.424  -3.795  0.00  0.00     0.058 A 
ENDROOT
TORSDOF 0
ENDMDL
