MODEL 1
REMARK minimizedAffinity 7.53249407
REMARK minimizedRMSD -1
REMARK  0 active torsions:
REMARK  status: ('A' for Active; 'I' for Inactive)
ROOT
ATOM      1  O1  BZF d   1       0.945   1.715  -0.387  0.00  0.00    -0.204 OA
ATOM      2  C2  BZF d   1      -0.192   1.709  -1.171  0.00  0.00     0.174 A 
ATOM      3  C3  BZF d   1      -1.284   1.994  -0.433  0.00  0.00    -0.012 A 
ATOM      4  C3A BZF d   1      -0.787   2.283   0.877  0.00  0.00    -0.107 A 
ATOM      5  C4  BZF d   1      -1.386   2.650   2.049  0.00  0.00     0.055 A 
ATOM      6  C5  BZF d   1      -0.624   2.783   3.166  0.00  0.00    -0.016 A 
ATOM      7  C6  BZF d   1       0.736   2.552   3.150  0.00  0.00     0.022 A 
ATOM      8  C7  BZF d   1       1.375   2.191   2.011  0.00  0.00     0.029 A 
ATOM      9  C7A BZF d   1       0.614   2.088   0.872  0.00  0.00     0.058 A 
ENDROOT
TORSDOF 0
ENDMDL
