MODEL 1
REMARK minimizedAffinity -0.362952292
REMARK minimizedRMSD -1
REMARK  0 active torsions:
REMARK  status: ('A' for Active; 'I' for Inactive)
ROOT
ATOM      1  O1  BZF d   1       1.266   0.776   1.726  0.00  0.00    -0.204 OA
ATOM      2  C2  BZF d   1       0.892   0.553   3.037  0.00  0.00     0.174 A 
ATOM      3  C3  BZF d   1       0.026   1.499   3.455  0.00  0.00    -0.012 A 
ATOM      4  C3A BZF d   1      -0.224   2.314   2.306  0.00  0.00    -0.107 A 
ATOM      5  C4  BZF d   1      -1.012   3.407   2.084  0.00  0.00     0.055 A 
ATOM      6  C5  BZF d   1      -0.974   4.012   0.868  0.00  0.00    -0.016 A 
ATOM      7  C6  BZF d   1      -0.158   3.555  -0.146  0.00  0.00     0.022 A 
ATOM      8  C7  BZF d   1       0.638   2.471   0.026  0.00  0.00     0.029 A 
ATOM      9  C7A BZF d   1       0.577   1.838   1.243  0.00  0.00     0.058 A 
ENDROOT
TORSDOF 0
ENDMDL
