MODEL 1
REMARK minimizedAffinity 5.81975985
REMARK minimizedRMSD -1
REMARK  0 active torsions:
REMARK  status: ('A' for Active; 'I' for Inactive)
ROOT
ATOM      1  O1  BZF d   1      -3.345   2.830  -2.725  0.00  0.00    -0.204 OA
ATOM      2  C2  BZF d   1      -4.338   2.167  -2.030  0.00  0.00     0.174 A 
ATOM      3  C3  BZF d   1      -5.512   2.239  -2.689  0.00  0.00    -0.012 A 
ATOM      4  C3A BZF d   1      -5.216   2.915  -3.914  0.00  0.00    -0.107 A 
ATOM      5  C4  BZF d   1      -5.970   3.273  -4.995  0.00  0.00     0.055 A 
ATOM      6  C5  BZF d   1      -5.392   3.989  -5.996  0.00  0.00    -0.016 A 
ATOM      7  C6  BZF d   1      -4.066   4.368  -5.945  0.00  0.00     0.022 A 
ATOM      8  C7  BZF d   1      -3.277   4.031  -4.896  0.00  0.00     0.029 A 
ATOM      9  C7A BZF d   1      -3.850   3.280  -3.899  0.00  0.00     0.058 A 
ENDROOT
TORSDOF 0
ENDMDL
