MODEL 1
REMARK minimizedAffinity 0.961697876
REMARK minimizedRMSD -1
REMARK  0 active torsions:
REMARK  status: ('A' for Active; 'I' for Inactive)
ROOT
ATOM      1  O1  BZF d   1       0.434   2.197   0.103  0.00  0.00    -0.204 OA
ATOM      2  C2  BZF d   1       0.380   1.775   1.418  0.00  0.00     0.174 A 
ATOM      3  C3  BZF d   1      -0.001   2.783   2.228  0.00  0.00    -0.012 A 
ATOM      4  C3A BZF d   1      -0.287   3.880   1.355  0.00  0.00    -0.107 A 
ATOM      5  C4  BZF d   1      -0.725   5.157   1.564  0.00  0.00     0.055 A 
ATOM      6  C5  BZF d   1      -0.832   6.000   0.504  0.00  0.00    -0.016 A 
ATOM      7  C6  BZF d   1      -0.505   5.602  -0.776  0.00  0.00     0.022 A 
ATOM      8  C7  BZF d   1      -0.071   4.344  -1.033  0.00  0.00     0.029 A 
ATOM      9  C7A BZF d   1       0.007   3.480   0.031  0.00  0.00     0.058 A 
ENDROOT
TORSDOF 0
ENDMDL
