MODEL 1
REMARK minimizedAffinity 2.2715199
REMARK minimizedRMSD -1
REMARK  0 active torsions:
REMARK  status: ('A' for Active; 'I' for Inactive)
ROOT
ATOM      1  O1  BZF d   1      -3.372   2.648  -5.167  0.00  0.00    -0.204 OA
ATOM      2  C2  BZF d   1      -3.811   3.669  -5.987  0.00  0.00     0.174 A 
ATOM      3  C3  BZF d   1      -4.894   4.276  -5.459  0.00  0.00    -0.012 A 
ATOM      4  C3A BZF d   1      -5.092   3.651  -4.187  0.00  0.00    -0.107 A 
ATOM      5  C4  BZF d   1      -6.000   3.831  -3.183  0.00  0.00     0.055 A 
ATOM      6  C5  BZF d   1      -5.963   3.007  -2.103  0.00  0.00    -0.016 A 
ATOM      7  C6  BZF d   1      -5.037   1.991  -1.996  0.00  0.00     0.022 A 
ATOM      8  C7  BZF d   1      -4.112   1.776  -2.964  0.00  0.00     0.029 A 
ATOM      9  C7A BZF d   1      -4.126   2.628  -4.041  0.00  0.00     0.058 A 
ENDROOT
TORSDOF 0
ENDMDL
