MODEL 1
REMARK minimizedAffinity 9.64677429
REMARK minimizedRMSD -1
REMARK  1 active torsions:
REMARK  status: ('A' for Active; 'I' for Inactive)
REMARK    1  A    between atoms: C1_2  and  C2_3 
ROOT
ATOM      1  C2  UNL d   1       5.086  -3.883  -1.731  0.00  0.00    -0.076 A 
ATOM      2  C3  UNL d   1       4.680  -4.862  -0.808  0.00  0.00     0.004 A 
ATOM      3  C4  UNL d   1       3.823  -5.893  -1.186  0.00  0.00    -0.003 A 
ATOM      4  C5  UNL d   1       3.357  -5.963  -2.495  0.00  0.00     0.000 A 
ATOM      5  C6  UNL d   1       3.763  -5.010  -3.428  0.00  0.00     0.000 A 
ATOM      6  C7  UNL d   1       4.640  -3.973  -3.068  0.00  0.00    -0.073 A 
ATOM      7  C8  UNL d   1       5.041  -2.969  -4.114  0.00  0.00     0.078 C 
ENDROOT
BRANCH   1   8
ATOM      8  C1  UNL d   1       5.996  -2.772  -1.257  0.00  0.00     0.053 C 
ATOM      9  C   UNL d   1       5.276  -1.768  -0.370  0.00  0.00     0.018 C 
ENDBRANCH   1   8
TORSDOF 1
ENDMDL
