MODEL 1
REMARK minimizedAffinity 14.9817772
REMARK minimizedRMSD -1
REMARK  1 active torsions:
REMARK  status: ('A' for Active; 'I' for Inactive)
REMARK    1  A    between atoms: C1_2  and  C2_3 
ROOT
ATOM      1  C2  UNL d   1       5.035  -3.834  -1.867  0.00  0.00    -0.076 A 
ATOM      2  C3  UNL d   1       4.243  -3.706  -3.021  0.00  0.00     0.004 A 
ATOM      3  C4  UNL d   1       3.355  -4.713  -3.397  0.00  0.00    -0.003 A 
ATOM      4  C5  UNL d   1       3.245  -5.864  -2.624  0.00  0.00     0.000 A 
ATOM      5  C6  UNL d   1       4.010  -5.999  -1.466  0.00  0.00     0.000 A 
ATOM      6  C7  UNL d   1       4.898  -4.986  -1.064  0.00  0.00    -0.073 A 
ATOM      7  C8  UNL d   1       5.703  -5.188   0.190  0.00  0.00     0.078 C 
ENDROOT
BRANCH   1   8
ATOM      8  C1  UNL d   1       6.000  -2.721  -1.524  0.00  0.00     0.053 C 
ATOM      9  C   UNL d   1       5.292  -1.412  -1.210  0.00  0.00     0.018 C 
ENDBRANCH   1   8
TORSDOF 1
ENDMDL
