MODEL 1
REMARK minimizedAffinity 19.3231392
REMARK minimizedRMSD -1
REMARK  1 active torsions:
REMARK  status: ('A' for Active; 'I' for Inactive)
REMARK    1  A    between atoms: C1_2  and  C2_3 
ROOT
ATOM      1  C2  UNL d   1      -0.107   3.290   1.350  0.00  0.00    -0.076 A 
ATOM      2  C3  UNL d   1      -1.143   3.592   0.448  0.00  0.00     0.004 A 
ATOM      3  C4  UNL d   1      -0.967   4.544  -0.554  0.00  0.00    -0.003 A 
ATOM      4  C5  UNL d   1       0.248   5.210  -0.671  0.00  0.00     0.000 A 
ATOM      5  C6  UNL d   1       1.292   4.911   0.203  0.00  0.00     0.000 A 
ATOM      6  C7  UNL d   1       1.137   3.941   1.209  0.00  0.00    -0.073 A 
ATOM      7  C8  UNL d   1       2.294   3.663   2.128  0.00  0.00     0.078 C 
ENDROOT
BRANCH   1   8
ATOM      8  C1  UNL d   1      -0.365   2.267   2.433  0.00  0.00     0.053 C 
ATOM      9  C   UNL d   1      -1.757   2.392   3.032  0.00  0.00     0.018 C 
ENDBRANCH   1   8
TORSDOF 1
ENDMDL
