MODEL 1
REMARK minimizedAffinity 10.3278303
REMARK minimizedRMSD -1
REMARK  1 active torsions:
REMARK  status: ('A' for Active; 'I' for Inactive)
REMARK    1  A    between atoms: C1_2  and  C2_3 
ROOT
ATOM      1  C2  UNL d   1       5.028  -3.969  -0.705  0.00  0.00    -0.076 A 
ATOM      2  C3  UNL d   1       5.834  -2.817  -0.696  0.00  0.00     0.004 A 
ATOM      3  C4  UNL d   1       5.998  -2.047  -1.847  0.00  0.00    -0.003 A 
ATOM      4  C5  UNL d   1       5.358  -2.416  -3.025  0.00  0.00     0.000 A 
ATOM      5  C6  UNL d   1       4.541  -3.545  -3.047  0.00  0.00     0.000 A 
ATOM      6  C7  UNL d   1       4.352  -4.324  -1.892  0.00  0.00    -0.073 A 
ATOM      7  C8  UNL d   1       3.464  -5.535  -1.975  0.00  0.00     0.078 C 
ENDROOT
BRANCH   1   8
ATOM      8  C1  UNL d   1       4.910  -4.780   0.565  0.00  0.00     0.053 C 
ATOM      9  C   UNL d   1       5.831  -5.990   0.572  0.00  0.00     0.018 C 
ENDBRANCH   1   8
TORSDOF 1
ENDMDL
