MODEL 1
REMARK minimizedAffinity 12.6952028
REMARK minimizedRMSD -1
REMARK  1 active torsions:
REMARK  status: ('A' for Active; 'I' for Inactive)
REMARK    1  A    between atoms: C1_2  and  C2_3 
ROOT
ATOM      1  C2  UNL d   1      -0.760   1.115   2.912  0.00  0.00    -0.076 A 
ATOM      2  C3  UNL d   1      -0.461   0.158   3.897  0.00  0.00     0.004 A 
ATOM      3  C4  UNL d   1       0.841  -0.309   4.071  0.00  0.00    -0.003 A 
ATOM      4  C5  UNL d   1       1.864   0.173   3.263  0.00  0.00     0.000 A 
ATOM      5  C6  UNL d   1       1.588   1.136   2.293  0.00  0.00     0.000 A 
ATOM      6  C7  UNL d   1       0.285   1.630   2.115  0.00  0.00    -0.073 A 
ATOM      7  C8  UNL d   1       0.043   2.664   1.049  0.00  0.00     0.078 C 
ENDROOT
BRANCH   1   8
ATOM      8  C1  UNL d   1      -2.195   1.565   2.751  0.00  0.00     0.053 C 
ATOM      9  C   UNL d   1      -3.152   0.399   2.555  0.00  0.00     0.018 C 
ENDBRANCH   1   8
TORSDOF 1
ENDMDL
