MODEL 1
REMARK minimizedAffinity 12.9515896
REMARK minimizedRMSD -1
REMARK  1 active torsions:
REMARK  status: ('A' for Active; 'I' for Inactive)
REMARK    1  A    between atoms: C1_2  and  C2_3 
ROOT
ATOM      1  C2  UNL d   1      -3.450   4.905  -0.689  0.00  0.00    -0.076 A 
ATOM      2  C3  UNL d   1      -3.863   4.608  -2.000  0.00  0.00     0.004 A 
ATOM      3  C4  UNL d   1      -5.122   4.991  -2.459  0.00  0.00    -0.003 A 
ATOM      4  C5  UNL d   1      -5.988   5.677  -1.616  0.00  0.00     0.000 A 
ATOM      5  C6  UNL d   1      -5.589   5.996  -0.318  0.00  0.00     0.000 A 
ATOM      6  C7  UNL d   1      -4.316   5.632   0.155  0.00  0.00    -0.073 A 
ATOM      7  C8  UNL d   1      -3.940   5.996   1.565  0.00  0.00     0.078 C 
ENDROOT
BRANCH   1   8
ATOM      8  C1  UNL d   1      -2.083   4.441  -0.238  0.00  0.00     0.053 C 
ATOM      9  C   UNL d   1      -2.083   2.992   0.224  0.00  0.00     0.018 C 
ENDBRANCH   1   8
TORSDOF 1
ENDMDL
