MODEL 1
REMARK minimizedAffinity 12.7852745
REMARK minimizedRMSD -1
REMARK  1 active torsions:
REMARK  status: ('A' for Active; 'I' for Inactive)
REMARK    1  A    between atoms: C1_2  and  C2_3 
ROOT
ATOM      1  C2  UNL d   1       1.735   2.218   1.907  0.00  0.00    -0.076 A 
ATOM      2  C3  UNL d   1       0.578   1.811   1.220  0.00  0.00     0.004 A 
ATOM      3  C4  UNL d   1      -0.112   2.694   0.391  0.00  0.00    -0.003 A 
ATOM      4  C5  UNL d   1       0.345   3.998   0.235  0.00  0.00     0.000 A 
ATOM      5  C6  UNL d   1       1.500   4.414   0.896  0.00  0.00     0.000 A 
ATOM      6  C7  UNL d   1       2.217   3.531   1.722  0.00  0.00    -0.073 A 
ATOM      7  C8  UNL d   1       3.453   4.034   2.415  0.00  0.00     0.078 C 
ENDROOT
BRANCH   1   8
ATOM      8  C1  UNL d   1       2.426   1.224   2.814  0.00  0.00     0.053 C 
ATOM      9  C   UNL d   1       1.642   0.957   4.090  0.00  0.00     0.018 C 
ENDBRANCH   1   8
TORSDOF 1
ENDMDL
