MODEL 1
REMARK minimizedAffinity 9.82847309
REMARK minimizedRMSD -1
REMARK  1 active torsions:
REMARK  status: ('A' for Active; 'I' for Inactive)
REMARK    1  A    between atoms: C1_2  and  C2_3 
ROOT
ATOM      1  C2  UNL d   1       0.909   4.719   0.370  0.00  0.00    -0.076 A 
ATOM      2  C3  UNL d   1       1.445   3.511   0.848  0.00  0.00     0.004 A 
ATOM      3  C4  UNL d   1       0.669   2.354   0.904  0.00  0.00    -0.003 A 
ATOM      4  C5  UNL d   1      -0.656   2.387   0.482  0.00  0.00     0.000 A 
ATOM      5  C6  UNL d   1      -1.199   3.573  -0.011  0.00  0.00     0.000 A 
ATOM      6  C7  UNL d   1      -0.425   4.744  -0.089  0.00  0.00    -0.073 A 
ATOM      7  C8  UNL d   1      -1.064   5.997  -0.624  0.00  0.00     0.078 C 
ENDROOT
BRANCH   1   8
ATOM      8  C1  UNL d   1       1.790   5.948   0.359  0.00  0.00     0.053 C 
ATOM      9  C   UNL d   1       3.071   5.754   1.156  0.00  0.00     0.018 C 
ENDBRANCH   1   8
TORSDOF 1
ENDMDL
