MODEL 1
REMARK minimizedAffinity 3.30564404
REMARK minimizedRMSD -1
REMARK  0 active torsions:
REMARK  status: ('A' for Active; 'I' for Inactive)
ROOT
ATOM      1  C   UNL d   1       0.368   1.481   1.908  0.00  0.00     0.023 A 
ATOM      2  C1  UNL d   1       0.830   0.245   2.360  0.00  0.00     0.003 A 
ATOM      3  C2  UNL d   1       0.818  -0.862   1.508  0.00  0.00     0.048 A 
ATOM      4  C3  UNL d   1       0.345  -0.724   0.204  0.00  0.00     0.023 A 
ATOM      5  C4  UNL d   1      -0.117   0.511  -0.254  0.00  0.00     0.048 A 
ATOM      6  C5  UNL d   1      -0.105   1.614   0.602  0.00  0.00     0.003 A 
ATOM      7  I   UNL d   1       0.326  -2.369  -1.067  0.00  0.00    -0.146 I 
ENDROOT
TORSDOF 0
ENDMDL
