MODEL 1
REMARK minimizedAffinity -0.661519527
REMARK minimizedRMSD -1
REMARK  0 active torsions:
REMARK  status: ('A' for Active; 'I' for Inactive)
ROOT
ATOM      1  C   UNL d   1       0.023   2.447   1.375  0.00  0.00     0.023 A 
ATOM      2  C1  UNL d   1       0.102   1.203   2.001  0.00  0.00     0.003 A 
ATOM      3  C2  UNL d   1      -0.004   0.032   1.247  0.00  0.00     0.048 A 
ATOM      4  C3  UNL d   1      -0.190   0.113  -0.133  0.00  0.00     0.023 A 
ATOM      5  C4  UNL d   1      -0.269   1.356  -0.763  0.00  0.00     0.048 A 
ATOM      6  C5  UNL d   1      -0.163   2.523  -0.005  0.00  0.00     0.003 A 
ATOM      7  I   UNL d   1      -0.348  -1.627  -1.257  0.00  0.00    -0.146 I 
ENDROOT
TORSDOF 0
ENDMDL
