MODEL 1
REMARK minimizedAffinity 0.0639685839
REMARK minimizedRMSD -1
REMARK  0 active torsions:
REMARK  status: ('A' for Active; 'I' for Inactive)
ROOT
ATOM      1  C   UNL d   1      -0.321   4.225  -0.931  0.00  0.00     0.023 A 
ATOM      2  C1  UNL d   1      -0.430   3.099  -1.748  0.00  0.00     0.003 A 
ATOM      3  C2  UNL d   1      -0.348   1.821  -1.191  0.00  0.00     0.048 A 
ATOM      4  C3  UNL d   1      -0.158   1.675   0.183  0.00  0.00     0.023 A 
ATOM      5  C4  UNL d   1      -0.049   2.799   1.004  0.00  0.00     0.048 A 
ATOM      6  C5  UNL d   1      -0.131   4.075   0.443  0.00  0.00     0.003 A 
ATOM      7  I   UNL d   1      -0.036  -0.226   1.013  0.00  0.00    -0.146 I 
ENDROOT
TORSDOF 0
ENDMDL
