MODEL 1
REMARK minimizedAffinity -3.02177978
REMARK minimizedRMSD -1
REMARK  0 active torsions:
REMARK  status: ('A' for Active; 'I' for Inactive)
ROOT
ATOM      1  C   UNL d   1      -0.209   3.296   0.686  0.00  0.00     0.023 A 
ATOM      2  C1  UNL d   1      -0.230   2.996  -0.676  0.00  0.00     0.003 A 
ATOM      3  C2  UNL d   1      -0.021   1.685  -1.107  0.00  0.00     0.048 A 
ATOM      4  C3  UNL d   1       0.208   0.677  -0.171  0.00  0.00     0.023 A 
ATOM      5  C4  UNL d   1       0.229   0.972   1.194  0.00  0.00     0.048 A 
ATOM      6  C5  UNL d   1       0.020   2.285   1.620  0.00  0.00     0.003 A 
ATOM      7  I   UNL d   1       0.519  -1.276  -0.810  0.00  0.00    -0.146 I 
ENDROOT
TORSDOF 0
ENDMDL
