MODEL 1
REMARK minimizedAffinity -1.35374784
REMARK minimizedRMSD -1
REMARK  0 active torsions:
REMARK  status: ('A' for Active; 'I' for Inactive)
ROOT
ATOM      1  C   UNL d   1       0.129   0.396   0.953  0.00  0.00     0.023 A 
ATOM      2  C1  UNL d   1      -0.714  -0.538   1.555  0.00  0.00     0.003 A 
ATOM      3  C2  UNL d   1      -1.031  -1.725   0.890  0.00  0.00     0.048 A 
ATOM      4  C3  UNL d   1      -0.501  -1.971  -0.376  0.00  0.00     0.023 A 
ATOM      5  C4  UNL d   1       0.344  -1.039  -0.981  0.00  0.00     0.048 A 
ATOM      6  C5  UNL d   1       0.657   0.146  -0.313  0.00  0.00     0.003 A 
ATOM      7  I   UNL d   1      -0.971  -3.736  -1.367  0.00  0.00    -0.146 I 
ENDROOT
TORSDOF 0
ENDMDL
