MODEL 1
REMARK minimizedAffinity 3.04593349
REMARK minimizedRMSD -1
REMARK  0 active torsions:
REMARK  status: ('A' for Active; 'I' for Inactive)
ROOT
ATOM      1  C   UNL d   1      -0.480  -1.467   2.018  0.00  0.00     0.124 A 
ATOM      2  C1  UNL d   1      -1.053  -0.921   0.878  0.00  0.00     0.062 A 
ATOM      3  C2  UNL d   1      -0.248  -0.501  -0.178  0.00  0.00     0.162 A 
ATOM      4  C3  UNL d   1       1.139  -0.628  -0.099  0.00  0.00    -0.034 A 
ATOM      5  C4  UNL d   1       1.707  -1.178   1.052  0.00  0.00     0.162 A 
ATOM      6  C5  UNL d   1       0.899  -1.595   2.104  0.00  0.00     0.062 A 
ATOM      7  F   UNL d   1       1.454  -2.123   3.205  0.00  0.00    -0.097 F 
ATOM      8  F1  UNL d   1       3.037  -1.314   1.161  0.00  0.00    -0.096 F 
ATOM      9  I   UNL d   1       2.345  -0.002  -1.675  0.00  0.00    -0.060 I 
ATOM     10  F2  UNL d   1      -0.829   0.023  -1.267  0.00  0.00    -0.096 F 
ATOM     11  F3  UNL d   1      -2.385  -0.795   0.793  0.00  0.00    -0.097 F 
ATOM     12  F4  UNL d   1      -1.257  -1.869   3.032  0.00  0.00    -0.092 F 
ENDROOT
TORSDOF 0
ENDMDL
