MODEL 1
REMARK minimizedAffinity 5.44929457
REMARK minimizedRMSD -1
REMARK  0 active torsions:
REMARK  status: ('A' for Active; 'I' for Inactive)
ROOT
ATOM      1  C   UNL d   1      -0.670  -2.582   2.621  0.00  0.00     0.124 A 
ATOM      2  C1  UNL d   1      -0.768  -1.197   2.628  0.00  0.00     0.062 A 
ATOM      3  C2  UNL d   1       0.129  -0.428   1.892  0.00  0.00     0.162 A 
ATOM      4  C3  UNL d   1       1.131  -1.042   1.141  0.00  0.00    -0.034 A 
ATOM      5  C4  UNL d   1       1.224  -2.435   1.139  0.00  0.00     0.162 A 
ATOM      6  C5  UNL d   1       0.326  -3.199   1.876  0.00  0.00     0.062 A 
ATOM      7  F   UNL d   1       0.422  -4.537   1.868  0.00  0.00    -0.097 F 
ATOM      8  F1  UNL d   1       2.176  -3.057   0.428  0.00  0.00    -0.096 F 
ATOM      9  I   UNL d   1       2.473   0.105   0.038  0.00  0.00    -0.060 I 
ATOM     10  F2  UNL d   1       0.010   0.908   1.917  0.00  0.00    -0.096 F 
ATOM     11  F3  UNL d   1      -1.728  -0.599   3.347  0.00  0.00    -0.097 F 
ATOM     12  F4  UNL d   1      -1.533  -3.320   3.331  0.00  0.00    -0.092 F 
ENDROOT
TORSDOF 0
ENDMDL
