MODEL 1
REMARK minimizedAffinity 9.53086948
REMARK minimizedRMSD -1
REMARK  0 active torsions:
REMARK  status: ('A' for Active; 'I' for Inactive)
ROOT
ATOM      1  C   UNL d   1      -0.416  -2.329   2.636  0.00  0.00     0.124 A 
ATOM      2  C1  UNL d   1       0.629  -2.871   1.901  0.00  0.00     0.062 A 
ATOM      3  C2  UNL d   1       1.137  -2.189   0.799  0.00  0.00     0.162 A 
ATOM      4  C3  UNL d   1       0.601  -0.956   0.426  0.00  0.00    -0.034 A 
ATOM      5  C4  UNL d   1      -0.451  -0.419   1.169  0.00  0.00     0.162 A 
ATOM      6  C5  UNL d   1      -0.955  -1.104   2.270  0.00  0.00     0.062 A 
ATOM      7  F   UNL d   1      -1.965  -0.579   2.979  0.00  0.00    -0.097 F 
ATOM      8  F1  UNL d   1      -0.990   0.764   0.838  0.00  0.00    -0.096 F 
ATOM      9  I   UNL d   1       1.358   0.066  -1.221  0.00  0.00    -0.060 I 
ATOM     10  F2  UNL d   1       2.148  -2.736   0.107  0.00  0.00    -0.096 F 
ATOM     11  F3  UNL d   1       1.151  -4.055   2.252  0.00  0.00    -0.097 F 
ATOM     12  F4  UNL d   1      -0.904  -2.988   3.695  0.00  0.00    -0.092 F 
ENDROOT
TORSDOF 0
ENDMDL
