MODEL 1
REMARK minimizedAffinity 4.94476032
REMARK minimizedRMSD -1
REMARK  0 active torsions:
REMARK  status: ('A' for Active; 'I' for Inactive)
ROOT
ATOM      1  C   UNL d   1      -0.509  -2.857   2.812  0.00  0.00     0.124 A 
ATOM      2  C1  UNL d   1       0.524  -3.394   2.056  0.00  0.00     0.062 A 
ATOM      3  C2  UNL d   1       1.196  -2.605   1.128  0.00  0.00     0.162 A 
ATOM      4  C3  UNL d   1       0.838  -1.269   0.949  0.00  0.00    -0.034 A 
ATOM      5  C4  UNL d   1      -0.202  -0.735   1.712  0.00  0.00     0.162 A 
ATOM      6  C5  UNL d   1      -0.871  -1.528   2.639  0.00  0.00     0.062 A 
ATOM      7  F   UNL d   1      -1.869  -1.007   3.368  0.00  0.00    -0.097 F 
ATOM      8  F1  UNL d   1      -0.572   0.546   1.566  0.00  0.00    -0.096 F 
ATOM      9  I   UNL d   1       1.841  -0.085  -0.438  0.00  0.00    -0.060 I 
ATOM     10  F2  UNL d   1       2.191  -3.151   0.412  0.00  0.00    -0.096 F 
ATOM     11  F3  UNL d   1       0.875  -4.678   2.221  0.00  0.00    -0.097 F 
ATOM     12  F4  UNL d   1      -1.155  -3.619   3.704  0.00  0.00    -0.092 F 
ENDROOT
TORSDOF 0
ENDMDL
