MODEL 1
REMARK minimizedAffinity 6.34984398
REMARK minimizedRMSD -1
REMARK  0 active torsions:
REMARK  status: ('A' for Active; 'I' for Inactive)
ROOT
ATOM      1  C   UNL d   1      -1.543   0.100   1.673  0.00  0.00     0.124 A 
ATOM      2  C1  UNL d   1      -1.224  -0.355   0.401  0.00  0.00     0.062 A 
ATOM      3  C2  UNL d   1      -0.131  -1.197   0.213  0.00  0.00     0.162 A 
ATOM      4  C3  UNL d   1       0.650  -1.590   1.300  0.00  0.00    -0.034 A 
ATOM      5  C4  UNL d   1       0.323  -1.127   2.576  0.00  0.00     0.162 A 
ATOM      6  C5  UNL d   1      -0.770  -0.285   2.759  0.00  0.00     0.062 A 
ATOM      7  F   UNL d   1      -1.077   0.154   3.988  0.00  0.00    -0.097 F 
ATOM      8  F1  UNL d   1       1.052  -1.485   3.643  0.00  0.00    -0.096 F 
ATOM      9  I   UNL d   1       2.284  -2.849   1.024  0.00  0.00    -0.060 I 
ATOM     10  F2  UNL d   1       0.154  -1.622  -1.026  0.00  0.00    -0.096 F 
ATOM     11  F3  UNL d   1      -1.969   0.017  -0.650  0.00  0.00    -0.097 F 
ATOM     12  F4  UNL d   1      -2.594   0.911   1.850  0.00  0.00    -0.092 F 
ENDROOT
TORSDOF 0
ENDMDL
