MODEL 1
REMARK minimizedAffinity 7.35334539
REMARK minimizedRMSD -1
REMARK  0 active torsions:
REMARK  status: ('A' for Active; 'I' for Inactive)
ROOT
ATOM      1  C   UNL d   1       3.185   3.567   4.561  0.00  0.00     0.124 A 
ATOM      2  C1  UNL d   1       4.138   4.556   4.764  0.00  0.00     0.062 A 
ATOM      3  C2  UNL d   1       4.879   5.043   3.692  0.00  0.00     0.162 A 
ATOM      4  C3  UNL d   1       4.669   4.544   2.406  0.00  0.00    -0.034 A 
ATOM      5  C4  UNL d   1       3.710   3.550   2.210  0.00  0.00     0.162 A 
ATOM      6  C5  UNL d   1       2.971   3.065   3.285  0.00  0.00     0.062 A 
ATOM      7  F   UNL d   1       2.051   2.110   3.088  0.00  0.00    -0.097 F 
ATOM      8  F1  UNL d   1       3.482   3.047   0.988  0.00  0.00    -0.096 F 
ATOM      9  I   UNL d   1       5.776   5.271   0.800  0.00  0.00    -0.060 I 
ATOM     10  F2  UNL d   1       5.794   5.998   3.917  0.00  0.00    -0.096 F 
ATOM     11  F3  UNL d   1       4.346   5.041   5.996  0.00  0.00    -0.097 F 
ATOM     12  F4  UNL d   1       2.473   3.099   5.595  0.00  0.00    -0.092 F 
ENDROOT
TORSDOF 0
ENDMDL
