MODEL 1
REMARK minimizedAffinity 2.37637258
REMARK minimizedRMSD -1
REMARK  0 active torsions:
REMARK  status: ('A' for Active; 'I' for Inactive)
ROOT
ATOM      1  C   UNL d   1       0.918  -1.499   0.906  0.00  0.00     0.124 A 
ATOM      2  C1  UNL d   1       0.219  -0.856  -0.107  0.00  0.00     0.062 A 
ATOM      3  C2  UNL d   1      -1.120  -0.520   0.071  0.00  0.00     0.162 A 
ATOM      4  C3  UNL d   1      -1.769  -0.826   1.267  0.00  0.00    -0.034 A 
ATOM      5  C4  UNL d   1      -1.060  -1.473   2.280  0.00  0.00     0.162 A 
ATOM      6  C5  UNL d   1       0.278  -1.807   2.098  0.00  0.00     0.062 A 
ATOM      7  F   UNL d   1       0.951  -2.428   3.077  0.00  0.00    -0.097 F 
ATOM      8  F1  UNL d   1      -1.654  -1.782   3.443  0.00  0.00    -0.096 F 
ATOM      9  I   UNL d   1      -3.771  -0.325   1.536  0.00  0.00    -0.060 I 
ATOM     10  F2  UNL d   1      -1.770   0.101  -0.924  0.00  0.00    -0.096 F 
ATOM     11  F3  UNL d   1       0.835  -0.558  -1.260  0.00  0.00    -0.097 F 
ATOM     12  F4  UNL d   1       2.206  -1.822   0.732  0.00  0.00    -0.092 F 
ENDROOT
TORSDOF 0
ENDMDL
