MODEL 1
REMARK minimizedAffinity 2.3890419
REMARK minimizedRMSD -1
REMARK  0 active torsions:
REMARK  status: ('A' for Active; 'I' for Inactive)
ROOT
ATOM      1  C   UNL d   1      -1.607  -0.415   1.439  0.00  0.00     0.124 A 
ATOM      2  C1  UNL d   1      -1.147  -0.913   0.228  0.00  0.00     0.062 A 
ATOM      3  C2  UNL d   1      -0.089  -1.818   0.199  0.00  0.00     0.162 A 
ATOM      4  C3  UNL d   1       0.516  -2.231   1.386  0.00  0.00    -0.034 A 
ATOM      5  C4  UNL d   1       0.048  -1.725   2.600  0.00  0.00     0.162 A 
ATOM      6  C5  UNL d   1      -1.009  -0.821   2.624  0.00  0.00     0.062 A 
ATOM      7  F   UNL d   1      -1.452  -0.341   3.795  0.00  0.00    -0.097 F 
ATOM      8  F1  UNL d   1       0.606  -2.101   3.761  0.00  0.00    -0.096 F 
ATOM      9  I   UNL d   1       2.097  -3.584   1.348  0.00  0.00    -0.060 I 
ATOM     10  F2  UNL d   1       0.335  -2.283  -0.985  0.00  0.00    -0.096 F 
ATOM     11  F3  UNL d   1      -1.722  -0.522  -0.919  0.00  0.00    -0.097 F 
ATOM     12  F4  UNL d   1      -2.624   0.456   1.463  0.00  0.00    -0.092 F 
ENDROOT
TORSDOF 0
ENDMDL
