MODEL 1
REMARK minimizedAffinity -3.12802982
REMARK minimizedRMSD -1
REMARK  0 active torsions:
REMARK  status: ('A' for Active; 'I' for Inactive)
ROOT
ATOM      1  C   UNL d   1       2.638  -1.101  -1.267  0.00  0.00     0.023 A 
ATOM      2  C1  UNL d   1       1.593  -1.982  -0.988  0.00  0.00     0.003 A 
ATOM      3  C2  UNL d   1       0.404  -1.503  -0.433  0.00  0.00     0.048 A 
ATOM      4  C3  UNL d   1       0.267  -0.143  -0.161  0.00  0.00     0.023 A 
ATOM      5  C4  UNL d   1       1.310   0.742  -0.439  0.00  0.00     0.048 A 
ATOM      6  C5  UNL d   1       2.497   0.259  -0.993  0.00  0.00     0.003 A 
ATOM      7  I   UNL d   1      -1.501   0.572   0.665  0.00  0.00    -0.146 I 
ENDROOT
TORSDOF 0
ENDMDL
