MODEL 1
REMARK minimizedAffinity -4.51942205
REMARK minimizedRMSD -1
REMARK  0 active torsions:
REMARK  status: ('A' for Active; 'I' for Inactive)
ROOT
ATOM      1  C   UNL d   1      -1.457   1.750   2.522  0.00  0.00     0.023 A 
ATOM      2  C1  UNL d   1      -1.716   0.937   1.418  0.00  0.00     0.003 A 
ATOM      3  C2  UNL d   1      -2.640  -0.105   1.519  0.00  0.00     0.048 A 
ATOM      4  C3  UNL d   1      -3.301  -0.329   2.726  0.00  0.00     0.023 A 
ATOM      5  C4  UNL d   1      -3.046   0.483   3.833  0.00  0.00     0.048 A 
ATOM      6  C5  UNL d   1      -2.121   1.523   3.728  0.00  0.00     0.003 A 
ATOM      7  I   UNL d   1      -4.677  -1.880   2.878  0.00  0.00    -0.146 I 
ENDROOT
TORSDOF 0
ENDMDL
