MODEL 1
REMARK minimizedAffinity -1.18824959
REMARK minimizedRMSD -1
REMARK  0 active torsions:
REMARK  status: ('A' for Active; 'I' for Inactive)
ROOT
ATOM      1  C   UNL d   1       2.853  -0.163  -1.985  0.00  0.00     0.023 A 
ATOM      2  C1  UNL d   1       2.403   1.156  -1.932  0.00  0.00     0.003 A 
ATOM      3  C2  UNL d   1       1.192   1.457  -1.306  0.00  0.00     0.048 A 
ATOM      4  C3  UNL d   1       0.437   0.434  -0.733  0.00  0.00     0.023 A 
ATOM      5  C4  UNL d   1       0.884  -0.888  -0.782  0.00  0.00     0.048 A 
ATOM      6  C5  UNL d   1       2.095  -1.184  -1.411  0.00  0.00     0.003 A 
ATOM      7  I   UNL d   1      -1.366   0.879   0.201  0.00  0.00    -0.146 I 
ENDROOT
TORSDOF 0
ENDMDL
