MODEL 1
REMARK minimizedAffinity 9.66374016
REMARK minimizedRMSD -1
REMARK  0 active torsions:
REMARK  status: ('A' for Active; 'I' for Inactive)
ROOT
ATOM      1  C   UNL d   1      -1.858  -2.651  -1.203  0.00  0.00     0.023 A 
ATOM      2  C1  UNL d   1      -1.950  -1.386  -0.622  0.00  0.00     0.003 A 
ATOM      3  C2  UNL d   1      -0.854  -0.521  -0.650  0.00  0.00     0.048 A 
ATOM      4  C3  UNL d   1       0.331  -0.927  -1.263  0.00  0.00     0.023 A 
ATOM      5  C4  UNL d   1       0.428  -2.192  -1.846  0.00  0.00     0.048 A 
ATOM      6  C5  UNL d   1      -0.670  -3.053  -1.814  0.00  0.00     0.003 A 
ATOM      7  I   UNL d   1       1.964   0.358  -1.307  0.00  0.00    -0.146 I 
ENDROOT
TORSDOF 0
ENDMDL
