MODEL 1
REMARK minimizedAffinity -2.76762891
REMARK minimizedRMSD -1
REMARK  0 active torsions:
REMARK  status: ('A' for Active; 'I' for Inactive)
ROOT
ATOM      1  C   UNL d   1       4.578   3.084   5.561  0.00  0.00     0.023 A 
ATOM      2  C1  UNL d   1       5.793   2.558   6.000  0.00  0.00     0.003 A 
ATOM      3  C2  UNL d   1       6.000   1.177   5.995  0.00  0.00     0.048 A 
ATOM      4  C3  UNL d   1       4.987   0.328   5.550  0.00  0.00     0.023 A 
ATOM      5  C4  UNL d   1       3.770   0.850   5.109  0.00  0.00     0.048 A 
ATOM      6  C5  UNL d   1       3.568   2.232   5.116  0.00  0.00     0.003 A 
ATOM      7  I   UNL d   1       5.292  -1.728   5.543  0.00  0.00    -0.146 I 
ENDROOT
TORSDOF 0
ENDMDL
