MODEL 1
REMARK minimizedAffinity 3.90987921
REMARK minimizedRMSD -1
REMARK  0 active torsions:
REMARK  status: ('A' for Active; 'I' for Inactive)
ROOT
ATOM      1  C   UNL d   1      -3.473  -0.665   4.349  0.00  0.00     0.023 A 
ATOM      2  C1  UNL d   1      -3.104   0.591   3.866  0.00  0.00     0.003 A 
ATOM      3  C2  UNL d   1      -2.373   0.697   2.681  0.00  0.00     0.048 A 
ATOM      4  C3  UNL d   1      -2.015  -0.457   1.984  0.00  0.00     0.023 A 
ATOM      5  C4  UNL d   1      -2.383  -1.715   2.463  0.00  0.00     0.048 A 
ATOM      6  C5  UNL d   1      -3.113  -1.816   3.649  0.00  0.00     0.003 A 
ATOM      7  I   UNL d   1      -0.927  -0.301   0.219  0.00  0.00    -0.146 I 
ENDROOT
TORSDOF 0
ENDMDL
