MODEL 1
REMARK minimizedAffinity -2.9703958
REMARK minimizedRMSD -1
REMARK  0 active torsions:
REMARK  status: ('A' for Active; 'I' for Inactive)
ROOT
ATOM      1  C   UNL d   1       1.248   2.464  -0.441  0.00  0.00     0.023 A 
ATOM      2  C1  UNL d   1       0.004   1.969  -0.830  0.00  0.00     0.003 A 
ATOM      3  C2  UNL d   1      -0.219   0.591  -0.871  0.00  0.00     0.048 A 
ATOM      4  C3  UNL d   1       0.806  -0.286  -0.520  0.00  0.00     0.023 A 
ATOM      5  C4  UNL d   1       2.053   0.204  -0.128  0.00  0.00     0.048 A 
ATOM      6  C5  UNL d   1       2.272   1.583  -0.090  0.00  0.00     0.003 A 
ATOM      7  I   UNL d   1       0.476  -2.337  -0.580  0.00  0.00    -0.146 I 
ENDROOT
TORSDOF 0
ENDMDL
