MODEL 1
REMARK minimizedAffinity -1.76950026
REMARK minimizedRMSD -1
REMARK  0 active torsions:
REMARK  status: ('A' for Active; 'I' for Inactive)
ROOT
ATOM      1  C   UNL d   1       0.228  -0.786  -0.000  0.00  0.00     0.023 A 
ATOM      2  C1  UNL d   1       0.847  -1.584  -0.963  0.00  0.00     0.003 A 
ATOM      3  C2  UNL d   1       1.102  -1.073  -2.237  0.00  0.00     0.048 A 
ATOM      4  C3  UNL d   1       0.736   0.237  -2.542  0.00  0.00     0.023 A 
ATOM      5  C4  UNL d   1       0.117   1.040  -1.582  0.00  0.00     0.048 A 
ATOM      6  C5  UNL d   1      -0.136   0.524  -0.309  0.00  0.00     0.003 A 
ATOM      7  I   UNL d   1       1.114   1.001  -4.437  0.00  0.00    -0.146 I 
ENDROOT
TORSDOF 0
ENDMDL
