MODEL 1
REMARK minimizedAffinity 3.00793004
REMARK minimizedRMSD -1
REMARK  0 active torsions:
REMARK  status: ('A' for Active; 'I' for Inactive)
ROOT
ATOM      1  C   UNL d   1       1.315   1.854  -3.347  0.00  0.00     0.023 A 
ATOM      2  C1  UNL d   1       0.663   1.769  -2.117  0.00  0.00     0.003 A 
ATOM      3  C2  UNL d   1       0.933   0.706  -1.254  0.00  0.00     0.048 A 
ATOM      4  C3  UNL d   1       1.857  -0.269  -1.626  0.00  0.00     0.023 A 
ATOM      5  C4  UNL d   1       2.514  -0.188  -2.855  0.00  0.00     0.048 A 
ATOM      6  C5  UNL d   1       2.240   0.876  -3.716  0.00  0.00     0.003 A 
ATOM      7  I   UNL d   1       2.261  -1.854  -0.342  0.00  0.00    -0.146 I 
ENDROOT
TORSDOF 0
ENDMDL
