MODEL 1
REMARK minimizedAffinity -3.38295436
REMARK minimizedRMSD -1
REMARK  0 active torsions:
REMARK  status: ('A' for Active; 'I' for Inactive)
ROOT
ATOM      1  C   UNL d   1       3.038  -0.428  -1.877  0.00  0.00     0.023 A 
ATOM      2  C1  UNL d   1       2.774   0.898  -1.534  0.00  0.00     0.003 A 
ATOM      3  C2  UNL d   1       1.544   1.244  -0.972  0.00  0.00     0.048 A 
ATOM      4  C3  UNL d   1       0.581   0.259  -0.755  0.00  0.00     0.023 A 
ATOM      5  C4  UNL d   1       0.841  -1.070  -1.095  0.00  0.00     0.048 A 
ATOM      6  C5  UNL d   1       2.073  -1.411  -1.658  0.00  0.00     0.003 A 
ATOM      7  I   UNL d   1      -1.251   0.771   0.082  0.00  0.00    -0.146 I 
ENDROOT
TORSDOF 0
ENDMDL
