MODEL 1
REMARK minimizedAffinity 1.21218193
REMARK minimizedRMSD -1
REMARK  0 active torsions:
REMARK  status: ('A' for Active; 'I' for Inactive)
ROOT
ATOM      1  C   UNL d   1      -1.623   1.996  -0.597  0.00  0.00     0.023 A 
ATOM      2  C1  UNL d   1      -2.538   0.974  -0.346  0.00  0.00     0.003 A 
ATOM      3  C2  UNL d   1      -3.130   0.858   0.913  0.00  0.00     0.048 A 
ATOM      4  C3  UNL d   1      -2.802   1.769   1.917  0.00  0.00     0.023 A 
ATOM      5  C4  UNL d   1      -1.887   2.794   1.671  0.00  0.00     0.048 A 
ATOM      6  C5  UNL d   1      -1.298   2.905   0.410  0.00  0.00     0.003 A 
ATOM      7  I   UNL d   1      -3.681   1.599   3.793  0.00  0.00    -0.146 I 
ENDROOT
TORSDOF 0
ENDMDL
