MODEL 1
REMARK minimizedAffinity -2.40745068
REMARK minimizedRMSD -1
REMARK  0 active torsions:
REMARK  status: ('A' for Active; 'I' for Inactive)
ROOT
ATOM      1  C   UNL d   1       2.512  -1.017  -1.637  0.00  0.00     0.023 A 
ATOM      2  C1  UNL d   1       2.421   0.361  -1.442  0.00  0.00     0.003 A 
ATOM      3  C2  UNL d   1       1.289   0.908  -0.834  0.00  0.00     0.048 A 
ATOM      4  C3  UNL d   1       0.253   0.071  -0.422  0.00  0.00     0.023 A 
ATOM      5  C4  UNL d   1       0.340  -1.309  -0.614  0.00  0.00     0.048 A 
ATOM      6  C5  UNL d   1       1.473  -1.851  -1.223  0.00  0.00     0.003 A 
ATOM      7  I   UNL d   1      -1.432   0.883   0.484  0.00  0.00    -0.146 I 
ENDROOT
TORSDOF 0
ENDMDL
