MODEL 1
REMARK minimizedAffinity -0.625692964
REMARK minimizedRMSD -1
REMARK  0 active torsions:
REMARK  status: ('A' for Active; 'I' for Inactive)
ROOT
ATOM      1  C   UNL d   1       0.808   0.030  -1.382  0.00  0.00     0.023 A 
ATOM      2  C1  UNL d   1       0.020   1.164  -1.187  0.00  0.00     0.003 A 
ATOM      3  C2  UNL d   1      -0.856   1.229  -0.101  0.00  0.00     0.048 A 
ATOM      4  C3  UNL d   1      -0.937   0.156   0.786  0.00  0.00     0.023 A 
ATOM      5  C4  UNL d   1      -0.150  -0.980   0.596  0.00  0.00     0.048 A 
ATOM      6  C5  UNL d   1       0.724  -1.041  -0.492  0.00  0.00     0.003 A 
ATOM      7  I   UNL d   1      -2.240   0.251   2.403  0.00  0.00    -0.146 I 
ENDROOT
TORSDOF 0
ENDMDL
