MODEL 1
REMARK minimizedAffinity 3.03744698
REMARK minimizedRMSD -1
REMARK  0 active torsions:
REMARK  status: ('A' for Active; 'I' for Inactive)
ROOT
ATOM      1  N1  IND d   1       1.560  -0.438  -0.061  0.00  0.00    -0.196 N 
ATOM      2  C2  IND d   1       2.251  -0.117   1.075  0.00  0.00     0.054 A 
ATOM      3  C3  IND d   1       1.406   0.345   2.024  0.00  0.00    -0.031 A 
ATOM      4  C4  IND d   1      -1.158   0.562   1.966  0.00  0.00     0.051 A 
ATOM      5  C5  IND d   1      -2.232   0.427   1.132  0.00  0.00    -0.031 A 
ATOM      6  C6  IND d   1      -2.094  -0.015  -0.168  0.00  0.00     0.015 A 
ATOM      7  C7  IND d   1      -0.873  -0.350  -0.681  0.00  0.00    -0.016 A 
ATOM      8  C8  IND d   1       0.220  -0.208   0.161  0.00  0.00    -0.047 A 
ATOM      9  C9  IND d   1       0.092   0.281   1.468  0.00  0.00    -0.096 A 
ATOM     10  HN1 IND d   1       1.905  -0.734  -0.791  0.00  0.00     0.298 HD
ENDROOT
TORSDOF 0
ENDMDL
