MODEL 1
REMARK minimizedAffinity -1.83338845
REMARK minimizedRMSD -1
REMARK  0 active torsions:
REMARK  status: ('A' for Active; 'I' for Inactive)
ROOT
ATOM      1  N1  IND d   1      -1.090   1.279   2.706  0.00  0.00    -0.196 N 
ATOM      2  C2  IND d   1       0.245   1.502   2.900  0.00  0.00     0.054 A 
ATOM      3  C3  IND d   1       0.959   1.019   1.859  0.00  0.00    -0.031 A 
ATOM      4  C4  IND d   1       0.135  -0.084  -0.317  0.00  0.00     0.051 A 
ATOM      5  C5  IND d   1      -0.997  -0.535  -0.934  0.00  0.00    -0.031 A 
ATOM      6  C6  IND d   1      -2.244  -0.400  -0.359  0.00  0.00     0.015 A 
ATOM      7  C7  IND d   1      -2.407   0.205   0.855  0.00  0.00    -0.016 A 
ATOM      8  C8  IND d   1      -1.258   0.658   1.488  0.00  0.00    -0.047 A 
ATOM      9  C9  IND d   1       0.014   0.486   0.928  0.00  0.00    -0.096 A 
ATOM     10  HN1 IND d   1      -1.719   1.492   3.253  0.00  0.00     0.298 HD
ENDROOT
TORSDOF 0
ENDMDL
