MODEL 1
REMARK minimizedAffinity -5.24444771
REMARK minimizedRMSD -1
REMARK  0 active torsions:
REMARK  status: ('A' for Active; 'I' for Inactive)
ROOT
ATOM      1  N1  IND d   1       1.839  -0.288   2.026  0.00  0.00    -0.196 N 
ATOM      2  C2  IND d   1       1.647   0.142   3.309  0.00  0.00     0.054 A 
ATOM      3  C3  IND d   1       0.418   0.688   3.444  0.00  0.00    -0.031 A 
ATOM      4  C4  IND d   1      -1.481   0.887   1.716  0.00  0.00     0.051 A 
ATOM      5  C5  IND d   1      -1.764   0.669   0.397  0.00  0.00    -0.031 A 
ATOM      6  C6  IND d   1      -0.844   0.107  -0.463  0.00  0.00     0.015 A 
ATOM      7  C7  IND d   1       0.397  -0.270  -0.032  0.00  0.00    -0.016 A 
ATOM      8  C8  IND d   1       0.691  -0.044   1.305  0.00  0.00    -0.047 A 
ATOM      9  C9  IND d   1      -0.225   0.566   2.173  0.00  0.00    -0.096 A 
ATOM     10  HN1 IND d   1       2.556  -0.650   1.720  0.00  0.00     0.298 HD
ENDROOT
TORSDOF 0
ENDMDL
