MODEL 1
REMARK minimizedAffinity -4.19590902
REMARK minimizedRMSD -1
REMARK  0 active torsions:
REMARK  status: ('A' for Active; 'I' for Inactive)
ROOT
ATOM      1  N1  IND d   1       0.635  -0.629  -0.237  0.00  0.00    -0.196 N 
ATOM      2  C2  IND d   1      -0.513  -0.482  -0.965  0.00  0.00     0.054 A 
ATOM      3  C3  IND d   1      -1.481   0.080  -0.208  0.00  0.00    -0.031 A 
ATOM      4  C4  IND d   1      -1.371   0.933   2.219  0.00  0.00     0.051 A 
ATOM      5  C5  IND d   1      -0.545   0.984   3.306  0.00  0.00    -0.031 A 
ATOM      6  C6  IND d   1       0.744   0.492   3.267  0.00  0.00     0.015 A 
ATOM      7  C7  IND d   1       1.260  -0.060   2.129  0.00  0.00    -0.016 A 
ATOM      8  C8  IND d   1       0.422  -0.120   1.025  0.00  0.00    -0.047 A 
ATOM      9  C9  IND d   1      -0.901   0.339   1.072  0.00  0.00    -0.096 A 
ATOM     10  HN1 IND d   1       1.367  -0.979  -0.521  0.00  0.00     0.298 HD
ENDROOT
TORSDOF 0
ENDMDL
