MODEL 1
REMARK minimizedAffinity -4.25552511
REMARK minimizedRMSD -1
REMARK  0 active torsions:
REMARK  status: ('A' for Active; 'I' for Inactive)
ROOT
ATOM      1  N1  IND d   1       0.399  -0.069  -0.228  0.00  0.00    -0.196 N 
ATOM      2  C2  IND d   1      -0.845   0.240  -0.703  0.00  0.00     0.054 A 
ATOM      3  C3  IND d   1      -1.650   0.637   0.309  0.00  0.00    -0.031 A 
ATOM      4  C4  IND d   1      -1.104   0.952   2.805  0.00  0.00     0.051 A 
ATOM      5  C5  IND d   1      -0.109   0.762   3.722  0.00  0.00    -0.031 A 
ATOM      6  C6  IND d   1       1.132   0.278   3.362  0.00  0.00     0.015 A 
ATOM      7  C7  IND d   1       1.429  -0.025   2.063  0.00  0.00    -0.016 A 
ATOM      8  C8  IND d   1       0.419   0.161   1.130  0.00  0.00    -0.047 A 
ATOM      9  C9  IND d   1      -0.856   0.611   1.496  0.00  0.00    -0.096 A 
ATOM     10  HN1 IND d   1       1.058  -0.358  -0.699  0.00  0.00     0.298 HD
ENDROOT
TORSDOF 0
ENDMDL
