MODEL 1
REMARK minimizedAffinity -3.56787944
REMARK minimizedRMSD -1
REMARK  0 active torsions:
REMARK  status: ('A' for Active; 'I' for Inactive)
ROOT
ATOM      1  N1  IND d   1      -1.216  -0.830  -0.306  0.00  0.00    -0.196 N 
ATOM      2  C2  IND d   1      -0.169  -0.834  -1.185  0.00  0.00     0.054 A 
ATOM      3  C3  IND d   1       0.768   0.063  -0.805  0.00  0.00    -0.031 A 
ATOM      4  C4  IND d   1       0.838   1.572   1.280  0.00  0.00     0.051 A 
ATOM      5  C5  IND d   1       0.091   1.954   2.358  0.00  0.00    -0.031 A 
ATOM      6  C6  IND d   1      -1.154   1.415   2.611  0.00  0.00     0.015 A 
ATOM      7  C7  IND d   1      -1.696   0.461   1.796  0.00  0.00    -0.016 A 
ATOM      8  C8  IND d   1      -0.943   0.076   0.696  0.00  0.00    -0.047 A 
ATOM      9  C9  IND d   1       0.303   0.650   0.411  0.00  0.00    -0.096 A 
ATOM     10  HN1 IND d   1      -1.925  -1.311  -0.368  0.00  0.00     0.298 HD
ENDROOT
TORSDOF 0
ENDMDL
