MODEL 1
REMARK minimizedAffinity 1.46357751
REMARK minimizedRMSD -1
REMARK  0 active torsions:
REMARK  status: ('A' for Active; 'I' for Inactive)
ROOT
ATOM      1  N1  IND d   1       0.222   0.151   2.881  0.00  0.00    -0.196 N 
ATOM      2  C2  IND d   1      -0.987   0.557   3.372  0.00  0.00     0.054 A 
ATOM      3  C3  IND d   1      -1.913   0.573   2.388  0.00  0.00    -0.031 A 
ATOM      4  C4  IND d   1      -1.689  -0.126  -0.080  0.00  0.00     0.051 A 
ATOM      5  C5  IND d   1      -0.769  -0.532  -1.005  0.00  0.00    -0.031 A 
ATOM      6  C6  IND d   1       0.555  -0.738  -0.675  0.00  0.00     0.015 A 
ATOM      7  C7  IND d   1       1.008  -0.555   0.601  0.00  0.00    -0.016 A 
ATOM      8  C8  IND d   1       0.077  -0.136   1.542  0.00  0.00    -0.047 A 
ATOM      9  C9  IND d   1      -1.259   0.115   1.203  0.00  0.00    -0.096 A 
ATOM     10  HN1 IND d   1       0.951   0.086   3.333  0.00  0.00     0.298 HD
ENDROOT
TORSDOF 0
ENDMDL
