MODEL 1
REMARK minimizedAffinity -6.02774668
REMARK minimizedRMSD -1
REMARK  0 active torsions:
REMARK  status: ('A' for Active; 'I' for Inactive)
ROOT
ATOM      1  N1  IND d   1       1.588  -0.563   1.710  0.00  0.00    -0.196 N 
ATOM      2  C2  IND d   1       1.584  -0.033   2.970  0.00  0.00     0.054 A 
ATOM      3  C3  IND d   1       0.404   0.580   3.219  0.00  0.00    -0.031 A 
ATOM      4  C4  IND d   1      -1.696   0.746   1.739  0.00  0.00     0.051 A 
ATOM      5  C5  IND d   1      -2.159   0.447   0.489  0.00  0.00    -0.031 A 
ATOM      6  C6  IND d   1      -1.382  -0.219  -0.437  0.00  0.00     0.015 A 
ATOM      7  C7  IND d   1      -0.111  -0.624  -0.140  0.00  0.00    -0.016 A 
ATOM      8  C8  IND d   1       0.365  -0.316   1.126  0.00  0.00    -0.047 A 
ATOM      9  C9  IND d   1      -0.404   0.398   2.055  0.00  0.00    -0.096 A 
ATOM     10  HN1 IND d   1       2.244  -0.980   1.344  0.00  0.00     0.298 HD
ENDROOT
TORSDOF 0
ENDMDL
