MODEL 1
REMARK minimizedAffinity -5.84031391
REMARK minimizedRMSD -1
REMARK  0 active torsions:
REMARK  status: ('A' for Active; 'I' for Inactive)
ROOT
ATOM      1  N1  IND d   1       1.151  -0.617   0.169  0.00  0.00    -0.196 N 
ATOM      2  C2  IND d   1       0.014  -0.531  -0.584  0.00  0.00     0.054 A 
ATOM      3  C3  IND d   1      -0.990   0.014   0.139  0.00  0.00    -0.031 A 
ATOM      4  C4  IND d   1      -0.960   0.932   2.544  0.00  0.00     0.051 A 
ATOM      5  C5  IND d   1      -0.158   1.041   3.646  0.00  0.00    -0.031 A 
ATOM      6  C6  IND d   1       1.148   0.596   3.644  0.00  0.00     0.015 A 
ATOM      7  C7  IND d   1       1.707   0.033   2.532  0.00  0.00    -0.016 A 
ATOM      8  C8  IND d   1       0.894  -0.085   1.413  0.00  0.00    -0.047 A 
ATOM      9  C9  IND d   1      -0.445   0.326   1.423  0.00  0.00    -0.096 A 
ATOM     10  HN1 IND d   1       1.901  -0.948  -0.091  0.00  0.00     0.298 HD
ENDROOT
TORSDOF 0
ENDMDL
