MODEL 1
REMARK minimizedAffinity -5.03951693
REMARK minimizedRMSD -1
REMARK  0 active torsions:
REMARK  status: ('A' for Active; 'I' for Inactive)
ROOT
ATOM      1  N1  IND d   1       0.509  -0.360   0.012  0.00  0.00    -0.196 N 
ATOM      2  C2  IND d   1      -0.596  -0.208  -0.778  0.00  0.00     0.054 A 
ATOM      3  C3  IND d   1      -1.623   0.295  -0.058  0.00  0.00    -0.031 A 
ATOM      4  C4  IND d   1      -1.684   1.038   2.406  0.00  0.00     0.051 A 
ATOM      5  C5  IND d   1      -0.927   1.058   3.544  0.00  0.00    -0.031 A 
ATOM      6  C6  IND d   1       0.374   0.601   3.562  0.00  0.00     0.015 A 
ATOM      7  C7  IND d   1       0.974   0.114   2.435  0.00  0.00    -0.016 A 
ATOM      8  C8  IND d   1       0.206   0.085   1.280  0.00  0.00    -0.047 A 
ATOM      9  C9  IND d   1      -1.129   0.508   1.265  0.00  0.00    -0.096 A 
ATOM     10  HN1 IND d   1       1.267  -0.679  -0.241  0.00  0.00     0.298 HD
ENDROOT
TORSDOF 0
ENDMDL
