MODEL 1
REMARK minimizedAffinity -6.35506058
REMARK minimizedRMSD -1
REMARK  0 active torsions:
REMARK  status: ('A' for Active; 'I' for Inactive)
ROOT
ATOM      1  N1  IND d   1       1.616  -0.431   2.088  0.00  0.00    -0.196 N 
ATOM      2  C2  IND d   1       1.495   0.023   3.372  0.00  0.00     0.054 A 
ATOM      3  C3  IND d   1       0.320   0.672   3.532  0.00  0.00    -0.031 A 
ATOM      4  C4  IND d   1      -1.599   1.019   1.851  0.00  0.00     0.051 A 
ATOM      5  C5  IND d   1      -1.934   0.817   0.542  0.00  0.00    -0.031 A 
ATOM      6  C6  IND d   1      -1.087   0.172  -0.336  0.00  0.00     0.015 A 
ATOM      7  C7  IND d   1       0.128  -0.306   0.067  0.00  0.00    -0.016 A 
ATOM      8  C8  IND d   1       0.474  -0.095   1.395  0.00  0.00    -0.047 A 
ATOM      9  C9  IND d   1      -0.363   0.595   2.280  0.00  0.00    -0.096 A 
ATOM     10  HN1 IND d   1       2.292  -0.855   1.768  0.00  0.00     0.298 HD
ENDROOT
TORSDOF 0
ENDMDL
