MODEL 1
REMARK minimizedAffinity -5.25945377
REMARK minimizedRMSD -1
REMARK  0 active torsions:
REMARK  status: ('A' for Active; 'I' for Inactive)
ROOT
ATOM      1  N1  IND d   1       1.991  -0.606   1.975  0.00  0.00    -0.196 N 
ATOM      2  C2  IND d   1       1.883  -0.157   3.262  0.00  0.00     0.054 A 
ATOM      3  C3  IND d   1       0.677   0.419   3.461  0.00  0.00    -0.031 A 
ATOM      4  C4  IND d   1      -1.314   0.645   1.843  0.00  0.00     0.051 A 
ATOM      5  C5  IND d   1      -1.678   0.419   0.546  0.00  0.00    -0.031 A 
ATOM      6  C6  IND d   1      -0.822  -0.174  -0.359  0.00  0.00     0.015 A 
ATOM      7  C7  IND d   1       0.432  -0.576   0.004  0.00  0.00    -0.016 A 
ATOM      8  C8  IND d   1       0.808  -0.342   1.319  0.00  0.00    -0.047 A 
ATOM      9  C9  IND d   1      -0.041   0.299   2.231  0.00  0.00    -0.096 A 
ATOM     10  HN1 IND d   1       2.680  -0.988   1.633  0.00  0.00     0.298 HD
ENDROOT
TORSDOF 0
ENDMDL
