MODEL 1
REMARK minimizedAffinity -5.96899128
REMARK minimizedRMSD -1
REMARK  0 active torsions:
REMARK  status: ('A' for Active; 'I' for Inactive)
ROOT
ATOM      1  N1  IND d   1      -1.313  -0.974  -0.227  0.00  0.00    -0.196 N 
ATOM      2  C2  IND d   1      -0.180  -1.200  -0.957  0.00  0.00     0.054 A 
ATOM      3  C3  IND d   1       0.848  -0.469  -0.471  0.00  0.00    -0.031 A 
ATOM      4  C4  IND d   1       0.922   1.088   1.578  0.00  0.00     0.051 A 
ATOM      5  C5  IND d   1       0.124   1.641   2.540  0.00  0.00    -0.031 A 
ATOM      6  C6  IND d   1      -1.221   1.343   2.632  0.00  0.00     0.015 A 
ATOM      7  C7  IND d   1      -1.817   0.467   1.769  0.00  0.00    -0.016 A 
ATOM      8  C8  IND d   1      -1.011  -0.091   0.787  0.00  0.00    -0.047 A 
ATOM      9  C9  IND d   1       0.344   0.241   0.662  0.00  0.00    -0.096 A 
ATOM     10  HN1 IND d   1      -2.084  -1.324  -0.375  0.00  0.00     0.298 HD
ENDROOT
TORSDOF 0
ENDMDL
