MODEL 1
REMARK minimizedAffinity -0.409795105
REMARK minimizedRMSD -1
REMARK  2 active torsions:
REMARK  status: ('A' for Active; 'I' for Inactive)
REMARK    1  A    between atoms: C1_2  and  C2_3 
REMARK    2  A    between atoms: C2_3  and  C3_4 
ROOT
ATOM      1  C3  UNL d   1       2.153   1.515   0.320  0.00  0.00    -0.075 A 
ATOM      2  C4  UNL d   1       3.026   2.612   0.294  0.00  0.00     0.002 A 
ATOM      3  C5  UNL d   1       4.215   2.553  -0.434  0.00  0.00     0.002 A 
ATOM      4  C6  UNL d   1       4.550   1.397  -1.136  0.00  0.00    -0.004 A 
ATOM      5  C7  UNL d   1       3.698   0.295  -1.103  0.00  0.00     0.002 A 
ATOM      6  C8  UNL d   1       2.505   0.353  -0.379  0.00  0.00     0.002 A 
ENDROOT
BRANCH   1   7
ATOM      7  C2  UNL d   1       0.851   1.582   1.082  0.00  0.00     0.056 C 
BRANCH   7   8
ATOM      8  C1  UNL d   1       1.022   1.663   2.602  0.00  0.00     0.007 C 
ATOM      9  C   UNL d   1      -0.076   2.466   3.288  0.00  0.00     0.009 C 
ENDBRANCH   7   8
ENDBRANCH   1   7
TORSDOF 2
ENDMDL
