MODEL 1
REMARK minimizedAffinity 1.19668293
REMARK minimizedRMSD -1
REMARK  2 active torsions:
REMARK  status: ('A' for Active; 'I' for Inactive)
REMARK    1  A    between atoms: C1_2  and  C2_3 
REMARK    2  A    between atoms: C2_3  and  C3_4 
ROOT
ATOM      1  C3  UNL d   1       1.357  -0.255  -0.318  0.00  0.00    -0.075 A 
ATOM      2  C4  UNL d   1       0.082  -0.533  -0.833  0.00  0.00     0.002 A 
ATOM      3  C5  UNL d   1      -0.326  -1.850  -1.042  0.00  0.00     0.002 A 
ATOM      4  C6  UNL d   1       0.537  -2.905  -0.749  0.00  0.00    -0.004 A 
ATOM      5  C7  UNL d   1       1.811  -2.640  -0.253  0.00  0.00     0.002 A 
ATOM      6  C8  UNL d   1       2.221  -1.323  -0.038  0.00  0.00     0.002 A 
ENDROOT
BRANCH   1   7
ATOM      7  C2  UNL d   1       1.794   1.167  -0.062  0.00  0.00     0.056 C 
BRANCH   7   8
ATOM      8  C1  UNL d   1       3.259   1.443  -0.414  0.00  0.00     0.007 C 
ATOM      9  C   UNL d   1       3.725   2.833  -0.002  0.00  0.00     0.009 C 
ENDBRANCH   7   8
ENDBRANCH   1   7
TORSDOF 2
ENDMDL
