MODEL 1
REMARK minimizedAffinity 2.3272872
REMARK minimizedRMSD -1
REMARK  2 active torsions:
REMARK  status: ('A' for Active; 'I' for Inactive)
REMARK    1  A    between atoms: C1_2  and  C2_3 
REMARK    2  A    between atoms: C2_3  and  C3_4 
ROOT
ATOM      1  C3  UNL d   1       2.518  -1.152  -1.507  0.00  0.00    -0.075 A 
ATOM      2  C4  UNL d   1       2.235  -2.525  -1.486  0.00  0.00     0.002 A 
ATOM      3  C5  UNL d   1       1.008  -2.989  -1.012  0.00  0.00     0.002 A 
ATOM      4  C6  UNL d   1       0.053  -2.088  -0.545  0.00  0.00    -0.004 A 
ATOM      5  C7  UNL d   1       0.330  -0.722  -0.546  0.00  0.00     0.002 A 
ATOM      6  C8  UNL d   1       1.555  -0.256  -1.024  0.00  0.00     0.002 A 
ENDROOT
BRANCH   1   7
ATOM      7  C2  UNL d   1       3.833  -0.642  -2.046  0.00  0.00     0.056 C 
BRANCH   7   8
ATOM      8  C1  UNL d   1       4.065   0.854  -1.812  0.00  0.00     0.007 C 
ATOM      9  C   UNL d   1       5.511   1.192  -1.472  0.00  0.00     0.009 C 
ENDBRANCH   7   8
ENDBRANCH   1   7
TORSDOF 2
ENDMDL
