MODEL 1
REMARK minimizedAffinity -2.35955167
REMARK minimizedRMSD -1
REMARK  2 active torsions:
REMARK  status: ('A' for Active; 'I' for Inactive)
REMARK    1  A    between atoms: C1_2  and  C2_3 
REMARK    2  A    between atoms: C2_3  and  C3_4 
ROOT
ATOM      1  C3  UNL d   1       1.461   0.161  -0.388  0.00  0.00    -0.075 A 
ATOM      2  C4  UNL d   1       1.851  -1.183  -0.297  0.00  0.00     0.002 A 
ATOM      3  C5  UNL d   1       0.954  -2.203  -0.615  0.00  0.00     0.002 A 
ATOM      4  C6  UNL d   1      -0.343  -1.895  -1.017  0.00  0.00    -0.004 A 
ATOM      5  C7  UNL d   1      -0.747  -0.563  -1.095  0.00  0.00     0.002 A 
ATOM      6  C8  UNL d   1       0.149   0.460  -0.781  0.00  0.00     0.002 A 
ENDROOT
BRANCH   1   7
ATOM      7  C2  UNL d   1       2.435   1.272  -0.073  0.00  0.00     0.056 C 
BRANCH   7   8
ATOM      8  C1  UNL d   1       3.748   1.190  -0.859  0.00  0.00     0.007 C 
ATOM      9  C   UNL d   1       4.519   2.503  -0.877  0.00  0.00     0.009 C 
ENDBRANCH   7   8
ENDBRANCH   1   7
TORSDOF 2
ENDMDL
