MODEL 1
REMARK minimizedAffinity -1.95625579
REMARK minimizedRMSD -1
REMARK  1 active torsions:
REMARK  status: ('A' for Active; 'I' for Inactive)
REMARK    1  A    between atoms: C3_4  and  O_7 
ROOT
ATOM      1  C   UNL d   1       3.116  -3.235  -4.009  0.00  0.00    -0.033 A 
ATOM      2  C1  UNL d   1       2.187  -2.709  -3.109  0.00  0.00     0.039 A 
ATOM      3  C2  UNL d   1       2.308  -2.973  -1.744  0.00  0.00    -0.080 A 
ATOM      4  C3  UNL d   1       3.361  -3.763  -1.291  0.00  0.00     0.150 A 
ATOM      5  C4  UNL d   1       4.292  -4.287  -2.181  0.00  0.00    -0.007 A 
ATOM      6  C5  UNL d   1       4.169  -4.023  -3.545  0.00  0.00     0.039 A 
ENDROOT
BRANCH   4   7
ATOM      7  O   UNL d   1       3.517  -4.052   0.032  0.00  0.00    -0.526 OA
ATOM      8  H5  UNL d   1       2.784  -3.647   0.524  0.00  0.00     0.418 HD
ENDBRANCH   4   7
TORSDOF 1
ENDMDL
