MODEL 1
REMARK minimizedAffinity 4.21723032
REMARK minimizedRMSD -1
REMARK  1 active torsions:
REMARK  status: ('A' for Active; 'I' for Inactive)
REMARK    1  A    between atoms: C3_4  and  O_7 
ROOT
ATOM      1  C   UNL d   1       2.948  -4.556  -3.797  0.00  0.00    -0.033 A 
ATOM      2  C1  UNL d   1       4.110  -5.106  -3.253  0.00  0.00     0.039 A 
ATOM      3  C2  UNL d   1       4.336  -5.041  -1.876  0.00  0.00    -0.080 A 
ATOM      4  C3  UNL d   1       3.394  -4.425  -1.057  0.00  0.00     0.150 A 
ATOM      5  C4  UNL d   1       2.233  -3.878  -1.593  0.00  0.00    -0.007 A 
ATOM      6  C5  UNL d   1       2.008  -3.944  -2.967  0.00  0.00     0.039 A 
ENDROOT
BRANCH   4   7
ATOM      7  O   UNL d   1       3.574  -4.332   0.291  0.00  0.00    -0.526 OA
ATOM      8  H5  UNL d   1       4.433  -4.727   0.515  0.00  0.00     0.418 HD
ENDBRANCH   4   7
TORSDOF 1
ENDMDL
