MODEL 1
REMARK minimizedAffinity 2.29932094
REMARK minimizedRMSD -1
REMARK  1 active torsions:
REMARK  status: ('A' for Active; 'I' for Inactive)
REMARK    1  A    between atoms: C3_4  and  O_7 
ROOT
ATOM      1  C   UNL d   1       2.957  -4.101  -4.218  0.00  0.00    -0.033 A 
ATOM      2  C1  UNL d   1       4.257  -4.610  -4.192  0.00  0.00     0.039 A 
ATOM      3  C2  UNL d   1       4.815  -5.044  -2.988  0.00  0.00    -0.080 A 
ATOM      4  C3  UNL d   1       4.063  -4.965  -1.819  0.00  0.00     0.150 A 
ATOM      5  C4  UNL d   1       2.766  -4.462  -1.839  0.00  0.00    -0.007 A 
ATOM      6  C5  UNL d   1       2.211  -4.028  -3.042  0.00  0.00     0.039 A 
ENDROOT
BRANCH   4   7
ATOM      7  O   UNL d   1       4.566  -5.372  -0.619  0.00  0.00    -0.526 OA
ATOM      8  H5  UNL d   1       5.482  -5.668  -0.754  0.00  0.00     0.418 HD
ENDBRANCH   4   7
TORSDOF 1
ENDMDL
