MODEL 1
REMARK minimizedAffinity -1.26888883
REMARK minimizedRMSD -1
REMARK  1 active torsions:
REMARK  status: ('A' for Active; 'I' for Inactive)
REMARK    1  A    between atoms: C3_4  and  O_7 
ROOT
ATOM      1  C   UNL d   1       2.450  -3.713  -2.267  0.00  0.00    -0.033 A 
ATOM      2  C1  UNL d   1       3.368  -4.424  -3.044  0.00  0.00     0.039 A 
ATOM      3  C2  UNL d   1       4.568  -4.863  -2.483  0.00  0.00    -0.080 A 
ATOM      4  C3  UNL d   1       4.839  -4.587  -1.145  0.00  0.00     0.150 A 
ATOM      5  C4  UNL d   1       3.928  -3.883  -0.365  0.00  0.00    -0.007 A 
ATOM      6  C5  UNL d   1       2.730  -3.444  -0.927  0.00  0.00     0.039 A 
ENDROOT
BRANCH   4   7
ATOM      7  O   UNL d   1       5.999  -4.991  -0.555  0.00  0.00    -0.526 OA
ATOM      8  H5  UNL d   1       6.544  -5.440  -1.222  0.00  0.00     0.418 HD
ENDBRANCH   4   7
TORSDOF 1
ENDMDL
