MODEL 1
REMARK minimizedAffinity -1.75931466
REMARK minimizedRMSD -1
REMARK  1 active torsions:
REMARK  status: ('A' for Active; 'I' for Inactive)
REMARK    1  A    between atoms: C3_4  and  O_7 
ROOT
ATOM      1  C   UNL d   1       2.601  -2.967  -3.222  0.00  0.00    -0.033 A 
ATOM      2  C1  UNL d   1       2.185  -2.545  -1.958  0.00  0.00     0.039 A 
ATOM      3  C2  UNL d   1       2.806  -3.049  -0.813  0.00  0.00    -0.080 A 
ATOM      4  C3  UNL d   1       3.840  -3.971  -0.946  0.00  0.00     0.150 A 
ATOM      5  C4  UNL d   1       4.262  -4.393  -2.203  0.00  0.00    -0.007 A 
ATOM      6  C5  UNL d   1       3.640  -3.889  -3.345  0.00  0.00     0.039 A 
ENDROOT
BRANCH   4   7
ATOM      7  O   UNL d   1       4.472  -4.494   0.142  0.00  0.00    -0.526 OA
ATOM      8  H5  UNL d   1       4.056  -4.134   0.943  0.00  0.00     0.418 HD
ENDBRANCH   4   7
TORSDOF 1
ENDMDL
