MODEL 1
REMARK minimizedAffinity 8.8768692
REMARK minimizedRMSD -1
REMARK  1 active torsions:
REMARK  status: ('A' for Active; 'I' for Inactive)
REMARK    1  A    between atoms: C3_4  and  O_7 
ROOT
ATOM      1  C   UNL d   1      -5.444  -2.994   3.015  0.00  0.00    -0.033 A 
ATOM      2  C1  UNL d   1      -5.999  -3.693   4.089  0.00  0.00     0.039 A 
ATOM      3  C2  UNL d   1      -5.220  -4.599   4.811  0.00  0.00    -0.080 A 
ATOM      4  C3  UNL d   1      -3.889  -4.795   4.452  0.00  0.00     0.150 A 
ATOM      5  C4  UNL d   1      -3.329  -4.099   3.386  0.00  0.00    -0.007 A 
ATOM      6  C5  UNL d   1      -4.109  -3.196   2.664  0.00  0.00     0.039 A 
ENDROOT
BRANCH   4   7
ATOM      7  O   UNL d   1      -3.091  -5.672   5.124  0.00  0.00    -0.526 OA
ATOM      8  H5  UNL d   1      -3.621  -6.101   5.817  0.00  0.00     0.418 HD
ENDBRANCH   4   7
TORSDOF 1
ENDMDL
