MODEL 1
REMARK minimizedAffinity 3.31605911
REMARK minimizedRMSD -1
REMARK  1 active torsions:
REMARK  status: ('A' for Active; 'I' for Inactive)
REMARK    1  A    between atoms: C3_4  and  O_7 
ROOT
ATOM      1  C   UNL d   1       2.381  -4.096  -1.613  0.00  0.00    -0.033 A 
ATOM      2  C1  UNL d   1       3.560  -4.838  -1.710  0.00  0.00     0.039 A 
ATOM      3  C2  UNL d   1       4.319  -4.795  -2.881  0.00  0.00    -0.080 A 
ATOM      4  C3  UNL d   1       3.890  -4.007  -3.945  0.00  0.00     0.150 A 
ATOM      5  C4  UNL d   1       2.718  -3.262  -3.854  0.00  0.00    -0.007 A 
ATOM      6  C5  UNL d   1       1.961  -3.307  -2.684  0.00  0.00     0.039 A 
ENDROOT
BRANCH   4   7
ATOM      7  O   UNL d   1       4.595  -3.937  -5.110  0.00  0.00    -0.526 OA
ATOM      8  H5  UNL d   1       5.365  -4.525  -5.040  0.00  0.00     0.418 HD
ENDBRANCH   4   7
TORSDOF 1
ENDMDL
