MODEL 1
REMARK minimizedAffinity -1.64664209
REMARK minimizedRMSD -1
REMARK  1 active torsions:
REMARK  status: ('A' for Active; 'I' for Inactive)
REMARK    1  A    between atoms: C3_4  and  O_7 
ROOT
ATOM      1  C   UNL d   1      -4.505  -2.161   3.606  0.00  0.00    -0.033 A 
ATOM      2  C1  UNL d   1      -5.484  -1.938   2.636  0.00  0.00     0.039 A 
ATOM      3  C2  UNL d   1      -6.000  -3.008   1.902  0.00  0.00    -0.080 A 
ATOM      4  C3  UNL d   1      -5.530  -4.295   2.149  0.00  0.00     0.150 A 
ATOM      5  C4  UNL d   1      -4.558  -4.525   3.117  0.00  0.00    -0.007 A 
ATOM      6  C5  UNL d   1      -4.043  -3.455   3.848  0.00  0.00     0.039 A 
ENDROOT
BRANCH   4   7
ATOM      7  O   UNL d   1      -6.000  -5.370   1.455  0.00  0.00    -0.526 OA
ATOM      8  H5  UNL d   1      -6.646  -5.056   0.801  0.00  0.00     0.418 HD
ENDBRANCH   4   7
TORSDOF 1
ENDMDL
