MODEL 1
REMARK minimizedAffinity 0.627599716
REMARK minimizedRMSD -1
REMARK  1 active torsions:
REMARK  status: ('A' for Active; 'I' for Inactive)
REMARK    1  A    between atoms: C3_4  and  O_7 
ROOT
ATOM      1  C   UNL d   1       2.948  -3.850  -3.414  0.00  0.00    -0.033 A 
ATOM      2  C1  UNL d   1       2.179  -3.429  -2.327  0.00  0.00     0.039 A 
ATOM      3  C2  UNL d   1       2.516  -3.832  -1.033  0.00  0.00    -0.080 A 
ATOM      4  C3  UNL d   1       3.623  -4.653  -0.840  0.00  0.00     0.150 A 
ATOM      5  C4  UNL d   1       4.397  -5.073  -1.918  0.00  0.00    -0.007 A 
ATOM      6  C5  UNL d   1       4.058  -4.670  -3.209  0.00  0.00     0.039 A 
ENDROOT
BRANCH   4   7
ATOM      7  O   UNL d   1       3.989  -5.076   0.403  0.00  0.00    -0.526 OA
ATOM      8  H5  UNL d   1       3.347  -4.732   1.046  0.00  0.00     0.418 HD
ENDBRANCH   4   7
TORSDOF 1
ENDMDL
