MODEL 1
REMARK minimizedAffinity -1.23045945
REMARK minimizedRMSD -1
REMARK  1 active torsions:
REMARK  status: ('A' for Active; 'I' for Inactive)
REMARK    1  A    between atoms: C3_4  and  O_7 
ROOT
ATOM      1  C   UNL d   1       3.308  -4.015  -4.211  0.00  0.00    -0.033 A 
ATOM      2  C1  UNL d   1       4.482  -4.710  -3.915  0.00  0.00     0.039 A 
ATOM      3  C2  UNL d   1       4.800  -5.016  -2.590  0.00  0.00    -0.080 A 
ATOM      4  C3  UNL d   1       3.936  -4.622  -1.572  0.00  0.00     0.150 A 
ATOM      5  C4  UNL d   1       2.762  -3.933  -1.860  0.00  0.00    -0.007 A 
ATOM      6  C5  UNL d   1       2.447  -3.627  -3.183  0.00  0.00     0.039 A 
ENDROOT
BRANCH   4   7
ATOM      7  O   UNL d   1       4.206  -4.894  -0.264  0.00  0.00    -0.526 OA
ATOM      8  H5  UNL d   1       5.063  -5.349  -0.215  0.00  0.00     0.418 HD
ENDBRANCH   4   7
TORSDOF 1
ENDMDL
