MODEL 1
REMARK minimizedAffinity 0.933717489
REMARK minimizedRMSD -1
REMARK  1 active torsions:
REMARK  status: ('A' for Active; 'I' for Inactive)
REMARK    1  A    between atoms: C3_4  and  O_7 
ROOT
ATOM      1  C   UNL d   1      -4.572  -3.749   4.848  0.00  0.00    -0.033 A 
ATOM      2  C1  UNL d   1      -4.080  -4.887   4.207  0.00  0.00     0.039 A 
ATOM      3  C2  UNL d   1      -4.550  -5.233   2.938  0.00  0.00    -0.080 A 
ATOM      4  C3  UNL d   1      -5.508  -4.433   2.322  0.00  0.00     0.150 A 
ATOM      5  C4  UNL d   1      -5.999  -3.295   2.954  0.00  0.00    -0.007 A 
ATOM      6  C5  UNL d   1      -5.530  -2.952   4.221  0.00  0.00     0.039 A 
ENDROOT
BRANCH   4   7
ATOM      7  O   UNL d   1      -6.000  -4.733   1.087  0.00  0.00    -0.526 OA
ATOM      8  H5  UNL d   1      -5.590  -5.561   0.785  0.00  0.00     0.418 HD
ENDBRANCH   4   7
TORSDOF 1
ENDMDL
