MODEL 1
REMARK minimizedAffinity -3.53830457
REMARK minimizedRMSD -1
REMARK  1 active torsions:
REMARK  status: ('A' for Active; 'I' for Inactive)
REMARK    1  A    between atoms: C3_4  and  O_7 
ROOT
ATOM      1  C   UNL d   1       2.810  -3.634  -3.588  0.00  0.00    -0.033 A 
ATOM      2  C1  UNL d   1       4.049  -4.257  -3.429  0.00  0.00     0.039 A 
ATOM      3  C2  UNL d   1       4.522  -4.559  -2.151  0.00  0.00    -0.080 A 
ATOM      4  C3  UNL d   1       3.747  -4.234  -1.041  0.00  0.00     0.150 A 
ATOM      5  C4  UNL d   1       2.510  -3.616  -1.192  0.00  0.00    -0.007 A 
ATOM      6  C5  UNL d   1       2.040  -3.314  -2.469  0.00  0.00     0.039 A 
ENDROOT
BRANCH   4   7
ATOM      7  O   UNL d   1       4.169  -4.504   0.227  0.00  0.00    -0.526 OA
ATOM      8  H5  UNL d   1       5.053  -4.906   0.178  0.00  0.00     0.418 HD
ENDBRANCH   4   7
TORSDOF 1
ENDMDL
