MODEL 1
REMARK minimizedAffinity 2.56193805
REMARK minimizedRMSD -1
REMARK  1 active torsions:
REMARK  status: ('A' for Active; 'I' for Inactive)
REMARK    1  A    between atoms: C3_4  and  O_7 
ROOT
ATOM      1  C   UNL d   1       2.599  -4.258  -4.045  0.00  0.00    -0.033 A 
ATOM      2  C1  UNL d   1       3.915  -4.711  -3.933  0.00  0.00     0.039 A 
ATOM      3  C2  UNL d   1       4.426  -5.074  -2.685  0.00  0.00    -0.080 A 
ATOM      4  C3  UNL d   1       3.611  -4.982  -1.560  0.00  0.00     0.150 A 
ATOM      5  C4  UNL d   1       2.298  -4.535  -1.666  0.00  0.00    -0.007 A 
ATOM      6  C5  UNL d   1       1.790  -4.172  -2.912  0.00  0.00     0.039 A 
ENDROOT
BRANCH   4   7
ATOM      7  O   UNL d   1       4.067  -5.321  -0.320  0.00  0.00    -0.526 OA
ATOM      8  H5  UNL d   1       4.999  -5.583  -0.397  0.00  0.00     0.418 HD
ENDBRANCH   4   7
TORSDOF 1
ENDMDL
