MODEL 1
REMARK minimizedAffinity 12.7906475
REMARK minimizedRMSD -1
REMARK  1 active torsions:
REMARK  status: ('A' for Active; 'I' for Inactive)
REMARK    1  A    between atoms: C3_4  and  O_7 
ROOT
ATOM      1  C   UNL d   1       0.526   5.872   0.480  0.00  0.00    -0.033 A 
ATOM      2  C1  UNL d   1       0.795   4.690   1.172  0.00  0.00     0.039 A 
ATOM      3  C2  UNL d   1       1.431   3.629   0.524  0.00  0.00    -0.080 A 
ATOM      4  C3  UNL d   1       1.793   3.764  -0.814  0.00  0.00     0.150 A 
ATOM      5  C4  UNL d   1       1.531   4.941  -1.508  0.00  0.00    -0.007 A 
ATOM      6  C5  UNL d   1       0.895   5.998  -0.859  0.00  0.00     0.039 A 
ENDROOT
BRANCH   4   7
ATOM      7  O   UNL d   1       2.411   2.755  -1.490  0.00  0.00    -0.526 OA
ATOM      8  H5  UNL d   1       2.502   1.994  -0.892  0.00  0.00     0.418 HD
ENDBRANCH   4   7
TORSDOF 1
ENDMDL
