MODEL 1
REMARK minimizedAffinity 8.64584351
REMARK minimizedRMSD -1
REMARK  1 active torsions:
REMARK  status: ('A' for Active; 'I' for Inactive)
REMARK    1  A    between atoms: C3_4  and  O_7 
ROOT
ATOM      1  C   UNL d   1      -3.217  -4.860  -5.980  0.00  0.00    -0.033 A 
ATOM      2  C1  UNL d   1      -2.696  -3.564  -5.990  0.00  0.00     0.039 A 
ATOM      3  C2  UNL d   1      -3.556  -2.464  -5.995  0.00  0.00    -0.080 A 
ATOM      4  C3  UNL d   1      -4.932  -2.673  -5.989  0.00  0.00     0.150 A 
ATOM      5  C4  UNL d   1      -5.458  -3.960  -5.975  0.00  0.00    -0.007 A 
ATOM      6  C5  UNL d   1      -4.598  -5.058  -5.971  0.00  0.00     0.039 A 
ENDROOT
BRANCH   4   7
ATOM      7  O   UNL d   1      -5.811  -1.630  -5.999  0.00  0.00    -0.526 OA
ATOM      8  H5  UNL d   1      -5.305  -0.802  -6.037  0.00  0.00     0.418 HD
ENDBRANCH   4   7
TORSDOF 1
ENDMDL
