MODEL 1
REMARK minimizedAffinity 14.9984417
REMARK minimizedRMSD -1
REMARK  1 active torsions:
REMARK  status: ('A' for Active; 'I' for Inactive)
REMARK    1  A    between atoms: C3_4  and  O_7 
ROOT
ATOM      1  C   UNL d   1      -3.057   0.297   4.970  0.00  0.00    -0.033 A 
ATOM      2  C1  UNL d   1      -3.423   1.166   6.000  0.00  0.00     0.039 A 
ATOM      3  C2  UNL d   1      -4.352   2.181   5.762  0.00  0.00    -0.080 A 
ATOM      4  C3  UNL d   1      -4.906   2.316   4.492  0.00  0.00     0.150 A 
ATOM      5  C4  UNL d   1      -4.549   1.452   3.463  0.00  0.00    -0.007 A 
ATOM      6  C5  UNL d   1      -3.621   0.439   3.702  0.00  0.00     0.039 A 
ENDROOT
BRANCH   4   7
ATOM      7  O   UNL d   1      -5.813   3.295   4.211  0.00  0.00    -0.526 OA
ATOM      8  H5  UNL d   1      -5.942   3.833   5.010  0.00  0.00     0.418 HD
ENDBRANCH   4   7
TORSDOF 1
ENDMDL
