MODEL 1
REMARK minimizedAffinity 5.94741869
REMARK minimizedRMSD -1
REMARK  0 active torsions:
REMARK  status: ('A' for Active; 'I' for Inactive)
ROOT
ATOM      1  C   UNL d   1      -3.235   0.897  -5.932  0.00  0.00     0.077 C 
ATOM      2  C1  UNL d   1      -3.180   0.516  -4.483  0.00  0.00    -0.074 A 
ATOM      3  C2  UNL d   1      -4.246  -0.155  -3.875  0.00  0.00    -0.005 A 
ATOM      4  C3  UNL d   1      -4.176  -0.512  -2.528  0.00  0.00     0.006 A 
ATOM      5  C4  UNL d   1      -3.042  -0.202  -1.777  0.00  0.00    -0.005 A 
ATOM      6  C5  UNL d   1      -1.966   0.468  -2.368  0.00  0.00    -0.074 A 
ATOM      7  C6  UNL d   1      -0.735   0.800  -1.577  0.00  0.00     0.077 C 
ATOM      8  C7  UNL d   1      -2.041   0.817  -3.723  0.00  0.00    -0.001 A 
ENDROOT
TORSDOF 0
ENDMDL
