MODEL 1
REMARK minimizedAffinity 6.46918344
REMARK minimizedRMSD -1
REMARK  0 active torsions:
REMARK  status: ('A' for Active; 'I' for Inactive)
ROOT
ATOM      1  C   UNL d   1       4.411   1.019  -0.271  0.00  0.00     0.077 C 
ATOM      2  C1  UNL d   1       4.031  -0.170  -1.102  0.00  0.00    -0.074 A 
ATOM      3  C2  UNL d   1       4.553  -0.345  -2.388  0.00  0.00    -0.005 A 
ATOM      4  C3  UNL d   1       4.197  -1.461  -3.145  0.00  0.00     0.006 A 
ATOM      5  C4  UNL d   1       3.318  -2.412  -2.625  0.00  0.00    -0.005 A 
ATOM      6  C5  UNL d   1       2.787  -2.254  -1.341  0.00  0.00    -0.074 A 
ATOM      7  C6  UNL d   1       1.849  -3.272  -0.763  0.00  0.00     0.077 C 
ATOM      8  C7  UNL d   1       3.155  -1.134  -0.583  0.00  0.00    -0.001 A 
ENDROOT
TORSDOF 0
ENDMDL
