MODEL 1
REMARK minimizedAffinity 5.24131966
REMARK minimizedRMSD -1
REMARK  0 active torsions:
REMARK  status: ('A' for Active; 'I' for Inactive)
ROOT
ATOM      1  C   UNL d   1       2.742  -1.888  -1.116  0.00  0.00     0.077 C 
ATOM      2  C1  UNL d   1       3.854  -0.945  -0.764  0.00  0.00    -0.074 A 
ATOM      3  C2  UNL d   1       4.969  -1.385  -0.044  0.00  0.00    -0.005 A 
ATOM      4  C3  UNL d   1       6.000  -0.499   0.267  0.00  0.00     0.006 A 
ATOM      5  C4  UNL d   1       5.926   0.835  -0.138  0.00  0.00    -0.005 A 
ATOM      6  C5  UNL d   1       4.819   1.293  -0.859  0.00  0.00    -0.074 A 
ATOM      7  C6  UNL d   1       4.728   2.720  -1.310  0.00  0.00     0.077 C 
ATOM      8  C7  UNL d   1       3.791   0.394  -1.174  0.00  0.00    -0.001 A 
ENDROOT
TORSDOF 0
ENDMDL
