MODEL 1
REMARK minimizedAffinity 4.28852606
REMARK minimizedRMSD -1
REMARK  0 active torsions:
REMARK  status: ('A' for Active; 'I' for Inactive)
ROOT
ATOM      1  C   UNL d   1       5.996   2.113  -1.493  0.00  0.00     0.077 C 
ATOM      2  C1  UNL d   1       5.264   0.916  -0.964  0.00  0.00    -0.074 A 
ATOM      3  C2  UNL d   1       3.924   0.690  -1.293  0.00  0.00    -0.005 A 
ATOM      4  C3  UNL d   1       3.258  -0.433  -0.801  0.00  0.00     0.006 A 
ATOM      5  C4  UNL d   1       3.925  -1.339   0.024  0.00  0.00    -0.005 A 
ATOM      6  C5  UNL d   1       5.265  -1.130   0.364  0.00  0.00    -0.074 A 
ATOM      7  C6  UNL d   1       6.000  -2.099   1.242  0.00  0.00     0.077 C 
ATOM      8  C7  UNL d   1       5.929  -0.003  -0.140  0.00  0.00    -0.001 A 
ENDROOT
TORSDOF 0
ENDMDL
