MODEL 1
REMARK minimizedAffinity 12.7176008
REMARK minimizedRMSD -1
REMARK  0 active torsions:
REMARK  status: ('A' for Active; 'I' for Inactive)
ROOT
ATOM      1  C   UNL d   1      -2.673   1.931  -6.000  0.00  0.00     0.077 C 
ATOM      2  C1  UNL d   1      -2.613   1.139  -4.728  0.00  0.00    -0.074 A 
ATOM      3  C2  UNL d   1      -3.685   0.332  -4.332  0.00  0.00    -0.005 A 
ATOM      4  C3  UNL d   1      -3.610  -0.407  -3.152  0.00  0.00     0.006 A 
ATOM      5  C4  UNL d   1      -2.466  -0.346  -2.356  0.00  0.00    -0.005 A 
ATOM      6  C5  UNL d   1      -1.384   0.454  -2.736  0.00  0.00    -0.074 A 
ATOM      7  C6  UNL d   1      -0.142   0.523  -1.897  0.00  0.00     0.077 C 
ATOM      8  C7  UNL d   1      -1.463   1.188  -3.927  0.00  0.00    -0.001 A 
ENDROOT
TORSDOF 0
ENDMDL
