MODEL 1
REMARK minimizedAffinity 11.1454239
REMARK minimizedRMSD -1
REMARK  0 active torsions:
REMARK  status: ('A' for Active; 'I' for Inactive)
ROOT
ATOM      1  C   UNL d   1       0.029   4.703   1.550  0.00  0.00     0.077 C 
ATOM      2  C1  UNL d   1      -0.729   3.414   1.447  0.00  0.00    -0.074 A 
ATOM      3  C2  UNL d   1      -0.111   2.251   0.976  0.00  0.00    -0.005 A 
ATOM      4  C3  UNL d   1      -0.827   1.057   0.894  0.00  0.00     0.006 A 
ATOM      5  C4  UNL d   1      -2.166   1.013   1.282  0.00  0.00    -0.005 A 
ATOM      6  C5  UNL d   1      -2.802   2.166   1.756  0.00  0.00    -0.074 A 
ATOM      7  C6  UNL d   1      -4.238   2.133   2.186  0.00  0.00     0.077 C 
ATOM      8  C7  UNL d   1      -2.074   3.360   1.842  0.00  0.00    -0.001 A 
ENDROOT
TORSDOF 0
ENDMDL
