MODEL 1
REMARK minimizedAffinity -4.92161798
REMARK minimizedRMSD -1
REMARK  3 active torsions:
REMARK  status: ('A' for Active; 'I' for Inactive)
REMARK    1  A    between atoms: C3'_2  and  C2'_3 
REMARK    2  A    between atoms: C2'_3  and  C1'_4 
REMARK    3  A    between atoms: C1'_4  and  C1_5 
ROOT
ATOM      1  C1  N4B d   1      -0.570  -0.129  -0.165  0.00  0.00    -0.075 A 
ATOM      2  C2  N4B d   1       0.798  -0.480  -0.131  0.00  0.00     0.002 A 
ATOM      3  C3  N4B d   1       1.386  -0.831   1.059  0.00  0.00     0.002 A 
ATOM      4  C4  N4B d   1       0.636  -0.820   2.225  0.00  0.00    -0.004 A 
ATOM      5  C5  N4B d   1      -0.691  -0.505   2.179  0.00  0.00     0.002 A 
ATOM      6  C6  N4B d   1      -1.297  -0.153   0.990  0.00  0.00     0.002 A 
ENDROOT
BRANCH   1   7
ATOM      7  C1' N4B d   1      -1.237   0.345  -1.428  0.00  0.00     0.057 C 
BRANCH   7   8
ATOM      8  C2' N4B d   1      -0.485   1.560  -1.965  0.00  0.00     0.009 C 
BRANCH   8   9
ATOM      9  C3' N4B d   1      -1.419   2.720  -2.261  0.00  0.00     0.004 C 
ATOM     10  C4' N4B d   1      -0.706   3.907  -2.837  0.00  0.00     0.003 C 
ENDBRANCH   8   9
ENDBRANCH   7   8
ENDBRANCH   1   7
TORSDOF 3
ENDMDL
