MODEL 1
REMARK minimizedAffinity -4.22608519
REMARK minimizedRMSD -1
REMARK  3 active torsions:
REMARK  status: ('A' for Active; 'I' for Inactive)
REMARK    1  A    between atoms: C3'_2  and  C2'_3 
REMARK    2  A    between atoms: C2'_3  and  C1'_4 
REMARK    3  A    between atoms: C1'_4  and  C1_5 
ROOT
ATOM      1  C1  N4B d   1      -0.474   1.193  -1.982  0.00  0.00    -0.075 A 
ATOM      2  C2  N4B d   1      -1.686   1.851  -2.286  0.00  0.00     0.002 A 
ATOM      3  C3  N4B d   1      -1.706   3.216  -2.437  0.00  0.00     0.002 A 
ATOM      4  C4  N4B d   1      -0.536   3.942  -2.272  0.00  0.00    -0.004 A 
ATOM      5  C5  N4B d   1       0.635   3.296  -2.003  0.00  0.00     0.002 A 
ATOM      6  C6  N4B d   1       0.671   1.924  -1.853  0.00  0.00     0.002 A 
ENDROOT
BRANCH   1   7
ATOM      7  C1' N4B d   1      -0.418  -0.288  -1.723  0.00  0.00     0.057 C 
BRANCH   7   8
ATOM      8  C2' N4B d   1       0.340  -0.541  -0.423  0.00  0.00     0.009 C 
BRANCH   8   9
ATOM      9  C3' N4B d   1       1.578  -1.392  -0.645  0.00  0.00     0.004 C 
ATOM     10  C4' N4B d   1       1.963  -1.494  -2.091  0.00  0.00     0.003 C 
ENDBRANCH   8   9
ENDBRANCH   7   8
ENDBRANCH   1   7
TORSDOF 3
ENDMDL
