MODEL 1
REMARK minimizedAffinity -5.56145954
REMARK minimizedRMSD -1
REMARK  3 active torsions:
REMARK  status: ('A' for Active; 'I' for Inactive)
REMARK    1  A    between atoms: C3'_2  and  C2'_3 
REMARK    2  A    between atoms: C2'_3  and  C1'_4 
REMARK    3  A    between atoms: C1'_4  and  C1_5 
ROOT
ATOM      1  C1  N4B d   1       0.205  -0.223   0.160  0.00  0.00    -0.075 A 
ATOM      2  C2  N4B d   1       1.437  -0.895  -0.004  0.00  0.00     0.002 A 
ATOM      3  C3  N4B d   1       2.024  -1.523   1.068  0.00  0.00     0.002 A 
ATOM      4  C4  N4B d   1       1.410  -1.476   2.311  0.00  0.00    -0.004 A 
ATOM      5  C5  N4B d   1       0.208  -0.847   2.454  0.00  0.00     0.002 A 
ATOM      6  C6  N4B d   1      -0.395  -0.215   1.385  0.00  0.00     0.002 A 
ENDROOT
BRANCH   1   7
ATOM      7  C1' N4B d   1      -0.432   0.550  -0.962  0.00  0.00     0.057 C 
BRANCH   7   8
ATOM      8  C2' N4B d   1      -0.107   2.031  -0.797  0.00  0.00     0.009 C 
BRANCH   8   9
ATOM      9  C3' N4B d   1      -0.293   2.802  -2.093  0.00  0.00     0.004 C 
ATOM     10  C4' N4B d   1      -1.708   2.773  -2.588  0.00  0.00     0.003 C 
ENDBRANCH   8   9
ENDBRANCH   7   8
ENDBRANCH   1   7
TORSDOF 3
ENDMDL
