MODEL 1
REMARK minimizedAffinity -3.1198771
REMARK minimizedRMSD -1
REMARK  3 active torsions:
REMARK  status: ('A' for Active; 'I' for Inactive)
REMARK    1  A    between atoms: C3'_2  and  C2'_3 
REMARK    2  A    between atoms: C2'_3  and  C1'_4 
REMARK    3  A    between atoms: C1'_4  and  C1_5 
ROOT
ATOM      1  C1  N4B d   1      -0.903   1.190  -1.525  0.00  0.00    -0.075 A 
ATOM      2  C2  N4B d   1      -0.081   2.329  -1.383  0.00  0.00     0.002 A 
ATOM      3  C3  N4B d   1      -0.372   3.477  -2.078  0.00  0.00     0.002 A 
ATOM      4  C4  N4B d   1      -1.465   3.504  -2.931  0.00  0.00    -0.004 A 
ATOM      5  C5  N4B d   1      -2.269   2.407  -3.043  0.00  0.00     0.002 A 
ATOM      6  C6  N4B d   1      -1.991   1.248  -2.347  0.00  0.00     0.002 A 
ENDROOT
BRANCH   1   7
ATOM      7  C1' N4B d   1      -0.575  -0.114  -0.852  0.00  0.00     0.057 C 
BRANCH   7   8
ATOM      8  C2' N4B d   1      -1.500  -0.306   0.347  0.00  0.00     0.009 C 
BRANCH   8   9
ATOM      9  C3' N4B d   1      -0.844   0.129   1.646  0.00  0.00     0.004 C 
ATOM     10  C4' N4B d   1       0.210  -0.830   2.114  0.00  0.00     0.003 C 
ENDBRANCH   8   9
ENDBRANCH   7   8
ENDBRANCH   1   7
TORSDOF 3
ENDMDL
