MODEL 1
REMARK minimizedAffinity -3.74353123
REMARK minimizedRMSD -1
REMARK  3 active torsions:
REMARK  status: ('A' for Active; 'I' for Inactive)
REMARK    1  A    between atoms: C3'_2  and  C2'_3 
REMARK    2  A    between atoms: C2'_3  and  C1'_4 
REMARK    3  A    between atoms: C1'_4  and  C1_5 
ROOT
ATOM      1  C1  N4B d   1      -0.108  -0.333  -0.413  0.00  0.00    -0.075 A 
ATOM      2  C2  N4B d   1      -0.525  -0.196   0.930  0.00  0.00     0.002 A 
ATOM      3  C3  N4B d   1       0.058  -0.960   1.911  0.00  0.00     0.002 A 
ATOM      4  C4  N4B d   1       1.042  -1.877   1.572  0.00  0.00    -0.004 A 
ATOM      5  C5  N4B d   1       1.456  -1.985   0.277  0.00  0.00     0.002 A 
ATOM      6  C6  N4B d   1       0.882  -1.220  -0.719  0.00  0.00     0.002 A 
ENDROOT
BRANCH   1   7
ATOM      7  C1' N4B d   1      -0.776   0.419  -1.532  0.00  0.00     0.057 C 
BRANCH   7   8
ATOM      8  C2' N4B d   1      -0.083   1.767  -1.712  0.00  0.00     0.009 C 
BRANCH   8   9
ATOM      9  C3' N4B d   1      -0.709   2.582  -2.831  0.00  0.00     0.004 C 
ATOM     10  C4' N4B d   1      -1.263   3.892  -2.355  0.00  0.00     0.003 C 
ENDBRANCH   8   9
ENDBRANCH   7   8
ENDBRANCH   1   7
TORSDOF 3
ENDMDL
