MODEL 1
REMARK minimizedAffinity -3.42661595
REMARK minimizedRMSD -1
REMARK  1 active torsions:
REMARK  status: ('A' for Active; 'I' for Inactive)
REMARK    1  A    between atoms: N_2  and  C1_3 
ROOT
ATOM      1  C1  UNL d   1       0.856   0.319  -1.108  0.00  0.00     0.143 A 
ATOM      2  C2  UNL d   1       0.473   0.354  -2.454  0.00  0.00    -0.057 A 
ATOM      3  C3  UNL d   1       1.224   1.055  -3.404  0.00  0.00     0.033 A 
ATOM      4  C4  UNL d   1       2.360   1.761  -3.020  0.00  0.00    -0.042 A 
ATOM      5  C5  UNL d   1       2.745   1.761  -1.684  0.00  0.00     0.033 A 
ATOM      6  C6  UNL d   1       1.994   1.053  -0.740  0.00  0.00    -0.057 A 
ENDROOT
BRANCH   1   7
ATOM      7  N   UNL d   1       0.097  -0.279  -0.099  0.00  0.00    -0.732 N 
ATOM      8  C   UNL d   1      -1.133   0.332   0.358  0.00  0.00     0.284 C 
ATOM      9  H3  UNL d   1       0.047  -1.290  -0.198  0.00  0.00     0.395 HD
ENDBRANCH   1   7
TORSDOF 1
ENDMDL
