MODEL 1
REMARK minimizedAffinity 4.73627615
REMARK minimizedRMSD -1
REMARK  1 active torsions:
REMARK  status: ('A' for Active; 'I' for Inactive)
REMARK    1  A    between atoms: N_2  and  C1_3 
ROOT
ATOM      1  C1  UNL d   1      -0.204  -0.672   1.151  0.00  0.00     0.143 A 
ATOM      2  C2  UNL d   1      -1.181   0.113   1.773  0.00  0.00    -0.057 A 
ATOM      3  C3  UNL d   1      -2.289   0.591   1.063  0.00  0.00     0.033 A 
ATOM      4  C4  UNL d   1      -2.426   0.315  -0.293  0.00  0.00    -0.042 A 
ATOM      5  C5  UNL d   1      -1.455  -0.442  -0.938  0.00  0.00     0.033 A 
ATOM      6  C6  UNL d   1      -0.354  -0.922  -0.223  0.00  0.00    -0.057 A 
ENDROOT
BRANCH   1   7
ATOM      7  N   UNL d   1       0.970  -1.094   1.778  0.00  0.00    -0.732 N 
ATOM      8  C   UNL d   1       2.257  -0.891   1.147  0.00  0.00     0.284 C 
ATOM      9  H3  UNL d   1       0.964  -0.910   2.778  0.00  0.00     0.395 HD
ENDBRANCH   1   7
TORSDOF 1
ENDMDL
