MODEL 1
REMARK minimizedAffinity -0.239221632
REMARK minimizedRMSD -1
REMARK  1 active torsions:
REMARK  status: ('A' for Active; 'I' for Inactive)
REMARK    1  A    between atoms: N_2  and  C1_3 
ROOT
ATOM      1  C1  UNL d   1      -1.245   0.256   0.980  0.00  0.00     0.143 A 
ATOM      2  C2  UNL d   1       0.153   0.212   1.035  0.00  0.00    -0.057 A 
ATOM      3  C3  UNL d   1       0.919   0.032  -0.123  0.00  0.00     0.033 A 
ATOM      4  C4  UNL d   1       0.298  -0.137  -1.357  0.00  0.00    -0.042 A 
ATOM      5  C5  UNL d   1      -1.090  -0.120  -1.431  0.00  0.00     0.033 A 
ATOM      6  C6  UNL d   1      -1.850   0.066  -0.272  0.00  0.00    -0.057 A 
ENDROOT
BRANCH   1   7
ATOM      7  N   UNL d   1      -2.065   0.334   2.108  0.00  0.00    -0.732 N 
ATOM      8  C   UNL d   1      -2.717  -0.849   2.628  0.00  0.00     0.284 C 
ATOM      9  H3  UNL d   1      -1.683   0.947   2.825  0.00  0.00     0.395 HD
ENDBRANCH   1   7
TORSDOF 1
ENDMDL
