MODEL 1
REMARK minimizedAffinity -3.69214082
REMARK minimizedRMSD -1
REMARK  1 active torsions:
REMARK  status: ('A' for Active; 'I' for Inactive)
REMARK    1  A    between atoms: N_2  and  C1_3 
ROOT
ATOM      1  C1  UNL d   1       0.262   0.627   1.090  0.00  0.00     0.143 A 
ATOM      2  C2  UNL d   1      -0.450  -0.156   0.176  0.00  0.00    -0.057 A 
ATOM      3  C3  UNL d   1      -1.837  -0.024   0.032  0.00  0.00     0.033 A 
ATOM      4  C4  UNL d   1      -2.542   0.877   0.824  0.00  0.00    -0.042 A 
ATOM      5  C5  UNL d   1      -1.857   1.648   1.757  0.00  0.00     0.033 A 
ATOM      6  C6  UNL d   1      -0.472   1.517   1.890  0.00  0.00    -0.057 A 
ENDROOT
BRANCH   1   7
ATOM      7  N   UNL d   1       1.626   0.474   1.348  0.00  0.00    -0.732 N 
ATOM      8  C   UNL d   1       2.097  -0.578   2.224  0.00  0.00     0.284 C 
ATOM      9  H3  UNL d   1       2.197   0.608   0.517  0.00  0.00     0.395 HD
ENDBRANCH   1   7
TORSDOF 1
ENDMDL
