MODEL 1
REMARK minimizedAffinity 4.19367981
REMARK minimizedRMSD -1
REMARK  0 active torsions:
REMARK  status: ('A' for Active; 'I' for Inactive)
ROOT
ATOM      1  C   UNL d   1      -1.371   1.538   1.873  0.00  0.00     0.172 C 
ATOM      2  N   UNL d   1      -2.632   0.859   1.687  0.00  0.00    -0.070 N 
ATOM      3  C1  UNL d   1      -2.839  -0.489   1.812  0.00  0.00    -0.004 A 
ATOM      4  C2  UNL d   1      -4.171  -0.736   1.558  0.00  0.00    -0.047 A 
ATOM      5  C3  UNL d   1      -4.785   0.506   1.270  0.00  0.00    -0.047 A 
ATOM      6  C4  UNL d   1      -3.810   1.476   1.357  0.00  0.00    -0.004 A 
ENDROOT
TORSDOF 0
ENDMDL
