MODEL 1
REMARK minimizedAffinity 3.87939167
REMARK minimizedRMSD -1
REMARK  0 active torsions:
REMARK  status: ('A' for Active; 'I' for Inactive)
ROOT
ATOM      1  C   UNL d   1       1.462   2.017   1.241  0.00  0.00     0.172 C 
ATOM      2  N   UNL d   1       2.290   2.419   2.354  0.00  0.00    -0.070 N 
ATOM      3  C1  UNL d   1       2.154   1.988   3.646  0.00  0.00    -0.004 A 
ATOM      4  C2  UNL d   1       3.131   2.601   4.401  0.00  0.00    -0.047 A 
ATOM      5  C3  UNL d   1       3.879   3.430   3.532  0.00  0.00    -0.047 A 
ATOM      6  C4  UNL d   1       3.337   3.298   2.271  0.00  0.00    -0.004 A 
ENDROOT
TORSDOF 0
ENDMDL
