MODEL 1
REMARK minimizedAffinity 5.06324625
REMARK minimizedRMSD -1
REMARK  0 active torsions:
REMARK  status: ('A' for Active; 'I' for Inactive)
ROOT
ATOM      1  C   UNL d   1       2.042  -5.995  -4.425  0.00  0.00     0.172 C 
ATOM      2  N   UNL d   1       1.828  -4.968  -3.432  0.00  0.00    -0.070 N 
ATOM      3  C1  UNL d   1       2.238  -5.022  -2.127  0.00  0.00    -0.004 A 
ATOM      4  C2  UNL d   1       1.845  -3.853  -1.512  0.00  0.00    -0.047 A 
ATOM      5  C3  UNL d   1       1.175  -3.070  -2.482  0.00  0.00    -0.047 A 
ATOM      6  C4  UNL d   1       1.179  -3.784  -3.661  0.00  0.00    -0.004 A 
ENDROOT
TORSDOF 0
ENDMDL
