MODEL 1
REMARK minimizedAffinity 1.25118876
REMARK minimizedRMSD -1
REMARK  0 active torsions:
REMARK  status: ('A' for Active; 'I' for Inactive)
ROOT
ATOM      1  C   UNL d   1       5.990  -0.521  -5.967  0.00  0.00     0.172 C 
ATOM      2  N   UNL d   1       5.993   0.610  -5.070  0.00  0.00    -0.070 N 
ATOM      3  C1  UNL d   1       5.997   0.545  -3.702  0.00  0.00    -0.004 A 
ATOM      4  C2  UNL d   1       6.000   1.835  -3.218  0.00  0.00    -0.047 A 
ATOM      5  C3  UNL d   1       5.997   2.706  -4.333  0.00  0.00    -0.047 A 
ATOM      6  C4  UNL d   1       5.993   1.922  -5.467  0.00  0.00    -0.004 A 
ENDROOT
TORSDOF 0
ENDMDL
