MODEL 1
REMARK minimizedAffinity 3.80504346
REMARK minimizedRMSD -1
REMARK  0 active torsions:
REMARK  status: ('A' for Active; 'I' for Inactive)
ROOT
ATOM      1  C   UNL d   1      -5.406  -5.999   2.654  0.00  0.00     0.172 C 
ATOM      2  N   UNL d   1      -3.982  -5.915   2.880  0.00  0.00    -0.070 N 
ATOM      3  C1  UNL d   1      -3.375  -5.738   4.095  0.00  0.00    -0.004 A 
ATOM      4  C2  UNL d   1      -2.013  -5.711   3.887  0.00  0.00    -0.047 A 
ATOM      5  C3  UNL d   1      -1.794  -5.876   2.498  0.00  0.00    -0.047 A 
ATOM      6  C4  UNL d   1      -3.029  -6.000   1.899  0.00  0.00    -0.004 A 
ENDROOT
TORSDOF 0
ENDMDL
