MODEL 1
REMARK minimizedAffinity 3.1687808
REMARK minimizedRMSD -1
REMARK  0 active torsions:
REMARK  status: ('A' for Active; 'I' for Inactive)
ROOT
ATOM      1  C   UNL d   1       4.689   2.360  -5.969  0.00  0.00     0.172 C 
ATOM      2  N   UNL d   1       4.471   3.787  -5.978  0.00  0.00    -0.070 N 
ATOM      3  C1  UNL d   1       5.450   4.744  -5.993  0.00  0.00    -0.004 A 
ATOM      4  C2  UNL d   1       4.835   5.977  -5.999  0.00  0.00    -0.047 A 
ATOM      5  C3  UNL d   1       3.437   5.753  -5.987  0.00  0.00    -0.047 A 
ATOM      6  C4  UNL d   1       3.240   4.389  -5.974  0.00  0.00    -0.004 A 
ENDROOT
TORSDOF 0
ENDMDL
