MODEL 1
REMARK minimizedAffinity -0.215313971
REMARK minimizedRMSD -1
REMARK  0 active torsions:
REMARK  status: ('A' for Active; 'I' for Inactive)
ROOT
ATOM      1  C   UNL d   1       4.130   6.000  -5.981  0.00  0.00     0.172 C 
ATOM      2  N   UNL d   1       4.374   4.644  -5.549  0.00  0.00    -0.070 N 
ATOM      3  C1  UNL d   1       3.626   3.950  -4.635  0.00  0.00    -0.004 A 
ATOM      4  C2  UNL d   1       4.183   2.697  -4.499  0.00  0.00    -0.047 A 
ATOM      5  C3  UNL d   1       5.304   2.635  -5.360  0.00  0.00    -0.047 A 
ATOM      6  C4  UNL d   1       5.399   3.854  -5.998  0.00  0.00    -0.004 A 
ENDROOT
TORSDOF 0
ENDMDL
