MODEL 1
REMARK minimizedAffinity -1.61536276
REMARK minimizedRMSD -1
REMARK  0 active torsions:
REMARK  status: ('A' for Active; 'I' for Inactive)
ROOT
ATOM      1  C   UNL d   1      -0.120  -3.246  -3.047  0.00  0.00     0.172 C 
ATOM      2  N   UNL d   1      -1.220  -3.460  -2.137  0.00  0.00    -0.070 N 
ATOM      3  C1  UNL d   1      -2.206  -4.399  -2.283  0.00  0.00    -0.004 A 
ATOM      4  C2  UNL d   1      -3.062  -4.283  -1.210  0.00  0.00    -0.047 A 
ATOM      5  C3  UNL d   1      -2.575  -3.237  -0.390  0.00  0.00    -0.047 A 
ATOM      6  C4  UNL d   1      -1.434  -2.745  -0.988  0.00  0.00    -0.004 A 
ENDROOT
TORSDOF 0
ENDMDL
