MODEL 1
REMARK minimizedAffinity -0.575383186
REMARK minimizedRMSD -1
REMARK  0 active torsions:
REMARK  status: ('A' for Active; 'I' for Inactive)
ROOT
ATOM      1  C   UNL d   1      -1.617  -0.003   1.853  0.00  0.00     0.172 C 
ATOM      2  N   UNL d   1      -0.519   0.934   1.861  0.00  0.00    -0.070 N 
ATOM      3  C1  UNL d   1       0.452   1.035   0.900  0.00  0.00    -0.004 A 
ATOM      4  C2  UNL d   1       1.312   2.045   1.273  0.00  0.00    -0.047 A 
ATOM      5  C3  UNL d   1       0.843   2.569   2.502  0.00  0.00    -0.047 A 
ATOM      6  C4  UNL d   1      -0.292   1.863   2.842  0.00  0.00    -0.004 A 
ENDROOT
TORSDOF 0
ENDMDL
