MODEL 1
REMARK minimizedAffinity 2.53783941
REMARK minimizedRMSD -1
REMARK  0 active torsions:
REMARK  status: ('A' for Active; 'I' for Inactive)
ROOT
ATOM      1  C   UNL d   1      -3.113   0.460   1.658  0.00  0.00     0.172 C 
ATOM      2  N   UNL d   1      -3.634  -0.604   2.483  0.00  0.00    -0.070 N 
ATOM      3  C1  UNL d   1      -4.835  -0.588   3.142  0.00  0.00    -0.004 A 
ATOM      4  C2  UNL d   1      -4.963  -1.784   3.814  0.00  0.00    -0.047 A 
ATOM      5  C3  UNL d   1      -3.799  -2.545   3.551  0.00  0.00    -0.047 A 
ATOM      6  C4  UNL d   1      -2.994  -1.790   2.724  0.00  0.00    -0.004 A 
ENDROOT
TORSDOF 0
ENDMDL
