MODEL 1
REMARK minimizedAffinity 1.89648068
REMARK minimizedRMSD -1
REMARK  0 active torsions:
REMARK  status: ('A' for Active; 'I' for Inactive)
ROOT
ATOM      1  C   UNL d   1       3.264   3.323   4.511  0.00  0.00     0.172 C 
ATOM      2  N   UNL d   1       4.205   4.350   4.891  0.00  0.00    -0.070 N 
ATOM      3  C1  UNL d   1       4.104   5.158   5.992  0.00  0.00    -0.004 A 
ATOM      4  C2  UNL d   1       5.195   6.000   6.000  0.00  0.00    -0.047 A 
ATOM      5  C3  UNL d   1       5.978   5.688   4.863  0.00  0.00    -0.047 A 
ATOM      6  C4  UNL d   1       5.342   4.664   4.195  0.00  0.00    -0.004 A 
ENDROOT
TORSDOF 0
ENDMDL
