MODEL 1
REMARK minimizedAffinity 4.56417608
REMARK minimizedRMSD -1
REMARK  0 active torsions:
REMARK  status: ('A' for Active; 'I' for Inactive)
ROOT
ATOM      1  C   UNL d   1       3.013   3.132   3.985  0.00  0.00     0.172 C 
ATOM      2  N   UNL d   1       4.045   3.797   4.745  0.00  0.00    -0.070 N 
ATOM      3  C1  UNL d   1       5.318   3.331   4.941  0.00  0.00    -0.004 A 
ATOM      4  C2  UNL d   1       5.990   4.252   5.715  0.00  0.00    -0.047 A 
ATOM      5  C3  UNL d   1       5.089   5.308   5.995  0.00  0.00    -0.047 A 
ATOM      6  C4  UNL d   1       3.893   5.000   5.382  0.00  0.00    -0.004 A 
ENDROOT
TORSDOF 0
ENDMDL
