MODEL 1
REMARK minimizedAffinity 0.656897962
REMARK minimizedRMSD -1
REMARK  0 active torsions:
REMARK  status: ('A' for Active; 'I' for Inactive)
ROOT
ATOM      1  C   UNL d   1       3.374  -2.611  -0.379  0.00  0.00     0.172 C 
ATOM      2  N   UNL d   1       2.493  -2.886  -1.489  0.00  0.00    -0.070 N 
ATOM      3  C1  UNL d   1       2.754  -3.746  -2.522  0.00  0.00    -0.004 A 
ATOM      4  C2  UNL d   1       1.669  -3.727  -3.372  0.00  0.00    -0.047 A 
ATOM      5  C3  UNL d   1       0.723  -2.824  -2.831  0.00  0.00    -0.047 A 
ATOM      6  C4  UNL d   1       1.259  -2.317  -1.666  0.00  0.00    -0.004 A 
ENDROOT
TORSDOF 0
ENDMDL
