MODEL 1
REMARK minimizedAffinity -1.28514099
REMARK minimizedRMSD -1
REMARK  0 active torsions:
REMARK  status: ('A' for Active; 'I' for Inactive)
ROOT
ATOM      1  C   UNL d   1       2.533   3.124  -4.874  0.00  0.00     0.172 C 
ATOM      2  N   UNL d   1       3.773   3.704  -5.332  0.00  0.00    -0.070 N 
ATOM      3  C1  UNL d   1       3.989   5.033  -5.582  0.00  0.00    -0.004 A 
ATOM      4  C2  UNL d   1       5.294   5.178  -5.999  0.00  0.00    -0.047 A 
ATOM      5  C3  UNL d   1       5.884   3.891  -5.999  0.00  0.00    -0.047 A 
ATOM      6  C4  UNL d   1       4.920   2.997  -5.582  0.00  0.00    -0.004 A 
ENDROOT
TORSDOF 0
ENDMDL
