MODEL 1
REMARK minimizedAffinity 4.06348705
REMARK minimizedRMSD -1
REMARK  0 active torsions:
REMARK  status: ('A' for Active; 'I' for Inactive)
ROOT
ATOM      1  C   UNL d   1       3.382   3.384   3.438  0.00  0.00     0.172 C 
ATOM      2  N   UNL d   1       4.315   3.790   4.462  0.00  0.00    -0.070 N 
ATOM      3  C1  UNL d   1       4.330   5.005   5.093  0.00  0.00    -0.004 A 
ATOM      4  C2  UNL d   1       5.368   4.998   5.999  0.00  0.00    -0.047 A 
ATOM      5  C3  UNL d   1       6.000   3.735   5.909  0.00  0.00    -0.047 A 
ATOM      6  C4  UNL d   1       5.328   3.007   4.950  0.00  0.00    -0.004 A 
ENDROOT
TORSDOF 0
ENDMDL
