MODEL 1
REMARK minimizedAffinity 5.87491608
REMARK minimizedRMSD -1
REMARK  0 active torsions:
REMARK  status: ('A' for Active; 'I' for Inactive)
ROOT
ATOM      1  C   UNL d   1       4.152   5.986   5.997  0.00  0.00     0.172 C 
ATOM      2  N   UNL d   1       4.681   4.719   5.553  0.00  0.00    -0.070 N 
ATOM      3  C1  UNL d   1       5.837   4.135   6.000  0.00  0.00    -0.004 A 
ATOM      4  C2  UNL d   1       5.990   2.939   5.334  0.00  0.00    -0.047 A 
ATOM      5  C3  UNL d   1       4.890   2.799   4.455  0.00  0.00    -0.047 A 
ATOM      6  C4  UNL d   1       4.096   3.915   4.611  0.00  0.00    -0.004 A 
ENDROOT
TORSDOF 0
ENDMDL
