MODEL 1
REMARK minimizedAffinity 1.38258946
REMARK minimizedRMSD -1
REMARK  0 active torsions:
REMARK  status: ('A' for Active; 'I' for Inactive)
ROOT
ATOM      1  C   UNL d   1       6.000   1.915  -5.773  0.00  0.00     0.172 C 
ATOM      2  N   UNL d   1       4.634   2.377  -5.839  0.00  0.00    -0.070 N 
ATOM      3  C1  UNL d   1       4.237   3.680  -5.978  0.00  0.00    -0.004 A 
ATOM      4  C2  UNL d   1       2.860   3.703  -5.999  0.00  0.00    -0.047 A 
ATOM      5  C3  UNL d   1       2.412   2.367  -5.867  0.00  0.00    -0.047 A 
ATOM      6  C4  UNL d   1       3.531   1.567  -5.770  0.00  0.00    -0.004 A 
ENDROOT
TORSDOF 0
ENDMDL
