MODEL 1
REMARK minimizedAffinity 2.63264275
REMARK minimizedRMSD -1
REMARK  0 active torsions:
REMARK  status: ('A' for Active; 'I' for Inactive)
ROOT
ATOM      1  C   UNL d   1      -2.469   2.709   1.116  0.00  0.00     0.172 C 
ATOM      2  N   UNL d   1      -1.184   2.661   1.774  0.00  0.00    -0.070 N 
ATOM      3  C1  UNL d   1      -0.926   2.063   2.978  0.00  0.00    -0.004 A 
ATOM      4  C2  UNL d   1       0.413   2.236   3.256  0.00  0.00    -0.047 A 
ATOM      5  C3  UNL d   1       0.978   2.963   2.182  0.00  0.00    -0.047 A 
ATOM      6  C4  UNL d   1      -0.032   3.213   1.278  0.00  0.00    -0.004 A 
ENDROOT
TORSDOF 0
ENDMDL
