MODEL 1
REMARK minimizedAffinity 4.12588978
REMARK minimizedRMSD -1
REMARK  0 active torsions:
REMARK  status: ('A' for Active; 'I' for Inactive)
ROOT
ATOM      1  N1  IND d   1       2.116   5.442   0.180  0.00  0.00    -0.196 N 
ATOM      2  C2  IND d   1       3.295   5.994   0.599  0.00  0.00     0.054 A 
ATOM      3  C3  IND d   1       4.061   5.060   1.206  0.00  0.00    -0.031 A 
ATOM      4  C4  IND d   1       3.624   2.544   1.532  0.00  0.00     0.051 A 
ATOM      5  C5  IND d   1       2.668   1.585   1.349  0.00  0.00    -0.031 A 
ATOM      6  C6  IND d   1       1.456   1.867   0.753  0.00  0.00     0.015 A 
ATOM      7  C7  IND d   1       1.158   3.123   0.305  0.00  0.00    -0.016 A 
ATOM      8  C8  IND d   1       2.123   4.101   0.495  0.00  0.00    -0.047 A 
ATOM      9  C9  IND d   1       3.338   3.830   1.138  0.00  0.00    -0.096 A 
ATOM     10  HN1 IND d   1       1.478   5.862  -0.214  0.00  0.00     0.298 HD
ENDROOT
TORSDOF 0
ENDMDL
