MODEL 1
REMARK minimizedAffinity 1.98196423
REMARK minimizedRMSD -1
REMARK  0 active torsions:
REMARK  status: ('A' for Active; 'I' for Inactive)
ROOT
ATOM      1  N1  IND d   1       4.443  -4.479  -2.439  0.00  0.00    -0.196 N 
ATOM      2  C2  IND d   1       3.344  -4.712  -1.660  0.00  0.00     0.054 A 
ATOM      3  C3  IND d   1       2.358  -5.275  -2.393  0.00  0.00    -0.031 A 
ATOM      4  C4  IND d   1       2.364  -5.995  -4.864  0.00  0.00     0.051 A 
ATOM      5  C5  IND d   1       3.129  -5.954  -5.996  0.00  0.00    -0.031 A 
ATOM      6  C6  IND d   1       4.397  -5.411  -6.000  0.00  0.00     0.015 A 
ATOM      7  C7  IND d   1       4.955  -4.896  -4.864  0.00  0.00    -0.016 A 
ATOM      8  C8  IND d   1       4.179  -4.930  -3.714  0.00  0.00    -0.047 A 
ATOM      9  C9  IND d   1       2.875  -5.442  -3.714  0.00  0.00    -0.096 A 
ATOM     10  HN1 IND d   1       5.175  -4.113  -2.178  0.00  0.00     0.298 HD
ENDROOT
TORSDOF 0
ENDMDL
