MODEL 1
REMARK minimizedAffinity 2.44062114
REMARK minimizedRMSD -1
REMARK  0 active torsions:
REMARK  status: ('A' for Active; 'I' for Inactive)
ROOT
ATOM      1  N1  IND d   1      -2.354   3.903  -5.981  0.00  0.00    -0.196 N 
ATOM      2  C2  IND d   1      -1.492   3.092  -5.298  0.00  0.00     0.054 A 
ATOM      3  C3  IND d   1      -2.175   2.269  -4.471  0.00  0.00    -0.031 A 
ATOM      4  C4  IND d   1      -4.717   2.012  -4.153  0.00  0.00     0.051 A 
ATOM      5  C5  IND d   1      -5.910   2.560  -4.532  0.00  0.00    -0.031 A 
ATOM      6  C6  IND d   1      -5.981   3.603  -5.432  0.00  0.00     0.015 A 
ATOM      7  C7  IND d   1      -4.856   4.132  -6.000  0.00  0.00    -0.016 A 
ATOM      8  C8  IND d   1      -3.642   3.583  -5.613  0.00  0.00    -0.047 A 
ATOM      9  C9  IND d   1      -3.561   2.553  -4.667  0.00  0.00    -0.096 A 
ATOM     10  HN1 IND d   1      -2.129   4.512  -6.545  0.00  0.00     0.298 HD
ENDROOT
TORSDOF 0
ENDMDL
