MODEL 1
REMARK minimizedAffinity -0.836399138
REMARK minimizedRMSD -1
REMARK  0 active torsions:
REMARK  status: ('A' for Active; 'I' for Inactive)
ROOT
ATOM      1  N1  IND d   1       2.416  -5.778  -5.997  0.00  0.00    -0.196 N 
ATOM      2  C2  IND d   1       1.499  -5.487  -5.025  0.00  0.00     0.054 A 
ATOM      3  C3  IND d   1       2.117  -5.295  -3.838  0.00  0.00    -0.031 A 
ATOM      4  C4  IND d   1       4.630  -5.310  -3.281  0.00  0.00     0.051 A 
ATOM      5  C5  IND d   1       5.855  -5.564  -3.833  0.00  0.00    -0.031 A 
ATOM      6  C6  IND d   1       5.998  -5.907  -5.162  0.00  0.00     0.015 A 
ATOM      7  C7  IND d   1       4.919  -5.997  -5.995  0.00  0.00    -0.016 A 
ATOM      8  C8  IND d   1       3.674  -5.747  -5.436  0.00  0.00    -0.047 A 
ATOM      9  C9  IND d   1       3.518  -5.440  -4.078  0.00  0.00    -0.096 A 
ATOM     10  HN1 IND d   1       2.237  -5.951  -6.820  0.00  0.00     0.298 HD
ENDROOT
TORSDOF 0
ENDMDL
