MODEL 1
REMARK minimizedAffinity 2.41789651
REMARK minimizedRMSD -1
REMARK  0 active torsions:
REMARK  status: ('A' for Active; 'I' for Inactive)
ROOT
ATOM      1  N1  IND d   1       2.782   1.975   1.494  0.00  0.00    -0.196 N 
ATOM      2  C2  IND d   1       2.851   1.620   0.176  0.00  0.00     0.054 A 
ATOM      3  C3  IND d   1       1.625   1.681  -0.392  0.00  0.00    -0.031 A 
ATOM      4  C4  IND d   1      -0.614   2.436   0.628  0.00  0.00     0.051 A 
ATOM      5  C5  IND d   1      -1.186   2.817   1.810  0.00  0.00    -0.031 A 
ATOM      6  C6  IND d   1      -0.448   2.942   2.970  0.00  0.00     0.015 A 
ATOM      7  C7  IND d   1       0.896   2.701   2.988  0.00  0.00    -0.016 A 
ATOM      8  C8  IND d   1       1.479   2.307   1.792  0.00  0.00    -0.047 A 
ATOM      9  C9  IND d   1       0.727   2.136   0.622  0.00  0.00    -0.096 A 
ATOM     10  HN1 IND d   1       3.442   1.988   2.045  0.00  0.00     0.298 HD
ENDROOT
TORSDOF 0
ENDMDL
