MODEL 1
REMARK minimizedAffinity -0.111088634
REMARK minimizedRMSD -1
REMARK  0 active torsions:
REMARK  status: ('A' for Active; 'I' for Inactive)
ROOT
ATOM      1  N1  IND d   1       2.467  -5.832  -5.999  0.00  0.00    -0.196 N 
ATOM      2  C2  IND d   1       1.544  -5.997  -5.004  0.00  0.00     0.054 A 
ATOM      3  C3  IND d   1       2.139  -5.921  -3.793  0.00  0.00    -0.031 A 
ATOM      4  C4  IND d   1       4.598  -5.430  -3.207  0.00  0.00     0.051 A 
ATOM      5  C5  IND d   1       5.825  -5.245  -3.779  0.00  0.00    -0.031 A 
ATOM      6  C6  IND d   1       5.999  -5.243  -5.148  0.00  0.00     0.015 A 
ATOM      7  C7  IND d   1       4.945  -5.416  -6.000  0.00  0.00    -0.016 A 
ATOM      8  C8  IND d   1       3.698  -5.611  -5.422  0.00  0.00    -0.047 A 
ATOM      9  C9  IND d   1       3.523  -5.656  -4.033  0.00  0.00    -0.096 A 
ATOM     10  HN1 IND d   1       2.305  -5.861  -6.843  0.00  0.00     0.298 HD
ENDROOT
TORSDOF 0
ENDMDL
