MODEL 1
REMARK minimizedAffinity 4.52705669
REMARK minimizedRMSD -1
REMARK  0 active torsions:
REMARK  status: ('A' for Active; 'I' for Inactive)
ROOT
ATOM      1  N1  IND d   1       5.128   3.502   1.853  0.00  0.00    -0.196 N 
ATOM      2  C2  IND d   1       4.103   3.988   1.090  0.00  0.00     0.054 A 
ATOM      3  C3  IND d   1       3.447   4.967   1.753  0.00  0.00    -0.031 A 
ATOM      4  C4  IND d   1       3.945   6.000   4.058  0.00  0.00     0.051 A 
ATOM      5  C5  IND d   1       4.759   5.861   5.147  0.00  0.00    -0.031 A 
ATOM      6  C6  IND d   1       5.759   4.911   5.194  0.00  0.00     0.015 A 
ATOM      7  C7  IND d   1       5.991   4.069   4.144  0.00  0.00    -0.016 A 
ATOM      8  C8  IND d   1       5.162   4.202   3.039  0.00  0.00    -0.047 A 
ATOM      9  C9  IND d   1       4.118   5.136   3.002  0.00  0.00    -0.096 A 
ATOM     10  HN1 IND d   1       5.661   2.866   1.630  0.00  0.00     0.298 HD
ENDROOT
TORSDOF 0
ENDMDL
