MODEL 1
REMARK minimizedAffinity 0.891510248
REMARK minimizedRMSD -1
REMARK  0 active torsions:
REMARK  status: ('A' for Active; 'I' for Inactive)
ROOT
ATOM      1  N1  IND d   1       1.946  -5.631  -3.935  0.00  0.00    -0.196 N 
ATOM      2  C2  IND d   1       1.608  -5.916  -5.228  0.00  0.00     0.054 A 
ATOM      3  C3  IND d   1       2.716  -6.000  -5.997  0.00  0.00    -0.031 A 
ATOM      4  C4  IND d   1       5.193  -5.805  -5.323  0.00  0.00     0.051 A 
ATOM      5  C5  IND d   1       6.000  -5.513  -4.259  0.00  0.00    -0.031 A 
ATOM      6  C6  IND d   1       5.487  -5.243  -3.007  0.00  0.00     0.015 A 
ATOM      7  C7  IND d   1       4.142  -5.266  -2.768  0.00  0.00    -0.016 A 
ATOM      8  C8  IND d   1       3.319  -5.555  -3.848  0.00  0.00    -0.047 A 
ATOM      9  C9  IND d   1       3.832  -5.788  -5.130  0.00  0.00    -0.096 A 
ATOM     10  HN1 IND d   1       1.394  -5.519  -3.285  0.00  0.00     0.298 HD
ENDROOT
TORSDOF 0
ENDMDL
