MODEL 1
REMARK minimizedAffinity 12.2980442
REMARK minimizedRMSD -1
REMARK  0 active torsions:
REMARK  status: ('A' for Active; 'I' for Inactive)
ROOT
ATOM      1  N1  IND d   1       3.212   1.391   1.836  0.00  0.00    -0.196 N 
ATOM      2  C2  IND d   1       2.120   1.036   1.095  0.00  0.00     0.054 A 
ATOM      3  C3  IND d   1       1.680   2.089   0.370  0.00  0.00    -0.031 A 
ATOM      4  C4  IND d   1       2.663   4.460   0.169  0.00  0.00     0.051 A 
ATOM      5  C5  IND d   1       3.637   5.270   0.682  0.00  0.00    -0.031 A 
ATOM      6  C6  IND d   1       4.539   4.818   1.623  0.00  0.00     0.015 A 
ATOM      7  C7  IND d   1       4.508   3.531   2.080  0.00  0.00    -0.016 A 
ATOM      8  C8  IND d   1       3.516   2.708   1.566  0.00  0.00    -0.047 A 
ATOM      9  C9  IND d   1       2.571   3.173   0.642  0.00  0.00    -0.096 A 
ATOM     10  HN1 IND d   1       3.639   0.879   2.379  0.00  0.00     0.298 HD
ENDROOT
TORSDOF 0
ENDMDL
