MODEL 1
REMARK minimizedAffinity -1.11981106
REMARK minimizedRMSD -1
REMARK  0 active torsions:
REMARK  status: ('A' for Active; 'I' for Inactive)
ROOT
ATOM      1  N1  IND d   1       4.636  -5.385  -2.460  0.00  0.00    -0.196 N 
ATOM      2  C2  IND d   1       5.938  -5.441  -2.873  0.00  0.00     0.054 A 
ATOM      3  C3  IND d   1       5.999  -5.690  -4.200  0.00  0.00    -0.031 A 
ATOM      4  C4  IND d   1       4.089  -5.937  -5.909  0.00  0.00     0.051 A 
ATOM      5  C5  IND d   1       2.727  -5.998  -6.000  0.00  0.00    -0.031 A 
ATOM      6  C6  IND d   1       1.915  -5.852  -4.894  0.00  0.00     0.015 A 
ATOM      7  C7  IND d   1       2.437  -5.627  -3.651  0.00  0.00    -0.016 A 
ATOM      8  C8  IND d   1       3.820  -5.572  -3.554  0.00  0.00    -0.047 A 
ATOM      9  C9  IND d   1       4.651  -5.761  -4.666  0.00  0.00    -0.096 A 
ATOM     10  HN1 IND d   1       4.371  -5.254  -1.652  0.00  0.00     0.298 HD
ENDROOT
TORSDOF 0
ENDMDL
