MODEL 1
REMARK minimizedAffinity 3.11453938
REMARK minimizedRMSD -1
REMARK  0 active torsions:
REMARK  status: ('A' for Active; 'I' for Inactive)
ROOT
ATOM      1  N1  IND d   1       5.076  -4.272  -5.715  0.00  0.00    -0.196 N 
ATOM      2  C2  IND d   1       5.890  -4.092  -4.632  0.00  0.00     0.054 A 
ATOM      3  C3  IND d   1       5.276  -4.520  -3.506  0.00  0.00    -0.031 A 
ATOM      4  C4  IND d   1       2.977  -5.642  -3.223  0.00  0.00     0.051 A 
ATOM      5  C5  IND d   1       1.853  -5.987  -3.920  0.00  0.00    -0.031 A 
ATOM      6  C6  IND d   1       1.745  -5.775  -5.279  0.00  0.00     0.015 A 
ATOM      7  C7  IND d   1       2.766  -5.219  -5.997  0.00  0.00    -0.016 A 
ATOM      8  C8  IND d   1       3.906  -4.862  -5.291  0.00  0.00    -0.047 A 
ATOM      9  C9  IND d   1       4.005  -5.035  -3.905  0.00  0.00    -0.096 A 
ATOM     10  HN1 IND d   1       5.264  -4.053  -6.526  0.00  0.00     0.298 HD
ENDROOT
TORSDOF 0
ENDMDL
