MODEL 1
REMARK minimizedAffinity 0.383450359
REMARK minimizedRMSD -1
REMARK  0 active torsions:
REMARK  status: ('A' for Active; 'I' for Inactive)
ROOT
ATOM      1  N1  IND d   1       2.181  -5.502  -3.778  0.00  0.00    -0.196 N 
ATOM      2  C2  IND d   1       1.629  -5.978  -4.934  0.00  0.00     0.054 A 
ATOM      3  C3  IND d   1       2.549  -5.989  -5.925  0.00  0.00    -0.031 A 
ATOM      4  C4  IND d   1       5.046  -5.365  -5.845  0.00  0.00     0.051 A 
ATOM      5  C5  IND d   1       5.999  -4.842  -5.018  0.00  0.00    -0.031 A 
ATOM      6  C6  IND d   1       5.724  -4.508  -3.707  0.00  0.00     0.015 A 
ATOM      7  C7  IND d   1       4.482  -4.696  -3.170  0.00  0.00    -0.016 A 
ATOM      8  C8  IND d   1       3.509  -5.220  -4.009  0.00  0.00    -0.047 A 
ATOM      9  C9  IND d   1       3.772  -5.522  -5.352  0.00  0.00    -0.096 A 
ATOM     10  HN1 IND d   1       1.768  -5.396  -3.031  0.00  0.00     0.298 HD
ENDROOT
TORSDOF 0
ENDMDL
