MODEL 1
REMARK minimizedAffinity -1.65250921
REMARK minimizedRMSD -1
REMARK  0 active torsions:
REMARK  status: ('A' for Active; 'I' for Inactive)
ROOT
ATOM      1  N1  IND d   1       2.190  -5.988  -3.826  0.00  0.00    -0.196 N 
ATOM      2  C2  IND d   1       1.637  -6.000  -5.077  0.00  0.00     0.054 A 
ATOM      3  C3  IND d   1       2.554  -5.632  -6.000  0.00  0.00    -0.031 A 
ATOM      4  C4  IND d   1       5.047  -5.066  -5.694  0.00  0.00     0.051 A 
ATOM      5  C5  IND d   1       6.000  -4.884  -4.731  0.00  0.00    -0.031 A 
ATOM      6  C6  IND d   1       5.727  -5.067  -3.391  0.00  0.00     0.015 A 
ATOM      7  C7  IND d   1       4.488  -5.451  -2.963  0.00  0.00    -0.016 A 
ATOM      8  C8  IND d   1       3.516  -5.630  -3.937  0.00  0.00    -0.047 A 
ATOM      9  C9  IND d   1       3.776  -5.405  -5.295  0.00  0.00    -0.096 A 
ATOM     10  HN1 IND d   1       1.779  -6.172  -3.094  0.00  0.00     0.298 HD
ENDROOT
TORSDOF 0
ENDMDL
