MODEL 1
REMARK minimizedAffinity 5.92028952
REMARK minimizedRMSD -1
REMARK  0 active torsions:
REMARK  status: ('A' for Active; 'I' for Inactive)
ROOT
ATOM      1  N1  IND d   1      -5.251   2.156  -4.160  0.00  0.00    -0.196 N 
ATOM      2  C2  IND d   1      -5.996   2.746  -5.143  0.00  0.00     0.054 A 
ATOM      3  C3  IND d   1      -5.199   3.443  -5.984  0.00  0.00    -0.031 A 
ATOM      4  C4  IND d   1      -2.635   3.668  -5.995  0.00  0.00     0.051 A 
ATOM      5  C5  IND d   1      -1.521   3.339  -5.274  0.00  0.00    -0.031 A 
ATOM      6  C6  IND d   1      -1.595   2.580  -4.123  0.00  0.00     0.015 A 
ATOM      7  C7  IND d   1      -2.790   2.112  -3.655  0.00  0.00    -0.016 A 
ATOM      8  C8  IND d   1      -3.924   2.450  -4.380  0.00  0.00    -0.047 A 
ATOM      9  C9  IND d   1      -3.859   3.255  -5.525  0.00  0.00    -0.096 A 
ATOM     10  HN1 IND d   1      -5.560   1.681  -3.514  0.00  0.00     0.298 HD
ENDROOT
TORSDOF 0
ENDMDL
