MODEL 1
REMARK minimizedAffinity 1.84493256
REMARK minimizedRMSD -1
REMARK  0 active torsions:
REMARK  status: ('A' for Active; 'I' for Inactive)
ROOT
ATOM      1  N1  IND d   1       2.308  -5.251  -2.405  0.00  0.00    -0.196 N 
ATOM      2  C2  IND d   1       3.366  -4.856  -1.634  0.00  0.00     0.054 A 
ATOM      3  C3  IND d   1       4.498  -4.819  -2.372  0.00  0.00    -0.031 A 
ATOM      4  C4  IND d   1       4.828  -5.268  -4.885  0.00  0.00     0.051 A 
ATOM      5  C5  IND d   1       4.162  -5.694  -6.000  0.00  0.00    -0.031 A 
ATOM      6  C6  IND d   1       2.816  -5.998  -5.973  0.00  0.00     0.015 A 
ATOM      7  C7  IND d   1       2.080  -5.875  -4.829  0.00  0.00    -0.016 A 
ATOM      8  C8  IND d   1       2.755  -5.449  -3.693  0.00  0.00    -0.047 A 
ATOM      9  C9  IND d   1       4.130  -5.180  -3.704  0.00  0.00    -0.096 A 
ATOM     10  HN1 IND d   1       1.500  -5.357  -2.132  0.00  0.00     0.298 HD
ENDROOT
TORSDOF 0
ENDMDL
