MODEL 1
REMARK minimizedAffinity 0.43164286
REMARK minimizedRMSD -1
REMARK  0 active torsions:
REMARK  status: ('A' for Active; 'I' for Inactive)
ROOT
ATOM      1  N1  IND d   1       4.358  -4.790  -2.147  0.00  0.00    -0.196 N 
ATOM      2  C2  IND d   1       3.004  -4.931  -2.022  0.00  0.00     0.054 A 
ATOM      3  C3  IND d   1       2.466  -5.361  -3.185  0.00  0.00    -0.031 A 
ATOM      4  C4  IND d   1       3.633  -5.996  -5.391  0.00  0.00     0.051 A 
ATOM      5  C5  IND d   1       4.856  -5.999  -6.000  0.00  0.00    -0.031 A 
ATOM      6  C6  IND d   1       6.000  -5.594  -5.342  0.00  0.00     0.015 A 
ATOM      7  C7  IND d   1       5.964  -5.179  -4.040  0.00  0.00    -0.016 A 
ATOM      8  C8  IND d   1       4.722  -5.168  -3.421  0.00  0.00    -0.047 A 
ATOM      9  C9  IND d   1       3.552  -5.538  -4.097  0.00  0.00    -0.096 A 
ATOM     10  HN1 IND d   1       4.892  -4.513  -1.533  0.00  0.00     0.298 HD
ENDROOT
TORSDOF 0
ENDMDL
