MODEL 1
REMARK minimizedAffinity 1.74516165
REMARK minimizedRMSD -1
REMARK  2 active torsions:
REMARK  status: ('A' for Active; 'I' for Inactive)
REMARK    1  A    between atoms: C2'_3  and  C1'_4 
REMARK    2  A    between atoms: C1'_4  and  C1_5 
ROOT
ATOM      1  C1  I4B d   1       0.016   3.706   0.344  0.00  0.00    -0.075 A 
ATOM      2  C2  I4B d   1       0.743   3.608  -0.816  0.00  0.00     0.003 A 
ATOM      3  C3  I4B d   1       0.272   4.214  -2.006  0.00  0.00     0.002 A 
ATOM      4  C4  I4B d   1      -0.947   4.860  -2.003  0.00  0.00    -0.004 A 
ATOM      5  C5  I4B d   1      -1.672   4.978  -0.821  0.00  0.00     0.002 A 
ATOM      6  C6  I4B d   1      -1.182   4.408   0.364  0.00  0.00     0.003 A 
ENDROOT
BRANCH   1   7
ATOM      7  C1' I4B d   1       0.527   3.027   1.575  0.00  0.00     0.060 C 
BRANCH   7   8
ATOM      8  C2' I4B d   1       2.040   3.099   1.554  0.00  0.00    -0.013 C 
ATOM      9  C4' I4B d   1       2.517   4.361   0.884  0.00  0.00     0.013 C 
ATOM     10  C3' I4B d   1       2.527   3.021   2.970  0.00  0.00     0.013 C 
ENDBRANCH   7   8
ENDBRANCH   1   7
TORSDOF 2
ENDMDL
