MODEL 1
REMARK minimizedAffinity 7.83804226
REMARK minimizedRMSD -1
REMARK  2 active torsions:
REMARK  status: ('A' for Active; 'I' for Inactive)
REMARK    1  A    between atoms: C2'_3  and  C1'_4 
REMARK    2  A    between atoms: C1'_4  and  C1_5 
ROOT
ATOM      1  C1  I4B d   1       0.431   3.277   0.974  0.00  0.00    -0.075 A 
ATOM      2  C2  I4B d   1       1.180   4.222   0.319  0.00  0.00     0.003 A 
ATOM      3  C3  I4B d   1       0.976   4.463  -1.061  0.00  0.00     0.002 A 
ATOM      4  C4  I4B d   1       0.053   3.706  -1.754  0.00  0.00    -0.004 A 
ATOM      5  C5  I4B d   1      -0.722   2.764  -1.083  0.00  0.00     0.002 A 
ATOM      6  C6  I4B d   1      -0.541   2.556   0.292  0.00  0.00     0.003 A 
ENDROOT
BRANCH   1   7
ATOM      7  C1' I4B d   1       0.695   3.025   2.425  0.00  0.00     0.060 C 
BRANCH   7   8
ATOM      8  C2' I4B d   1      -0.200   1.887   2.872  0.00  0.00    -0.013 C 
ATOM      9  C4' I4B d   1       0.475   1.042   3.919  0.00  0.00     0.013 C 
ATOM     10  C3' I4B d   1      -1.475   2.479   3.393  0.00  0.00     0.013 C 
ENDBRANCH   7   8
ENDBRANCH   1   7
TORSDOF 2
ENDMDL
