MODEL 1
REMARK minimizedAffinity -2.33945441
REMARK minimizedRMSD -1
REMARK  2 active torsions:
REMARK  status: ('A' for Active; 'I' for Inactive)
REMARK    1  A    between atoms: C2'_3  and  C1'_4 
REMARK    2  A    between atoms: C1'_4  and  C1_5 
ROOT
ATOM      1  C1  I4B d   1      -5.165   3.846  -4.235  0.00  0.00    -0.075 A 
ATOM      2  C2  I4B d   1      -3.857   4.254  -4.150  0.00  0.00     0.003 A 
ATOM      3  C3  I4B d   1      -3.346   4.759  -2.930  0.00  0.00     0.002 A 
ATOM      4  C4  I4B d   1      -4.185   4.884  -1.842  0.00  0.00    -0.004 A 
ATOM      5  C5  I4B d   1      -5.504   4.449  -1.923  0.00  0.00     0.002 A 
ATOM      6  C6  I4B d   1      -5.995   3.915  -3.124  0.00  0.00     0.003 A 
ENDROOT
BRANCH   1   7
ATOM      7  C1' I4B d   1      -5.681   3.349  -5.548  0.00  0.00     0.060 C 
BRANCH   7   8
ATOM      8  C2' I4B d   1      -5.746   1.836  -5.482  0.00  0.00    -0.013 C 
ATOM      9  C4' I4B d   1      -4.476   1.213  -5.999  0.00  0.00     0.013 C 
ATOM     10  C3' I4B d   1      -5.999   1.446  -4.056  0.00  0.00     0.013 C 
ENDBRANCH   7   8
ENDBRANCH   1   7
TORSDOF 2
ENDMDL
