MODEL 1
REMARK minimizedAffinity 5.26342869
REMARK minimizedRMSD -1
REMARK  2 active torsions:
REMARK  status: ('A' for Active; 'I' for Inactive)
REMARK    1  A    between atoms: C2'_3  and  C1'_4 
REMARK    2  A    between atoms: C1'_4  and  C1_5 
ROOT
ATOM      1  C1  I4B d   1      -4.926   2.043  -3.886  0.00  0.00    -0.075 A 
ATOM      2  C2  I4B d   1      -3.917   1.947  -4.813  0.00  0.00     0.003 A 
ATOM      3  C3  I4B d   1      -3.945   0.925  -5.793  0.00  0.00     0.002 A 
ATOM      4  C4  I4B d   1      -4.966  -0.003  -5.779  0.00  0.00    -0.004 A 
ATOM      5  C5  I4B d   1      -5.999   0.110  -4.853  0.00  0.00     0.002 A 
ATOM      6  C6  I4B d   1      -5.986   1.146  -3.908  0.00  0.00     0.003 A 
ENDROOT
BRANCH   1   7
ATOM      7  C1' I4B d   1      -4.848   3.114  -2.845  0.00  0.00     0.060 C 
BRANCH   7   8
ATOM      8  C2' I4B d   1      -5.974   2.887  -1.857  0.00  0.00    -0.013 C 
ATOM      9  C4' I4B d   1      -5.796   1.587  -1.117  0.00  0.00     0.013 C 
ATOM     10  C3' I4B d   1      -6.000   4.049  -0.909  0.00  0.00     0.013 C 
ENDBRANCH   7   8
ENDBRANCH   1   7
TORSDOF 2
ENDMDL
