MODEL 1
REMARK minimizedAffinity 11.0031252
REMARK minimizedRMSD -1
REMARK  2 active torsions:
REMARK  status: ('A' for Active; 'I' for Inactive)
REMARK    1  A    between atoms: C2'_3  and  C1'_4 
REMARK    2  A    between atoms: C1'_4  and  C1_5 
ROOT
ATOM      1  C1  I4B d   1      -5.065  -0.066   3.765  0.00  0.00    -0.075 A 
ATOM      2  C2  I4B d   1      -5.547   0.593   4.868  0.00  0.00     0.003 A 
ATOM      3  C3  I4B d   1      -5.985  -0.136   6.000  0.00  0.00     0.002 A 
ATOM      4  C4  I4B d   1      -5.970  -1.516   5.967  0.00  0.00    -0.004 A 
ATOM      5  C5  I4B d   1      -5.459  -2.182   4.857  0.00  0.00     0.002 A 
ATOM      6  C6  I4B d   1      -4.992  -1.453   3.753  0.00  0.00     0.003 A 
ENDROOT
BRANCH   1   7
ATOM      7  C1' I4B d   1      -4.642   0.734   2.574  0.00  0.00     0.060 C 
BRANCH   7   8
ATOM      8  C2' I4B d   1      -3.214   0.354   2.239  0.00  0.00    -0.013 C 
ATOM      9  C4' I4B d   1      -2.976   0.386   0.752  0.00  0.00     0.013 C 
ATOM     10  C3' I4B d   1      -2.302   1.305   2.954  0.00  0.00     0.013 C 
ENDBRANCH   7   8
ENDBRANCH   1   7
TORSDOF 2
ENDMDL
