MODEL 1
REMARK minimizedAffinity 8.72031498
REMARK minimizedRMSD -1
REMARK  2 active torsions:
REMARK  status: ('A' for Active; 'I' for Inactive)
REMARK    1  A    between atoms: C2'_3  and  C1'_4 
REMARK    2  A    between atoms: C1'_4  and  C1_5 
ROOT
ATOM      1  C1  I4B d   1       0.173   5.167  -2.342  0.00  0.00    -0.075 A 
ATOM      2  C2  I4B d   1       1.092   5.551  -3.287  0.00  0.00     0.003 A 
ATOM      3  C3  I4B d   1       0.662   5.999  -4.559  0.00  0.00     0.002 A 
ATOM      4  C4  I4B d   1      -0.684   5.999  -4.860  0.00  0.00    -0.004 A 
ATOM      5  C5  I4B d   1      -1.616   5.632  -3.894  0.00  0.00     0.002 A 
ATOM      6  C6  I4B d   1      -1.186   5.225  -2.622  0.00  0.00     0.003 A 
ENDROOT
BRANCH   1   7
ATOM      7  C1' I4B d   1       0.664   4.668  -1.020  0.00  0.00     0.060 C 
BRANCH   7   8
ATOM      8  C2' I4B d   1      -0.483   3.950  -0.338  0.00  0.00    -0.013 C 
ATOM      9  C4' I4B d   1       0.004   2.741   0.418  0.00  0.00     0.013 C 
ATOM     10  C3' I4B d   1      -1.160   4.925   0.578  0.00  0.00     0.013 C 
ENDBRANCH   7   8
ENDBRANCH   1   7
TORSDOF 2
ENDMDL
