MODEL 1
REMARK minimizedAffinity -4.77497625
REMARK minimizedRMSD -1
REMARK  1 active torsions:
REMARK  status: ('A' for Active; 'I' for Inactive)
REMARK    1  A    between atoms: C1_2  and  C2_3 
ROOT
ATOM      1  C2  UNL d   1       0.052  -2.201  -1.001  0.00  0.00    -0.081 A 
ATOM      2  C3  UNL d   1      -0.235  -2.959   0.140  0.00  0.00     0.006 A 
ATOM      3  C4  UNL d   1      -0.441  -2.334   1.372  0.00  0.00     0.002 A 
ATOM      4  C5  UNL d   1      -0.371  -0.941   1.482  0.00  0.00    -0.080 A 
ATOM      5  C6  UNL d   1      -0.620  -0.256   2.792  0.00  0.00     0.076 C 
ATOM      6  C7  UNL d   1      -0.067  -0.185   0.345  0.00  0.00     0.002 A 
ATOM      7  C8  UNL d   1       0.139  -0.809  -0.887  0.00  0.00     0.006 A 
ENDROOT
BRANCH   1   8
ATOM      8  C1  UNL d   1       0.211  -2.867  -2.344  0.00  0.00     0.054 C 
ATOM      9  C   UNL d   1       0.627  -1.866  -3.413  0.00  0.00     0.018 C 
ENDBRANCH   1   8
TORSDOF 1
ENDMDL
