MODEL 1
REMARK minimizedAffinity -4.71032906
REMARK minimizedRMSD -1
REMARK  1 active torsions:
REMARK  status: ('A' for Active; 'I' for Inactive)
REMARK    1  A    between atoms: C1_2  and  C2_3 
ROOT
ATOM      1  C2  UNL d   1       0.495   0.518  -0.026  0.00  0.00    -0.081 A 
ATOM      2  C3  UNL d   1      -0.438   0.050   0.909  0.00  0.00     0.006 A 
ATOM      3  C4  UNL d   1      -0.709  -1.316   1.015  0.00  0.00     0.002 A 
ATOM      4  C5  UNL d   1      -0.048  -2.237   0.195  0.00  0.00    -0.080 A 
ATOM      5  C6  UNL d   1      -0.309  -3.709   0.320  0.00  0.00     0.076 C 
ATOM      6  C7  UNL d   1       0.870  -1.768  -0.750  0.00  0.00     0.002 A 
ATOM      7  C8  UNL d   1       1.142  -0.402  -0.858  0.00  0.00     0.006 A 
ENDROOT
BRANCH   1   8
ATOM      8  C1  UNL d   1       0.837   1.984  -0.098  0.00  0.00     0.054 C 
ATOM      9  C   UNL d   1       2.339   2.207   0.011  0.00  0.00     0.018 C 
ENDBRANCH   1   8
TORSDOF 1
ENDMDL
