MODEL 1
REMARK minimizedAffinity -3.02060413
REMARK minimizedRMSD -1
REMARK  1 active torsions:
REMARK  status: ('A' for Active; 'I' for Inactive)
REMARK    1  A    between atoms: C1_2  and  C2_3 
ROOT
ATOM      1  C2  UNL d   1      -0.053   0.358  -0.378  0.00  0.00    -0.081 A 
ATOM      2  C3  UNL d   1       0.291   0.357  -1.735  0.00  0.00     0.006 A 
ATOM      3  C4  UNL d   1      -0.006  -0.746  -2.540  0.00  0.00     0.002 A 
ATOM      4  C5  UNL d   1      -0.658  -1.861  -2.004  0.00  0.00    -0.080 A 
ATOM      5  C6  UNL d   1      -1.009  -3.039  -2.863  0.00  0.00     0.076 C 
ATOM      6  C7  UNL d   1      -0.985  -1.868  -0.644  0.00  0.00     0.002 A 
ATOM      7  C8  UNL d   1      -0.688  -0.766   0.162  0.00  0.00     0.006 A 
ENDROOT
BRANCH   1   8
ATOM      8  C1  UNL d   1       0.208   1.571   0.478  0.00  0.00     0.054 C 
ATOM      9  C   UNL d   1       1.663   2.007   0.392  0.00  0.00     0.018 C 
ENDBRANCH   1   8
TORSDOF 1
ENDMDL
