MODEL 1
REMARK minimizedAffinity -5.14201927
REMARK minimizedRMSD -1
REMARK  1 active torsions:
REMARK  status: ('A' for Active; 'I' for Inactive)
REMARK    1  A    between atoms: C1_2  and  C2_3 
ROOT
ATOM      1  C2  UNL d   1       0.293   1.035   0.371  0.00  0.00    -0.081 A 
ATOM      2  C3  UNL d   1       0.007   0.367   1.568  0.00  0.00     0.006 A 
ATOM      3  C4  UNL d   1      -0.116  -1.025   1.590  0.00  0.00     0.002 A 
ATOM      4  C5  UNL d   1       0.052  -1.771   0.418  0.00  0.00    -0.080 A 
ATOM      5  C6  UNL d   1      -0.048  -3.267   0.434  0.00  0.00     0.076 C 
ATOM      6  C7  UNL d   1       0.320  -1.101  -0.781  0.00  0.00     0.002 A 
ATOM      7  C8  UNL d   1       0.443   0.290  -0.803  0.00  0.00     0.006 A 
ENDROOT
BRANCH   1   8
ATOM      8  C1  UNL d   1       0.491   2.529   0.356  0.00  0.00     0.054 C 
ATOM      9  C   UNL d   1       1.936   2.899   0.657  0.00  0.00     0.018 C 
ENDBRANCH   1   8
TORSDOF 1
ENDMDL
