MODEL 1
REMARK minimizedAffinity -5.32267618
REMARK minimizedRMSD -1
REMARK  1 active torsions:
REMARK  status: ('A' for Active; 'I' for Inactive)
REMARK    1  A    between atoms: C1_2  and  C2_3 
ROOT
ATOM      1  C2  UNL d   1       0.179   1.230   0.148  0.00  0.00    -0.081 A 
ATOM      2  C3  UNL d   1      -0.342   0.666   1.320  0.00  0.00     0.006 A 
ATOM      3  C4  UNL d   1      -0.664  -0.692   1.370  0.00  0.00     0.002 A 
ATOM      4  C5  UNL d   1      -0.464  -1.510   0.253  0.00  0.00    -0.080 A 
ATOM      5  C6  UNL d   1      -0.778  -2.976   0.303  0.00  0.00     0.076 C 
ATOM      6  C7  UNL d   1       0.040  -0.944  -0.923  0.00  0.00     0.002 A 
ATOM      7  C8  UNL d   1       0.361   0.414  -0.974  0.00  0.00     0.006 A 
ENDROOT
BRANCH   1   8
ATOM      8  C1  UNL d   1       0.588   2.680   0.112  0.00  0.00     0.054 C 
ATOM      9  C   UNL d   1       2.032   2.859   0.559  0.00  0.00     0.018 C 
ENDBRANCH   1   8
TORSDOF 1
ENDMDL
