MODEL 1
REMARK minimizedAffinity -5.34977007
REMARK minimizedRMSD -1
REMARK  1 active torsions:
REMARK  status: ('A' for Active; 'I' for Inactive)
REMARK    1  A    between atoms: C1_2  and  C2_3 
ROOT
ATOM      1  C2  UNL d   1       0.508   0.976   0.117  0.00  0.00    -0.081 A 
ATOM      2  C3  UNL d   1      -0.197   0.339   1.145  0.00  0.00     0.006 A 
ATOM      3  C4  UNL d   1      -0.352  -1.049   1.143  0.00  0.00     0.002 A 
ATOM      4  C5  UNL d   1       0.203  -1.824   0.118  0.00  0.00    -0.080 A 
ATOM      5  C6  UNL d   1       0.071  -3.318   0.120  0.00  0.00     0.076 C 
ATOM      6  C7  UNL d   1       0.893  -1.185  -0.918  0.00  0.00     0.002 A 
ATOM      7  C8  UNL d   1       1.047   0.203  -0.917  0.00  0.00     0.006 A 
ENDROOT
BRANCH   1   8
ATOM      8  C1  UNL d   1       0.732   2.467   0.150  0.00  0.00     0.054 C 
ATOM      9  C   UNL d   1       2.033   2.815   0.858  0.00  0.00     0.018 C 
ENDBRANCH   1   8
TORSDOF 1
ENDMDL
