MODEL 1
REMARK minimizedAffinity 0.460342973
REMARK minimizedRMSD -1
REMARK  1 active torsions:
REMARK  status: ('A' for Active; 'I' for Inactive)
REMARK    1  A    between atoms: C1_2  and  C2_3 
ROOT
ATOM      1  C2  UNL d   1       0.589   1.400   0.214  0.00  0.00    -0.081 A 
ATOM      2  C3  UNL d   1       0.282   0.724   1.402  0.00  0.00     0.006 A 
ATOM      3  C4  UNL d   1      -0.420  -0.483   1.369  0.00  0.00     0.002 A 
ATOM      4  C5  UNL d   1      -0.820  -1.038   0.149  0.00  0.00    -0.080 A 
ATOM      5  C6  UNL d   1      -1.548  -2.348   0.097  0.00  0.00     0.076 C 
ATOM      6  C7  UNL d   1      -0.529  -0.354  -1.037  0.00  0.00     0.002 A 
ATOM      7  C8  UNL d   1       0.172   0.853  -1.004  0.00  0.00     0.006 A 
ENDROOT
BRANCH   1   8
ATOM      8  C1  UNL d   1       1.402   2.668   0.243  0.00  0.00     0.054 C 
ATOM      9  C   UNL d   1       0.509   3.900   0.201  0.00  0.00     0.018 C 
ENDBRANCH   1   8
TORSDOF 1
ENDMDL
