MODEL 1
REMARK minimizedAffinity -5.42877245
REMARK minimizedRMSD -1
REMARK  1 active torsions:
REMARK  status: ('A' for Active; 'I' for Inactive)
REMARK    1  A    between atoms: C1_2  and  C2_3 
ROOT
ATOM      1  C2  UNL d   1       0.307   0.660   0.239  0.00  0.00    -0.081 A 
ATOM      2  C3  UNL d   1      -0.009  -0.321   1.186  0.00  0.00     0.006 A 
ATOM      3  C4  UNL d   1      -0.257  -1.637   0.787  0.00  0.00     0.002 A 
ATOM      4  C5  UNL d   1      -0.185  -1.994  -0.564  0.00  0.00    -0.080 A 
ATOM      5  C6  UNL d   1      -0.419  -3.409  -1.002  0.00  0.00     0.076 C 
ATOM      6  C7  UNL d   1       0.114  -1.010  -1.512  0.00  0.00     0.002 A 
ATOM      7  C8  UNL d   1       0.361   0.306  -1.113  0.00  0.00     0.006 A 
ENDROOT
BRANCH   1   8
ATOM      8  C1  UNL d   1       0.638   2.065   0.673  0.00  0.00     0.054 C 
ATOM      9  C   UNL d   1       1.861   2.598  -0.061  0.00  0.00     0.018 C 
ENDBRANCH   1   8
TORSDOF 1
ENDMDL
