MODEL 1
REMARK minimizedAffinity -5.39923143
REMARK minimizedRMSD -1
REMARK  1 active torsions:
REMARK  status: ('A' for Active; 'I' for Inactive)
REMARK    1  A    between atoms: C1_2  and  C2_3 
ROOT
ATOM      1  C2  UNL d   1       1.061   1.649   0.545  0.00  0.00    -0.081 A 
ATOM      2  C3  UNL d   1      -0.048   1.678  -0.309  0.00  0.00     0.006 A 
ATOM      3  C4  UNL d   1      -0.977   0.634  -0.298  0.00  0.00     0.002 A 
ATOM      4  C5  UNL d   1      -0.816  -0.451   0.570  0.00  0.00    -0.080 A 
ATOM      5  C6  UNL d   1      -1.822  -1.563   0.613  0.00  0.00     0.076 C 
ATOM      6  C7  UNL d   1       0.302  -0.488   1.411  0.00  0.00     0.002 A 
ATOM      7  C8  UNL d   1       1.231   0.555   1.400  0.00  0.00     0.006 A 
ENDROOT
BRANCH   1   8
ATOM      8  C1  UNL d   1       2.030   2.803   0.582  0.00  0.00     0.054 C 
ATOM      9  C   UNL d   1       3.223   2.496   1.475  0.00  0.00     0.018 C 
ENDBRANCH   1   8
TORSDOF 1
ENDMDL
