MODEL 1
REMARK minimizedAffinity -4.9054184
REMARK minimizedRMSD -1
REMARK  1 active torsions:
REMARK  status: ('A' for Active; 'I' for Inactive)
REMARK    1  A    between atoms: C1_2  and  C2_3 
ROOT
ATOM      1  C2  UNL d   1       0.440   1.540   0.431  0.00  0.00    -0.081 A 
ATOM      2  C3  UNL d   1       0.050   0.928   1.628  0.00  0.00     0.006 A 
ATOM      3  C4  UNL d   1      -0.397  -0.396   1.634  0.00  0.00     0.002 A 
ATOM      4  C5  UNL d   1      -0.453  -1.131   0.445  0.00  0.00    -0.080 A 
ATOM      5  C6  UNL d   1      -0.901  -2.563   0.442  0.00  0.00     0.076 C 
ATOM      6  C7  UNL d   1      -0.079  -0.514  -0.753  0.00  0.00     0.002 A 
ATOM      7  C8  UNL d   1       0.366   0.809  -0.760  0.00  0.00     0.006 A 
ENDROOT
BRANCH   1   8
ATOM      8  C1  UNL d   1       0.983   2.946   0.431  0.00  0.00     0.054 C 
ATOM      9  C   UNL d   1       2.419   2.985   0.934  0.00  0.00     0.018 C 
ENDBRANCH   1   8
TORSDOF 1
ENDMDL
