MODEL 1
REMARK minimizedAffinity -0.881493449
REMARK minimizedRMSD -1
REMARK  1 active torsions:
REMARK  status: ('A' for Active; 'I' for Inactive)
REMARK    1  A    between atoms: C1_2  and  C2_3 
ROOT
ATOM      1  C2  UNL d   1       0.181   0.600   0.245  0.00  0.00    -0.081 A 
ATOM      2  C3  UNL d   1      -0.138  -0.131   1.396  0.00  0.00     0.006 A 
ATOM      3  C4  UNL d   1      -0.326  -1.514   1.327  0.00  0.00     0.002 A 
ATOM      4  C5  UNL d   1      -0.190  -2.189   0.110  0.00  0.00    -0.080 A 
ATOM      5  C6  UNL d   1      -0.359  -3.677   0.028  0.00  0.00     0.076 C 
ATOM      6  C7  UNL d   1       0.112  -1.456  -1.043  0.00  0.00     0.002 A 
ATOM      7  C8  UNL d   1       0.299  -0.074  -0.976  0.00  0.00     0.006 A 
ENDROOT
BRANCH   1   8
ATOM      8  C1  UNL d   1       0.447   2.081   0.327  0.00  0.00     0.054 C 
ATOM      9  C   UNL d   1       1.936   2.369   0.463  0.00  0.00     0.018 C 
ENDBRANCH   1   8
TORSDOF 1
ENDMDL
