MODEL 1
REMARK minimizedAffinity -0.463822693
REMARK minimizedRMSD -1
REMARK  1 active torsions:
REMARK  status: ('A' for Active; 'I' for Inactive)
REMARK    1  A    between atoms: C1_2  and  C2_3 
ROOT
ATOM      1  C2  UNL d   1       3.975  -4.064   2.390  0.00  0.00    -0.077 A 
ATOM      2  C3  UNL d   1       2.725  -3.468   2.176  0.00  0.00     0.002 A 
ATOM      3  C4  UNL d   1       2.243  -3.283   0.879  0.00  0.00     0.002 A 
ATOM      4  C5  UNL d   1       3.003  -3.694  -0.214  0.00  0.00    -0.004 A 
ATOM      5  C6  UNL d   1       4.249  -4.287  -0.012  0.00  0.00     0.002 A 
ATOM      6  C7  UNL d   1       4.733  -4.472   1.284  0.00  0.00     0.002 A 
ENDROOT
BRANCH   1   7
ATOM      7  C1  UNL d   1       4.475  -4.310   3.789  0.00  0.00     0.055 C 
ATOM      8  C   UNL d   1       4.856  -3.007   4.477  0.00  0.00     0.019 C 
ENDBRANCH   1   7
TORSDOF 1
ENDMDL
