MODEL 1
REMARK minimizedAffinity 4.39236259
REMARK minimizedRMSD -1
REMARK  1 active torsions:
REMARK  status: ('A' for Active; 'I' for Inactive)
REMARK    1  A    between atoms: C1_2  and  C2_3 
ROOT
ATOM      1  C2  UNL d   1       4.629  -4.210   3.384  0.00  0.00    -0.077 A 
ATOM      2  C3  UNL d   1       5.005  -3.287   4.369  0.00  0.00     0.002 A 
ATOM      3  C4  UNL d   1       5.312  -3.719   5.661  0.00  0.00     0.002 A 
ATOM      4  C5  UNL d   1       5.251  -5.074   5.977  0.00  0.00    -0.004 A 
ATOM      5  C6  UNL d   1       4.876  -6.000   5.004  0.00  0.00     0.002 A 
ATOM      6  C7  UNL d   1       4.567  -5.570   3.713  0.00  0.00     0.002 A 
ENDROOT
BRANCH   1   7
ATOM      7  C1  UNL d   1       4.344  -3.752   1.977  0.00  0.00     0.055 C 
ATOM      8  C   UNL d   1       2.903  -3.288   1.826  0.00  0.00     0.019 C 
ENDBRANCH   1   7
TORSDOF 1
ENDMDL
