MODEL 1
REMARK minimizedAffinity 9.80500126
REMARK minimizedRMSD -1
REMARK  1 active torsions:
REMARK  status: ('A' for Active; 'I' for Inactive)
REMARK    1  A    between atoms: C1_2  and  C2_3 
ROOT
ATOM      1  C2  UNL d   1       4.868  -4.576   3.598  0.00  0.00    -0.077 A 
ATOM      2  C3  UNL d   1       5.287  -3.238   3.609  0.00  0.00     0.002 A 
ATOM      3  C4  UNL d   1       5.662  -2.625   4.806  0.00  0.00     0.002 A 
ATOM      4  C5  UNL d   1       5.626  -3.343   5.999  0.00  0.00    -0.004 A 
ATOM      5  C6  UNL d   1       5.209  -4.673   6.000  0.00  0.00     0.002 A 
ATOM      6  C7  UNL d   1       4.833  -5.287   4.804  0.00  0.00     0.002 A 
ENDROOT
BRANCH   1   7
ATOM      7  C1  UNL d   1       4.510  -5.254   2.301  0.00  0.00     0.055 C 
ATOM      8  C   UNL d   1       5.252  -4.630   1.128  0.00  0.00     0.019 C 
ENDBRANCH   1   7
TORSDOF 1
ENDMDL
