MODEL 1
REMARK minimizedAffinity 6.24949598
REMARK minimizedRMSD -1
REMARK  1 active torsions:
REMARK  status: ('A' for Active; 'I' for Inactive)
REMARK    1  A    between atoms: C1_2  and  C2_3 
ROOT
ATOM      1  C2  UNL d   1       4.069  -1.850  -0.093  0.00  0.00    -0.077 A 
ATOM      2  C3  UNL d   1       2.760  -1.346  -0.088  0.00  0.00     0.002 A 
ATOM      3  C4  UNL d   1       1.675  -2.201   0.118  0.00  0.00     0.002 A 
ATOM      4  C5  UNL d   1       1.888  -3.562   0.325  0.00  0.00    -0.004 A 
ATOM      5  C6  UNL d   1       3.186  -4.073   0.321  0.00  0.00     0.002 A 
ATOM      6  C7  UNL d   1       4.271  -3.220   0.114  0.00  0.00     0.002 A 
ENDROOT
BRANCH   1   7
ATOM      7  C1  UNL d   1       5.243  -0.922  -0.266  0.00  0.00     0.055 C 
ATOM      8  C   UNL d   1       4.825   0.382  -0.930  0.00  0.00     0.019 C 
ENDBRANCH   1   7
TORSDOF 1
ENDMDL
