MODEL 1
REMARK minimizedAffinity 7.04109287
REMARK minimizedRMSD -1
REMARK  1 active torsions:
REMARK  status: ('A' for Active; 'I' for Inactive)
REMARK    1  A    between atoms: C1_2  and  C2_3 
ROOT
ATOM      1  C2  UNL d   1       0.899   2.609  -4.914  0.00  0.00    -0.077 A 
ATOM      2  C3  UNL d   1       1.665   1.437  -4.854  0.00  0.00     0.002 A 
ATOM      3  C4  UNL d   1       2.965   1.416  -5.365  0.00  0.00     0.002 A 
ATOM      4  C5  UNL d   1       3.510   2.565  -5.934  0.00  0.00    -0.004 A 
ATOM      5  C6  UNL d   1       2.755   3.736  -5.999  0.00  0.00     0.002 A 
ATOM      6  C7  UNL d   1       1.455   3.758  -5.491  0.00  0.00     0.002 A 
ENDROOT
BRANCH   1   7
ATOM      7  C1  UNL d   1      -0.485   2.647  -4.320  0.00  0.00     0.055 C 
ATOM      8  C   UNL d   1      -0.525   1.954  -2.965  0.00  0.00     0.019 C 
ENDBRANCH   1   7
TORSDOF 1
ENDMDL
