MODEL 1
REMARK minimizedAffinity 3.67486382
REMARK minimizedRMSD -1
REMARK  1 active torsions:
REMARK  status: ('A' for Active; 'I' for Inactive)
REMARK    1  A    between atoms: C1_2  and  C2_3 
ROOT
ATOM      1  C2  UNL d   1       2.110   0.308   0.932  0.00  0.00    -0.077 A 
ATOM      2  C3  UNL d   1       3.292   0.240   0.183  0.00  0.00     0.002 A 
ATOM      3  C4  UNL d   1       4.063   1.385  -0.026  0.00  0.00     0.002 A 
ATOM      4  C5  UNL d   1       3.662   2.605   0.514  0.00  0.00    -0.004 A 
ATOM      5  C6  UNL d   1       2.486   2.684   1.259  0.00  0.00     0.002 A 
ATOM      6  C7  UNL d   1       1.714   1.540   1.468  0.00  0.00     0.002 A 
ENDROOT
BRANCH   1   7
ATOM      7  C1  UNL d   1       1.303  -0.935   1.200  0.00  0.00     0.055 C 
ATOM      8  C   UNL d   1       0.702  -0.915   2.598  0.00  0.00     0.019 C 
ENDBRANCH   1   7
TORSDOF 1
ENDMDL
