MODEL 1
REMARK minimizedAffinity 2.68174338
REMARK minimizedRMSD -1
REMARK  0 active torsions:
REMARK  status: ('A' for Active; 'I' for Inactive)
ROOT
ATOM      1  C   UNL d   1       4.446   0.704  -1.197  0.00  0.00     0.078 C 
ATOM      2  C1  UNL d   1       3.351  -0.141  -0.617  0.00  0.00    -0.077 A 
ATOM      3  C2  UNL d   1       2.257   0.442   0.032  0.00  0.00    -0.001 A 
ATOM      4  C3  UNL d   1       1.250  -0.357   0.576  0.00  0.00     0.003 A 
ATOM      5  C4  UNL d   1       1.329  -1.745   0.477  0.00  0.00    -0.005 A 
ATOM      6  C5  UNL d   1       2.415  -2.335  -0.166  0.00  0.00     0.003 A 
ATOM      7  C6  UNL d   1       3.423  -1.537  -0.710  0.00  0.00    -0.001 A 
ENDROOT
TORSDOF 0
ENDMDL
