MODEL 1
REMARK minimizedAffinity 2.70161915
REMARK minimizedRMSD -1
REMARK  0 active torsions:
REMARK  status: ('A' for Active; 'I' for Inactive)
ROOT
ATOM      1  C   UNL d   1       2.775   0.744   0.167  0.00  0.00     0.078 C 
ATOM      2  C1  UNL d   1       2.883  -0.469  -0.708  0.00  0.00    -0.077 A 
ATOM      3  C2  UNL d   1       3.782  -0.507  -1.781  0.00  0.00    -0.001 A 
ATOM      4  C3  UNL d   1       3.865  -1.640  -2.592  0.00  0.00     0.003 A 
ATOM      5  C4  UNL d   1       3.052  -2.742  -2.340  0.00  0.00    -0.005 A 
ATOM      6  C5  UNL d   1       2.152  -2.713  -1.276  0.00  0.00     0.003 A 
ATOM      7  C6  UNL d   1       2.068  -1.581  -0.463  0.00  0.00    -0.001 A 
ENDROOT
TORSDOF 0
ENDMDL
