MODEL 1
REMARK minimizedAffinity 1.9691925
REMARK minimizedRMSD -1
REMARK  0 active torsions:
REMARK  status: ('A' for Active; 'I' for Inactive)
ROOT
ATOM      1  C   UNL d   1      -4.531   1.368  -4.178  0.00  0.00     0.078 C 
ATOM      2  C1  UNL d   1      -4.614   0.614  -2.885  0.00  0.00    -0.077 A 
ATOM      3  C2  UNL d   1      -3.519  -0.114  -2.402  0.00  0.00    -0.001 A 
ATOM      4  C3  UNL d   1      -3.614  -0.819  -1.201  0.00  0.00     0.003 A 
ATOM      5  C4  UNL d   1      -4.802  -0.804  -0.473  0.00  0.00    -0.005 A 
ATOM      6  C5  UNL d   1      -5.897  -0.084  -0.946  0.00  0.00     0.003 A 
ATOM      7  C6  UNL d   1      -5.804   0.621  -2.147  0.00  0.00    -0.001 A 
ENDROOT
TORSDOF 0
ENDMDL
