MODEL 1
REMARK minimizedAffinity 6.65960455
REMARK minimizedRMSD -1
REMARK  0 active torsions:
REMARK  status: ('A' for Active; 'I' for Inactive)
ROOT
ATOM      1  C   UNL d   1      -5.355   2.956  -1.446  0.00  0.00     0.078 C 
ATOM      2  C1  UNL d   1      -4.333   1.970  -1.927  0.00  0.00    -0.077 A 
ATOM      3  C2  UNL d   1      -3.318   2.357  -2.811  0.00  0.00    -0.001 A 
ATOM      4  C3  UNL d   1      -2.379   1.427  -3.259  0.00  0.00     0.003 A 
ATOM      5  C4  UNL d   1      -2.446   0.103  -2.829  0.00  0.00    -0.005 A 
ATOM      6  C5  UNL d   1      -3.454  -0.292  -1.951  0.00  0.00     0.003 A 
ATOM      7  C6  UNL d   1      -4.394   0.637  -1.503  0.00  0.00    -0.001 A 
ENDROOT
TORSDOF 0
ENDMDL
