MODEL 1
REMARK minimizedAffinity 4.1335907
REMARK minimizedRMSD -1
REMARK  0 active torsions:
REMARK  status: ('A' for Active; 'I' for Inactive)
ROOT
ATOM      1  C   UNL d   1      -5.613   1.239  -1.513  0.00  0.00     0.078 C 
ATOM      2  C1  UNL d   1      -4.195   1.577  -1.161  0.00  0.00    -0.077 A 
ATOM      3  C2  UNL d   1      -3.876   2.789  -0.536  0.00  0.00    -0.001 A 
ATOM      4  C3  UNL d   1      -2.550   3.094  -0.223  0.00  0.00     0.003 A 
ATOM      5  C4  UNL d   1      -1.533   2.193  -0.531  0.00  0.00    -0.005 A 
ATOM      6  C5  UNL d   1      -1.841   0.985  -1.154  0.00  0.00     0.003 A 
ATOM      7  C6  UNL d   1      -3.166   0.678  -1.468  0.00  0.00    -0.001 A 
ENDROOT
TORSDOF 0
ENDMDL
