MODEL 1
REMARK minimizedAffinity 1.09615505
REMARK minimizedRMSD -1
REMARK  0 active torsions:
REMARK  status: ('A' for Active; 'I' for Inactive)
ROOT
ATOM      1  C   UNL d   1       1.566  -3.001   0.419  0.00  0.00     0.078 C 
ATOM      2  C1  UNL d   1       2.571  -2.217  -0.372  0.00  0.00    -0.077 A 
ATOM      3  C2  UNL d   1       3.030  -0.973   0.077  0.00  0.00    -0.001 A 
ATOM      4  C3  UNL d   1       3.958  -0.250  -0.674  0.00  0.00     0.003 A 
ATOM      5  C4  UNL d   1       4.434  -0.763  -1.879  0.00  0.00    -0.005 A 
ATOM      6  C5  UNL d   1       3.981  -1.999  -2.335  0.00  0.00     0.003 A 
ATOM      7  C6  UNL d   1       3.053  -2.723  -1.586  0.00  0.00    -0.001 A 
ENDROOT
TORSDOF 0
ENDMDL
