MODEL 1
REMARK minimizedAffinity -1.16488755
REMARK minimizedRMSD -1
REMARK  0 active torsions:
REMARK  status: ('A' for Active; 'I' for Inactive)
ROOT
ATOM      1  C   UNL d   1       4.440  -1.171  -2.392  0.00  0.00     0.078 C 
ATOM      2  C1  UNL d   1       3.900  -0.158  -1.428  0.00  0.00    -0.077 A 
ATOM      3  C2  UNL d   1       2.669  -0.354  -0.789  0.00  0.00    -0.001 A 
ATOM      4  C3  UNL d   1       2.174   0.602   0.099  0.00  0.00     0.003 A 
ATOM      5  C4  UNL d   1       2.902   1.762   0.356  0.00  0.00    -0.005 A 
ATOM      6  C5  UNL d   1       4.127   1.967  -0.277  0.00  0.00     0.003 A 
ATOM      7  C6  UNL d   1       4.624   1.012  -1.165  0.00  0.00    -0.001 A 
ENDROOT
TORSDOF 0
ENDMDL
