MODEL 1
REMARK minimizedAffinity 2.49104333
REMARK minimizedRMSD -1
REMARK  0 active torsions:
REMARK  status: ('A' for Active; 'I' for Inactive)
ROOT
ATOM      1  C   UNL d   1       5.573   1.567  -0.705  0.00  0.00     0.078 C 
ATOM      2  C1  UNL d   1       4.193   1.075  -0.387  0.00  0.00    -0.077 A 
ATOM      3  C2  UNL d   1       3.219   1.940   0.125  0.00  0.00    -0.001 A 
ATOM      4  C3  UNL d   1       1.941   1.465   0.426  0.00  0.00     0.003 A 
ATOM      5  C4  UNL d   1       1.627   0.123   0.220  0.00  0.00    -0.005 A 
ATOM      6  C5  UNL d   1       2.591  -0.746  -0.287  0.00  0.00     0.003 A 
ATOM      7  C6  UNL d   1       3.869  -0.273  -0.589  0.00  0.00    -0.001 A 
ENDROOT
TORSDOF 0
ENDMDL
