MODEL 1
REMARK minimizedAffinity 1.09524524
REMARK minimizedRMSD -1
REMARK  0 active torsions:
REMARK  status: ('A' for Active; 'I' for Inactive)
ROOT
ATOM      1  C   UNL d   1       2.304  -2.638  -0.339  0.00  0.00     0.078 C 
ATOM      2  C1  UNL d   1       2.613  -1.171  -0.312  0.00  0.00    -0.077 A 
ATOM      3  C2  UNL d   1       1.701  -0.251   0.220  0.00  0.00    -0.001 A 
ATOM      4  C3  UNL d   1       1.998   1.112   0.229  0.00  0.00     0.003 A 
ATOM      5  C4  UNL d   1       3.206   1.569  -0.294  0.00  0.00    -0.005 A 
ATOM      6  C5  UNL d   1       4.118   0.662  -0.828  0.00  0.00     0.003 A 
ATOM      7  C6  UNL d   1       3.823  -0.702  -0.838  0.00  0.00    -0.001 A 
ENDROOT
TORSDOF 0
ENDMDL
