MODEL 1
REMARK minimizedAffinity -0.0535781719
REMARK minimizedRMSD -1
REMARK  0 active torsions:
REMARK  status: ('A' for Active; 'I' for Inactive)
ROOT
ATOM      1  C   UNL d   1       2.698   1.131   0.258  0.00  0.00     0.078 C 
ATOM      2  C1  UNL d   1       1.277   1.083   0.736  0.00  0.00    -0.077 A 
ATOM      3  C2  UNL d   1       0.242   1.645  -0.021  0.00  0.00    -0.001 A 
ATOM      4  C3  UNL d   1      -1.074   1.601   0.441  0.00  0.00     0.003 A 
ATOM      5  C4  UNL d   1      -1.368   0.997   1.662  0.00  0.00    -0.005 A 
ATOM      6  C5  UNL d   1      -0.344   0.437   2.423  0.00  0.00     0.003 A 
ATOM      7  C6  UNL d   1       0.973   0.480   1.963  0.00  0.00    -0.001 A 
ENDROOT
TORSDOF 0
ENDMDL
