MODEL 1
REMARK minimizedAffinity 1.13327718
REMARK minimizedRMSD -1
REMARK  0 active torsions:
REMARK  status: ('A' for Active; 'I' for Inactive)
ROOT
ATOM      1  C   UNL d   1      -1.234   1.152  -0.754  0.00  0.00     0.078 C 
ATOM      2  C1  UNL d   1      -0.360   0.913   0.441  0.00  0.00    -0.077 A 
ATOM      3  C2  UNL d   1       1.031   0.826   0.311  0.00  0.00    -0.001 A 
ATOM      4  C3  UNL d   1       1.831   0.593   1.431  0.00  0.00     0.003 A 
ATOM      5  C4  UNL d   1       1.249   0.445   2.688  0.00  0.00    -0.005 A 
ATOM      6  C5  UNL d   1      -0.135   0.528   2.827  0.00  0.00     0.003 A 
ATOM      7  C6  UNL d   1      -0.937   0.760   1.708  0.00  0.00    -0.001 A 
ENDROOT
TORSDOF 0
ENDMDL
