MODEL 1
REMARK minimizedAffinity 8.65109158
REMARK minimizedRMSD -1
REMARK  0 active torsions:
REMARK  status: ('A' for Active; 'I' for Inactive)
ROOT
ATOM      1  C   UNL d   1       2.128  -1.612   3.010  0.00  0.00     0.020 A 
ATOM      2  C1  UNL d   1       2.419  -1.613   4.373  0.00  0.00     0.020 A 
ATOM      3  C2  UNL d   1       2.311  -2.795   5.109  0.00  0.00     0.034 A 
ATOM      4  C3  UNL d   1       1.909  -3.980   4.482  0.00  0.00     0.017 A 
ATOM      5  C4  UNL d   1       1.617  -3.978   3.113  0.00  0.00     0.017 A 
ATOM      6  C5  UNL d   1       1.727  -2.791   2.381  0.00  0.00     0.034 A 
ATOM      7 Cl   UNL d   1       1.115  -5.401   2.270  0.00  0.00    -0.070 Cl
ATOM      8 Cl1  UNL d   1       1.796  -5.404   5.454  0.00  0.00    -0.070 Cl
ENDROOT
TORSDOF 0
ENDMDL
