MODEL 1
REMARK minimizedAffinity 2.46658587
REMARK minimizedRMSD -1
REMARK  0 active torsions:
REMARK  status: ('A' for Active; 'I' for Inactive)
ROOT
ATOM      1  C   UNL d   1       1.235  -0.913   3.276  0.00  0.00     0.020 A 
ATOM      2  C1  UNL d   1       2.360  -0.972   2.454  0.00  0.00     0.020 A 
ATOM      3  C2  UNL d   1       3.152  -2.122   2.438  0.00  0.00     0.034 A 
ATOM      4  C3  UNL d   1       2.820  -3.217   3.244  0.00  0.00     0.017 A 
ATOM      5  C4  UNL d   1       1.691  -3.156   4.068  0.00  0.00     0.017 A 
ATOM      6  C5  UNL d   1       0.901  -2.002   4.081  0.00  0.00     0.034 A 
ATOM      7 Cl   UNL d   1       1.218  -4.467   5.091  0.00  0.00    -0.070 Cl
ATOM      8 Cl1  UNL d   1       3.844  -4.607   3.173  0.00  0.00    -0.070 Cl
ENDROOT
TORSDOF 0
ENDMDL
