MODEL 1
REMARK minimizedAffinity 10.15341
REMARK minimizedRMSD -1
REMARK  0 active torsions:
REMARK  status: ('A' for Active; 'I' for Inactive)
ROOT
ATOM      1  C   UNL d   1      -4.290   3.378   1.484  0.00  0.00     0.020 A 
ATOM      2  C1  UNL d   1      -5.490   4.030   1.205  0.00  0.00     0.020 A 
ATOM      3  C2  UNL d   1      -6.000   4.030  -0.095  0.00  0.00     0.034 A 
ATOM      4  C3  UNL d   1      -5.309   3.375  -1.121  0.00  0.00     0.017 A 
ATOM      5  C4  UNL d   1      -4.105   2.720  -0.841  0.00  0.00     0.017 A 
ATOM      6  C5  UNL d   1      -3.599   2.724   0.463  0.00  0.00     0.034 A 
ATOM      7 Cl   UNL d   1      -3.196   1.891  -2.055  0.00  0.00    -0.070 Cl
ATOM      8 Cl1  UNL d   1      -5.999   3.415  -2.705  0.00  0.00    -0.070 Cl
ENDROOT
TORSDOF 0
ENDMDL
