MODEL 1
REMARK minimizedAffinity 1.05939007
REMARK minimizedRMSD -1
REMARK  0 active torsions:
REMARK  status: ('A' for Active; 'I' for Inactive)
ROOT
ATOM      1  C   UNL d   1       1.992  -5.988  -2.124  0.00  0.00     0.020 A 
ATOM      2  C1  UNL d   1       3.224  -5.988  -1.472  0.00  0.00     0.020 A 
ATOM      3  C2  UNL d   1       4.407  -5.992  -2.214  0.00  0.00     0.034 A 
ATOM      4  C3  UNL d   1       4.360  -5.996  -3.613  0.00  0.00     0.017 A 
ATOM      5  C4  UNL d   1       3.122  -5.995  -4.266  0.00  0.00     0.017 A 
ATOM      6  C5  UNL d   1       1.941  -5.991  -3.518  0.00  0.00     0.034 A 
ATOM      7 Cl   UNL d   1       2.984  -5.999  -5.989  0.00  0.00    -0.070 Cl
ATOM      8 Cl1  UNL d   1       5.861  -6.000  -4.468  0.00  0.00    -0.070 Cl
ENDROOT
TORSDOF 0
ENDMDL
