MODEL 1
REMARK minimizedAffinity 14.2109423
REMARK minimizedRMSD -1
REMARK  0 active torsions:
REMARK  status: ('A' for Active; 'I' for Inactive)
ROOT
ATOM      1  C   UNL d   1       1.909  -5.172   4.262  0.00  0.00     0.020 A 
ATOM      2  C1  UNL d   1       0.912  -4.519   3.537  0.00  0.00     0.020 A 
ATOM      3  C2  UNL d   1       1.132  -3.228   3.054  0.00  0.00     0.034 A 
ATOM      4  C3  UNL d   1       2.351  -2.584   3.295  0.00  0.00     0.017 A 
ATOM      5  C4  UNL d   1       3.351  -3.239   4.023  0.00  0.00     0.017 A 
ATOM      6  C5  UNL d   1       3.125  -4.533   4.504  0.00  0.00     0.034 A 
ATOM      7 Cl   UNL d   1       4.881  -2.510   4.360  0.00  0.00    -0.070 Cl
ATOM      8 Cl1  UNL d   1       2.554  -0.987   2.668  0.00  0.00    -0.070 Cl
ENDROOT
TORSDOF 0
ENDMDL
