MODEL 1
REMARK minimizedAffinity 3.67456865
REMARK minimizedRMSD -1
REMARK  0 active torsions:
REMARK  status: ('A' for Active; 'I' for Inactive)
ROOT
ATOM      1  C   UNL d   1      -2.156   1.496  -0.096  0.00  0.00     0.020 A 
ATOM      2  C1  UNL d   1      -2.695   2.747  -0.394  0.00  0.00     0.020 A 
ATOM      3  C2  UNL d   1      -3.244   2.988  -1.655  0.00  0.00     0.034 A 
ATOM      4  C3  UNL d   1      -3.257   1.977  -2.622  0.00  0.00     0.017 A 
ATOM      5  C4  UNL d   1      -2.716   0.721  -2.322  0.00  0.00     0.017 A 
ATOM      6  C5  UNL d   1      -2.167   0.485  -1.058  0.00  0.00     0.034 A 
ATOM      7 Cl   UNL d   1      -2.695  -0.576  -3.463  0.00  0.00    -0.070 Cl
ATOM      8 Cl1  UNL d   1      -3.953   2.344  -4.160  0.00  0.00    -0.070 Cl
ENDROOT
TORSDOF 0
ENDMDL
