MODEL 1
REMARK minimizedAffinity 11.6237326
REMARK minimizedRMSD -1
REMARK  0 active torsions:
REMARK  status: ('A' for Active; 'I' for Inactive)
ROOT
ATOM      1  C   UNL d   1      -3.835  -2.220  -3.711  0.00  0.00     0.020 A 
ATOM      2  C1  UNL d   1      -3.404  -3.034  -2.664  0.00  0.00     0.020 A 
ATOM      3  C2  UNL d   1      -2.816  -2.463  -1.533  0.00  0.00     0.034 A 
ATOM      4  C3  UNL d   1      -2.658  -1.075  -1.446  0.00  0.00     0.017 A 
ATOM      5  C4  UNL d   1      -3.091  -0.259  -2.498  0.00  0.00     0.017 A 
ATOM      6  C5  UNL d   1      -3.679  -0.836  -3.628  0.00  0.00     0.034 A 
ATOM      7 Cl   UNL d   1      -2.930   1.461  -2.463  0.00  0.00    -0.070 Cl
ATOM      8 Cl1  UNL d   1      -1.923  -0.438  -0.018  0.00  0.00    -0.070 Cl
ENDROOT
TORSDOF 0
ENDMDL
