MODEL 1
REMARK minimizedAffinity 15.5298786
REMARK minimizedRMSD -1
REMARK  0 active torsions:
REMARK  status: ('A' for Active; 'I' for Inactive)
ROOT
ATOM      1  C   UNL d   1      -3.464  -0.999  -3.355  0.00  0.00     0.020 A 
ATOM      2  C1  UNL d   1      -2.565  -0.767  -2.316  0.00  0.00     0.020 A 
ATOM      3  C2  UNL d   1      -2.344   0.535  -1.861  0.00  0.00     0.034 A 
ATOM      4  C3  UNL d   1      -3.023   1.610  -2.447  0.00  0.00     0.017 A 
ATOM      5  C4  UNL d   1      -3.926   1.376  -3.490  0.00  0.00     0.017 A 
ATOM      6  C5  UNL d   1      -4.143   0.070  -3.941  0.00  0.00     0.034 A 
ATOM      7 Cl   UNL d   1      -4.801   2.650  -4.262  0.00  0.00    -0.070 Cl
ATOM      8 Cl1  UNL d   1      -2.701   3.193  -1.835  0.00  0.00    -0.070 Cl
ENDROOT
TORSDOF 0
ENDMDL
