MODEL 1
REMARK minimizedAffinity 18.5547504
REMARK minimizedRMSD -1
REMARK  0 active torsions:
REMARK  status: ('A' for Active; 'I' for Inactive)
ROOT
ATOM      1  C   UNL d   1      -4.975  -2.594  -6.000  0.00  0.00     0.020 A 
ATOM      2  C1  UNL d   1      -5.924  -3.433  -5.418  0.00  0.00     0.020 A 
ATOM      3  C2  UNL d   1      -6.000  -3.544  -4.028  0.00  0.00     0.034 A 
ATOM      4  C3  UNL d   1      -5.124  -2.815  -3.215  0.00  0.00     0.017 A 
ATOM      5  C4  UNL d   1      -4.172  -1.973  -3.800  0.00  0.00     0.017 A 
ATOM      6  C5  UNL d   1      -4.101  -1.865  -5.192  0.00  0.00     0.034 A 
ATOM      7 Cl   UNL d   1      -3.058  -1.042  -2.862  0.00  0.00    -0.070 Cl
ATOM      8 Cl1  UNL d   1      -5.275  -3.001  -1.504  0.00  0.00    -0.070 Cl
ENDROOT
TORSDOF 0
ENDMDL
