MODEL 1
REMARK minimizedAffinity 8.98986721
REMARK minimizedRMSD -1
REMARK  1 active torsions:
REMARK  status: ('A' for Active; 'I' for Inactive)
REMARK    1  A    between atoms: C1_2  and  C2_3 
ROOT
ATOM      1  C2  UNL d   1      -5.040  -1.007   0.471  0.00  0.00    -0.081 A 
ATOM      2  C3  UNL d   1      -4.477   0.227   0.822  0.00  0.00     0.006 A 
ATOM      3  C4  UNL d   1      -3.542   0.309   1.857  0.00  0.00     0.002 A 
ATOM      4  C5  UNL d   1      -3.148  -0.839   2.551  0.00  0.00    -0.080 A 
ATOM      5  C6  UNL d   1      -2.123  -0.769   3.643  0.00  0.00     0.076 C 
ATOM      6  C7  UNL d   1      -3.723  -2.069   2.212  0.00  0.00     0.002 A 
ATOM      7  C8  UNL d   1      -4.659  -2.152   1.178  0.00  0.00     0.006 A 
ENDROOT
BRANCH   1   8
ATOM      8  C1  UNL d   1      -6.000  -1.109  -0.687  0.00  0.00     0.054 C 
ATOM      9  C   UNL d   1      -5.330  -0.722  -1.997  0.00  0.00     0.018 C 
ENDBRANCH   1   8
TORSDOF 1
ENDMDL
