MODEL 1
REMARK minimizedAffinity -2.00434589
REMARK minimizedRMSD -1
REMARK  1 active torsions:
REMARK  status: ('A' for Active; 'I' for Inactive)
REMARK    1  A    between atoms: C1_2  and  C2_3 
ROOT
ATOM      1  C2  UNL d   1      -2.978  -0.351   2.289  0.00  0.00    -0.081 A 
ATOM      2  C3  UNL d   1      -2.541  -0.879   1.068  0.00  0.00     0.006 A 
ATOM      3  C4  UNL d   1      -3.463  -1.359   0.134  0.00  0.00     0.002 A 
ATOM      4  C5  UNL d   1      -4.835  -1.313   0.402  0.00  0.00    -0.080 A 
ATOM      5  C6  UNL d   1      -5.836  -1.797  -0.604  0.00  0.00     0.076 C 
ATOM      6  C7  UNL d   1      -5.270  -0.801   1.629  0.00  0.00     0.002 A 
ATOM      7  C8  UNL d   1      -4.350  -0.321   2.564  0.00  0.00     0.006 A 
ENDROOT
BRANCH   1   8
ATOM      8  C1  UNL d   1      -1.991   0.227   3.271  0.00  0.00     0.054 C 
ATOM      9  C   UNL d   1      -2.389  -0.088   4.706  0.00  0.00     0.018 C 
ENDBRANCH   1   8
TORSDOF 1
ENDMDL
