MODEL 1
REMARK minimizedAffinity 5.87624454
REMARK minimizedRMSD -1
REMARK  1 active torsions:
REMARK  status: ('A' for Active; 'I' for Inactive)
REMARK    1  A    between atoms: C1_2  and  C2_3 
ROOT
ATOM      1  C2  UNL d   1      -2.703  -0.239   2.688  0.00  0.00    -0.081 A 
ATOM      2  C3  UNL d   1      -3.080  -1.588   2.698  0.00  0.00     0.006 A 
ATOM      3  C4  UNL d   1      -4.154  -2.028   1.920  0.00  0.00     0.002 A 
ATOM      4  C5  UNL d   1      -4.863  -1.130   1.115  0.00  0.00    -0.080 A 
ATOM      5  C6  UNL d   1      -5.999  -1.595   0.253  0.00  0.00     0.076 C 
ATOM      6  C7  UNL d   1      -4.497   0.221   1.119  0.00  0.00     0.002 A 
ATOM      7  C8  UNL d   1      -3.424   0.661   1.897  0.00  0.00     0.006 A 
ENDROOT
BRANCH   1   8
ATOM      8  C1  UNL d   1      -1.505   0.227   3.475  0.00  0.00     0.054 C 
ATOM      9  C   UNL d   1      -1.523  -0.329   4.892  0.00  0.00     0.018 C 
ENDBRANCH   1   8
TORSDOF 1
ENDMDL
