MODEL 1
REMARK minimizedAffinity -3.60576272
REMARK minimizedRMSD -1
REMARK  0 active torsions:
REMARK  status: ('A' for Active; 'I' for Inactive)
ROOT
ATOM      1  C   UNL d   1      -3.437   1.137   3.316  0.00  0.00     0.023 A 
ATOM      2  C1  UNL d   1      -2.896   0.021   2.677  0.00  0.00     0.003 A 
ATOM      3  C2  UNL d   1      -1.691   0.131   1.979  0.00  0.00     0.048 A 
ATOM      4  C3  UNL d   1      -1.032   1.359   1.925  0.00  0.00     0.023 A 
ATOM      5  C4  UNL d   1      -1.570   2.478   2.564  0.00  0.00     0.048 A 
ATOM      6  C5  UNL d   1      -2.775   2.364   3.259  0.00  0.00     0.003 A 
ATOM      7  I   UNL d   1       0.761   1.524   0.888  0.00  0.00    -0.146 I 
ENDROOT
TORSDOF 0
ENDMDL
