MODEL 1
REMARK minimizedAffinity -2.88331628
REMARK minimizedRMSD -1
REMARK  0 active torsions:
REMARK  status: ('A' for Active; 'I' for Inactive)
ROOT
ATOM      1  C   UNL d   1      -0.585   0.265   1.960  0.00  0.00     0.023 A 
ATOM      2  C1  UNL d   1      -0.690   1.546   2.501  0.00  0.00     0.003 A 
ATOM      3  C2  UNL d   1      -1.872   1.948   3.125  0.00  0.00     0.048 A 
ATOM      4  C3  UNL d   1      -2.947   1.063   3.205  0.00  0.00     0.023 A 
ATOM      5  C4  UNL d   1      -2.847  -0.221   2.666  0.00  0.00     0.048 A 
ATOM      6  C5  UNL d   1      -1.663  -0.618   2.043  0.00  0.00     0.003 A 
ATOM      7  I   UNL d   1      -4.708   1.659   4.133  0.00  0.00    -0.146 I 
ENDROOT
TORSDOF 0
ENDMDL
