MODEL 1
REMARK minimizedAffinity -0.0896471441
REMARK minimizedRMSD -1
REMARK  0 active torsions:
REMARK  status: ('A' for Active; 'I' for Inactive)
ROOT
ATOM      1  C   UNL d   1      -0.911   1.356   1.289  0.00  0.00     0.023 A 
ATOM      2  C1  UNL d   1      -1.205   2.579   1.892  0.00  0.00     0.003 A 
ATOM      3  C2  UNL d   1      -2.239   2.668   2.827  0.00  0.00     0.048 A 
ATOM      4  C3  UNL d   1      -2.974   1.529   3.155  0.00  0.00     0.023 A 
ATOM      5  C4  UNL d   1      -2.683   0.303   2.554  0.00  0.00     0.048 A 
ATOM      6  C5  UNL d   1      -1.649   0.220   1.620  0.00  0.00     0.003 A 
ATOM      7  I   UNL d   1      -4.513   1.658   4.546  0.00  0.00    -0.146 I 
ENDROOT
TORSDOF 0
ENDMDL
