MODEL 1
REMARK minimizedAffinity 0.914314508
REMARK minimizedRMSD -1
REMARK  0 active torsions:
REMARK  status: ('A' for Active; 'I' for Inactive)
ROOT
ATOM      1  C   UNL d   1      -0.517   0.676   1.363  0.00  0.00     0.023 A 
ATOM      2  C1  UNL d   1      -0.688   1.984   1.817  0.00  0.00     0.003 A 
ATOM      3  C2  UNL d   1      -1.743   2.293   2.679  0.00  0.00     0.048 A 
ATOM      4  C3  UNL d   1      -2.622   1.289   3.083  0.00  0.00     0.023 A 
ATOM      5  C4  UNL d   1      -2.454  -0.021   2.632  0.00  0.00     0.048 A 
ATOM      6  C5  UNL d   1      -1.398  -0.325   1.770  0.00  0.00     0.003 A 
ATOM      7  I   UNL d   1      -4.192   1.746   4.366  0.00  0.00    -0.146 I 
ENDROOT
TORSDOF 0
ENDMDL
