MODEL 1
REMARK minimizedAffinity -2.27409601
REMARK minimizedRMSD -1
REMARK  0 active torsions:
REMARK  status: ('A' for Active; 'I' for Inactive)
ROOT
ATOM      1  C   UNL d   1       0.139   0.025   1.020  0.00  0.00     0.023 A 
ATOM      2  C1  UNL d   1      -0.860  -0.764   1.590  0.00  0.00     0.003 A 
ATOM      3  C2  UNL d   1      -1.878  -0.171   2.339  0.00  0.00     0.048 A 
ATOM      4  C3  UNL d   1      -1.892   1.212   2.514  0.00  0.00     0.023 A 
ATOM      5  C4  UNL d   1      -0.895   2.006   1.945  0.00  0.00     0.048 A 
ATOM      6  C5  UNL d   1       0.121   1.409   1.198  0.00  0.00     0.003 A 
ATOM      7  I   UNL d   1      -3.406   2.097   3.629  0.00  0.00    -0.146 I 
ENDROOT
TORSDOF 0
ENDMDL
