MODEL 1
REMARK minimizedAffinity -0.752700806
REMARK minimizedRMSD -1
REMARK  0 active torsions:
REMARK  status: ('A' for Active; 'I' for Inactive)
ROOT
ATOM      1  C   UNL d   1       0.201   1.545   0.486  0.00  0.00     0.023 A 
ATOM      2  C1  UNL d   1       0.010   2.824   1.011  0.00  0.00     0.003 A 
ATOM      3  C2  UNL d   1      -1.031   3.062   1.910  0.00  0.00     0.048 A 
ATOM      4  C3  UNL d   1      -1.878   2.018   2.281  0.00  0.00     0.023 A 
ATOM      5  C4  UNL d   1      -1.690   0.737   1.759  0.00  0.00     0.048 A 
ATOM      6  C5  UNL d   1      -0.648   0.503   0.859  0.00  0.00     0.003 A 
ATOM      7  I   UNL d   1      -3.428   2.370   3.619  0.00  0.00    -0.146 I 
ENDROOT
TORSDOF 0
ENDMDL
