MODEL 1
REMARK minimizedAffinity -0.69842428
REMARK minimizedRMSD -1
REMARK  0 active torsions:
REMARK  status: ('A' for Active; 'I' for Inactive)
ROOT
ATOM      1  C   UNL d   1      -3.098  -0.629   2.902  0.00  0.00     0.023 A 
ATOM      2  C1  UNL d   1      -2.946   0.751   2.764  0.00  0.00     0.003 A 
ATOM      3  C2  UNL d   1      -1.827   1.270   2.108  0.00  0.00     0.048 A 
ATOM      4  C3  UNL d   1      -0.865   0.403   1.592  0.00  0.00     0.023 A 
ATOM      5  C4  UNL d   1      -1.014  -0.979   1.726  0.00  0.00     0.048 A 
ATOM      6  C5  UNL d   1      -2.133  -1.493   2.384  0.00  0.00     0.003 A 
ATOM      7  I   UNL d   1       0.800   1.172   0.615  0.00  0.00    -0.146 I 
ENDROOT
TORSDOF 0
ENDMDL
