MODEL 1
REMARK minimizedAffinity -2.86311913
REMARK minimizedRMSD -1
REMARK  0 active torsions:
REMARK  status: ('A' for Active; 'I' for Inactive)
ROOT
ATOM      1  C   UNL d   1       0.419   0.962   0.981  0.00  0.00     0.023 A 
ATOM      2  C1  UNL d   1      -0.527  -0.062   0.958  0.00  0.00     0.003 A 
ATOM      3  C2  UNL d   1      -1.731   0.081   1.651  0.00  0.00     0.048 A 
ATOM      4  C3  UNL d   1      -1.981   1.253   2.365  0.00  0.00     0.023 A 
ATOM      5  C4  UNL d   1      -1.038   2.281   2.390  0.00  0.00     0.048 A 
ATOM      6  C5  UNL d   1       0.165   2.132   1.696  0.00  0.00     0.003 A 
ATOM      7  I   UNL d   1      -3.772   1.469   3.398  0.00  0.00    -0.146 I 
ENDROOT
TORSDOF 0
ENDMDL
