MODEL 1
REMARK minimizedAffinity 2.13819838
REMARK minimizedRMSD -1
REMARK  0 active torsions:
REMARK  status: ('A' for Active; 'I' for Inactive)
ROOT
ATOM      1  C   UNL d   1       0.252   0.410   0.877  0.00  0.00     0.023 A 
ATOM      2  C1  UNL d   1      -0.350  -0.473   1.773  0.00  0.00     0.003 A 
ATOM      3  C2  UNL d   1      -1.336  -0.016   2.650  0.00  0.00     0.048 A 
ATOM      4  C3  UNL d   1      -1.715   1.326   2.625  0.00  0.00     0.023 A 
ATOM      5  C4  UNL d   1      -1.116   2.213   1.729  0.00  0.00     0.048 A 
ATOM      6  C5  UNL d   1      -0.130   1.751   0.855  0.00  0.00     0.003 A 
ATOM      7  I   UNL d   1      -3.182   2.009   3.929  0.00  0.00    -0.146 I 
ENDROOT
TORSDOF 0
ENDMDL
