MODEL 1
REMARK minimizedAffinity -0.615620196
REMARK minimizedRMSD -1
REMARK  0 active torsions:
REMARK  status: ('A' for Active; 'I' for Inactive)
ROOT
ATOM      1  C   UNL d   1       0.222   0.872   1.034  0.00  0.00     0.023 A 
ATOM      2  C1  UNL d   1      -0.776  -0.080   1.246  0.00  0.00     0.003 A 
ATOM      3  C2  UNL d   1      -1.888   0.236   2.030  0.00  0.00     0.048 A 
ATOM      4  C3  UNL d   1      -1.996   1.505   2.597  0.00  0.00     0.023 A 
ATOM      5  C4  UNL d   1      -1.001   2.460   2.387  0.00  0.00     0.048 A 
ATOM      6  C5  UNL d   1       0.110   2.140   1.604  0.00  0.00     0.003 A 
ATOM      7  I   UNL d   1      -3.650   1.977   3.764  0.00  0.00    -0.146 I 
ENDROOT
TORSDOF 0
ENDMDL
