MODEL 1
REMARK minimizedAffinity -1.45776045
REMARK minimizedRMSD -1
REMARK  0 active torsions:
REMARK  status: ('A' for Active; 'I' for Inactive)
ROOT
ATOM      1  C   UNL d   1       0.263   0.300   0.562  0.00  0.00     0.023 A 
ATOM      2  C1  UNL d   1      -0.687  -0.521   1.169  0.00  0.00     0.003 A 
ATOM      3  C2  UNL d   1      -1.687   0.037   1.967  0.00  0.00     0.048 A 
ATOM      4  C3  UNL d   1      -1.732   1.418   2.154  0.00  0.00     0.023 A 
ATOM      5  C4  UNL d   1      -0.784   2.244   1.549  0.00  0.00     0.048 A 
ATOM      6  C5  UNL d   1       0.215   1.681   0.752  0.00  0.00     0.003 A 
ATOM      7  I   UNL d   1      -3.220   2.252   3.342  0.00  0.00    -0.146 I 
ENDROOT
TORSDOF 0
ENDMDL
