MODEL 1
REMARK minimizedAffinity 5.68424511
REMARK minimizedRMSD -1
REMARK  0 active torsions:
REMARK  status: ('A' for Active; 'I' for Inactive)
ROOT
ATOM      1  C   UNL d   1      -1.461   3.599   1.433  0.00  0.00     0.023 A 
ATOM      2  C1  UNL d   1      -0.372   2.986   0.814  0.00  0.00     0.003 A 
ATOM      3  C2  UNL d   1      -0.008   1.684   1.165  0.00  0.00     0.048 A 
ATOM      4  C3  UNL d   1      -0.740   1.001   2.136  0.00  0.00     0.023 A 
ATOM      5  C4  UNL d   1      -1.831   1.609   2.758  0.00  0.00     0.048 A 
ATOM      6  C5  UNL d   1      -2.190   2.911   2.404  0.00  0.00     0.003 A 
ATOM      7  I   UNL d   1      -0.201  -0.937   2.661  0.00  0.00    -0.146 I 
ENDROOT
TORSDOF 0
ENDMDL
