MODEL 1
REMARK minimizedAffinity -2.24418426
REMARK minimizedRMSD -1
REMARK  0 active torsions:
REMARK  status: ('A' for Active; 'I' for Inactive)
ROOT
ATOM      1  C   UNL d   1       0.033   0.827   1.045  0.00  0.00     0.023 A 
ATOM      2  C1  UNL d   1      -0.911  -0.139   1.395  0.00  0.00     0.003 A 
ATOM      3  C2  UNL d   1      -2.015   0.212   2.174  0.00  0.00     0.048 A 
ATOM      4  C3  UNL d   1      -2.170   1.532   2.599  0.00  0.00     0.023 A 
ATOM      5  C4  UNL d   1      -1.228   2.501   2.250  0.00  0.00     0.048 A 
ATOM      6  C5  UNL d   1      -0.126   2.145   1.472  0.00  0.00     0.003 A 
ATOM      7  I   UNL d   1      -3.813   2.057   3.758  0.00  0.00    -0.146 I 
ENDROOT
TORSDOF 0
ENDMDL
