MODEL 1
REMARK minimizedAffinity 0.90922761
REMARK minimizedRMSD -1
REMARK  0 active torsions:
REMARK  status: ('A' for Active; 'I' for Inactive)
ROOT
ATOM      1  C   UNL d   1      -0.658   2.273   1.781  0.00  0.00     0.023 A 
ATOM      2  C1  UNL d   1      -0.389   1.208   2.640  0.00  0.00     0.003 A 
ATOM      3  C2  UNL d   1       0.756   0.430   2.454  0.00  0.00     0.048 A 
ATOM      4  C3  UNL d   1       1.629   0.725   1.408  0.00  0.00     0.023 A 
ATOM      5  C4  UNL d   1       1.365   1.791   0.546  0.00  0.00     0.048 A 
ATOM      6  C5  UNL d   1       0.218   2.565   0.735  0.00  0.00     0.003 A 
ATOM      7  I   UNL d   1       3.334  -0.430   1.129  0.00  0.00    -0.146 I 
ENDROOT
TORSDOF 0
ENDMDL
