MODEL 1
REMARK minimizedAffinity -2.52427673
REMARK minimizedRMSD -1
REMARK  0 active torsions:
REMARK  status: ('A' for Active; 'I' for Inactive)
ROOT
ATOM      1  C   UNL d   1       0.209  -0.131   0.183  0.00  0.00     0.172 C 
ATOM      2  N   UNL d   1       0.531  -0.219  -1.221  0.00  0.00    -0.070 N 
ATOM      3  C1  UNL d   1       0.872  -1.363  -1.892  0.00  0.00    -0.004 A 
ATOM      4  C2  UNL d   1       1.103  -1.028  -3.209  0.00  0.00    -0.047 A 
ATOM      5  C3  UNL d   1       0.894   0.366  -3.334  0.00  0.00    -0.047 A 
ATOM      6  C4  UNL d   1       0.541   0.842  -2.088  0.00  0.00    -0.004 A 
ENDROOT
TORSDOF 0
ENDMDL
