MODEL 1
REMARK minimizedAffinity -1.25317085
REMARK minimizedRMSD -1
REMARK  0 active torsions:
REMARK  status: ('A' for Active; 'I' for Inactive)
ROOT
ATOM      1  C   UNL d   1      -0.506   0.161   0.097  0.00  0.00     0.172 C 
ATOM      2  N   UNL d   1      -0.032  -0.087  -1.245  0.00  0.00    -0.070 N 
ATOM      3  C1  UNL d   1       0.153  -1.319  -1.811  0.00  0.00    -0.004 A 
ATOM      4  C2  UNL d   1       0.612  -1.128  -3.097  0.00  0.00    -0.047 A 
ATOM      5  C3  UNL d   1       0.706   0.267  -3.310  0.00  0.00    -0.047 A 
ATOM      6  C4  UNL d   1       0.301   0.889  -2.147  0.00  0.00    -0.004 A 
ENDROOT
TORSDOF 0
ENDMDL
