MODEL 1
REMARK minimizedAffinity -2.46609831
REMARK minimizedRMSD -1
REMARK  0 active torsions:
REMARK  status: ('A' for Active; 'I' for Inactive)
ROOT
ATOM      1  C   UNL d   1      -0.158  -0.070  -0.856  0.00  0.00     0.172 C 
ATOM      2  N   UNL d   1      -0.683   0.208   0.460  0.00  0.00    -0.070 N 
ATOM      3  C1  UNL d   1       0.045   0.241   1.620  0.00  0.00    -0.004 A 
ATOM      4  C2  UNL d   1      -0.818   0.540   2.652  0.00  0.00    -0.047 A 
ATOM      5  C3  UNL d   1      -2.110   0.691   2.093  0.00  0.00    -0.047 A 
ATOM      6  C4  UNL d   1      -1.997   0.481   0.735  0.00  0.00    -0.004 A 
ENDROOT
TORSDOF 0
ENDMDL
