MODEL 1
REMARK minimizedAffinity -2.82837868
REMARK minimizedRMSD -1
REMARK  0 active torsions:
REMARK  status: ('A' for Active; 'I' for Inactive)
ROOT
ATOM      1  C   UNL d   1       0.656  -1.363  -3.247  0.00  0.00     0.172 C 
ATOM      2  N   UNL d   1       0.591  -0.759  -1.936  0.00  0.00    -0.070 N 
ATOM      3  C1  UNL d   1       0.432   0.576  -1.680  0.00  0.00    -0.004 A 
ATOM      4  C2  UNL d   1       0.420   0.744  -0.312  0.00  0.00    -0.047 A 
ATOM      5  C3  UNL d   1       0.578  -0.534   0.274  0.00  0.00    -0.047 A 
ATOM      6  C4  UNL d   1       0.682  -1.447  -0.755  0.00  0.00    -0.004 A 
ENDROOT
TORSDOF 0
ENDMDL
