MODEL 1
REMARK minimizedAffinity -2.71304703
REMARK minimizedRMSD -1
REMARK  0 active torsions:
REMARK  status: ('A' for Active; 'I' for Inactive)
ROOT
ATOM      1  C   UNL d   1       0.809  -0.459  -0.052  0.00  0.00     0.172 C 
ATOM      2  N   UNL d   1       0.879  -0.784  -1.457  0.00  0.00    -0.070 N 
ATOM      3  C1  UNL d   1       1.575  -1.831  -2.000  0.00  0.00    -0.004 A 
ATOM      4  C2  UNL d   1       1.389  -1.798  -3.365  0.00  0.00    -0.047 A 
ATOM      5  C3  UNL d   1       0.554  -0.692  -3.653  0.00  0.00    -0.047 A 
ATOM      6  C4  UNL d   1       0.254  -0.082  -2.453  0.00  0.00    -0.004 A 
ENDROOT
TORSDOF 0
ENDMDL
