MODEL 1
REMARK minimizedAffinity -2.71094179
REMARK minimizedRMSD -1
REMARK  0 active torsions:
REMARK  status: ('A' for Active; 'I' for Inactive)
ROOT
ATOM      1  C   UNL d   1       0.365   0.407  -0.938  0.00  0.00     0.172 C 
ATOM      2  N   UNL d   1      -0.056   0.456   0.443  0.00  0.00    -0.070 N 
ATOM      3  C1  UNL d   1      -1.350   0.555   0.880  0.00  0.00    -0.004 A 
ATOM      4  C2  UNL d   1      -1.330   0.571   2.258  0.00  0.00    -0.047 A 
ATOM      5  C3  UNL d   1       0.022   0.480   2.663  0.00  0.00    -0.047 A 
ATOM      6  C4  UNL d   1       0.790   0.410   1.519  0.00  0.00    -0.004 A 
ENDROOT
TORSDOF 0
ENDMDL
