MODEL 1
REMARK minimizedAffinity -0.434440017
REMARK minimizedRMSD -1
REMARK  0 active torsions:
REMARK  status: ('A' for Active; 'I' for Inactive)
ROOT
ATOM      1  C   UNL d   1       0.728  -0.248  -2.469  0.00  0.00     0.172 C 
ATOM      2  N   UNL d   1       0.619  -0.158  -1.032  0.00  0.00    -0.070 N 
ATOM      3  C1  UNL d   1       0.129   0.913  -0.334  0.00  0.00    -0.004 A 
ATOM      4  C2  UNL d   1       0.193   0.608   1.008  0.00  0.00    -0.047 A 
ATOM      5  C3  UNL d   1       0.742  -0.691   1.121  0.00  0.00    -0.047 A 
ATOM      6  C4  UNL d   1       0.997  -1.142  -0.157  0.00  0.00    -0.004 A 
ENDROOT
TORSDOF 0
ENDMDL
