MODEL 1
REMARK minimizedAffinity -1.2917788
REMARK minimizedRMSD -1
REMARK  0 active torsions:
REMARK  status: ('A' for Active; 'I' for Inactive)
ROOT
ATOM      1  C   UNL d   1      -0.865   0.941  -0.912  0.00  0.00     0.172 C 
ATOM      2  N   UNL d   1       0.049   0.305   0.008  0.00  0.00    -0.070 N 
ATOM      3  C1  UNL d   1       0.532   0.857   1.164  0.00  0.00    -0.004 A 
ATOM      4  C2  UNL d   1       1.370  -0.064   1.754  0.00  0.00    -0.047 A 
ATOM      5  C3  UNL d   1       1.391  -1.210   0.923  0.00  0.00    -0.047 A 
ATOM      6  C4  UNL d   1       0.565  -0.954  -0.150  0.00  0.00    -0.004 A 
ENDROOT
TORSDOF 0
ENDMDL
