MODEL 1
REMARK minimizedAffinity -2.33002877
REMARK minimizedRMSD -1
REMARK  0 active torsions:
REMARK  status: ('A' for Active; 'I' for Inactive)
ROOT
ATOM      1  C   UNL d   1       0.162   0.435  -1.221  0.00  0.00     0.172 C 
ATOM      2  N   UNL d   1       0.504  -0.430  -2.326  0.00  0.00    -0.070 N 
ATOM      3  C1  UNL d   1       0.010  -1.689  -2.536  0.00  0.00    -0.004 A 
ATOM      4  C2  UNL d   1       0.580  -2.179  -3.692  0.00  0.00    -0.047 A 
ATOM      5  C3  UNL d   1       1.448  -1.179  -4.192  0.00  0.00    -0.047 A 
ATOM      6  C4  UNL d   1       1.381  -0.107  -3.327  0.00  0.00    -0.004 A 
ENDROOT
TORSDOF 0
ENDMDL
