MODEL 1
REMARK minimizedAffinity -1.64880073
REMARK minimizedRMSD -1
REMARK  0 active torsions:
REMARK  status: ('A' for Active; 'I' for Inactive)
ROOT
ATOM      1  C   UNL d   1       0.492  -0.051  -1.348  0.00  0.00     0.172 C 
ATOM      2  N   UNL d   1       0.400   0.050   0.089  0.00  0.00    -0.070 N 
ATOM      3  C1  UNL d   1       1.346  -0.380   0.982  0.00  0.00    -0.004 A 
ATOM      4  C2  UNL d   1       0.885  -0.104   2.251  0.00  0.00    -0.047 A 
ATOM      5  C3  UNL d   1      -0.382   0.511   2.117  0.00  0.00    -0.047 A 
ATOM      6  C4  UNL d   1      -0.658   0.594   0.768  0.00  0.00    -0.004 A 
ENDROOT
TORSDOF 0
ENDMDL
