MODEL 1
REMARK minimizedAffinity -3.01320004
REMARK minimizedRMSD -1
REMARK  0 active torsions:
REMARK  status: ('A' for Active; 'I' for Inactive)
ROOT
ATOM      1  C   UNL d   1      -2.990   0.741   2.285  0.00  0.00     0.172 C 
ATOM      2  N   UNL d   1      -1.649   0.452   1.832  0.00  0.00    -0.070 N 
ATOM      3  C1  UNL d   1      -0.526   0.446   2.614  0.00  0.00    -0.004 A 
ATOM      4  C2  UNL d   1       0.547   0.124   1.811  0.00  0.00    -0.047 A 
ATOM      5  C3  UNL d   1       0.051  -0.069   0.500  0.00  0.00    -0.047 A 
ATOM      6  C4  UNL d   1      -1.312   0.140   0.541  0.00  0.00    -0.004 A 
ENDROOT
TORSDOF 0
ENDMDL
