MODEL 1
REMARK minimizedAffinity -1.42154205
REMARK minimizedRMSD -1
REMARK  0 active torsions:
REMARK  status: ('A' for Active; 'I' for Inactive)
ROOT
ATOM      1  C   UNL d   1       0.740  -1.703  -3.426  0.00  0.00     0.172 C 
ATOM      2  N   UNL d   1       0.535  -0.950  -2.211  0.00  0.00    -0.070 N 
ATOM      3  C1  UNL d   1       0.574  -1.459  -0.941  0.00  0.00    -0.004 A 
ATOM      4  C2  UNL d   1       0.330  -0.424  -0.064  0.00  0.00    -0.047 A 
ATOM      5  C3  UNL d   1       0.138   0.748  -0.835  0.00  0.00    -0.047 A 
ATOM      6  C4  UNL d   1       0.270   0.393  -2.161  0.00  0.00    -0.004 A 
ENDROOT
TORSDOF 0
ENDMDL
