MODEL 1
REMARK minimizedAffinity -5.12186813
REMARK minimizedRMSD -1
REMARK  0 active torsions:
REMARK  status: ('A' for Active; 'I' for Inactive)
ROOT
ATOM      1  C1  DEN d   1      -1.204  -2.094   0.538  0.00  0.00     0.130 A 
ATOM      2  C2  DEN d   1      -1.616  -0.820   1.121  0.00  0.00    -0.031 A 
ATOM      3  C3  DEN d   1      -0.402  -0.016   1.367  0.00  0.00     0.027 A 
ATOM      4  C4  DEN d   1       2.063  -0.615   0.901  0.00  0.00     0.027 A 
ATOM      5  C5  DEN d   1       2.910  -1.591   0.423  0.00  0.00    -0.003 A 
ATOM      6  C6  DEN d   1       2.452  -2.805  -0.014  0.00  0.00     0.001 A 
ATOM      7  C7  DEN d   1       1.105  -3.059  -0.025  0.00  0.00     0.017 A 
ATOM      8  C8  DEN d   1       0.246  -2.083   0.462  0.00  0.00    -0.094 A 
ATOM      9  C9  DEN d   1       0.727  -0.857   0.888  0.00  0.00    -0.072 A 
ENDROOT
TORSDOF 0
ENDMDL
