MODEL 1
REMARK minimizedAffinity -2.88129044
REMARK minimizedRMSD -1
REMARK  0 active torsions:
REMARK  status: ('A' for Active; 'I' for Inactive)
ROOT
ATOM      1  C1  DEN d   1      -1.796  -0.310   0.094  0.00  0.00     0.130 A 
ATOM      2  C2  DEN d   1      -2.093   0.725   1.081  0.00  0.00    -0.031 A 
ATOM      3  C3  DEN d   1      -0.867   0.975   1.865  0.00  0.00     0.027 A 
ATOM      4  C4  DEN d   1       1.453  -0.130   1.643  0.00  0.00     0.027 A 
ATOM      5  C5  DEN d   1       2.187  -1.071   0.956  0.00  0.00    -0.003 A 
ATOM      6  C6  DEN d   1       1.641  -1.842  -0.036  0.00  0.00     0.001 A 
ATOM      7  C7  DEN d   1       0.334  -1.654  -0.399  0.00  0.00     0.017 A 
ATOM      8  C8  DEN d   1      -0.415  -0.712   0.294  0.00  0.00    -0.094 A 
ATOM      9  C9  DEN d   1       0.159   0.066   1.285  0.00  0.00    -0.072 A 
ENDROOT
TORSDOF 0
ENDMDL
