MODEL 1
REMARK minimizedAffinity 12.9661722
REMARK minimizedRMSD -1
REMARK  0 active torsions:
REMARK  status: ('A' for Active; 'I' for Inactive)
ROOT
ATOM      1  C1  DEN d   1       2.480  -1.433   1.831  0.00  0.00     0.130 A 
ATOM      2  C2  DEN d   1       1.922  -0.225   2.432  0.00  0.00    -0.031 A 
ATOM      3  C3  DEN d   1       0.497  -0.143   2.051  0.00  0.00     0.027 A 
ATOM      4  C4  DEN d   1      -0.892  -1.762   0.603  0.00  0.00     0.027 A 
ATOM      5  C5  DEN d   1      -0.850  -2.923  -0.138  0.00  0.00    -0.003 A 
ATOM      6  C6  DEN d   1       0.302  -3.644  -0.301  0.00  0.00     0.001 A 
ATOM      7  C7  DEN d   1       1.452  -3.236   0.322  0.00  0.00     0.017 A 
ATOM      8  C8  DEN d   1       1.420  -2.063   1.064  0.00  0.00    -0.094 A 
ATOM      9  C9  DEN d   1       0.242  -1.355   1.227  0.00  0.00    -0.072 A 
ENDROOT
TORSDOF 0
ENDMDL
