MODEL 1
REMARK minimizedAffinity -2.92621493
REMARK minimizedRMSD -1
REMARK  0 active torsions:
REMARK  status: ('A' for Active; 'I' for Inactive)
ROOT
ATOM      1  C1  DEN d   1      -1.182   0.930   1.803  0.00  0.00     0.130 A 
ATOM      2  C2  DEN d   1      -2.552   0.547   1.471  0.00  0.00    -0.031 A 
ATOM      3  C3  DEN d   1      -2.496  -0.675   0.643  0.00  0.00     0.027 A 
ATOM      4  C4  DEN d   1      -0.433  -2.006  -0.148  0.00  0.00     0.027 A 
ATOM      5  C5  DEN d   1       0.943  -2.062  -0.126  0.00  0.00    -0.003 A 
ATOM      6  C6  DEN d   1       1.702  -1.113   0.506  0.00  0.00     0.001 A 
ATOM      7  C7  DEN d   1       1.088  -0.092   1.182  0.00  0.00     0.017 A 
ATOM      8  C8  DEN d   1      -0.299  -0.025   1.158  0.00  0.00    -0.094 A 
ATOM      9  C9  DEN d   1      -1.049  -1.001   0.524  0.00  0.00    -0.072 A 
ENDROOT
TORSDOF 0
ENDMDL
