MODEL 1
REMARK minimizedAffinity 7.94106293
REMARK minimizedRMSD -1
REMARK  0 active torsions:
REMARK  status: ('A' for Active; 'I' for Inactive)
ROOT
ATOM      1  C1  DEN d   1       3.590  -1.560   0.372  0.00  0.00     0.130 A 
ATOM      2  C2  DEN d   1       3.792  -0.479   1.334  0.00  0.00    -0.031 A 
ATOM      3  C3  DEN d   1       2.492  -0.185   1.969  0.00  0.00     0.027 A 
ATOM      4  C4  DEN d   1       0.199  -1.294   1.563  0.00  0.00     0.027 A 
ATOM      5  C5  DEN d   1      -0.472  -2.249   0.832  0.00  0.00    -0.003 A 
ATOM      6  C6  DEN d   1       0.152  -3.012  -0.119  0.00  0.00     0.001 A 
ATOM      7  C7  DEN d   1       1.496  -2.864  -0.334  0.00  0.00     0.017 A 
ATOM      8  C8  DEN d   1       2.178  -1.898   0.394  0.00  0.00    -0.094 A 
ATOM      9  C9  DEN d   1       1.532  -1.145   1.360  0.00  0.00    -0.072 A 
ENDROOT
TORSDOF 0
ENDMDL
