MODEL 1
REMARK minimizedAffinity -3.31168938
REMARK minimizedRMSD -1
REMARK  0 active torsions:
REMARK  status: ('A' for Active; 'I' for Inactive)
ROOT
ATOM      1  C1  DEN d   1       1.125  -3.751  -0.601  0.00  0.00     0.130 A 
ATOM      2  C2  DEN d   1       2.584  -3.715  -0.540  0.00  0.00    -0.031 A 
ATOM      3  C3  DEN d   1       2.986  -2.401   0.000  0.00  0.00     0.027 A 
ATOM      4  C4  DEN d   1       1.500  -0.431   0.750  0.00  0.00     0.027 A 
ATOM      5  C5  DEN d   1       0.202   0.011   0.875  0.00  0.00    -0.003 A 
ATOM      6  C6  DEN d   1      -0.870  -0.750   0.489  0.00  0.00     0.001 A 
ATOM      7  C7  DEN d   1      -0.664  -2.013   0.000  0.00  0.00     0.017 A 
ATOM      8  C8  DEN d   1       0.643  -2.463  -0.136  0.00  0.00    -0.094 A 
ATOM      9  C9  DEN d   1       1.712  -1.684   0.272  0.00  0.00    -0.072 A 
ENDROOT
TORSDOF 0
ENDMDL
