MODEL 1
REMARK minimizedAffinity 4.13918781
REMARK minimizedRMSD -1
REMARK  0 active torsions:
REMARK  status: ('A' for Active; 'I' for Inactive)
ROOT
ATOM      1  C1  DEN d   1       1.953  -0.154   2.673  0.00  0.00     0.130 A 
ATOM      2  C2  DEN d   1       3.330  -0.404   2.256  0.00  0.00    -0.031 A 
ATOM      3  C3  DEN d   1       3.294  -1.104   0.956  0.00  0.00     0.027 A 
ATOM      4  C4  DEN d   1       1.249  -1.815  -0.447  0.00  0.00     0.027 A 
ATOM      5  C5  DEN d   1      -0.127  -1.829  -0.498  0.00  0.00    -0.003 A 
ATOM      6  C6  DEN d   1      -0.900  -1.321   0.512  0.00  0.00     0.001 A 
ATOM      7  C7  DEN d   1      -0.302  -0.735   1.596  0.00  0.00     0.017 A 
ATOM      8  C8  DEN d   1       1.085  -0.724   1.658  0.00  0.00    -0.094 A 
ATOM      9  C9  DEN d   1       1.850  -1.232   0.622  0.00  0.00    -0.072 A 
ENDROOT
TORSDOF 0
ENDMDL
