MODEL 1
REMARK minimizedAffinity 7.32058573
REMARK minimizedRMSD -1
REMARK  0 active torsions:
REMARK  status: ('A' for Active; 'I' for Inactive)
ROOT
ATOM      1  C1  DEN d   1       2.493  -3.132  -0.129  0.00  0.00     0.130 A 
ATOM      2  C2  DEN d   1       1.697  -4.088  -0.893  0.00  0.00    -0.031 A 
ATOM      3  C3  DEN d   1       0.276  -3.710  -0.759  0.00  0.00     0.027 A 
ATOM      4  C4  DEN d   1      -0.763  -1.744   0.548  0.00  0.00     0.027 A 
ATOM      5  C5  DEN d   1      -0.488  -0.668   1.363  0.00  0.00    -0.003 A 
ATOM      6  C6  DEN d   1       0.786  -0.360   1.761  0.00  0.00     0.001 A 
ATOM      7  C7  DEN d   1       1.839  -1.111   1.309  0.00  0.00     0.017 A 
ATOM      8  C8  DEN d   1       1.569  -2.202   0.494  0.00  0.00    -0.094 A 
ATOM      9  C9  DEN d   1       0.275  -2.490   0.092  0.00  0.00    -0.072 A 
ENDROOT
TORSDOF 0
ENDMDL
