MODEL 1
REMARK minimizedAffinity -5.63738871
REMARK minimizedRMSD -1
REMARK  0 active torsions:
REMARK  status: ('A' for Active; 'I' for Inactive)
ROOT
ATOM      1  C1  DEN d   1      -1.135   0.619   2.391  0.00  0.00     0.130 A 
ATOM      2  C2  DEN d   1      -2.196   1.422   1.789  0.00  0.00    -0.031 A 
ATOM      3  C3  DEN d   1      -2.744   0.668   0.642  0.00  0.00     0.027 A 
ATOM      4  C4  DEN d   1      -2.058  -1.652  -0.250  0.00  0.00     0.027 A 
ATOM      5  C5  DEN d   1      -1.198  -2.714  -0.074  0.00  0.00    -0.003 A 
ATOM      6  C6  DEN d   1      -0.242  -2.724   0.907  0.00  0.00     0.001 A 
ATOM      7  C7  DEN d   1      -0.153  -1.670   1.778  0.00  0.00     0.017 A 
ATOM      8  C8  DEN d   1      -1.011  -0.593   1.602  0.00  0.00    -0.094 A 
ATOM      9  C9  DEN d   1      -1.979  -0.608   0.612  0.00  0.00    -0.072 A 
ENDROOT
TORSDOF 0
ENDMDL
