MODEL 1
REMARK minimizedAffinity 13.6202059
REMARK minimizedRMSD -1
REMARK  0 active torsions:
REMARK  status: ('A' for Active; 'I' for Inactive)
ROOT
ATOM      1  C1  DEN d   1       5.247  -4.503  -0.406  0.00  0.00     0.130 A 
ATOM      2  C2  DEN d   1       4.880  -5.903  -0.600  0.00  0.00    -0.031 A 
ATOM      3  C3  DEN d   1       3.407  -6.000  -0.547  0.00  0.00     0.027 A 
ATOM      4  C4  DEN d   1       1.670  -4.128  -0.190  0.00  0.00     0.027 A 
ATOM      5  C5  DEN d   1       1.503  -2.778   0.032  0.00  0.00    -0.003 A 
ATOM      6  C6  DEN d   1       2.564  -1.922   0.156  0.00  0.00     0.001 A 
ATOM      7  C7  DEN d   1       3.841  -2.399   0.015  0.00  0.00     0.017 A 
ATOM      8  C8  DEN d   1       4.018  -3.759  -0.202  0.00  0.00    -0.094 A 
ATOM      9  C9  DEN d   1       2.931  -4.606  -0.337  0.00  0.00    -0.072 A 
ENDROOT
TORSDOF 0
ENDMDL
