MODEL 1
REMARK minimizedAffinity 3.99572945
REMARK minimizedRMSD -1
REMARK  0 active torsions:
REMARK  status: ('A' for Active; 'I' for Inactive)
ROOT
ATOM      1  C1  BNZ d   1       2.340  -3.910   1.026  0.00  0.00     0.000 A 
ATOM      2  C2  BNZ d   1       2.529  -3.153  -0.099  0.00  0.00     0.000 A 
ATOM      3  C3  BNZ d   1       1.995  -1.899  -0.196  0.00  0.00     0.000 A 
ATOM      4  C4  BNZ d   1       1.240  -1.419   0.813  0.00  0.00     0.000 A 
ATOM      5  C5  BNZ d   1       1.032  -2.175   1.950  0.00  0.00     0.000 A 
ATOM      6  C6  BNZ d   1       1.604  -3.421   2.061  0.00  0.00     0.000 A 
ENDROOT
TORSDOF 0
ENDMDL
