MODEL 1
REMARK minimizedAffinity -1.41113567
REMARK minimizedRMSD -1
REMARK  0 active torsions:
REMARK  status: ('A' for Active; 'I' for Inactive)
ROOT
ATOM      1  C1  BNZ d   1       0.023  -1.475   3.285  0.00  0.00     0.000 A 
ATOM      2  C2  BNZ d   1       0.965  -2.349   2.812  0.00  0.00     0.000 A 
ATOM      3  C3  BNZ d   1       1.238  -2.429   1.475  0.00  0.00     0.000 A 
ATOM      4  C4  BNZ d   1       0.541  -1.664   0.610  0.00  0.00     0.000 A 
ATOM      5  C5  BNZ d   1      -0.418  -0.785   1.070  0.00  0.00     0.000 A 
ATOM      6  C6  BNZ d   1      -0.663  -0.679   2.420  0.00  0.00     0.000 A 
ENDROOT
TORSDOF 0
ENDMDL
