MODEL 1
REMARK minimizedAffinity -1.86741602
REMARK minimizedRMSD -1
REMARK  0 active torsions:
REMARK  status: ('A' for Active; 'I' for Inactive)
ROOT
ATOM      1  C1  BNZ d   1       0.879  -1.491   2.890  0.00  0.00     0.000 A 
ATOM      2  C2  BNZ d   1       0.160  -0.659   3.707  0.00  0.00     0.000 A 
ATOM      3  C3  BNZ d   1      -1.177  -0.460   3.501  0.00  0.00     0.000 A 
ATOM      4  C4  BNZ d   1      -1.783  -1.060   2.456  0.00  0.00     0.000 A 
ATOM      5  C5  BNZ d   1      -1.070  -1.893   1.618  0.00  0.00     0.000 A 
ATOM      6  C6  BNZ d   1       0.267  -2.122   1.851  0.00  0.00     0.000 A 
ENDROOT
TORSDOF 0
ENDMDL
