MODEL 1
REMARK minimizedAffinity 7.04498482
REMARK minimizedRMSD -1
REMARK  0 active torsions:
REMARK  status: ('A' for Active; 'I' for Inactive)
ROOT
ATOM      1  C1  BNZ d   1       5.989   1.258  -1.428  0.00  0.00     0.000 A 
ATOM      2  C2  BNZ d   1       5.985   2.209  -0.442  0.00  0.00     0.000 A 
ATOM      3  C3  BNZ d   1       5.999   1.850   0.877  0.00  0.00     0.000 A 
ATOM      4  C4  BNZ d   1       5.976   0.543   1.209  0.00  0.00     0.000 A 
ATOM      5  C5  BNZ d   1       5.971  -0.428   0.227  0.00  0.00     0.000 A 
ATOM      6  C6  BNZ d   1       5.996  -0.063  -1.100  0.00  0.00     0.000 A 
ENDROOT
TORSDOF 0
ENDMDL
