MODEL 1
REMARK minimizedAffinity 3.96673727
REMARK minimizedRMSD -1
REMARK  0 active torsions:
REMARK  status: ('A' for Active; 'I' for Inactive)
ROOT
ATOM      1  C1  BNZ d   1       3.492   4.987   4.148  0.00  0.00     0.000 A 
ATOM      2  C2  BNZ d   1       2.692   3.876   4.167  0.00  0.00     0.000 A 
ATOM      3  C3  BNZ d   1       1.683   3.756   5.081  0.00  0.00     0.000 A 
ATOM      4  C4  BNZ d   1       1.501   4.727   5.999  0.00  0.00     0.000 A 
ATOM      5  C5  BNZ d   1       2.305   5.849   5.998  0.00  0.00     0.000 A 
ATOM      6  C6  BNZ d   1       3.295   5.985   5.052  0.00  0.00     0.000 A 
ENDROOT
TORSDOF 0
ENDMDL
