MODEL 1
REMARK minimizedAffinity 4.5225873
REMARK minimizedRMSD -1
REMARK  0 active torsions:
REMARK  status: ('A' for Active; 'I' for Inactive)
ROOT
ATOM      1  C1  BNZ d   1       1.369   2.336   3.177  0.00  0.00     0.000 A 
ATOM      2  C2  BNZ d   1       1.981   2.424   1.955  0.00  0.00     0.000 A 
ATOM      3  C3  BNZ d   1       2.204   1.305   1.202  0.00  0.00     0.000 A 
ATOM      4  C4  BNZ d   1       1.852   0.098   1.688  0.00  0.00     0.000 A 
ATOM      5  C5  BNZ d   1       1.242  -0.008   2.922  0.00  0.00     0.000 A 
ATOM      6  C6  BNZ d   1       0.983   1.124   3.660  0.00  0.00     0.000 A 
ENDROOT
TORSDOF 0
ENDMDL
