MODEL 1
REMARK minimizedAffinity 7.31177664
REMARK minimizedRMSD -1
REMARK  0 active torsions:
REMARK  status: ('A' for Active; 'I' for Inactive)
ROOT
ATOM      1  C1  BNZ d   1      -3.194   2.651  -2.582  0.00  0.00     0.000 A 
ATOM      2  C2  BNZ d   1      -2.179   1.773  -2.309  0.00  0.00     0.000 A 
ATOM      3  C3  BNZ d   1      -0.874   2.180  -2.340  0.00  0.00     0.000 A 
ATOM      4  C4  BNZ d   1      -0.585   3.452  -2.681  0.00  0.00     0.000 A 
ATOM      5  C5  BNZ d   1      -1.596   4.347  -2.968  0.00  0.00     0.000 A 
ATOM      6  C6  BNZ d   1      -2.910   3.944  -2.899  0.00  0.00     0.000 A 
ENDROOT
TORSDOF 0
ENDMDL
