MODEL 1
REMARK minimizedAffinity -2.55174971
REMARK minimizedRMSD -1
REMARK  0 active torsions:
REMARK  status: ('A' for Active; 'I' for Inactive)
ROOT
ATOM      1  C   UNL d   1      -0.041   1.105   0.021  0.00  0.00    -0.002 A 
ATOM      2  C1  UNL d   1      -0.780  -0.061  -0.130  0.00  0.00     0.010 A 
ATOM      3  C2  UNL d   1      -0.199  -1.203  -0.684  0.00  0.00     0.041 A 
ATOM      4  C3  UNL d   1       1.151  -1.155  -1.085  0.00  0.00    -0.075 A 
ATOM      5  S   UNL d   1       2.072  -2.432  -1.787  0.00  0.00     0.015 SA
ATOM      6  C4  UNL d   1       3.469  -1.462  -1.902  0.00  0.00     0.022 A 
ATOM      7  C5  UNL d   1       3.255  -0.191  -1.422  0.00  0.00     0.026 A 
ATOM      8  C6  UNL d   1       1.915   0.006  -0.943  0.00  0.00    -0.082 A 
ATOM      9  C7  UNL d   1       1.297   1.148  -0.379  0.00  0.00     0.045 A 
ENDROOT
TORSDOF 0
ENDMDL
