MODEL 1
REMARK minimizedAffinity -0.231431484
REMARK minimizedRMSD -1
REMARK  0 active torsions:
REMARK  status: ('A' for Active; 'I' for Inactive)
ROOT
ATOM      1  C   UNL d   1       0.567   1.396   0.272  0.00  0.00    -0.002 A 
ATOM      2  C1  UNL d   1      -0.132   0.266  -0.129  0.00  0.00     0.010 A 
ATOM      3  C2  UNL d   1      -1.117  -0.288   0.691  0.00  0.00     0.041 A 
ATOM      4  C3  UNL d   1      -1.393   0.320   1.932  0.00  0.00    -0.075 A 
ATOM      5  S   UNL d   1      -2.557  -0.182   3.100  0.00  0.00     0.015 SA
ATOM      6  C4  UNL d   1      -2.155   1.092   4.158  0.00  0.00     0.022 A 
ATOM      7  C5  UNL d   1      -1.158   1.891   3.649  0.00  0.00     0.026 A 
ATOM      8  C6  UNL d   1      -0.703   1.459   2.357  0.00  0.00    -0.082 A 
ATOM      9  C7  UNL d   1       0.291   1.996   1.504  0.00  0.00     0.045 A 
ENDROOT
TORSDOF 0
ENDMDL
