MODEL 1
REMARK minimizedAffinity -3.45581317
REMARK minimizedRMSD -1
REMARK  0 active torsions:
REMARK  status: ('A' for Active; 'I' for Inactive)
ROOT
ATOM      1  C   UNL d   1       2.819  -0.932  -1.620  0.00  0.00    -0.002 A 
ATOM      2  C1  UNL d   1       2.757   0.444  -1.788  0.00  0.00     0.010 A 
ATOM      3  C2  UNL d   1       1.676   1.172  -1.289  0.00  0.00     0.041 A 
ATOM      4  C3  UNL d   1       0.649   0.488  -0.609  0.00  0.00    -0.075 A 
ATOM      5  S   UNL d   1      -0.772   1.173   0.088  0.00  0.00     0.015 SA
ATOM      6  C4  UNL d   1      -1.329  -0.344   0.627  0.00  0.00     0.022 A 
ATOM      7  C5  UNL d   1      -0.465  -1.360   0.291  0.00  0.00     0.026 A 
ATOM      8  C6  UNL d   1       0.689  -0.897  -0.426  0.00  0.00    -0.082 A 
ATOM      9  C7  UNL d   1       1.798  -1.607  -0.945  0.00  0.00     0.045 A 
ENDROOT
TORSDOF 0
ENDMDL
