MODEL 1
REMARK minimizedAffinity -4.30966234
REMARK minimizedRMSD -1
REMARK  0 active torsions:
REMARK  status: ('A' for Active; 'I' for Inactive)
ROOT
ATOM      1  C   UNL d   1       3.031  -0.963  -1.224  0.00  0.00    -0.002 A 
ATOM      2  C1  UNL d   1       2.821   0.366  -0.887  0.00  0.00     0.010 A 
ATOM      3  C2  UNL d   1       1.585   0.787  -0.392  0.00  0.00     0.041 A 
ATOM      4  C3  UNL d   1       0.554  -0.162  -0.239  0.00  0.00    -0.075 A 
ATOM      5  S   UNL d   1      -1.041   0.123   0.349  0.00  0.00     0.015 SA
ATOM      6  C4  UNL d   1      -1.481  -1.513   0.168  0.00  0.00     0.022 A 
ATOM      7  C5  UNL d   1      -0.448  -2.273  -0.329  0.00  0.00     0.026 A 
ATOM      8  C6  UNL d   1       0.742  -1.506  -0.571  0.00  0.00    -0.082 A 
ATOM      9  C7  UNL d   1       2.007  -1.901  -1.071  0.00  0.00     0.045 A 
ENDROOT
TORSDOF 0
ENDMDL
