MODEL 1
REMARK minimizedAffinity -3.4599905
REMARK minimizedRMSD -1
REMARK  0 active torsions:
REMARK  status: ('A' for Active; 'I' for Inactive)
ROOT
ATOM      1  C   UNL d   1       2.294  -1.719  -1.448  0.00  0.00    -0.002 A 
ATOM      2  C1  UNL d   1       2.678  -0.411  -1.705  0.00  0.00     0.010 A 
ATOM      3  C2  UNL d   1       1.904   0.659  -1.252  0.00  0.00     0.041 A 
ATOM      4  C3  UNL d   1       0.726   0.389  -0.527  0.00  0.00    -0.075 A 
ATOM      5  S   UNL d   1      -0.378   1.539   0.128  0.00  0.00     0.015 SA
ATOM      6  C4  UNL d   1      -1.385   0.321   0.765  0.00  0.00     0.022 A 
ATOM      7  C5  UNL d   1      -0.906  -0.939   0.494  0.00  0.00     0.026 A 
ATOM      8  C6  UNL d   1       0.319  -0.920  -0.255  0.00  0.00    -0.082 A 
ATOM      9  C7  UNL d   1       1.126  -1.983  -0.728  0.00  0.00     0.045 A 
ENDROOT
TORSDOF 0
ENDMDL
