MODEL 1
REMARK minimizedAffinity -2.72378826
REMARK minimizedRMSD -1
REMARK  0 active torsions:
REMARK  status: ('A' for Active; 'I' for Inactive)
ROOT
ATOM      1  C   UNL d   1       2.985   0.527  -0.983  0.00  0.00    -0.002 A 
ATOM      2  C1  UNL d   1       2.984  -0.786  -1.431  0.00  0.00     0.010 A 
ATOM      3  C2  UNL d   1       1.868  -1.602  -1.238  0.00  0.00     0.041 A 
ATOM      4  C3  UNL d   1       0.740  -1.070  -0.582  0.00  0.00    -0.075 A 
ATOM      5  S   UNL d   1      -0.741  -1.882  -0.235  0.00  0.00     0.015 SA
ATOM      6  C4  UNL d   1      -1.407  -0.505   0.515  0.00  0.00     0.022 A 
ATOM      7  C5  UNL d   1      -0.535   0.558   0.510  0.00  0.00     0.026 A 
ATOM      8  C6  UNL d   1       0.717   0.250  -0.122  0.00  0.00    -0.082 A 
ATOM      9  C7  UNL d   1       1.865   1.051  -0.332  0.00  0.00     0.045 A 
ENDROOT
TORSDOF 0
ENDMDL
