MODEL 1
REMARK minimizedAffinity -0.0955363661
REMARK minimizedRMSD -1
REMARK  0 active torsions:
REMARK  status: ('A' for Active; 'I' for Inactive)
ROOT
ATOM      1  C   UNL d   1       2.394  -1.264  -2.703  0.00  0.00    -0.002 A 
ATOM      2  C1  UNL d   1       2.091  -0.011  -3.216  0.00  0.00     0.010 A 
ATOM      3  C2  UNL d   1       1.201   0.833  -2.549  0.00  0.00     0.041 A 
ATOM      4  C3  UNL d   1       0.618   0.394  -1.344  0.00  0.00    -0.075 A 
ATOM      5  S   UNL d   1      -0.498   1.258  -0.354  0.00  0.00     0.015 SA
ATOM      6  C4  UNL d   1      -0.597  -0.016   0.774  0.00  0.00     0.022 A 
ATOM      7  C5  UNL d   1       0.195  -1.082   0.420  0.00  0.00     0.026 A 
ATOM      8  C6  UNL d   1       0.909  -0.863  -0.807  0.00  0.00    -0.082 A 
ATOM      9  C7  UNL d   1       1.814  -1.697  -1.508  0.00  0.00     0.045 A 
ENDROOT
TORSDOF 0
ENDMDL
