MODEL 1
REMARK minimizedAffinity -3.41721272
REMARK minimizedRMSD -1
REMARK  0 active torsions:
REMARK  status: ('A' for Active; 'I' for Inactive)
ROOT
ATOM      1  C   UNL d   1       2.653  -1.436  -1.222  0.00  0.00    -0.002 A 
ATOM      2  C1  UNL d   1       1.818  -2.371  -0.628  0.00  0.00     0.010 A 
ATOM      3  C2  UNL d   1       0.577  -1.990  -0.113  0.00  0.00     0.041 A 
ATOM      4  C3  UNL d   1       0.186  -0.640  -0.207  0.00  0.00    -0.075 A 
ATOM      5  S   UNL d   1      -1.288   0.057   0.353  0.00  0.00     0.015 SA
ATOM      6  C4  UNL d   1      -0.845   1.612  -0.184  0.00  0.00     0.022 A 
ATOM      7  C5  UNL d   1       0.395   1.618  -0.778  0.00  0.00     0.026 A 
ATOM      8  C6  UNL d   1       1.009   0.320  -0.802  0.00  0.00    -0.082 A 
ATOM      9  C7  UNL d   1       2.261  -0.097  -1.314  0.00  0.00     0.045 A 
ENDROOT
TORSDOF 0
ENDMDL
