MODEL 1
REMARK minimizedAffinity -2.03304601
REMARK minimizedRMSD -1
REMARK  0 active torsions:
REMARK  status: ('A' for Active; 'I' for Inactive)
ROOT
ATOM      1  C   UNL d   1       2.516  -0.136  -3.110  0.00  0.00    -0.002 A 
ATOM      2  C1  UNL d   1       1.845   1.079  -3.107  0.00  0.00     0.010 A 
ATOM      3  C2  UNL d   1       0.817   1.320  -2.194  0.00  0.00     0.041 A 
ATOM      4  C3  UNL d   1       0.473   0.311  -1.273  0.00  0.00    -0.075 A 
ATOM      5  S   UNL d   1      -0.752   0.383  -0.061  0.00  0.00     0.015 SA
ATOM      6  C4  UNL d   1      -0.412  -1.196   0.482  0.00  0.00     0.022 A 
ATOM      7  C5  UNL d   1       0.608  -1.779  -0.232  0.00  0.00     0.026 A 
ATOM      8  C6  UNL d   1       1.135  -0.920  -1.255  0.00  0.00    -0.082 A 
ATOM      9  C7  UNL d   1       2.172  -1.134  -2.195  0.00  0.00     0.045 A 
ENDROOT
TORSDOF 0
ENDMDL
