MODEL 1
REMARK minimizedAffinity -2.37531304
REMARK minimizedRMSD -1
REMARK  0 active torsions:
REMARK  status: ('A' for Active; 'I' for Inactive)
ROOT
ATOM      1  C   UNL d   1       2.439  -0.572  -2.233  0.00  0.00    -0.002 A 
ATOM      2  C1  UNL d   1       2.095   0.665  -2.758  0.00  0.00     0.010 A 
ATOM      3  C2  UNL d   1       1.035   1.396  -2.218  0.00  0.00     0.041 A 
ATOM      4  C3  UNL d   1       0.320   0.858  -1.130  0.00  0.00    -0.075 A 
ATOM      5  S   UNL d   1      -1.015   1.574  -0.307  0.00  0.00     0.015 SA
ATOM      6  C4  UNL d   1      -1.160   0.254   0.761  0.00  0.00     0.022 A 
ATOM      7  C5  UNL d   1      -0.221  -0.719   0.510  0.00  0.00     0.026 A 
ATOM      8  C6  UNL d   1       0.648  -0.387  -0.584  0.00  0.00    -0.082 A 
ATOM      9  C7  UNL d   1       1.727  -1.103  -1.154  0.00  0.00     0.045 A 
ENDROOT
TORSDOF 0
ENDMDL
