MODEL 1
REMARK minimizedAffinity -6.15066051
REMARK minimizedRMSD -1
REMARK  0 active torsions:
REMARK  status: ('A' for Active; 'I' for Inactive)
ROOT
ATOM      1  C   UNL d   1       3.144   0.175  -2.343  0.00  0.00    -0.002 A 
ATOM      2  C1  UNL d   1       3.008  -0.848  -1.415  0.00  0.00     0.010 A 
ATOM      3  C2  UNL d   1       1.863  -0.941  -0.622  0.00  0.00     0.041 A 
ATOM      4  C3  UNL d   1       0.845   0.021  -0.780  0.00  0.00    -0.075 A 
ATOM      5  S   UNL d   1      -0.646   0.106   0.081  0.00  0.00     0.015 SA
ATOM      6  C4  UNL d   1      -1.139   1.503  -0.763  0.00  0.00     0.022 A 
ATOM      7  C5  UNL d   1      -0.201   1.907  -1.682  0.00  0.00     0.026 A 
ATOM      8  C6  UNL d   1       0.958   1.060  -1.708  0.00  0.00    -0.082 A 
ATOM      9  C7  UNL d   1       2.132   1.127  -2.496  0.00  0.00     0.045 A 
ENDROOT
TORSDOF 0
ENDMDL
