MODEL 1
REMARK minimizedAffinity 19.1184158
REMARK minimizedRMSD -1
REMARK  0 active torsions:
REMARK  status: ('A' for Active; 'I' for Inactive)
ROOT
ATOM      1  N1  IND d   1       2.996  -0.295  -4.774  0.00  0.00    -0.196 N 
ATOM      2  C2  IND d   1       2.538  -0.691  -5.999  0.00  0.00     0.054 A 
ATOM      3  C3  IND d   1       1.408  -1.422  -5.865  0.00  0.00    -0.031 A 
ATOM      4  C4  IND d   1       0.079  -2.004  -3.739  0.00  0.00     0.051 A 
ATOM      5  C5  IND d   1       0.124  -1.895  -2.377  0.00  0.00    -0.031 A 
ATOM      6  C6  IND d   1       1.147  -1.231  -1.732  0.00  0.00     0.015 A 
ATOM      7  C7  IND d   1       2.162  -0.639  -2.428  0.00  0.00    -0.016 A 
ATOM      8  C8  IND d   1       2.125  -0.754  -3.811  0.00  0.00    -0.047 A 
ATOM      9  C9  IND d   1       1.111  -1.463  -4.469  0.00  0.00    -0.096 A 
ATOM     10  HN1 IND d   1       3.709   0.164  -4.629  0.00  0.00     0.298 HD
ENDROOT
TORSDOF 0
ENDMDL
