MODEL 1
REMARK minimizedAffinity 13.0520477
REMARK minimizedRMSD -1
REMARK  0 active torsions:
REMARK  status: ('A' for Active; 'I' for Inactive)
ROOT
ATOM      1  N1  IND d   1       1.796  -0.091  -4.231  0.00  0.00    -0.196 N 
ATOM      2  C2  IND d   1       1.869  -0.987  -5.260  0.00  0.00     0.054 A 
ATOM      3  C3  IND d   1       1.978  -2.247  -4.781  0.00  0.00    -0.031 A 
ATOM      4  C4  IND d   1       1.953  -3.077  -2.344  0.00  0.00     0.051 A 
ATOM      5  C5  IND d   1       1.941  -2.628  -1.053  0.00  0.00    -0.031 A 
ATOM      6  C6  IND d   1       1.875  -1.283  -0.750  0.00  0.00     0.015 A 
ATOM      7  C7  IND d   1       1.808  -0.334  -1.730  0.00  0.00    -0.016 A 
ATOM      8  C8  IND d   1       1.828  -0.786  -3.042  0.00  0.00    -0.047 A 
ATOM      9  C9  IND d   1       1.937  -2.147  -3.356  0.00  0.00    -0.096 A 
ATOM     10  HN1 IND d   1       1.739   0.763  -4.312  0.00  0.00     0.298 HD
ENDROOT
TORSDOF 0
ENDMDL
