MODEL 1
REMARK minimizedAffinity 17.1752319
REMARK minimizedRMSD -1
REMARK  0 active torsions:
REMARK  status: ('A' for Active; 'I' for Inactive)
ROOT
ATOM      1  N1  IND d   1       3.226  -1.920   0.117  0.00  0.00    -0.196 N 
ATOM      2  C2  IND d   1       3.397  -3.253   0.368  0.00  0.00     0.054 A 
ATOM      3  C3  IND d   1       2.545  -3.986  -0.383  0.00  0.00    -0.031 A 
ATOM      4  C4  IND d   1       0.854  -3.213  -2.164  0.00  0.00     0.051 A 
ATOM      5  C5  IND d   1       0.313  -2.088  -2.718  0.00  0.00    -0.031 A 
ATOM      6  C6  IND d   1       0.725  -0.823  -2.350  0.00  0.00     0.015 A 
ATOM      7  C7  IND d   1       1.706  -0.637  -1.418  0.00  0.00    -0.016 A 
ATOM      8  C8  IND d   1       2.253  -1.777  -0.848  0.00  0.00    -0.047 A 
ATOM      9  C9  IND d   1       1.810  -3.062  -1.187  0.00  0.00    -0.096 A 
ATOM     10  HN1 IND d   1       3.654  -1.279   0.498  0.00  0.00     0.298 HD
ENDROOT
TORSDOF 0
ENDMDL
