MODEL 1
REMARK minimizedAffinity 16.7666454
REMARK minimizedRMSD -1
REMARK  0 active torsions:
REMARK  status: ('A' for Active; 'I' for Inactive)
ROOT
ATOM      1  N1  IND d   1       4.146   0.903   0.653  0.00  0.00    -0.196 N 
ATOM      2  C2  IND d   1       4.368   2.033  -0.084  0.00  0.00     0.054 A 
ATOM      3  C3  IND d   1       3.711   1.961  -1.263  0.00  0.00    -0.031 A 
ATOM      4  C4  IND d   1       2.131   0.131  -2.147  0.00  0.00     0.051 A 
ATOM      5  C5  IND d   1       1.646  -1.111  -1.846  0.00  0.00    -0.031 A 
ATOM      6  C6  IND d   1       1.974  -1.757  -0.672  0.00  0.00     0.015 A 
ATOM      7  C7  IND d   1       2.794  -1.177   0.255  0.00  0.00    -0.016 A 
ATOM      8  C8  IND d   1       3.294   0.081  -0.051  0.00  0.00    -0.047 A 
ATOM      9  C9  IND d   1       2.998   0.723  -1.260  0.00  0.00    -0.096 A 
ATOM     10  HN1 IND d   1       4.482   0.735   1.426  0.00  0.00     0.298 HD
ENDROOT
TORSDOF 0
ENDMDL
