MODEL 1
REMARK minimizedAffinity 17.6177311
REMARK minimizedRMSD -1
REMARK  0 active torsions:
REMARK  status: ('A' for Active; 'I' for Inactive)
ROOT
ATOM      1  N1  IND d   1      -3.747  -4.266  -3.410  0.00  0.00    -0.196 N 
ATOM      2  C2  IND d   1      -3.585  -2.998  -3.896  0.00  0.00     0.054 A 
ATOM      3  C3  IND d   1      -2.323  -2.567  -3.674  0.00  0.00    -0.031 A 
ATOM      4  C4  IND d   1      -0.330  -3.813  -2.624  0.00  0.00     0.051 A 
ATOM      5  C5  IND d   1       0.000  -4.982  -1.997  0.00  0.00    -0.031 A 
ATOM      6  C6  IND d   1      -0.920  -5.993  -1.808  0.00  0.00     0.015 A 
ATOM      7  C7  IND d   1      -2.207  -5.877  -2.250  0.00  0.00    -0.016 A 
ATOM      8  C8  IND d   1      -2.548  -4.689  -2.881  0.00  0.00    -0.047 A 
ATOM      9  C9  IND d   1      -1.630  -3.642  -3.038  0.00  0.00    -0.096 A 
ATOM     10  HN1 IND d   1      -4.476  -4.722  -3.431  0.00  0.00     0.298 HD
ENDROOT
TORSDOF 0
ENDMDL
