MODEL 1
REMARK minimizedAffinity 19.5176315
REMARK minimizedRMSD -1
REMARK  0 active torsions:
REMARK  status: ('A' for Active; 'I' for Inactive)
ROOT
ATOM      1  N1  IND d   1       3.300   1.429   3.043  0.00  0.00    -0.196 N 
ATOM      2  C2  IND d   1       2.759   1.498   1.790  0.00  0.00     0.054 A 
ATOM      3  C3  IND d   1       1.418   1.656   1.864  0.00  0.00    -0.031 A 
ATOM      4  C4  IND d   1      -0.084   1.929   3.937  0.00  0.00     0.051 A 
ATOM      5  C5  IND d   1      -0.050   1.898   5.303  0.00  0.00    -0.031 A 
ATOM      6  C6  IND d   1       1.125   1.708   6.000  0.00  0.00     0.015 A 
ATOM      7  C7  IND d   1       2.319   1.552   5.354  0.00  0.00    -0.016 A 
ATOM      8  C8  IND d   1       2.288   1.576   3.967  0.00  0.00    -0.047 A 
ATOM      9  C9  IND d   1       1.092   1.727   3.253  0.00  0.00    -0.096 A 
ATOM     10  HN1 IND d   1       4.133   1.313   3.225  0.00  0.00     0.298 HD
ENDROOT
TORSDOF 0
ENDMDL
