MODEL 1
REMARK minimizedAffinity 4.17682362
REMARK minimizedRMSD -1
REMARK  0 active torsions:
REMARK  status: ('A' for Active; 'I' for Inactive)
ROOT
ATOM      1  N1  IND d   1      -3.243  -2.167   0.588  0.00  0.00    -0.196 N 
ATOM      2  C2  IND d   1      -3.424  -0.936   0.022  0.00  0.00     0.054 A 
ATOM      3  C3  IND d   1      -2.285  -0.521  -0.576  0.00  0.00    -0.031 A 
ATOM      4  C4  IND d   1      -0.035  -1.746  -0.837  0.00  0.00     0.051 A 
ATOM      5  C5  IND d   1       0.623  -2.881  -0.456  0.00  0.00    -0.031 A 
ATOM      6  C6  IND d   1       0.014  -3.857   0.305  0.00  0.00     0.015 A 
ATOM      7  C7  IND d   1      -1.287  -3.739   0.706  0.00  0.00    -0.016 A 
ATOM      8  C8  IND d   1      -1.957  -2.585   0.327  0.00  0.00    -0.047 A 
ATOM      9  C9  IND d   1      -1.330  -1.571  -0.409  0.00  0.00    -0.096 A 
ATOM     10  HN1 IND d   1      -3.834  -2.607   1.032  0.00  0.00     0.298 HD
ENDROOT
TORSDOF 0
ENDMDL
