MODEL 1
REMARK minimizedAffinity 17.5220928
REMARK minimizedRMSD -1
REMARK  0 active torsions:
REMARK  status: ('A' for Active; 'I' for Inactive)
ROOT
ATOM      1  N1  IND d   1      -1.733   3.535  -3.816  0.00  0.00    -0.196 N 
ATOM      2  C2  IND d   1      -1.853   2.206  -4.113  0.00  0.00     0.054 A 
ATOM      3  C3  IND d   1      -2.906   2.000  -4.935  0.00  0.00    -0.031 A 
ATOM      4  C4  IND d   1      -4.508   3.712  -5.999  0.00  0.00     0.051 A 
ATOM      5  C5  IND d   1      -4.818   5.043  -5.998  0.00  0.00    -0.031 A 
ATOM      6  C6  IND d   1      -4.100   5.958  -5.256  0.00  0.00     0.015 A 
ATOM      7  C7  IND d   1      -3.032   5.576  -4.494  0.00  0.00    -0.016 A 
ATOM      8  C8  IND d   1      -2.719   4.224  -4.487  0.00  0.00    -0.047 A 
ATOM      9  C9  IND d   1      -3.470   3.285  -5.205  0.00  0.00    -0.096 A 
ATOM     10  HN1 IND d   1      -1.141   3.882  -3.298  0.00  0.00     0.298 HD
ENDROOT
TORSDOF 0
ENDMDL
