MODEL 1
REMARK minimizedAffinity 18.7017403
REMARK minimizedRMSD -1
REMARK  0 active torsions:
REMARK  status: ('A' for Active; 'I' for Inactive)
ROOT
ATOM      1  N1  IND d   1       2.532   1.911   2.425  0.00  0.00    -0.196 N 
ATOM      2  C2  IND d   1       1.266   1.858   2.939  0.00  0.00     0.054 A 
ATOM      3  C3  IND d   1       0.432   1.240   2.071  0.00  0.00    -0.031 A 
ATOM      4  C4  IND d   1       0.952   0.149  -0.201  0.00  0.00     0.051 A 
ATOM      5  C5  IND d   1       1.960  -0.024  -1.108  0.00  0.00    -0.031 A 
ATOM      6  C6  IND d   1       3.237   0.446  -0.877  0.00  0.00     0.015 A 
ATOM      7  C7  IND d   1       3.557   1.100   0.279  0.00  0.00    -0.016 A 
ATOM      8  C8  IND d   1       2.534   1.283   1.199  0.00  0.00    -0.047 A 
ATOM      9  C9  IND d   1       1.226   0.846   0.951  0.00  0.00    -0.096 A 
ATOM     10  HN1 IND d   1       3.212   2.274   2.805  0.00  0.00     0.298 HD
ENDROOT
TORSDOF 0
ENDMDL
