MODEL 1
REMARK minimizedAffinity 26.1179466
REMARK minimizedRMSD -1
REMARK  0 active torsions:
REMARK  status: ('A' for Active; 'I' for Inactive)
ROOT
ATOM      1  N1  IND d   1       3.610   0.046   0.512  0.00  0.00    -0.196 N 
ATOM      2  C2  IND d   1       4.193   1.150  -0.046  0.00  0.00     0.054 A 
ATOM      3  C3  IND d   1       3.601   1.450  -1.223  0.00  0.00    -0.031 A 
ATOM      4  C4  IND d   1       1.591   0.329  -2.377  0.00  0.00     0.051 A 
ATOM      5  C5  IND d   1       0.745  -0.738  -2.268  0.00  0.00    -0.031 A 
ATOM      6  C6  IND d   1       0.810  -1.615  -1.204  0.00  0.00     0.015 A 
ATOM      7  C7  IND d   1       1.720  -1.449  -0.199  0.00  0.00    -0.016 A 
ATOM      8  C8  IND d   1       2.586  -0.370  -0.310  0.00  0.00    -0.047 A 
ATOM      9  C9  IND d   1       2.553   0.498  -1.409  0.00  0.00    -0.096 A 
ATOM     10  HN1 IND d   1       3.843  -0.325   1.252  0.00  0.00     0.298 HD
ENDROOT
TORSDOF 0
ENDMDL
