MODEL 1
REMARK minimizedAffinity 13.5373421
REMARK minimizedRMSD -1
REMARK  0 active torsions:
REMARK  status: ('A' for Active; 'I' for Inactive)
ROOT
ATOM      1  N1  IND d   1      -2.335   0.824   5.321  0.00  0.00    -0.196 N 
ATOM      2  C2  IND d   1      -1.761   1.867   5.993  0.00  0.00     0.054 A 
ATOM      3  C3  IND d   1      -2.588   2.936   5.999  0.00  0.00    -0.031 A 
ATOM      4  C4  IND d   1      -4.972   3.164   5.055  0.00  0.00     0.051 A 
ATOM      5  C5  IND d   1      -5.909   2.492   4.322  0.00  0.00    -0.031 A 
ATOM      6  C6  IND d   1      -5.700   1.202   3.878  0.00  0.00     0.015 A 
ATOM      7  C7  IND d   1      -4.545   0.530   4.161  0.00  0.00    -0.016 A 
ATOM      8  C8  IND d   1      -3.588   1.212   4.899  0.00  0.00    -0.047 A 
ATOM      9  C9  IND d   1      -3.777   2.536   5.316  0.00  0.00    -0.096 A 
ATOM     10  HN1 IND d   1      -1.975   0.056   5.184  0.00  0.00     0.298 HD
ENDROOT
TORSDOF 0
ENDMDL
