MODEL 1
REMARK minimizedAffinity 20.5507812
REMARK minimizedRMSD -1
REMARK  0 active torsions:
REMARK  status: ('A' for Active; 'I' for Inactive)
ROOT
ATOM      1  N1  IND d   1       1.954  -0.375  -5.213  0.00  0.00    -0.196 N 
ATOM      2  C2  IND d   1       1.824  -1.488  -5.996  0.00  0.00     0.054 A 
ATOM      3  C3  IND d   1       1.402  -2.537  -5.255  0.00  0.00    -0.031 A 
ATOM      4  C4  IND d   1       0.768  -2.629  -2.762  0.00  0.00     0.051 A 
ATOM      5  C5  IND d   1       0.758  -1.872  -1.624  0.00  0.00    -0.031 A 
ATOM      6  C6  IND d   1       1.152  -0.549  -1.625  0.00  0.00     0.015 A 
ATOM      7  C7  IND d   1       1.561   0.071  -2.772  0.00  0.00    -0.016 A 
ATOM      8  C8  IND d   1       1.579  -0.697  -3.927  0.00  0.00    -0.047 A 
ATOM      9  C9  IND d   1       1.221  -2.051  -3.924  0.00  0.00    -0.096 A 
ATOM     10  HN1 IND d   1       2.225   0.397  -5.479  0.00  0.00     0.298 HD
ENDROOT
TORSDOF 0
ENDMDL
