MODEL 1
REMARK minimizedAffinity 16.0247803
REMARK minimizedRMSD -1
REMARK  0 active torsions:
REMARK  status: ('A' for Active; 'I' for Inactive)
ROOT
ATOM      1  N1  IND d   1      -3.808  -3.596  -5.710  0.00  0.00    -0.196 N 
ATOM      2  C2  IND d   1      -4.704  -2.943  -4.910  0.00  0.00     0.054 A 
ATOM      3  C3  IND d   1      -4.405  -3.144  -3.607  0.00  0.00    -0.031 A 
ATOM      4  C4  IND d   1      -2.433  -4.426  -2.560  0.00  0.00     0.051 A 
ATOM      5  C5  IND d   1      -1.371  -5.221  -2.887  0.00  0.00    -0.031 A 
ATOM      6  C6  IND d   1      -1.058  -5.519  -4.197  0.00  0.00     0.015 A 
ATOM      7  C7  IND d   1      -1.793  -5.021  -5.236  0.00  0.00    -0.016 A 
ATOM      8  C8  IND d   1      -2.877  -4.219  -4.908  0.00  0.00    -0.047 A 
ATOM      9  C9  IND d   1      -3.225  -3.948  -3.578  0.00  0.00    -0.096 A 
ATOM     10  HN1 IND d   1      -3.823  -3.614  -6.570  0.00  0.00     0.298 HD
ENDROOT
TORSDOF 0
ENDMDL
