MODEL 1
REMARK minimizedAffinity 0.485157818
REMARK minimizedRMSD -1
REMARK  0 active torsions:
REMARK  status: ('A' for Active; 'I' for Inactive)
ROOT
ATOM      1  N1  IND d   1      -4.116  -3.275  -4.111  0.00  0.00    -0.196 N 
ATOM      2  C2  IND d   1      -4.839  -3.500  -5.250  0.00  0.00     0.054 A 
ATOM      3  C3  IND d   1      -4.250  -4.460  -5.999  0.00  0.00    -0.031 A 
ATOM      4  C4  IND d   1      -2.153  -5.868  -5.499  0.00  0.00     0.051 A 
ATOM      5  C5  IND d   1      -1.134  -6.000  -4.598  0.00  0.00    -0.031 A 
ATOM      6  C6  IND d   1      -1.057  -5.217  -3.464  0.00  0.00     0.015 A 
ATOM      7  C7  IND d   1      -2.007  -4.276  -3.183  0.00  0.00    -0.016 A 
ATOM      8  C8  IND d   1      -3.039  -4.134  -4.099  0.00  0.00    -0.047 A 
ATOM      9  C9  IND d   1      -3.100  -4.896  -5.273  0.00  0.00    -0.096 A 
ATOM     10  HN1 IND d   1      -4.304  -2.695  -3.505  0.00  0.00     0.298 HD
ENDROOT
TORSDOF 0
ENDMDL
