MODEL 1
REMARK minimizedAffinity 10.4101095
REMARK minimizedRMSD -1
REMARK  0 active torsions:
REMARK  status: ('A' for Active; 'I' for Inactive)
ROOT
ATOM      1  N1  IND d   1      -2.852  -3.486  -5.412  0.00  0.00    -0.196 N 
ATOM      2  C2  IND d   1      -3.424  -2.630  -4.512  0.00  0.00     0.054 A 
ATOM      3  C3  IND d   1      -2.968  -2.886  -3.265  0.00  0.00    -0.031 A 
ATOM      4  C4  IND d   1      -1.207  -4.594  -2.485  0.00  0.00     0.051 A 
ATOM      5  C5  IND d   1      -0.431  -5.624  -2.938  0.00  0.00    -0.031 A 
ATOM      6  C6  IND d   1      -0.420  -5.999  -4.266  0.00  0.00     0.015 A 
ATOM      7  C7  IND d   1      -1.179  -5.349  -5.197  0.00  0.00    -0.016 A 
ATOM      8  C8  IND d   1      -1.974  -4.307  -4.739  0.00  0.00    -0.047 A 
ATOM      9  C9  IND d   1      -2.022  -3.949  -3.386  0.00  0.00    -0.096 A 
ATOM     10  HN1 IND d   1      -3.014  -3.508  -6.256  0.00  0.00     0.298 HD
ENDROOT
TORSDOF 0
ENDMDL
