MODEL 1
REMARK minimizedAffinity 2.10158086
REMARK minimizedRMSD -1
REMARK  0 active torsions:
REMARK  status: ('A' for Active; 'I' for Inactive)
ROOT
ATOM      1  N1  IND d   1      -4.537  -2.948  -5.131  0.00  0.00    -0.196 N 
ATOM      2  C2  IND d   1      -5.291  -3.740  -5.952  0.00  0.00     0.054 A 
ATOM      3  C3  IND d   1      -4.789  -4.995  -5.986  0.00  0.00    -0.031 A 
ATOM      4  C4  IND d   1      -2.799  -5.996  -4.695  0.00  0.00     0.051 A 
ATOM      5  C5  IND d   1      -1.780  -5.653  -3.852  0.00  0.00    -0.031 A 
ATOM      6  C6  IND d   1      -1.627  -4.366  -3.380  0.00  0.00     0.015 A 
ATOM      7  C7  IND d   1      -2.497  -3.371  -3.727  0.00  0.00    -0.016 A 
ATOM      8  C8  IND d   1      -3.528  -3.714  -4.589  0.00  0.00    -0.047 A 
ATOM      9  C9  IND d   1      -3.665  -5.009  -5.105  0.00  0.00    -0.096 A 
ATOM     10  HN1 IND d   1      -4.670  -2.112  -4.980  0.00  0.00     0.298 HD
ENDROOT
TORSDOF 0
ENDMDL
