MODEL 1
REMARK minimizedAffinity -2.74176979
REMARK minimizedRMSD -1
REMARK  0 active torsions:
REMARK  status: ('A' for Active; 'I' for Inactive)
ROOT
ATOM      1  N1  IND d   1      -4.522  -5.466  -5.775  0.00  0.00    -0.196 N 
ATOM      2  C2  IND d   1      -5.209  -4.305  -5.994  0.00  0.00     0.054 A 
ATOM      3  C3  IND d   1      -4.542  -3.256  -5.462  0.00  0.00    -0.031 A 
ATOM      4  C4  IND d   1      -2.257  -3.202  -4.277  0.00  0.00     0.051 A 
ATOM      5  C5  IND d   1      -1.267  -4.019  -3.809  0.00  0.00    -0.031 A 
ATOM      6  C6  IND d   1      -1.310  -5.388  -3.979  0.00  0.00     0.015 A 
ATOM      7  C7  IND d   1      -2.345  -5.992  -4.635  0.00  0.00    -0.016 A 
ATOM      8  C8  IND d   1      -3.356  -5.166  -5.105  0.00  0.00    -0.047 A 
ATOM      9  C9  IND d   1      -3.339  -3.781  -4.899  0.00  0.00    -0.096 A 
ATOM     10  HN1 IND d   1      -4.775  -6.252  -6.014  0.00  0.00     0.298 HD
ENDROOT
TORSDOF 0
ENDMDL
