MODEL 1
REMARK minimizedAffinity 11.9089231
REMARK minimizedRMSD -1
REMARK  0 active torsions:
REMARK  status: ('A' for Active; 'I' for Inactive)
ROOT
ATOM      1  N1  IND d   1       3.798  -0.917   0.279  0.00  0.00    -0.196 N 
ATOM      2  C2  IND d   1       3.848   0.427   0.036  0.00  0.00     0.054 A 
ATOM      3  C3  IND d   1       2.880   0.784  -0.837  0.00  0.00    -0.031 A 
ATOM      4  C4  IND d   1       1.037  -0.656  -1.914  0.00  0.00     0.051 A 
ATOM      5  C5  IND d   1       0.606  -1.948  -2.024  0.00  0.00    -0.031 A 
ATOM      6  C6  IND d   1       1.228  -2.984  -1.356  0.00  0.00     0.015 A 
ATOM      7  C7  IND d   1       2.302  -2.762  -0.541  0.00  0.00    -0.016 A 
ATOM      8  C8  IND d   1       2.746  -1.452  -0.432  0.00  0.00    -0.047 A 
ATOM      9  C9  IND d   1       2.146  -0.404  -1.141  0.00  0.00    -0.096 A 
ATOM     10  HN1 IND d   1       4.333  -1.355   0.791  0.00  0.00     0.298 HD
ENDROOT
TORSDOF 0
ENDMDL
