MODEL 1
REMARK minimizedAffinity 15.6625147
REMARK minimizedRMSD -1
REMARK  0 active torsions:
REMARK  status: ('A' for Active; 'I' for Inactive)
ROOT
ATOM      1  N1  IND d   1       2.280  -0.432  -4.344  0.00  0.00    -0.196 N 
ATOM      2  C2  IND d   1       2.919  -1.373  -5.102  0.00  0.00     0.054 A 
ATOM      3  C3  IND d   1       3.174  -2.477  -4.364  0.00  0.00    -0.031 A 
ATOM      4  C4  IND d   1       2.541  -2.996  -1.924  0.00  0.00     0.051 A 
ATOM      5  C5  IND d   1       1.981  -2.430  -0.813  0.00  0.00    -0.031 A 
ATOM      6  C6  IND d   1       1.480  -1.145  -0.822  0.00  0.00     0.015 A 
ATOM      7  C7  IND d   1       1.510  -0.377  -1.952  0.00  0.00    -0.016 A 
ATOM      8  C8  IND d   1       2.084  -0.946  -3.081  0.00  0.00    -0.047 A 
ATOM      9  C9  IND d   1       2.632  -2.235  -3.065  0.00  0.00    -0.096 A 
ATOM     10  HN1 IND d   1       2.041   0.350  -4.611  0.00  0.00     0.298 HD
ENDROOT
TORSDOF 0
ENDMDL
