MODEL 1
REMARK minimizedAffinity 17.4821033
REMARK minimizedRMSD -1
REMARK  0 active torsions:
REMARK  status: ('A' for Active; 'I' for Inactive)
ROOT
ATOM      1  N1  IND d   1      -2.997  -0.045   4.428  0.00  0.00    -0.196 N 
ATOM      2  C2  IND d   1      -3.212  -0.318   3.106  0.00  0.00     0.054 A 
ATOM      3  C3  IND d   1      -4.057   0.591   2.569  0.00  0.00    -0.031 A 
ATOM      4  C4  IND d   1      -5.126   2.668   3.651  0.00  0.00     0.051 A 
ATOM      5  C5  IND d   1      -5.254   3.313   4.849  0.00  0.00    -0.031 A 
ATOM      6  C6  IND d   1      -4.621   2.864   5.990  0.00  0.00     0.015 A 
ATOM      7  C7  IND d   1      -3.824   1.755   5.973  0.00  0.00    -0.016 A 
ATOM      8  C8  IND d   1      -3.697   1.093   4.760  0.00  0.00    -0.047 A 
ATOM      9  C9  IND d   1      -4.371   1.520   3.608  0.00  0.00    -0.096 A 
ATOM     10  HN1 IND d   1      -2.506  -0.507   4.962  0.00  0.00     0.298 HD
ENDROOT
TORSDOF 0
ENDMDL
