MODEL 1
REMARK minimizedAffinity -4.85741472
REMARK minimizedRMSD -1
REMARK  0 active torsions:
REMARK  status: ('A' for Active; 'I' for Inactive)
ROOT
ATOM      1  N1  IND d   1      -1.203   0.614   0.450  0.00  0.00    -0.196 N 
ATOM      2  C2  IND d   1      -0.547   1.346  -0.500  0.00  0.00     0.054 A 
ATOM      3  C3  IND d   1       0.663   0.802  -0.761  0.00  0.00    -0.031 A 
ATOM      4  C4  IND d   1       1.728  -1.345   0.180  0.00  0.00     0.051 A 
ATOM      5  C5  IND d   1       1.526  -2.332   1.103  0.00  0.00    -0.031 A 
ATOM      6  C6  IND d   1       0.380  -2.391   1.870  0.00  0.00     0.015 A 
ATOM      7  C7  IND d   1      -0.616  -1.466   1.733  0.00  0.00    -0.016 A 
ATOM      8  C8  IND d   1      -0.412  -0.458   0.801  0.00  0.00    -0.047 A 
ATOM      9  C9  IND d   1       0.768  -0.369   0.051  0.00  0.00    -0.096 A 
ATOM     10  HN1 IND d   1      -1.979   0.793   0.775  0.00  0.00     0.298 HD
ENDROOT
TORSDOF 0
ENDMDL
