MODEL 1
REMARK minimizedAffinity -5.27334023
REMARK minimizedRMSD -1
REMARK  0 active torsions:
REMARK  status: ('A' for Active; 'I' for Inactive)
ROOT
ATOM      1  N1  IND d   1       0.522   0.135  -0.480  0.00  0.00    -0.196 N 
ATOM      2  C2  IND d   1       1.787  -0.158  -0.910  0.00  0.00     0.054 A 
ATOM      3  C3  IND d   1       2.325  -1.141  -0.154  0.00  0.00    -0.031 A 
ATOM      4  C4  IND d   1       1.272  -2.484   1.774  0.00  0.00     0.051 A 
ATOM      5  C5  IND d   1       0.150  -2.554   2.551  0.00  0.00    -0.031 A 
ATOM      6  C6  IND d   1      -0.928  -1.717   2.351  0.00  0.00     0.015 A 
ATOM      7  C7  IND d   1      -0.929  -0.781   1.356  0.00  0.00    -0.016 A 
ATOM      8  C8  IND d   1       0.212  -0.702   0.569  0.00  0.00    -0.047 A 
ATOM      9  C9  IND d   1       1.326  -1.521   0.794  0.00  0.00    -0.096 A 
ATOM     10  HN1 IND d   1       0.008   0.740  -0.810  0.00  0.00     0.298 HD
ENDROOT
TORSDOF 0
ENDMDL
