MODEL 1
REMARK minimizedAffinity -6.57615566
REMARK minimizedRMSD -1
REMARK  0 active torsions:
REMARK  status: ('A' for Active; 'I' for Inactive)
ROOT
ATOM      1  N1  IND d   1      -1.047   0.512   0.881  0.00  0.00    -0.196 N 
ATOM      2  C2  IND d   1      -0.289   1.065  -0.113  0.00  0.00     0.054 A 
ATOM      3  C3  IND d   1       0.800   0.302  -0.355  0.00  0.00    -0.031 A 
ATOM      4  C4  IND d   1       1.485  -1.948   0.691  0.00  0.00     0.051 A 
ATOM      5  C5  IND d   1       1.129  -2.835   1.668  0.00  0.00    -0.031 A 
ATOM      6  C6  IND d   1       0.005  -2.649   2.447  0.00  0.00     0.015 A 
ATOM      7  C7  IND d   1      -0.814  -1.571   2.269  0.00  0.00    -0.016 A 
ATOM      8  C8  IND d   1      -0.452  -0.664   1.282  0.00  0.00    -0.047 A 
ATOM      9  C9  IND d   1       0.711  -0.825   0.518  0.00  0.00    -0.096 A 
ATOM     10  HN1 IND d   1      -1.773   0.842   1.202  0.00  0.00     0.298 HD
ENDROOT
TORSDOF 0
ENDMDL
