MODEL 1
REMARK minimizedAffinity -4.43509865
REMARK minimizedRMSD -1
REMARK  0 active torsions:
REMARK  status: ('A' for Active; 'I' for Inactive)
ROOT
ATOM      1  N1  IND d   1      -0.569   0.230   0.028  0.00  0.00    -0.196 N 
ATOM      2  C2  IND d   1       0.439   0.531  -0.845  0.00  0.00     0.054 A 
ATOM      3  C3  IND d   1       1.491  -0.296  -0.652  0.00  0.00    -0.031 A 
ATOM      4  C4  IND d   1       1.736  -2.279   0.970  0.00  0.00     0.051 A 
ATOM      5  C5  IND d   1       1.095  -2.920   1.993  0.00  0.00    -0.031 A 
ATOM      6  C6  IND d   1      -0.161  -2.538   2.420  0.00  0.00     0.015 A 
ATOM      7  C7  IND d   1      -0.829  -1.503   1.829  0.00  0.00    -0.016 A 
ATOM      8  C8  IND d   1      -0.178  -0.845   0.795  0.00  0.00    -0.047 A 
ATOM      9  C9  IND d   1       1.114  -1.202   0.386  0.00  0.00    -0.096 A 
ATOM     10  HN1 IND d   1      -1.322   0.642   0.088  0.00  0.00     0.298 HD
ENDROOT
TORSDOF 0
ENDMDL
