MODEL 1
REMARK minimizedAffinity -1.47293806
REMARK minimizedRMSD -1
REMARK  0 active torsions:
REMARK  status: ('A' for Active; 'I' for Inactive)
ROOT
ATOM      1  N1  IND d   1      -1.540   0.462   0.029  0.00  0.00    -0.196 N 
ATOM      2  C2  IND d   1      -0.206   0.219   0.204  0.00  0.00     0.054 A 
ATOM      3  C3  IND d   1       0.450   0.325  -0.974  0.00  0.00    -0.031 A 
ATOM      4  C4  IND d   1      -0.450   0.988  -3.293  0.00  0.00     0.051 A 
ATOM      5  C5  IND d   1      -1.610   1.269  -3.958  0.00  0.00    -0.031 A 
ATOM      6  C6  IND d   1      -2.831   1.298  -3.315  0.00  0.00     0.015 A 
ATOM      7  C7  IND d   1      -2.935   1.058  -1.974  0.00  0.00    -0.016 A 
ATOM      8  C8  IND d   1      -1.760   0.766  -1.297  0.00  0.00    -0.047 A 
ATOM      9  C9  IND d   1      -0.524   0.693  -1.952  0.00  0.00    -0.096 A 
ATOM     10  HN1 IND d   1      -2.141   0.430   0.643  0.00  0.00     0.298 HD
ENDROOT
TORSDOF 0
ENDMDL
