MODEL 1
REMARK minimizedAffinity -6.34298706
REMARK minimizedRMSD -1
REMARK  0 active torsions:
REMARK  status: ('A' for Active; 'I' for Inactive)
ROOT
ATOM      1  N1  IND d   1      -0.674   0.268   0.339  0.00  0.00    -0.196 N 
ATOM      2  C2  IND d   1       0.174   0.770  -0.609  0.00  0.00     0.054 A 
ATOM      3  C3  IND d   1       1.328   0.066  -0.626  0.00  0.00    -0.031 A 
ATOM      4  C4  IND d   1       2.000  -2.008   0.742  0.00  0.00     0.051 A 
ATOM      5  C5  IND d   1       1.571  -2.813   1.760  0.00  0.00    -0.031 A 
ATOM      6  C6  IND d   1       0.345  -2.630   2.366  0.00  0.00     0.015 A 
ATOM      7  C7  IND d   1      -0.506  -1.638   1.968  0.00  0.00    -0.016 A 
ATOM      8  C8  IND d   1      -0.070  -0.814   0.940  0.00  0.00    -0.047 A 
ATOM      9  C9  IND d   1       1.191  -0.969   0.349  0.00  0.00    -0.096 A 
ATOM     10  HN1 IND d   1      -1.454   0.576   0.528  0.00  0.00     0.298 HD
ENDROOT
TORSDOF 0
ENDMDL
