MODEL 1
REMARK minimizedAffinity -5.12132406
REMARK minimizedRMSD -1
REMARK  0 active torsions:
REMARK  status: ('A' for Active; 'I' for Inactive)
ROOT
ATOM      1  N1  IND d   1      -0.758   0.414   0.003  0.00  0.00    -0.196 N 
ATOM      2  C2  IND d   1       0.127   0.938  -0.897  0.00  0.00     0.054 A 
ATOM      3  C3  IND d   1       1.301   0.270  -0.845  0.00  0.00    -0.031 A 
ATOM      4  C4  IND d   1       1.955  -1.781   0.567  0.00  0.00     0.051 A 
ATOM      5  C5  IND d   1       1.492  -2.595   1.562  0.00  0.00    -0.031 A 
ATOM      6  C6  IND d   1       0.229  -2.447   2.097  0.00  0.00     0.015 A 
ATOM      7  C7  IND d   1      -0.626  -1.482   1.647  0.00  0.00    -0.016 A 
ATOM      8  C8  IND d   1      -0.157  -0.648   0.642  0.00  0.00    -0.047 A 
ATOM      9  C9  IND d   1       1.139  -0.767   0.125  0.00  0.00    -0.096 A 
ATOM     10  HN1 IND d   1      -1.557   0.699   0.146  0.00  0.00     0.298 HD
ENDROOT
TORSDOF 0
ENDMDL
