MODEL 1
REMARK minimizedAffinity -2.55184889
REMARK minimizedRMSD -1
REMARK  0 active torsions:
REMARK  status: ('A' for Active; 'I' for Inactive)
ROOT
ATOM      1  N1  IND d   1      -0.722   0.322   0.174  0.00  0.00    -0.196 N 
ATOM      2  C2  IND d   1       0.186   1.004  -0.587  0.00  0.00     0.054 A 
ATOM      3  C3  IND d   1       1.412   0.446  -0.470  0.00  0.00    -0.031 A 
ATOM      4  C4  IND d   1       2.136  -1.652   0.834  0.00  0.00     0.051 A 
ATOM      5  C5  IND d   1       1.668  -2.591   1.710  0.00  0.00    -0.031 A 
ATOM      6  C6  IND d   1       0.352  -2.609   2.124  0.00  0.00     0.015 A 
ATOM      7  C7  IND d   1      -0.551  -1.692   1.668  0.00  0.00    -0.016 A 
ATOM      8  C8  IND d   1      -0.078  -0.732   0.785  0.00  0.00    -0.047 A 
ATOM      9  C9  IND d   1       1.266  -0.683   0.393  0.00  0.00    -0.096 A 
ATOM     10  HN1 IND d   1      -1.555   0.518   0.258  0.00  0.00     0.298 HD
ENDROOT
TORSDOF 0
ENDMDL
