MODEL 1
REMARK minimizedAffinity -4.53370237
REMARK minimizedRMSD -1
REMARK  0 active torsions:
REMARK  status: ('A' for Active; 'I' for Inactive)
ROOT
ATOM      1  N1  IND d   1      -1.753   0.052   2.017  0.00  0.00    -0.196 N 
ATOM      2  C2  IND d   1      -1.702   0.881   0.931  0.00  0.00     0.054 A 
ATOM      3  C3  IND d   1      -0.640   0.575   0.154  0.00  0.00    -0.031 A 
ATOM      4  C4  IND d   1       1.088  -1.315   0.417  0.00  0.00     0.051 A 
ATOM      5  C5  IND d   1       1.476  -2.309   1.271  0.00  0.00    -0.031 A 
ATOM      6  C6  IND d   1       0.791  -2.574   2.440  0.00  0.00     0.015 A 
ATOM      7  C7  IND d   1      -0.318  -1.859   2.794  0.00  0.00    -0.016 A 
ATOM      8  C8  IND d   1      -0.710  -0.844   1.932  0.00  0.00    -0.047 A 
ATOM      9  C9  IND d   1       0.006  -0.543   0.766  0.00  0.00    -0.096 A 
ATOM     10  HN1 IND d   1      -2.338   0.084   2.646  0.00  0.00     0.298 HD
ENDROOT
TORSDOF 0
ENDMDL
