MODEL 1
REMARK minimizedAffinity -3.31905913
REMARK minimizedRMSD -1
REMARK  0 active torsions:
REMARK  status: ('A' for Active; 'I' for Inactive)
ROOT
ATOM      1  N1  IND d   1      -0.551   0.275   0.437  0.00  0.00    -0.196 N 
ATOM      2  C2  IND d   1       0.173   0.845  -0.573  0.00  0.00     0.054 A 
ATOM      3  C3  IND d   1       1.328   0.169  -0.763  0.00  0.00    -0.031 A 
ATOM      4  C4  IND d   1       2.187  -1.960   0.400  0.00  0.00     0.051 A 
ATOM      5  C5  IND d   1       1.892  -2.828   1.414  0.00  0.00    -0.031 A 
ATOM      6  C6  IND d   1       0.743  -2.704   2.168  0.00  0.00     0.015 A 
ATOM      7  C7  IND d   1      -0.164  -1.711   1.927  0.00  0.00    -0.016 A 
ATOM      8  C8  IND d   1       0.136  -0.824   0.902  0.00  0.00    -0.047 A 
ATOM      9  C9  IND d   1       1.322  -0.919   0.162  0.00  0.00    -0.096 A 
ATOM     10  HN1 IND d   1      -1.308   0.556   0.732  0.00  0.00     0.298 HD
ENDROOT
TORSDOF 0
ENDMDL
