MODEL 1
REMARK minimizedAffinity -5.7930212
REMARK minimizedRMSD -1
REMARK  0 active torsions:
REMARK  status: ('A' for Active; 'I' for Inactive)
ROOT
ATOM      1  N1  IND d   1      -0.720   0.569   0.700  0.00  0.00    -0.196 N 
ATOM      2  C2  IND d   1       0.078   1.055  -0.298  0.00  0.00     0.054 A 
ATOM      3  C3  IND d   1       1.093   0.197  -0.547  0.00  0.00    -0.031 A 
ATOM      4  C4  IND d   1       1.579  -2.108   0.490  0.00  0.00     0.051 A 
ATOM      5  C5  IND d   1       1.150  -2.962   1.468  0.00  0.00    -0.031 A 
ATOM      6  C6  IND d   1       0.051  -2.677   2.253  0.00  0.00     0.015 A 
ATOM      7  C7  IND d   1      -0.669  -1.529   2.082  0.00  0.00    -0.016 A 
ATOM      8  C8  IND d   1      -0.232  -0.657   1.095  0.00  0.00    -0.047 A 
ATOM      9  C9  IND d   1       0.907  -0.920   0.323  0.00  0.00    -0.096 A 
ATOM     10  HN1 IND d   1      -1.412   0.963   1.026  0.00  0.00     0.298 HD
ENDROOT
TORSDOF 0
ENDMDL
