MODEL 1
REMARK minimizedAffinity -5.38879681
REMARK minimizedRMSD -1
REMARK  0 active torsions:
REMARK  status: ('A' for Active; 'I' for Inactive)
ROOT
ATOM      1  N1  IND d   1      -0.734   0.128   0.921  0.00  0.00    -0.196 N 
ATOM      2  C2  IND d   1      -0.082   0.565  -0.198  0.00  0.00     0.054 A 
ATOM      3  C3  IND d   1       0.932  -0.274  -0.510  0.00  0.00    -0.031 A 
ATOM      4  C4  IND d   1       1.636  -2.478   0.618  0.00  0.00     0.051 A 
ATOM      5  C5  IND d   1       1.364  -3.271   1.698  0.00  0.00    -0.031 A 
ATOM      6  C6  IND d   1       0.356  -2.966   2.590  0.00  0.00     0.015 A 
ATOM      7  C7  IND d   1      -0.427  -1.859   2.429  0.00  0.00    -0.016 A 
ATOM      8  C8  IND d   1      -0.149  -1.048   1.338  0.00  0.00    -0.047 A 
ATOM      9  C9  IND d   1       0.900  -1.329   0.452  0.00  0.00    -0.096 A 
ATOM     10  HN1 IND d   1      -1.397   0.521   1.301  0.00  0.00     0.298 HD
ENDROOT
TORSDOF 0
ENDMDL
