MODEL 1
REMARK minimizedAffinity -4.14654493
REMARK minimizedRMSD -1
REMARK  0 active torsions:
REMARK  status: ('A' for Active; 'I' for Inactive)
ROOT
ATOM      1  N1  IND d   1      -1.112   0.065   0.917  0.00  0.00    -0.196 N 
ATOM      2  C2  IND d   1      -0.668   0.707  -0.206  0.00  0.00     0.054 A 
ATOM      3  C3  IND d   1       0.567   0.271  -0.539  0.00  0.00    -0.031 A 
ATOM      4  C4  IND d   1       2.007  -1.559   0.558  0.00  0.00     0.051 A 
ATOM      5  C5  IND d   1       2.042  -2.403   1.633  0.00  0.00    -0.031 A 
ATOM      6  C6  IND d   1       1.005  -2.470   2.541  0.00  0.00     0.015 A 
ATOM      7  C7  IND d   1      -0.115  -1.700   2.401  0.00  0.00    -0.016 A 
ATOM      8  C8  IND d   1      -0.151  -0.838   1.315  0.00  0.00    -0.047 A 
ATOM      9  C9  IND d   1       0.917  -0.735   0.413  0.00  0.00    -0.096 A 
ATOM     10  HN1 IND d   1      -1.865   0.203   1.309  0.00  0.00     0.298 HD
ENDROOT
TORSDOF 0
ENDMDL
