MODEL 1
REMARK minimizedAffinity 0.408649772
REMARK minimizedRMSD -1
REMARK  0 active torsions:
REMARK  status: ('A' for Active; 'I' for Inactive)
ROOT
ATOM      1  N1  IND d   1      -1.311   0.128   0.950  0.00  0.00    -0.196 N 
ATOM      2  C2  IND d   1      -1.245   0.958  -0.135  0.00  0.00     0.054 A 
ATOM      3  C3  IND d   1      -0.070   0.792  -0.783  0.00  0.00    -0.031 A 
ATOM      4  C4  IND d   1       1.847  -0.856  -0.299  0.00  0.00     0.051 A 
ATOM      5  C5  IND d   1       2.260  -1.792   0.608  0.00  0.00    -0.031 A 
ATOM      6  C6  IND d   1       1.487  -2.144   1.695  0.00  0.00     0.015 A 
ATOM      7  C7  IND d   1       0.262  -1.580   1.911  0.00  0.00    -0.016 A 
ATOM      8  C8  IND d   1      -0.158  -0.625   0.996  0.00  0.00    -0.047 A 
ATOM      9  C9  IND d   1       0.641  -0.232  -0.085  0.00  0.00    -0.096 A 
ATOM     10  HN1 IND d   1      -1.963   0.083   1.509  0.00  0.00     0.298 HD
ENDROOT
TORSDOF 0
ENDMDL
