MODEL 1
REMARK minimizedAffinity -0.568096757
REMARK minimizedRMSD -1
REMARK  0 active torsions:
REMARK  status: ('A' for Active; 'I' for Inactive)
ROOT
ATOM      1  N1  IND d   1       0.884  -1.937   1.500  0.00  0.00    -0.196 N 
ATOM      2  C2  IND d   1       2.227  -2.124   1.328  0.00  0.00     0.054 A 
ATOM      3  C3  IND d   1       2.743  -1.148   0.548  0.00  0.00    -0.031 A 
ATOM      4  C4  IND d   1       1.584   0.913  -0.471  0.00  0.00     0.051 A 
ATOM      5  C5  IND d   1       0.356   1.495  -0.620  0.00  0.00    -0.031 A 
ATOM      6  C6  IND d   1      -0.781   0.953  -0.057  0.00  0.00     0.015 A 
ATOM      7  C7  IND d   1      -0.730  -0.190   0.690  0.00  0.00    -0.016 A 
ATOM      8  C8  IND d   1       0.514  -0.787   0.838  0.00  0.00    -0.047 A 
ATOM      9  C9  IND d   1       1.664  -0.265   0.233  0.00  0.00    -0.096 A 
ATOM     10  HN1 IND d   1       0.359  -2.451   1.947  0.00  0.00     0.298 HD
ENDROOT
TORSDOF 0
ENDMDL
