MODEL 1
REMARK minimizedAffinity 9.70908737
REMARK minimizedRMSD -1
REMARK  2 active torsions:
REMARK  status: ('A' for Active; 'I' for Inactive)
REMARK    1  A    between atoms: C2'_3  and  C1'_4 
REMARK    2  A    between atoms: C1'_4  and  C1_5 
ROOT
ATOM      1  C1  I4B d   1       1.153  -0.284  -0.665  0.00  0.00    -0.075 A 
ATOM      2  C2  I4B d   1      -0.120   0.228  -0.629  0.00  0.00     0.003 A 
ATOM      3  C3  I4B d   1      -0.450   1.372  -1.396  0.00  0.00     0.002 A 
ATOM      4  C4  I4B d   1       0.529   1.996  -2.141  0.00  0.00    -0.004 A 
ATOM      5  C5  I4B d   1       1.813   1.462  -2.194  0.00  0.00     0.002 A 
ATOM      6  C6  I4B d   1       2.124   0.307  -1.462  0.00  0.00     0.003 A 
ENDROOT
BRANCH   1   7
ATOM      7  C1' I4B d   1       1.475  -1.474   0.183  0.00  0.00     0.060 C 
BRANCH   7   8
ATOM      8  C2' I4B d   1       2.054  -0.971   1.490  0.00  0.00    -0.013 C 
ATOM      9  C4' I4B d   1       0.964  -0.590   2.458  0.00  0.00     0.013 C 
ATOM     10  C3' I4B d   1       2.926  -2.052   2.056  0.00  0.00     0.013 C 
ENDBRANCH   7   8
ENDBRANCH   1   7
TORSDOF 2
ENDMDL
