MODEL 1
REMARK minimizedAffinity 6.86206532
REMARK minimizedRMSD -1
REMARK  2 active torsions:
REMARK  status: ('A' for Active; 'I' for Inactive)
REMARK    1  A    between atoms: C2'_3  and  C1'_4 
REMARK    2  A    between atoms: C1'_4  and  C1_5 
ROOT
ATOM      1  C1  I4B d   1       2.949   4.982   0.142  0.00  0.00    -0.075 A 
ATOM      2  C2  I4B d   1       4.308   5.160   0.064  0.00  0.00     0.003 A 
ATOM      3  C3  I4B d   1       5.021   4.710  -1.074  0.00  0.00     0.002 A 
ATOM      4  C4  I4B d   1       4.348   4.048  -2.080  0.00  0.00    -0.004 A 
ATOM      5  C5  I4B d   1       2.967   3.889  -2.009  0.00  0.00     0.002 A 
ATOM      6  C6  I4B d   1       2.261   4.370  -0.897  0.00  0.00     0.003 A 
ENDROOT
BRANCH   1   7
ATOM      7  C1' I4B d   1       2.232   5.440   1.373  0.00  0.00     0.060 C 
BRANCH   7   8
ATOM      8  C2' I4B d   1       0.858   4.802   1.377  0.00  0.00    -0.013 C 
ATOM      9  C4' I4B d   1       0.893   3.435   2.007  0.00  0.00     0.013 C 
ATOM     10  C3' I4B d   1      -0.074   5.716   2.116  0.00  0.00     0.013 C 
ENDBRANCH   7   8
ENDBRANCH   1   7
TORSDOF 2
ENDMDL
