MODEL 1
REMARK minimizedAffinity 6.0742383
REMARK minimizedRMSD -1
REMARK  2 active torsions:
REMARK  status: ('A' for Active; 'I' for Inactive)
REMARK    1  A    between atoms: C2'_3  and  C1'_4 
REMARK    2  A    between atoms: C1'_4  and  C1_5 
ROOT
ATOM      1  C1  I4B d   1      -0.640  -0.729   0.153  0.00  0.00    -0.075 A 
ATOM      2  C2  I4B d   1      -1.576  -0.309   1.065  0.00  0.00     0.003 A 
ATOM      3  C3  I4B d   1      -1.190  -0.003   2.393  0.00  0.00     0.002 A 
ATOM      4  C4  I4B d   1       0.123  -0.179   2.777  0.00  0.00    -0.004 A 
ATOM      5  C5  I4B d   1       1.075  -0.583   1.845  0.00  0.00     0.002 A 
ATOM      6  C6  I4B d   1       0.694  -0.848   0.522  0.00  0.00     0.003 A 
ENDROOT
BRANCH   1   7
ATOM      7  C1' I4B d   1      -1.087  -1.074  -1.232  0.00  0.00     0.060 C 
BRANCH   7   8
ATOM      8  C2' I4B d   1      -1.474  -2.539  -1.245  0.00  0.00    -0.013 C 
ATOM      9  C4' I4B d   1      -2.954  -2.714  -1.031  0.00  0.00     0.013 C 
ATOM     10  C3' I4B d   1      -1.045  -3.119  -2.560  0.00  0.00     0.013 C 
ENDBRANCH   7   8
ENDBRANCH   1   7
TORSDOF 2
ENDMDL
