MODEL 1
REMARK minimizedAffinity 15.573678
REMARK minimizedRMSD -1
REMARK  2 active torsions:
REMARK  status: ('A' for Active; 'I' for Inactive)
REMARK    1  A    between atoms: C2'_3  and  C1'_4 
REMARK    2  A    between atoms: C1'_4  and  C1_5 
ROOT
ATOM      1  C1  I4B d   1      -0.748   2.221   1.638  0.00  0.00    -0.075 A 
ATOM      2  C2  I4B d   1      -0.879   1.653   0.396  0.00  0.00     0.003 A 
ATOM      3  C3  I4B d   1      -0.650   0.267   0.218  0.00  0.00     0.002 A 
ATOM      4  C4  I4B d   1      -0.247  -0.499   1.293  0.00  0.00    -0.004 A 
ATOM      5  C5  I4B d   1      -0.138   0.075   2.557  0.00  0.00     0.002 A 
ATOM      6  C6  I4B d   1      -0.402   1.441   2.733  0.00  0.00     0.003 A 
ENDROOT
BRANCH   1   7
ATOM      7  C1' I4B d   1      -0.965   3.694   1.783  0.00  0.00     0.060 C 
BRANCH   7   8
ATOM      8  C2' I4B d   1       0.160   4.249   2.634  0.00  0.00    -0.013 C 
ATOM      9  C4' I4B d   1       1.350   4.620   1.789  0.00  0.00     0.013 C 
ATOM     10  C3' I4B d   1      -0.368   5.440   3.378  0.00  0.00     0.013 C 
ENDBRANCH   7   8
ENDBRANCH   1   7
TORSDOF 2
ENDMDL
