MODEL 1
REMARK minimizedAffinity 12.9849234
REMARK minimizedRMSD -1
REMARK  2 active torsions:
REMARK  status: ('A' for Active; 'I' for Inactive)
REMARK    1  A    between atoms: C2'_3  and  C1'_4 
REMARK    2  A    between atoms: C1'_4  and  C1_5 
ROOT
ATOM      1  C1  I4B d   1      -0.479  -0.720   0.051  0.00  0.00    -0.075 A 
ATOM      2  C2  I4B d   1      -1.004  -0.064   1.136  0.00  0.00     0.003 A 
ATOM      3  C3  I4B d   1      -0.237   0.089   2.316  0.00  0.00     0.002 A 
ATOM      4  C4  I4B d   1       1.022  -0.470   2.386  0.00  0.00    -0.004 A 
ATOM      5  C5  I4B d   1       1.562  -1.115   1.277  0.00  0.00     0.002 A 
ATOM      6  C6  I4B d   1       0.812  -1.230   0.097  0.00  0.00     0.003 A 
ENDROOT
BRANCH   1   7
ATOM      7  C1' I4B d   1      -1.328  -0.892  -1.168  0.00  0.00     0.060 C 
BRANCH   7   8
ATOM      8  C2' I4B d   1      -1.793  -2.333  -1.214  0.00  0.00    -0.013 C 
ATOM      9  C4' I4B d   1      -3.231  -2.456  -0.780  0.00  0.00     0.013 C 
ATOM     10  C3' I4B d   1      -1.605  -2.837  -2.613  0.00  0.00     0.013 C 
ENDBRANCH   7   8
ENDBRANCH   1   7
TORSDOF 2
ENDMDL
