MODEL 1
REMARK minimizedAffinity 10.1045551
REMARK minimizedRMSD -1
REMARK  2 active torsions:
REMARK  status: ('A' for Active; 'I' for Inactive)
REMARK    1  A    between atoms: C2'_3  and  C1'_4 
REMARK    2  A    between atoms: C1'_4  and  C1_5 
ROOT
ATOM      1  C1  I4B d   1       5.273  -4.232  -3.756  0.00  0.00    -0.075 A 
ATOM      2  C2  I4B d   1       5.023  -5.565  -3.966  0.00  0.00     0.003 A 
ATOM      3  C3  I4B d   1       4.313  -5.984  -5.117  0.00  0.00     0.002 A 
ATOM      4  C4  I4B d   1       3.830  -5.039  -6.000  0.00  0.00    -0.004 A 
ATOM      5  C5  I4B d   1       4.104  -3.690  -5.797  0.00  0.00     0.002 A 
ATOM      6  C6  I4B d   1       4.841  -3.284  -4.674  0.00  0.00     0.003 A 
ENDROOT
BRANCH   1   7
ATOM      7  C1' I4B d   1       5.997  -3.822  -2.513  0.00  0.00     0.060 C 
BRANCH   7   8
ATOM      8  C2' I4B d   1       5.558  -2.416  -2.159  0.00  0.00    -0.013 C 
ATOM      9  C4' I4B d   1       4.067  -2.258  -2.303  0.00  0.00     0.013 C 
ATOM     10  C3' I4B d   1       5.999  -2.132  -0.754  0.00  0.00     0.013 C 
ENDBRANCH   7   8
ENDBRANCH   1   7
TORSDOF 2
ENDMDL
