MODEL 1
REMARK minimizedAffinity 12.3660135
REMARK minimizedRMSD -1
REMARK  2 active torsions:
REMARK  status: ('A' for Active; 'I' for Inactive)
REMARK    1  A    between atoms: C2'_3  and  C1'_4 
REMARK    2  A    between atoms: C1'_4  and  C1_5 
ROOT
ATOM      1  C1  I4B d   1      -5.090   2.404   1.868  0.00  0.00    -0.075 A 
ATOM      2  C2  I4B d   1      -5.923   3.023   2.766  0.00  0.00     0.003 A 
ATOM      3  C3  I4B d   1      -6.000   2.562   4.102  0.00  0.00     0.002 A 
ATOM      4  C4  I4B d   1      -5.269   1.454   4.482  0.00  0.00    -0.004 A 
ATOM      5  C5  I4B d   1      -4.408   0.841   3.576  0.00  0.00     0.002 A 
ATOM      6  C6  I4B d   1      -4.308   1.326   2.264  0.00  0.00     0.003 A 
ENDROOT
BRANCH   1   7
ATOM      7  C1' I4B d   1      -5.058   2.897   0.456  0.00  0.00     0.060 C 
BRANCH   7   8
ATOM      8  C2' I4B d   1      -3.820   3.754   0.289  0.00  0.00    -0.013 C 
ATOM      9  C4' I4B d   1      -2.612   2.912  -0.029  0.00  0.00     0.013 C 
ATOM     10  C3' I4B d   1      -4.089   4.748  -0.801  0.00  0.00     0.013 C 
ENDBRANCH   7   8
ENDBRANCH   1   7
TORSDOF 2
ENDMDL
