MODEL 1
REMARK minimizedAffinity 7.59432793
REMARK minimizedRMSD -1
REMARK  2 active torsions:
REMARK  status: ('A' for Active; 'I' for Inactive)
REMARK    1  A    between atoms: C2'_3  and  C1'_4 
REMARK    2  A    between atoms: C1'_4  and  C1_5 
ROOT
ATOM      1  C1  I4B d   1       5.497  -3.259  -4.880  0.00  0.00    -0.075 A 
ATOM      2  C2  I4B d   1       4.562  -2.293  -5.155  0.00  0.00     0.003 A 
ATOM      3  C3  I4B d   1       4.043  -1.486  -4.114  0.00  0.00     0.002 A 
ATOM      4  C4  I4B d   1       4.447  -1.711  -2.814  0.00  0.00    -0.004 A 
ATOM      5  C5  I4B d   1       5.413  -2.676  -2.540  0.00  0.00     0.002 A 
ATOM      6  C6  I4B d   1       5.951  -3.447  -3.580  0.00  0.00     0.003 A 
ENDROOT
BRANCH   1   7
ATOM      7  C1' I4B d   1       6.000  -4.116  -5.998  0.00  0.00     0.060 C 
BRANCH   7   8
ATOM      8  C2' I4B d   1       5.505  -5.528  -5.763  0.00  0.00    -0.013 C 
ATOM      9  C4' I4B d   1       5.840  -5.999  -4.373  0.00  0.00     0.013 C 
ATOM     10  C3' I4B d   1       4.024  -5.545  -5.998  0.00  0.00     0.013 C 
ENDBRANCH   7   8
ENDBRANCH   1   7
TORSDOF 2
ENDMDL
