MODEL 1
REMARK minimizedAffinity 0.745611191
REMARK minimizedRMSD -1
REMARK  2 active torsions:
REMARK  status: ('A' for Active; 'I' for Inactive)
REMARK    1  A    between atoms: C2'_3  and  C1'_4 
REMARK    2  A    between atoms: C1'_4  and  C1_5 
ROOT
ATOM      1  C1  I4B d   1       4.661  -3.369  -4.884  0.00  0.00    -0.075 A 
ATOM      2  C2  I4B d   1       5.886  -3.980  -4.983  0.00  0.00     0.003 A 
ATOM      3  C3  I4B d   1       5.996  -5.263  -5.572  0.00  0.00     0.002 A 
ATOM      4  C4  I4B d   1       4.858  -5.915  -6.000  0.00  0.00    -0.004 A 
ATOM      5  C5  I4B d   1       3.620  -5.285  -5.919  0.00  0.00     0.002 A 
ATOM      6  C6  I4B d   1       3.522  -3.998  -5.369  0.00  0.00     0.003 A 
ENDROOT
BRANCH   1   7
ATOM      7  C1' I4B d   1       4.575  -2.028  -4.227  0.00  0.00     0.060 C 
BRANCH   7   8
ATOM      8  C2' I4B d   1       4.415  -2.248  -2.736  0.00  0.00    -0.013 C 
ATOM      9  C4' I4B d   1       5.753  -2.317  -2.048  0.00  0.00     0.013 C 
ATOM     10  C3' I4B d   1       3.582  -1.127  -2.190  0.00  0.00     0.013 C 
ENDBRANCH   7   8
ENDBRANCH   1   7
TORSDOF 2
ENDMDL
