MODEL 1
REMARK minimizedAffinity 5.20662403
REMARK minimizedRMSD -1
REMARK  2 active torsions:
REMARK  status: ('A' for Active; 'I' for Inactive)
REMARK    1  A    between atoms: C2'_3  and  C1'_4 
REMARK    2  A    between atoms: C1'_4  and  C1_5 
ROOT
ATOM      1  C1  I4B d   1      -1.516  -2.687  -1.282  0.00  0.00    -0.075 A 
ATOM      2  C2  I4B d   1      -1.220  -3.974  -1.653  0.00  0.00     0.003 A 
ATOM      3  C3  I4B d   1      -2.213  -4.981  -1.588  0.00  0.00     0.002 A 
ATOM      4  C4  I4B d   1      -3.466  -4.669  -1.101  0.00  0.00    -0.004 A 
ATOM      5  C5  I4B d   1      -3.771  -3.358  -0.747  0.00  0.00     0.002 A 
ATOM      6  C6  I4B d   1      -2.794  -2.358  -0.849  0.00  0.00     0.003 A 
ENDROOT
BRANCH   1   7
ATOM      7  C1' I4B d   1      -0.433  -1.655  -1.331  0.00  0.00     0.060 C 
BRANCH   7   8
ATOM      8  C2' I4B d   1      -0.710  -0.635  -0.245  0.00  0.00    -0.013 C 
ATOM      9  C4' I4B d   1       0.061  -0.952   1.009  0.00  0.00     0.013 C 
ATOM     10  C3' I4B d   1      -0.346   0.718  -0.778  0.00  0.00     0.013 C 
ENDBRANCH   7   8
ENDBRANCH   1   7
TORSDOF 2
ENDMDL
