MODEL 1
REMARK minimizedAffinity 18.1191711
REMARK minimizedRMSD -1
REMARK  2 active torsions:
REMARK  status: ('A' for Active; 'I' for Inactive)
REMARK    1  A    between atoms: C2'_3  and  C1'_4 
REMARK    2  A    between atoms: C1'_4  and  C1_5 
ROOT
ATOM      1  C1  I4B d   1       1.426   4.659   2.253  0.00  0.00    -0.075 A 
ATOM      2  C2  I4B d   1       2.338   5.629   2.588  0.00  0.00     0.003 A 
ATOM      3  C3  I4B d   1       3.505   5.809   1.808  0.00  0.00     0.002 A 
ATOM      4  C4  I4B d   1       3.745   4.969   0.739  0.00  0.00    -0.004 A 
ATOM      5  C5  I4B d   1       2.808   4.001   0.388  0.00  0.00     0.002 A 
ATOM      6  C6  I4B d   1       1.635   3.853   1.142  0.00  0.00     0.003 A 
ENDROOT
BRANCH   1   7
ATOM      7  C1' I4B d   1       0.220   4.475   3.119  0.00  0.00     0.060 C 
BRANCH   7   8
ATOM      8  C2' I4B d   1      -0.594   5.751   3.063  0.00  0.00    -0.013 C 
ATOM      9  C4' I4B d   1      -1.125   5.999   1.675  0.00  0.00     0.013 C 
ATOM     10  C3' I4B d   1      -1.711   5.632   4.056  0.00  0.00     0.013 C 
ENDBRANCH   7   8
ENDBRANCH   1   7
TORSDOF 2
ENDMDL
