MODEL 1
REMARK minimizedAffinity 6.3476758
REMARK minimizedRMSD -1
REMARK  2 active torsions:
REMARK  status: ('A' for Active; 'I' for Inactive)
REMARK    1  A    between atoms: C2'_3  and  C1'_4 
REMARK    2  A    between atoms: C1'_4  and  C1_5 
ROOT
ATOM      1  C1  I4B d   1       3.919  -4.360  -3.649  0.00  0.00    -0.075 A 
ATOM      2  C2  I4B d   1       3.349  -4.416  -4.896  0.00  0.00     0.003 A 
ATOM      3  C3  I4B d   1       4.094  -4.896  -6.000  0.00  0.00     0.002 A 
ATOM      4  C4  I4B d   1       5.414  -5.259  -5.822  0.00  0.00    -0.004 A 
ATOM      5  C5  I4B d   1       5.984  -5.223  -4.553  0.00  0.00     0.002 A 
ATOM      6  C6  I4B d   1       5.228  -4.782  -3.457  0.00  0.00     0.003 A 
ENDROOT
BRANCH   1   7
ATOM      7  C1' I4B d   1       3.113  -3.817  -2.511  0.00  0.00     0.060 C 
BRANCH   7   8
ATOM      8  C2' I4B d   1       1.942  -4.750  -2.282  0.00  0.00    -0.013 C 
ATOM      9  C4' I4B d   1       2.275  -5.801  -1.255  0.00  0.00     0.013 C 
ATOM     10  C3' I4B d   1       0.769  -3.923  -1.849  0.00  0.00     0.013 C 
ENDBRANCH   7   8
ENDBRANCH   1   7
TORSDOF 2
ENDMDL
