MODEL 1
REMARK minimizedAffinity -0.748141885
REMARK minimizedRMSD -1
REMARK  0 active torsions:
REMARK  status: ('A' for Active; 'I' for Inactive)
ROOT
ATOM      1  C   UNL d   1      -0.569   1.738   0.830  0.00  0.00     0.124 A 
ATOM      2  C1  UNL d   1      -1.128   0.531   1.228  0.00  0.00     0.062 A 
ATOM      3  C2  UNL d   1      -1.035  -0.588   0.406  0.00  0.00     0.162 A 
ATOM      4  C3  UNL d   1      -0.379  -0.507  -0.822  0.00  0.00    -0.034 A 
ATOM      5  C4  UNL d   1       0.180   0.710  -1.216  0.00  0.00     0.162 A 
ATOM      6  C5  UNL d   1       0.084   1.826  -0.391  0.00  0.00     0.062 A 
ATOM      7  F   UNL d   1       0.625   2.991  -0.778  0.00  0.00    -0.097 F 
ATOM      8  F1  UNL d   1       0.818   0.823  -2.391  0.00  0.00    -0.096 F 
ATOM      9  I   UNL d   1      -0.238  -2.179  -2.054  0.00  0.00    -0.060 I 
ATOM     10  F2  UNL d   1      -1.585  -1.741   0.816  0.00  0.00    -0.096 F 
ATOM     11  F3  UNL d   1      -1.761   0.444   2.407  0.00  0.00    -0.097 F 
ATOM     12  F4  UNL d   1      -0.661   2.814   1.622  0.00  0.00    -0.092 F 
ENDROOT
TORSDOF 0
ENDMDL
