MODEL 1
REMARK minimizedAffinity -2.66495919
REMARK minimizedRMSD -1
REMARK  0 active torsions:
REMARK  status: ('A' for Active; 'I' for Inactive)
ROOT
ATOM      1  C   UNL d   1       1.170   2.002   0.097  0.00  0.00     0.124 A 
ATOM      2  C1  UNL d   1       2.112   0.992   0.233  0.00  0.00     0.062 A 
ATOM      3  C2  UNL d   1       1.704  -0.330   0.382  0.00  0.00     0.162 A 
ATOM      4  C3  UNL d   1       0.347  -0.651   0.394  0.00  0.00    -0.034 A 
ATOM      5  C4  UNL d   1      -0.595   0.370   0.257  0.00  0.00     0.162 A 
ATOM      6  C5  UNL d   1      -0.183   1.690   0.109  0.00  0.00     0.062 A 
ATOM      7  F   UNL d   1      -1.095   2.664  -0.022  0.00  0.00    -0.097 F 
ATOM      8  F1  UNL d   1      -1.908   0.097   0.265  0.00  0.00    -0.096 F 
ATOM      9  I   UNL d   1      -0.267  -2.628   0.615  0.00  0.00    -0.060 I 
ATOM     10  F2  UNL d   1       2.637  -1.286   0.511  0.00  0.00    -0.096 F 
ATOM     11  F3  UNL d   1       3.419   1.291   0.223  0.00  0.00    -0.097 F 
ATOM     12  F4  UNL d   1       1.565   3.274  -0.044  0.00  0.00    -0.092 F 
ENDROOT
TORSDOF 0
ENDMDL
