MODEL 1
REMARK minimizedAffinity 1.07872188
REMARK minimizedRMSD -1
REMARK  0 active torsions:
REMARK  status: ('A' for Active; 'I' for Inactive)
ROOT
ATOM      1  C   UNL d   1       0.610   1.299   0.387  0.00  0.00     0.124 A 
ATOM      2  C1  UNL d   1       1.477   0.215   0.356  0.00  0.00     0.062 A 
ATOM      3  C2  UNL d   1       1.045  -1.013  -0.134  0.00  0.00     0.162 A 
ATOM      4  C3  UNL d   1      -0.261  -1.165  -0.599  0.00  0.00    -0.034 A 
ATOM      5  C4  UNL d   1      -1.128  -0.071  -0.564  0.00  0.00     0.162 A 
ATOM      6  C5  UNL d   1      -0.691   1.154  -0.073  0.00  0.00     0.062 A 
ATOM      7  F   UNL d   1      -1.530   2.200  -0.043  0.00  0.00    -0.097 F 
ATOM      8  F1  UNL d   1      -2.390  -0.183  -1.003  0.00  0.00    -0.096 F 
ATOM      9  I   UNL d   1      -0.912  -3.001  -1.334  0.00  0.00    -0.060 I 
ATOM     10  F2  UNL d   1       1.904  -2.043  -0.153  0.00  0.00    -0.096 F 
ATOM     11  F3  UNL d   1       2.735   0.352   0.801  0.00  0.00    -0.097 F 
ATOM     12  F4  UNL d   1       1.028   2.479   0.861  0.00  0.00    -0.092 F 
ENDROOT
TORSDOF 0
ENDMDL
