MODEL 1
REMARK minimizedAffinity 3.64667344
REMARK minimizedRMSD -1
REMARK  0 active torsions:
REMARK  status: ('A' for Active; 'I' for Inactive)
ROOT
ATOM      1  C   UNL d   1      -1.449   2.366   1.391  0.00  0.00     0.124 A 
ATOM      2  C1  UNL d   1      -0.430   3.005   0.698  0.00  0.00     0.062 A 
ATOM      3  C2  UNL d   1       0.635   2.271   0.184  0.00  0.00     0.162 A 
ATOM      4  C3  UNL d   1       0.687   0.889   0.361  0.00  0.00    -0.034 A 
ATOM      5  C4  UNL d   1      -0.341   0.253   1.060  0.00  0.00     0.162 A 
ATOM      6  C5  UNL d   1      -1.403   0.991   1.572  0.00  0.00     0.062 A 
ATOM      7  F   UNL d   1      -2.386   0.372   2.241  0.00  0.00    -0.097 F 
ATOM      8  F1  UNL d   1      -0.322  -1.075   1.249  0.00  0.00    -0.096 F 
ATOM      9  I   UNL d   1       2.278  -0.213  -0.406  0.00  0.00    -0.060 I 
ATOM     10  F2  UNL d   1       1.605   2.915  -0.482  0.00  0.00    -0.096 F 
ATOM     11  F3  UNL d   1      -0.471   4.334   0.522  0.00  0.00    -0.097 F 
ATOM     12  F4  UNL d   1      -2.472   3.075   1.885  0.00  0.00    -0.092 F 
ENDROOT
TORSDOF 0
ENDMDL
