MODEL 1
REMARK minimizedAffinity -2.98409843
REMARK minimizedRMSD -1
REMARK  0 active torsions:
REMARK  status: ('A' for Active; 'I' for Inactive)
ROOT
ATOM      1  C   UNL d   1      -0.749   2.108   1.492  0.00  0.00     0.124 A 
ATOM      2  C1  UNL d   1      -0.192   2.474   0.274  0.00  0.00     0.062 A 
ATOM      3  C2  UNL d   1      -0.004   1.522  -0.724  0.00  0.00     0.162 A 
ATOM      4  C3  UNL d   1      -0.374   0.194  -0.508  0.00  0.00    -0.034 A 
ATOM      5  C4  UNL d   1      -0.932  -0.166   0.720  0.00  0.00     0.162 A 
ATOM      6  C5  UNL d   1      -1.118   0.789   1.713  0.00  0.00     0.062 A 
ATOM      7  F   UNL d   1      -1.655   0.434   2.890  0.00  0.00    -0.097 F 
ATOM      8  F1  UNL d   1      -1.299  -1.434   0.960  0.00  0.00    -0.096 F 
ATOM      9  I   UNL d   1      -0.095  -1.233  -1.998  0.00  0.00    -0.060 I 
ATOM     10  F2  UNL d   1       0.535   1.903  -1.891  0.00  0.00    -0.096 F 
ATOM     11  F3  UNL d   1       0.166   3.748   0.057  0.00  0.00    -0.097 F 
ATOM     12  F4  UNL d   1      -0.927   3.026   2.450  0.00  0.00    -0.092 F 
ENDROOT
TORSDOF 0
ENDMDL
