MODEL 1
REMARK minimizedAffinity -1.16856194
REMARK minimizedRMSD -1
REMARK  0 active torsions:
REMARK  status: ('A' for Active; 'I' for Inactive)
ROOT
ATOM      1  C   UNL d   1      -0.502  -0.887   0.877  0.00  0.00     0.124 A 
ATOM      2  C1  UNL d   1       0.738  -0.415   0.470  0.00  0.00     0.062 A 
ATOM      3  C2  UNL d   1       0.986   0.953   0.424  0.00  0.00     0.162 A 
ATOM      4  C3  UNL d   1      -0.008   1.862   0.788  0.00  0.00    -0.034 A 
ATOM      5  C4  UNL d   1      -1.253   1.380   1.196  0.00  0.00     0.162 A 
ATOM      6  C5  UNL d   1      -1.496   0.011   1.240  0.00  0.00     0.062 A 
ATOM      7  F   UNL d   1      -2.695  -0.442   1.633  0.00  0.00    -0.097 F 
ATOM      8  F1  UNL d   1      -2.232   2.226   1.553  0.00  0.00    -0.096 F 
ATOM      9  I   UNL d   1       0.360   3.909   0.721  0.00  0.00    -0.060 I 
ATOM     10  F2  UNL d   1       2.194   1.381   0.026  0.00  0.00    -0.096 F 
ATOM     11  F3  UNL d   1       1.700  -1.281   0.118  0.00  0.00    -0.097 F 
ATOM     12  F4  UNL d   1      -0.739  -2.204   0.919  0.00  0.00    -0.092 F 
ENDROOT
TORSDOF 0
ENDMDL
