MODEL 1
REMARK minimizedAffinity -3.78350115
REMARK minimizedRMSD -1
REMARK  0 active torsions:
REMARK  status: ('A' for Active; 'I' for Inactive)
ROOT
ATOM      1  C   UNL d   1       0.253   2.502   0.641  0.00  0.00     0.124 A 
ATOM      2  C1  UNL d   1       1.219   1.631   0.156  0.00  0.00     0.062 A 
ATOM      3  C2  UNL d   1       0.883   0.315  -0.150  0.00  0.00     0.162 A 
ATOM      4  C3  UNL d   1      -0.424  -0.138   0.027  0.00  0.00    -0.034 A 
ATOM      5  C4  UNL d   1      -1.389   0.745   0.516  0.00  0.00     0.162 A 
ATOM      6  C5  UNL d   1      -1.049   2.059   0.820  0.00  0.00     0.062 A 
ATOM      7  F   UNL d   1      -1.983   2.900   1.288  0.00  0.00    -0.097 F 
ATOM      8  F1  UNL d   1      -2.656   0.343   0.698  0.00  0.00    -0.096 F 
ATOM      9  I   UNL d   1      -0.930  -2.104  -0.428  0.00  0.00    -0.060 I 
ATOM     10  F2  UNL d   1       1.836  -0.506  -0.617  0.00  0.00    -0.096 F 
ATOM     11  F3  UNL d   1       2.478   2.056  -0.018  0.00  0.00    -0.097 F 
ATOM     12  F4  UNL d   1       0.579   3.768   0.935  0.00  0.00    -0.092 F 
ENDROOT
TORSDOF 0
ENDMDL
