MODEL 1
REMARK minimizedAffinity -1.78345776
REMARK minimizedRMSD -1
REMARK  0 active torsions:
REMARK  status: ('A' for Active; 'I' for Inactive)
ROOT
ATOM      1  C   UNL d   1       1.600  -1.117   0.668  0.00  0.00     0.124 A 
ATOM      2  C1  UNL d   1       0.252  -1.338   0.422  0.00  0.00     0.062 A 
ATOM      3  C2  UNL d   1      -0.637  -0.267   0.380  0.00  0.00     0.162 A 
ATOM      4  C3  UNL d   1      -0.180   1.035   0.584  0.00  0.00    -0.034 A 
ATOM      5  C4  UNL d   1       1.177   1.249   0.831  0.00  0.00     0.162 A 
ATOM      6  C5  UNL d   1       2.061   0.175   0.872  0.00  0.00     0.062 A 
ATOM      7  F   UNL d   1       3.363   0.391   1.110  0.00  0.00    -0.097 F 
ATOM      8  F1  UNL d   1       1.651   2.488   1.031  0.00  0.00    -0.096 F 
ATOM      9  I   UNL d   1      -1.505   2.639   0.522  0.00  0.00    -0.060 I 
ATOM     10  F2  UNL d   1      -1.934  -0.510   0.141  0.00  0.00    -0.096 F 
ATOM     11  F3  UNL d   1      -0.197  -2.586   0.225  0.00  0.00    -0.097 F 
ATOM     12  F4  UNL d   1       2.452  -2.149   0.709  0.00  0.00    -0.092 F 
ENDROOT
TORSDOF 0
ENDMDL
