MODEL 1
REMARK minimizedAffinity 0.987311721
REMARK minimizedRMSD -1
REMARK  0 active torsions:
REMARK  status: ('A' for Active; 'I' for Inactive)
ROOT
ATOM      1  C   UNL d   1       0.621  -1.229   1.382  0.00  0.00     0.124 A 
ATOM      2  C1  UNL d   1      -0.579  -0.532   1.393  0.00  0.00     0.062 A 
ATOM      3  C2  UNL d   1      -0.699   0.668   0.698  0.00  0.00     0.162 A 
ATOM      4  C3  UNL d   1       0.385   1.179  -0.015  0.00  0.00    -0.034 A 
ATOM      5  C4  UNL d   1       1.589   0.473  -0.022  0.00  0.00     0.162 A 
ATOM      6  C5  UNL d   1       1.704  -0.726   0.674  0.00  0.00     0.062 A 
ATOM      7  F   UNL d   1       2.864  -1.398   0.662  0.00  0.00    -0.097 F 
ATOM      8  F1  UNL d   1       2.651   0.936  -0.698  0.00  0.00    -0.096 F 
ATOM      9  I   UNL d   1       0.210   2.973  -1.056  0.00  0.00    -0.060 I 
ATOM     10  F2  UNL d   1      -1.871   1.320   0.727  0.00  0.00    -0.096 F 
ATOM     11  F3  UNL d   1      -1.627  -1.015   2.077  0.00  0.00    -0.097 F 
ATOM     12  F4  UNL d   1       0.734  -2.383   2.052  0.00  0.00    -0.092 F 
ENDROOT
TORSDOF 0
ENDMDL
