MODEL 1
REMARK minimizedAffinity -3.48107123
REMARK minimizedRMSD -1
REMARK  0 active torsions:
REMARK  status: ('A' for Active; 'I' for Inactive)
ROOT
ATOM      1  C   UNL d   1       0.107   2.908   0.467  0.00  0.00     0.124 A 
ATOM      2  C1  UNL d   1      -1.104   2.338   0.831  0.00  0.00     0.062 A 
ATOM      3  C2  UNL d   1      -1.490   1.112   0.296  0.00  0.00     0.162 A 
ATOM      4  C3  UNL d   1      -0.663   0.448  -0.610  0.00  0.00    -0.034 A 
ATOM      5  C4  UNL d   1       0.554   1.029  -0.972  0.00  0.00     0.162 A 
ATOM      6  C5  UNL d   1       0.935   2.254  -0.434  0.00  0.00     0.062 A 
ATOM      7  F   UNL d   1       2.106   2.803  -0.788  0.00  0.00    -0.097 F 
ATOM      8  F1  UNL d   1       1.374   0.417  -1.840  0.00  0.00    -0.096 F 
ATOM      9  I   UNL d   1      -1.236  -1.385  -1.413  0.00  0.00    -0.060 I 
ATOM     10  F2  UNL d   1      -2.666   0.584   0.666  0.00  0.00    -0.096 F 
ATOM     11  F3  UNL d   1      -1.906   2.969   1.701  0.00  0.00    -0.097 F 
ATOM     12  F4  UNL d   1       0.476   4.088   0.983  0.00  0.00    -0.092 F 
ENDROOT
TORSDOF 0
ENDMDL
