MODEL 1
REMARK minimizedAffinity -5.36425591
REMARK minimizedRMSD -1
REMARK  0 active torsions:
REMARK  status: ('A' for Active; 'I' for Inactive)
ROOT
ATOM      1  C   UNL d   1       1.147   2.430   0.786  0.00  0.00     0.124 A 
ATOM      2  C1  UNL d   1      -0.146   2.221   0.327  0.00  0.00     0.062 A 
ATOM      3  C2  UNL d   1      -0.535   0.962  -0.120  0.00  0.00     0.162 A 
ATOM      4  C3  UNL d   1       0.370  -0.100  -0.109  0.00  0.00    -0.034 A 
ATOM      5  C4  UNL d   1       1.669   0.118   0.354  0.00  0.00     0.162 A 
ATOM      6  C5  UNL d   1       2.053   1.379   0.799  0.00  0.00     0.062 A 
ATOM      7  F   UNL d   1       3.303   1.579   1.243  0.00  0.00    -0.097 F 
ATOM      8  F1  UNL d   1       2.564  -0.880   0.379  0.00  0.00    -0.096 F 
ATOM      9  I   UNL d   1      -0.208  -1.985  -0.776  0.00  0.00    -0.060 I 
ATOM     10  F2  UNL d   1      -1.791   0.788  -0.559  0.00  0.00    -0.096 F 
ATOM     11  F3  UNL d   1      -1.023   3.235   0.312  0.00  0.00    -0.097 F 
ATOM     12  F4  UNL d   1       1.519   3.643   1.214  0.00  0.00    -0.092 F 
ENDROOT
TORSDOF 0
ENDMDL
