MODEL 1
REMARK minimizedAffinity 0.31128484
REMARK minimizedRMSD -1
REMARK  0 active torsions:
REMARK  status: ('A' for Active; 'I' for Inactive)
ROOT
ATOM      1  C   UNL d   1       0.019   2.511   0.975  0.00  0.00     0.124 A 
ATOM      2  C1  UNL d   1      -1.223   1.913   1.141  0.00  0.00     0.062 A 
ATOM      3  C2  UNL d   1      -1.499   0.692   0.533  0.00  0.00     0.162 A 
ATOM      4  C3  UNL d   1      -0.531   0.059  -0.247  0.00  0.00    -0.034 A 
ATOM      5  C4  UNL d   1       0.715   0.667  -0.410  0.00  0.00     0.162 A 
ATOM      6  C5  UNL d   1       0.986   1.887   0.200  0.00  0.00     0.062 A 
ATOM      7  F   UNL d   1       2.187   2.463   0.039  0.00  0.00    -0.097 F 
ATOM      8  F1  UNL d   1       1.669   0.086  -1.153  0.00  0.00    -0.096 F 
ATOM      9  I   UNL d   1      -0.940  -1.766  -1.159  0.00  0.00    -0.060 I 
ATOM     10  F2  UNL d   1      -2.708   0.138   0.710  0.00  0.00    -0.096 F 
ATOM     11  F3  UNL d   1      -2.160   2.514   1.889  0.00  0.00    -0.097 F 
ATOM     12  F4  UNL d   1       0.282   3.686   1.561  0.00  0.00    -0.092 F 
ENDROOT
TORSDOF 0
ENDMDL
