MODEL 1
REMARK minimizedAffinity -0.884132445
REMARK minimizedRMSD -1
REMARK  0 active torsions:
REMARK  status: ('A' for Active; 'I' for Inactive)
ROOT
ATOM      1  C   UNL d   1       1.645   0.911  -0.094  0.00  0.00     0.124 A 
ATOM      2  C1  UNL d   1       0.467   0.851  -0.827  0.00  0.00     0.062 A 
ATOM      3  C2  UNL d   1      -0.425  -0.200  -0.633  0.00  0.00     0.162 A 
ATOM      4  C3  UNL d   1      -0.144  -1.199   0.300  0.00  0.00    -0.034 A 
ATOM      5  C4  UNL d   1       1.043  -1.132   1.032  0.00  0.00     0.162 A 
ATOM      6  C5  UNL d   1       1.931  -0.080   0.834  0.00  0.00     0.062 A 
ATOM      7  F   UNL d   1       3.068  -0.023   1.543  0.00  0.00    -0.097 F 
ATOM      8  F1  UNL d   1       1.344  -2.076   1.936  0.00  0.00    -0.096 F 
ATOM      9  I   UNL d   1      -1.475  -2.771   0.593  0.00  0.00    -0.060 I 
ATOM     10  F2  UNL d   1      -1.555  -0.233  -1.355  0.00  0.00    -0.096 F 
ATOM     11  F3  UNL d   1       0.189   1.806  -1.725  0.00  0.00    -0.097 F 
ATOM     12  F4  UNL d   1       2.502   1.922  -0.283  0.00  0.00    -0.092 F 
ENDROOT
TORSDOF 0
ENDMDL
