MODEL 1
REMARK minimizedAffinity 2.26418328
REMARK minimizedRMSD -1
REMARK  0 active torsions:
REMARK  status: ('A' for Active; 'I' for Inactive)
ROOT
ATOM      1  C   UNL d   1       0.531   2.125   1.008  0.00  0.00     0.124 A 
ATOM      2  C1  UNL d   1      -0.808   1.942   0.690  0.00  0.00     0.062 A 
ATOM      3  C2  UNL d   1      -1.234   0.748   0.116  0.00  0.00     0.162 A 
ATOM      4  C3  UNL d   1      -0.320  -0.274  -0.143  0.00  0.00    -0.034 A 
ATOM      5  C4  UNL d   1       1.025  -0.082   0.178  0.00  0.00     0.162 A 
ATOM      6  C5  UNL d   1       1.446   1.114   0.751  0.00  0.00     0.062 A 
ATOM      7  F   UNL d   1       2.740   1.289   1.057  0.00  0.00    -0.097 F 
ATOM      8  F1  UNL d   1       1.930  -1.043  -0.058  0.00  0.00    -0.096 F 
ATOM      9  I   UNL d   1      -0.953  -2.061  -1.001  0.00  0.00    -0.060 I 
ATOM     10  F2  UNL d   1      -2.533   0.598  -0.180  0.00  0.00    -0.096 F 
ATOM     11  F3  UNL d   1      -1.693   2.918   0.936  0.00  0.00    -0.097 F 
ATOM     12  F4  UNL d   1       0.939   3.276   1.559  0.00  0.00    -0.092 F 
ENDROOT
TORSDOF 0
ENDMDL
