MODEL 1
REMARK minimizedAffinity -0.0353682749
REMARK minimizedRMSD -1
REMARK  0 active torsions:
REMARK  status: ('A' for Active; 'I' for Inactive)
ROOT
ATOM      1  C   UNL d   1       0.625   2.283   0.849  0.00  0.00     0.124 A 
ATOM      2  C1  UNL d   1       1.507   1.242   0.593  0.00  0.00     0.062 A 
ATOM      3  C2  UNL d   1       1.032  -0.058   0.444  0.00  0.00     0.162 A 
ATOM      4  C3  UNL d   1      -0.333  -0.325   0.550  0.00  0.00    -0.034 A 
ATOM      5  C4  UNL d   1      -1.214   0.727   0.808  0.00  0.00     0.162 A 
ATOM      6  C5  UNL d   1      -0.735   2.024   0.956  0.00  0.00     0.062 A 
ATOM      7  F   UNL d   1      -1.589   3.028   1.203  0.00  0.00    -0.097 F 
ATOM      8  F1  UNL d   1      -2.533   0.505   0.915  0.00  0.00    -0.096 F 
ATOM      9  I   UNL d   1      -1.047  -2.267   0.328  0.00  0.00    -0.060 I 
ATOM     10  F2  UNL d   1       1.908  -1.044   0.198  0.00  0.00    -0.096 F 
ATOM     11  F3  UNL d   1       2.821   1.489   0.490  0.00  0.00    -0.097 F 
ATOM     12  F4  UNL d   1       1.084   3.532   0.992  0.00  0.00    -0.092 F 
ENDROOT
TORSDOF 0
ENDMDL
