MODEL 1
REMARK minimizedAffinity -0.406666964
REMARK minimizedRMSD -1
REMARK  0 active torsions:
REMARK  status: ('A' for Active; 'I' for Inactive)
ROOT
ATOM      1  C   UNL d   1       0.078   2.695   0.532  0.00  0.00     0.124 A 
ATOM      2  C1  UNL d   1       0.819   1.864  -0.297  0.00  0.00     0.062 A 
ATOM      3  C2  UNL d   1       0.515   0.509  -0.383  0.00  0.00     0.162 A 
ATOM      4  C3  UNL d   1      -0.537  -0.025   0.361  0.00  0.00    -0.034 A 
ATOM      5  C4  UNL d   1      -1.277   0.816   1.193  0.00  0.00     0.162 A 
ATOM      6  C5  UNL d   1      -0.969   2.170   1.276  0.00  0.00     0.062 A 
ATOM      7  F   UNL d   1      -1.687   2.971   2.077  0.00  0.00    -0.097 F 
ATOM      8  F1  UNL d   1      -2.295   0.336   1.923  0.00  0.00    -0.096 F 
ATOM      9  I   UNL d   1      -0.995  -2.051   0.235  0.00  0.00    -0.060 I 
ATOM     10  F2  UNL d   1       1.248  -0.270  -1.192  0.00  0.00    -0.096 F 
ATOM     11  F3  UNL d   1       1.832   2.369  -1.017  0.00  0.00    -0.097 F 
ATOM     12  F4  UNL d   1       0.373   3.999   0.613  0.00  0.00    -0.092 F 
ENDROOT
TORSDOF 0
ENDMDL
