MODEL 1
REMARK minimizedAffinity -6.09763622
REMARK minimizedRMSD -1
REMARK  3 active torsions:
REMARK  status: ('A' for Active; 'I' for Inactive)
REMARK    1  A    between atoms: C3'_2  and  C2'_3 
REMARK    2  A    between atoms: C2'_3  and  C1'_4 
REMARK    3  A    between atoms: C1'_4  and  C1_5 
ROOT
ATOM      1  C1  N4B d   1       0.457  -0.190   0.590  0.00  0.00    -0.075 A 
ATOM      2  C2  N4B d   1       0.361  -0.471   1.971  0.00  0.00     0.002 A 
ATOM      3  C3  N4B d   1       1.224  -1.368   2.550  0.00  0.00     0.002 A 
ATOM      4  C4  N4B d   1       2.175  -2.008   1.769  0.00  0.00    -0.004 A 
ATOM      5  C5  N4B d   1       2.277  -1.713   0.441  0.00  0.00     0.002 A 
ATOM      6  C6  N4B d   1       1.419  -0.810  -0.154  0.00  0.00     0.002 A 
ENDROOT
BRANCH   1   7
ATOM      7  C1' N4B d   1      -0.520   0.718  -0.105  0.00  0.00     0.057 C 
BRANCH   7   8
ATOM      8  C2' N4B d   1      -0.240   0.701  -1.605  0.00  0.00     0.009 C 
BRANCH   8   9
ATOM      9  C3' N4B d   1      -0.713   1.973  -2.286  0.00  0.00     0.004 C 
ATOM     10  C4' N4B d   1       0.320   3.060  -2.270  0.00  0.00     0.003 C 
ENDBRANCH   8   9
ENDBRANCH   7   8
ENDBRANCH   1   7
TORSDOF 3
ENDMDL
