MODEL 1
REMARK minimizedAffinity -5.66951942
REMARK minimizedRMSD -1
REMARK  3 active torsions:
REMARK  status: ('A' for Active; 'I' for Inactive)
REMARK    1  A    between atoms: C3'_2  and  C2'_3 
REMARK    2  A    between atoms: C2'_3  and  C1'_4 
REMARK    3  A    between atoms: C1'_4  and  C1_5 
ROOT
ATOM      1  C1  N4B d   1      -0.488  -0.082   0.749  0.00  0.00    -0.075 A 
ATOM      2  C2  N4B d   1      -1.258  -0.406   1.887  0.00  0.00     0.002 A 
ATOM      3  C3  N4B d   1      -0.636  -0.760   3.059  0.00  0.00     0.002 A 
ATOM      4  C4  N4B d   1       0.749  -0.815   3.111  0.00  0.00    -0.004 A 
ATOM      5  C5  N4B d   1       1.486  -0.476   2.014  0.00  0.00     0.002 A 
ATOM      6  C6  N4B d   1       0.874  -0.115   0.831  0.00  0.00     0.002 A 
ENDROOT
BRANCH   1   7
ATOM      7  C1' N4B d   1      -1.124   0.227  -0.579  0.00  0.00     0.057 C 
BRANCH   7   8
ATOM      8  C2' N4B d   1      -0.041   0.287  -1.651  0.00  0.00     0.009 C 
BRANCH   8   9
ATOM      9  C3' N4B d   1       0.043   1.659  -2.298  0.00  0.00     0.004 C 
ATOM     10  C4' N4B d   1      -1.301   2.204  -2.680  0.00  0.00     0.003 C 
ENDBRANCH   8   9
ENDBRANCH   7   8
ENDBRANCH   1   7
TORSDOF 3
ENDMDL
