MODEL 1
REMARK minimizedAffinity -5.88093805
REMARK minimizedRMSD -1
REMARK  3 active torsions:
REMARK  status: ('A' for Active; 'I' for Inactive)
REMARK    1  A    between atoms: C3'_2  and  C2'_3 
REMARK    2  A    between atoms: C2'_3  and  C1'_4 
REMARK    3  A    between atoms: C1'_4  and  C1_5 
ROOT
ATOM      1  C1  N4B d   1       0.007   0.044  -0.185  0.00  0.00    -0.075 A 
ATOM      2  C2  N4B d   1       1.370   0.075   0.183  0.00  0.00     0.002 A 
ATOM      3  C3  N4B d   1       1.736  -0.167   1.484  0.00  0.00     0.002 A 
ATOM      4  C4  N4B d   1       0.759  -0.421   2.435  0.00  0.00    -0.004 A 
ATOM      5  C5  N4B d   1      -0.553  -0.474   2.067  0.00  0.00     0.002 A 
ATOM      6  C6  N4B d   1      -0.935  -0.237   0.762  0.00  0.00     0.002 A 
ENDROOT
BRANCH   1   7
ATOM      7  C1' N4B d   1      -0.448   0.386  -1.577  0.00  0.00     0.057 C 
BRANCH   7   8
ATOM      8  C2' N4B d   1       0.070   1.772  -1.947  0.00  0.00     0.009 C 
BRANCH   8   9
ATOM      9  C3' N4B d   1      -1.035   2.671  -2.473  0.00  0.00     0.004 C 
ATOM     10  C4' N4B d   1      -2.291   1.918  -2.796  0.00  0.00     0.003 C 
ENDBRANCH   8   9
ENDBRANCH   7   8
ENDBRANCH   1   7
TORSDOF 3
ENDMDL
