MODEL 1
REMARK minimizedAffinity -3.16077018
REMARK minimizedRMSD -1
REMARK  3 active torsions:
REMARK  status: ('A' for Active; 'I' for Inactive)
REMARK    1  A    between atoms: C3'_2  and  C2'_3 
REMARK    2  A    between atoms: C2'_3  and  C1'_4 
REMARK    3  A    between atoms: C1'_4  and  C1_5 
ROOT
ATOM      1  C1  N4B d   1      -0.141   0.415  -1.849  0.00  0.00    -0.075 A 
ATOM      2  C2  N4B d   1      -1.486   0.801  -2.042  0.00  0.00     0.002 A 
ATOM      3  C3  N4B d   1      -1.800   1.742  -2.992  0.00  0.00     0.002 A 
ATOM      4  C4  N4B d   1      -0.790   2.322  -3.743  0.00  0.00    -0.004 A 
ATOM      5  C5  N4B d   1       0.504   1.925  -3.568  0.00  0.00     0.002 A 
ATOM      6  C6  N4B d   1       0.834   0.977  -2.620  0.00  0.00     0.002 A 
ENDROOT
BRANCH   1   7
ATOM      7  C1' N4B d   1       0.261  -0.547  -0.764  0.00  0.00     0.057 C 
BRANCH   7   8
ATOM      8  C2' N4B d   1       0.966   0.221   0.350  0.00  0.00     0.009 C 
BRANCH   8   9
ATOM      9  C3' N4B d   1       1.904  -0.669   1.147  0.00  0.00     0.004 C 
ATOM     10  C4' N4B d   1       2.959   0.107   1.878  0.00  0.00     0.003 C 
ENDBRANCH   8   9
ENDBRANCH   7   8
ENDBRANCH   1   7
TORSDOF 3
ENDMDL
