MODEL 1
REMARK minimizedAffinity -2.52826738
REMARK minimizedRMSD -1
REMARK  1 active torsions:
REMARK  status: ('A' for Active; 'I' for Inactive)
REMARK    1  A    between atoms: C1_2  and  C2_3 
ROOT
ATOM      1  C2  UNL d   1       4.891   5.376   1.790  0.00  0.00    -0.077 A 
ATOM      2  C3  UNL d   1       4.509   6.000   2.987  0.00  0.00     0.002 A 
ATOM      3  C4  UNL d   1       4.870   5.447   4.217  0.00  0.00     0.002 A 
ATOM      4  C5  UNL d   1       5.617   4.272   4.263  0.00  0.00    -0.004 A 
ATOM      5  C6  UNL d   1       6.000   3.643   3.078  0.00  0.00     0.002 A 
ATOM      6  C7  UNL d   1       5.639   4.194   1.848  0.00  0.00     0.002 A 
ENDROOT
BRANCH   1   7
ATOM      7  C1  UNL d   1       4.545   5.997   0.462  0.00  0.00     0.055 C 
ATOM      8  C   UNL d   1       5.734   5.972  -0.487  0.00  0.00     0.019 C 
ENDBRANCH   1   7
TORSDOF 1
ENDMDL
