MODEL 1
REMARK minimizedAffinity 11.1782303
REMARK minimizedRMSD -1
REMARK  1 active torsions:
REMARK  status: ('A' for Active; 'I' for Inactive)
REMARK    1  A    between atoms: C1_2  and  C2_3 
ROOT
ATOM      1  C2  UNL d   1       1.555  -3.779   0.221  0.00  0.00    -0.077 A 
ATOM      2  C3  UNL d   1       2.440  -4.637   0.890  0.00  0.00     0.002 A 
ATOM      3  C4  UNL d   1       1.954  -5.602   1.775  0.00  0.00     0.002 A 
ATOM      4  C5  UNL d   1       0.584  -5.721   1.996  0.00  0.00    -0.004 A 
ATOM      5  C6  UNL d   1      -0.304  -4.871   1.337  0.00  0.00     0.002 A 
ATOM      6  C7  UNL d   1       0.179  -3.905   0.453  0.00  0.00     0.002 A 
ENDROOT
BRANCH   1   7
ATOM      7  C1  UNL d   1       2.073  -2.771  -0.771  0.00  0.00     0.055 C 
ATOM      8  C   UNL d   1       1.004  -2.394  -1.786  0.00  0.00     0.019 C 
ENDBRANCH   1   7
TORSDOF 1
ENDMDL
