MODEL 1
REMARK minimizedAffinity -3.7066586
REMARK minimizedRMSD -1
REMARK  1 active torsions:
REMARK  status: ('A' for Active; 'I' for Inactive)
REMARK    1  A    between atoms: C1_2  and  C2_3 
ROOT
ATOM      1  C2  UNL d   1       5.470  -3.153   5.087  0.00  0.00    -0.077 A 
ATOM      2  C3  UNL d   1       4.426  -3.521   4.227  0.00  0.00     0.002 A 
ATOM      3  C4  UNL d   1       3.913  -4.820   4.254  0.00  0.00     0.002 A 
ATOM      4  C5  UNL d   1       4.435  -5.758   5.142  0.00  0.00    -0.004 A 
ATOM      5  C6  UNL d   1       5.475  -5.402   6.000  0.00  0.00     0.002 A 
ATOM      6  C7  UNL d   1       5.990  -4.105   5.973  0.00  0.00     0.002 A 
ENDROOT
BRANCH   1   7
ATOM      7  C1  UNL d   1       5.991  -1.739   5.093  0.00  0.00     0.055 C 
ATOM      8  C   UNL d   1       4.984  -0.775   4.483  0.00  0.00     0.019 C 
ENDBRANCH   1   7
TORSDOF 1
ENDMDL
