MODEL 1
REMARK minimizedAffinity 5.67638016
REMARK minimizedRMSD -1
REMARK  1 active torsions:
REMARK  status: ('A' for Active; 'I' for Inactive)
REMARK    1  A    between atoms: C1_2  and  C2_3 
ROOT
ATOM      1  C2  UNL d   1       1.973  -1.722  -1.180  0.00  0.00    -0.077 A 
ATOM      2  C3  UNL d   1       2.539  -0.525  -1.642  0.00  0.00     0.002 A 
ATOM      3  C4  UNL d   1       1.751   0.421  -2.301  0.00  0.00     0.002 A 
ATOM      4  C5  UNL d   1       0.393   0.183  -2.499  0.00  0.00    -0.004 A 
ATOM      5  C6  UNL d   1      -0.179  -1.005  -2.045  0.00  0.00     0.002 A 
ATOM      6  C7  UNL d   1       0.607  -1.953  -1.388  0.00  0.00     0.002 A 
ENDROOT
BRANCH   1   7
ATOM      7  C1  UNL d   1       2.810  -2.721  -0.426  0.00  0.00     0.055 C 
ATOM      8  C   UNL d   1       1.940  -3.735   0.302  0.00  0.00     0.019 C 
ENDBRANCH   1   7
TORSDOF 1
ENDMDL
