MODEL 1
REMARK minimizedAffinity 3.99141264
REMARK minimizedRMSD -1
REMARK  1 active torsions:
REMARK  status: ('A' for Active; 'I' for Inactive)
REMARK    1  A    between atoms: C1_2  and  C2_3 
ROOT
ATOM      1  C2  UNL d   1       4.692  -0.069  -3.109  0.00  0.00    -0.077 A 
ATOM      2  C3  UNL d   1       3.521   0.590  -3.507  0.00  0.00     0.002 A 
ATOM      3  C4  UNL d   1       2.319   0.364  -2.833  0.00  0.00     0.002 A 
ATOM      4  C5  UNL d   1       2.279  -0.517  -1.754  0.00  0.00    -0.004 A 
ATOM      5  C6  UNL d   1       3.438  -1.179  -1.352  0.00  0.00     0.002 A 
ATOM      6  C7  UNL d   1       4.640  -0.955  -2.025  0.00  0.00     0.002 A 
ENDROOT
BRANCH   1   7
ATOM      7  C1  UNL d   1       5.999   0.211  -3.803  0.00  0.00     0.055 C 
ATOM      8  C   UNL d   1       5.901  -0.061  -5.298  0.00  0.00     0.019 C 
ENDBRANCH   1   7
TORSDOF 1
ENDMDL
