MODEL 1
REMARK minimizedAffinity 6.88688135
REMARK minimizedRMSD -1
REMARK  1 active torsions:
REMARK  status: ('A' for Active; 'I' for Inactive)
REMARK    1  A    between atoms: C1_2  and  C2_3 
ROOT
ATOM      1  C2  UNL d   1       1.701  -0.855  -1.531  0.00  0.00    -0.077 A 
ATOM      2  C3  UNL d   1       0.850  -1.713  -2.241  0.00  0.00     0.002 A 
ATOM      3  C4  UNL d   1       0.970  -3.098  -2.107  0.00  0.00     0.002 A 
ATOM      4  C5  UNL d   1       1.938  -3.636  -1.262  0.00  0.00    -0.004 A 
ATOM      5  C6  UNL d   1       2.791  -2.791  -0.553  0.00  0.00     0.002 A 
ATOM      6  C7  UNL d   1       2.673  -1.407  -0.686  0.00  0.00     0.002 A 
ENDROOT
BRANCH   1   7
ATOM      7  C1  UNL d   1       1.540   0.639  -1.636  0.00  0.00     0.055 C 
ATOM      8  C   UNL d   1       0.081   1.026  -1.825  0.00  0.00     0.019 C 
ENDBRANCH   1   7
TORSDOF 1
ENDMDL
