MODEL 1
REMARK minimizedAffinity 4.04260874
REMARK minimizedRMSD -1
REMARK  1 active torsions:
REMARK  status: ('A' for Active; 'I' for Inactive)
REMARK    1  A    between atoms: C1_2  and  C2_3 
ROOT
ATOM      1  C2  UNL d   1       0.267  -0.573  -1.877  0.00  0.00    -0.077 A 
ATOM      2  C3  UNL d   1       1.602  -0.719  -1.475  0.00  0.00     0.002 A 
ATOM      3  C4  UNL d   1       2.573   0.185  -1.908  0.00  0.00     0.002 A 
ATOM      4  C5  UNL d   1       2.219   1.244  -2.742  0.00  0.00    -0.004 A 
ATOM      5  C6  UNL d   1       0.894   1.397  -3.149  0.00  0.00     0.002 A 
ATOM      6  C7  UNL d   1      -0.077   0.493  -2.718  0.00  0.00     0.002 A 
ENDROOT
BRANCH   1   7
ATOM      7  C1  UNL d   1      -0.790  -1.519  -1.371  0.00  0.00     0.055 C 
ATOM      8  C   UNL d   1      -1.852  -0.784  -0.567  0.00  0.00     0.019 C 
ENDBRANCH   1   7
TORSDOF 1
ENDMDL
