MODEL 1
REMARK minimizedAffinity 7.38947725
REMARK minimizedRMSD -1
REMARK  1 active torsions:
REMARK  status: ('A' for Active; 'I' for Inactive)
REMARK    1  A    between atoms: C1_2  and  C2_3 
ROOT
ATOM      1  C2  UNL d   1      -0.635  -3.184  -1.391  0.00  0.00    -0.077 A 
ATOM      2  C3  UNL d   1      -0.062  -3.896  -0.328  0.00  0.00     0.002 A 
ATOM      3  C4  UNL d   1       1.325  -3.945  -0.177  0.00  0.00     0.002 A 
ATOM      4  C5  UNL d   1       2.151  -3.282  -1.083  0.00  0.00    -0.004 A 
ATOM      5  C6  UNL d   1       1.591  -2.573  -2.145  0.00  0.00     0.002 A 
ATOM      6  C7  UNL d   1       0.204  -2.523  -2.298  0.00  0.00     0.002 A 
ENDROOT
BRANCH   1   7
ATOM      7  C1  UNL d   1      -2.132  -3.088  -1.528  0.00  0.00     0.055 C 
ATOM      8  C   UNL d   1      -2.687  -1.920  -0.725  0.00  0.00     0.019 C 
ENDBRANCH   1   7
TORSDOF 1
ENDMDL
