MODEL 1
REMARK minimizedAffinity -0.814306319
REMARK minimizedRMSD -1
REMARK  1 active torsions:
REMARK  status: ('A' for Active; 'I' for Inactive)
REMARK    1  A    between atoms: C1_2  and  C2_3 
ROOT
ATOM      1  C2  UNL d   1       3.125   0.297  -1.762  0.00  0.00    -0.077 A 
ATOM      2  C3  UNL d   1       3.441  -0.987  -1.295  0.00  0.00     0.002 A 
ATOM      3  C4  UNL d   1       2.471  -1.991  -1.280  0.00  0.00     0.002 A 
ATOM      4  C5  UNL d   1       1.181  -1.723  -1.733  0.00  0.00    -0.004 A 
ATOM      5  C6  UNL d   1       0.857  -0.449  -2.197  0.00  0.00     0.002 A 
ATOM      6  C7  UNL d   1       1.825   0.556  -2.212  0.00  0.00     0.002 A 
ENDROOT
BRANCH   1   7
ATOM      7  C1  UNL d   1       4.183   1.368  -1.825  0.00  0.00     0.055 C 
ATOM      8  C   UNL d   1       3.565   2.746  -2.009  0.00  0.00     0.019 C 
ENDBRANCH   1   7
TORSDOF 1
ENDMDL
