MODEL 1
REMARK minimizedAffinity 2.40596747
REMARK minimizedRMSD -1
REMARK  1 active torsions:
REMARK  status: ('A' for Active; 'I' for Inactive)
REMARK    1  A    between atoms: C1_2  and  C2_3 
ROOT
ATOM      1  C2  UNL d   1       5.233   5.968   3.520  0.00  0.00    -0.077 A 
ATOM      2  C3  UNL d   1       3.833   5.998   3.442  0.00  0.00     0.002 A 
ATOM      3  C4  UNL d   1       3.194   5.995   2.201  0.00  0.00     0.002 A 
ATOM      4  C5  UNL d   1       3.946   5.958   1.028  0.00  0.00    -0.004 A 
ATOM      5  C6  UNL d   1       5.339   5.929   1.095  0.00  0.00     0.002 A 
ATOM      6  C7  UNL d   1       5.979   5.933   2.335  0.00  0.00     0.002 A 
ENDROOT
BRANCH   1   7
ATOM      7  C1  UNL d   1       5.923   5.921   4.858  0.00  0.00     0.055 C 
ATOM      8  C   UNL d   1       5.067   5.211   5.897  0.00  0.00     0.019 C 
ENDBRANCH   1   7
TORSDOF 1
ENDMDL
