MODEL 1
REMARK minimizedAffinity 3.91357279
REMARK minimizedRMSD -1
REMARK  1 active torsions:
REMARK  status: ('A' for Active; 'I' for Inactive)
REMARK    1  A    between atoms: C1_2  and  C2_3 
ROOT
ATOM      1  C2  UNL d   1       4.932   5.623   3.712  0.00  0.00    -0.077 A 
ATOM      2  C3  UNL d   1       5.997   4.970   3.077  0.00  0.00     0.002 A 
ATOM      3  C4  UNL d   1       5.931   4.672   1.714  0.00  0.00     0.002 A 
ATOM      4  C5  UNL d   1       4.804   5.025   0.975  0.00  0.00    -0.004 A 
ATOM      5  C6  UNL d   1       3.738   5.673   1.599  0.00  0.00     0.002 A 
ATOM      6  C7  UNL d   1       3.802   5.971   2.960  0.00  0.00     0.002 A 
ENDROOT
BRANCH   1   7
ATOM      7  C1  UNL d   1       5.021   5.990   5.170  0.00  0.00     0.055 C 
ATOM      8  C   UNL d   1       5.848   4.975   5.947  0.00  0.00     0.019 C 
ENDBRANCH   1   7
TORSDOF 1
ENDMDL
