MODEL 1
REMARK minimizedAffinity -0.496491969
REMARK minimizedRMSD -1
REMARK  1 active torsions:
REMARK  status: ('A' for Active; 'I' for Inactive)
REMARK    1  A    between atoms: C1_2  and  C2_3 
ROOT
ATOM      1  C2  UNL d   1       5.058   5.083   2.950  0.00  0.00    -0.077 A 
ATOM      2  C3  UNL d   1       5.999   4.383   3.719  0.00  0.00     0.002 A 
ATOM      3  C4  UNL d   1       5.996   4.493   5.111  0.00  0.00     0.002 A 
ATOM      4  C5  UNL d   1       5.052   5.298   5.746  0.00  0.00    -0.004 A 
ATOM      5  C6  UNL d   1       4.113   5.999   4.990  0.00  0.00     0.002 A 
ATOM      6  C7  UNL d   1       4.116   5.891   3.599  0.00  0.00     0.002 A 
ENDROOT
BRANCH   1   7
ATOM      7  C1  UNL d   1       5.029   4.927   1.452  0.00  0.00     0.055 C 
ATOM      8  C   UNL d   1       5.965   5.917   0.774  0.00  0.00     0.019 C 
ENDBRANCH   1   7
TORSDOF 1
ENDMDL
