MODEL 1
REMARK minimizedAffinity 5.9288764
REMARK minimizedRMSD -1
REMARK  0 active torsions:
REMARK  status: ('A' for Active; 'I' for Inactive)
ROOT
ATOM      1  C   UNL d   1      -1.761  -1.282   1.671  0.00  0.00     0.124 A 
ATOM      2  C1  UNL d   1      -0.845  -1.658   2.644  0.00  0.00     0.062 A 
ATOM      3  C2  UNL d   1       0.499  -1.326   2.506  0.00  0.00     0.162 A 
ATOM      4  C3  UNL d   1       0.937  -0.614   1.389  0.00  0.00    -0.034 A 
ATOM      5  C4  UNL d   1       0.011  -0.240   0.414  0.00  0.00     0.162 A 
ATOM      6  C5  UNL d   1      -1.332  -0.574   0.557  0.00  0.00     0.062 A 
ATOM      7  F   UNL d   1      -2.215  -0.210  -0.384  0.00  0.00    -0.097 F 
ATOM      8  F1  UNL d   1       0.398   0.446  -0.672  0.00  0.00    -0.096 F 
ATOM      9  I   UNL d   1       2.947  -0.117   1.178  0.00  0.00    -0.060 I 
ATOM     10  F2  UNL d   1       1.362  -1.702   3.462  0.00  0.00    -0.096 F 
ATOM     11  F3  UNL d   1      -1.257  -2.343   3.721  0.00  0.00    -0.097 F 
ATOM     12  F4  UNL d   1      -3.054  -1.603   1.806  0.00  0.00    -0.092 F 
ENDROOT
TORSDOF 0
ENDMDL
