MODEL 1
REMARK minimizedAffinity 5.97237682
REMARK minimizedRMSD -1
REMARK  0 active torsions:
REMARK  status: ('A' for Active; 'I' for Inactive)
ROOT
ATOM      1  C   UNL d   1      -4.743  -3.140  -3.977  0.00  0.00     0.124 A 
ATOM      2  C1  UNL d   1      -3.531  -2.844  -3.369  0.00  0.00     0.062 A 
ATOM      3  C2  UNL d   1      -2.403  -3.612  -3.644  0.00  0.00     0.162 A 
ATOM      4  C3  UNL d   1      -2.482  -4.684  -4.533  0.00  0.00    -0.034 A 
ATOM      5  C4  UNL d   1      -3.705  -4.976  -5.140  0.00  0.00     0.162 A 
ATOM      6  C5  UNL d   1      -4.829  -4.205  -4.861  0.00  0.00     0.062 A 
ATOM      7  F   UNL d   1      -5.999  -4.493  -5.450  0.00  0.00    -0.097 F 
ATOM      8  F1  UNL d   1      -3.816  -6.000  -6.000  0.00  0.00    -0.096 F 
ATOM      9  I   UNL d   1      -0.799  -5.836  -4.948  0.00  0.00    -0.060 I 
ATOM     10  F2  UNL d   1      -1.245  -3.303  -3.042  0.00  0.00    -0.096 F 
ATOM     11  F3  UNL d   1      -3.445  -1.815  -2.513  0.00  0.00    -0.097 F 
ATOM     12  F4  UNL d   1      -5.826  -2.399  -3.709  0.00  0.00    -0.092 F 
ENDROOT
TORSDOF 0
ENDMDL
