MODEL 1
REMARK minimizedAffinity 4.65480185
REMARK minimizedRMSD -1
REMARK  0 active torsions:
REMARK  status: ('A' for Active; 'I' for Inactive)
ROOT
ATOM      1  C   UNL d   1      -4.885  -3.046  -4.199  0.00  0.00     0.124 A 
ATOM      2  C1  UNL d   1      -4.887  -4.153  -5.036  0.00  0.00     0.062 A 
ATOM      3  C2  UNL d   1      -3.737  -4.923  -5.182  0.00  0.00     0.162 A 
ATOM      4  C3  UNL d   1      -2.574  -4.589  -4.487  0.00  0.00    -0.034 A 
ATOM      5  C4  UNL d   1      -2.579  -3.474  -3.647  0.00  0.00     0.162 A 
ATOM      6  C5  UNL d   1      -3.732  -2.707  -3.505  0.00  0.00     0.062 A 
ATOM      7  F   UNL d   1      -3.728  -1.638  -2.696  0.00  0.00    -0.097 F 
ATOM      8  F1  UNL d   1      -1.479  -3.125  -2.964  0.00  0.00    -0.096 F 
ATOM      9  I   UNL d   1      -0.852  -5.738  -4.701  0.00  0.00    -0.060 I 
ATOM     10  F2  UNL d   1      -3.768  -5.987  -5.997  0.00  0.00    -0.096 F 
ATOM     11  F3  UNL d   1      -6.000  -4.481  -5.708  0.00  0.00    -0.097 F 
ATOM     12  F4  UNL d   1      -5.993  -2.306  -4.062  0.00  0.00    -0.092 F 
ENDROOT
TORSDOF 0
ENDMDL
