MODEL 1
REMARK minimizedAffinity 0.222560734
REMARK minimizedRMSD -1
REMARK  0 active torsions:
REMARK  status: ('A' for Active; 'I' for Inactive)
ROOT
ATOM      1  C   UNL d   1      -4.858  -3.033  -4.224  0.00  0.00     0.124 A 
ATOM      2  C1  UNL d   1      -4.875  -4.152  -5.045  0.00  0.00     0.062 A 
ATOM      3  C2  UNL d   1      -3.726  -4.923  -5.201  0.00  0.00     0.162 A 
ATOM      4  C3  UNL d   1      -2.551  -4.577  -4.534  0.00  0.00    -0.034 A 
ATOM      5  C4  UNL d   1      -2.541  -3.449  -3.711  0.00  0.00     0.162 A 
ATOM      6  C5  UNL d   1      -3.692  -2.682  -3.558  0.00  0.00     0.062 A 
ATOM      7  F   UNL d   1      -3.674  -1.601  -2.765  0.00  0.00    -0.097 F 
ATOM      8  F1  UNL d   1      -1.428  -3.089  -3.055  0.00  0.00    -0.096 F 
ATOM      9  I   UNL d   1      -0.831  -5.727  -4.764  0.00  0.00    -0.060 I 
ATOM     10  F2  UNL d   1      -3.771  -5.999  -6.000  0.00  0.00    -0.096 F 
ATOM     11  F3  UNL d   1      -6.000  -4.492  -5.690  0.00  0.00    -0.097 F 
ATOM     12  F4  UNL d   1      -5.964  -2.292  -4.077  0.00  0.00    -0.092 F 
ENDROOT
TORSDOF 0
ENDMDL
