MODEL 1
REMARK minimizedAffinity 6.77118349
REMARK minimizedRMSD -1
REMARK  0 active torsions:
REMARK  status: ('A' for Active; 'I' for Inactive)
ROOT
ATOM      1  C   UNL d   1      -1.953   4.460  -2.596  0.00  0.00     0.124 A 
ATOM      2  C1  UNL d   1      -0.986   4.606  -3.580  0.00  0.00     0.062 A 
ATOM      3  C2  UNL d   1       0.002   3.638  -3.740  0.00  0.00     0.162 A 
ATOM      4  C3  UNL d   1       0.027   2.515  -2.914  0.00  0.00    -0.034 A 
ATOM      5  C4  UNL d   1      -0.949   2.375  -1.925  0.00  0.00     0.162 A 
ATOM      6  C5  UNL d   1      -1.934   3.345  -1.769  0.00  0.00     0.062 A 
ATOM      7  F   UNL d   1      -2.868   3.203  -0.817  0.00  0.00    -0.097 F 
ATOM      8  F1  UNL d   1      -0.955   1.308  -1.113  0.00  0.00    -0.096 F 
ATOM      9  I   UNL d   1       1.502   1.065  -3.149  0.00  0.00    -0.060 I 
ATOM     10  F2  UNL d   1       0.924   3.805  -4.700  0.00  0.00    -0.096 F 
ATOM     11  F3  UNL d   1      -1.001   5.682  -4.380  0.00  0.00    -0.097 F 
ATOM     12  F4  UNL d   1      -2.901   5.393  -2.444  0.00  0.00    -0.092 F 
ENDROOT
TORSDOF 0
ENDMDL
