MODEL 1
REMARK minimizedAffinity 2.74681115
REMARK minimizedRMSD -1
REMARK  0 active torsions:
REMARK  status: ('A' for Active; 'I' for Inactive)
ROOT
ATOM      1  C   UNL d   1      -2.390  -3.294  -3.620  0.00  0.00     0.124 A 
ATOM      2  C1  UNL d   1      -2.098  -4.338  -4.488  0.00  0.00     0.062 A 
ATOM      3  C2  UNL d   1      -3.123  -4.990  -5.168  0.00  0.00     0.162 A 
ATOM      4  C3  UNL d   1      -4.449  -4.600  -4.983  0.00  0.00    -0.034 A 
ATOM      5  C4  UNL d   1      -4.735  -3.551  -4.109  0.00  0.00     0.162 A 
ATOM      6  C5  UNL d   1      -3.708  -2.902  -3.431  0.00  0.00     0.062 A 
ATOM      7  F   UNL d   1      -3.992  -1.894  -2.594  0.00  0.00    -0.097 F 
ATOM      8  F1  UNL d   1      -6.000  -3.150  -3.908  0.00  0.00    -0.096 F 
ATOM      9  I   UNL d   1      -5.984  -5.573  -5.998  0.00  0.00    -0.060 I 
ATOM     10  F2  UNL d   1      -2.812  -5.995  -6.000  0.00  0.00    -0.096 F 
ATOM     11  F3  UNL d   1      -0.826  -4.720  -4.671  0.00  0.00    -0.097 F 
ATOM     12  F4  UNL d   1      -1.403  -2.669  -2.967  0.00  0.00    -0.092 F 
ENDROOT
TORSDOF 0
ENDMDL
