MODEL 1
REMARK minimizedAffinity 7.47207212
REMARK minimizedRMSD -1
REMARK  0 active torsions:
REMARK  status: ('A' for Active; 'I' for Inactive)
ROOT
ATOM      1  C   UNL d   1      -2.392  -4.859  -3.541  0.00  0.00     0.124 A 
ATOM      2  C1  UNL d   1      -2.110  -3.901  -4.505  0.00  0.00     0.062 A 
ATOM      3  C2  UNL d   1      -3.138  -3.153  -5.070  0.00  0.00     0.162 A 
ATOM      4  C3  UNL d   1      -4.459  -3.359  -4.673  0.00  0.00    -0.034 A 
ATOM      5  C4  UNL d   1      -4.735  -4.325  -3.703  0.00  0.00     0.162 A 
ATOM      6  C5  UNL d   1      -3.704  -5.070  -3.141  0.00  0.00     0.062 A 
ATOM      7  F   UNL d   1      -3.978  -5.995  -2.210  0.00  0.00    -0.097 F 
ATOM      8  F1  UNL d   1      -5.994  -4.549  -3.298  0.00  0.00    -0.096 F 
ATOM      9  I   UNL d   1      -6.000  -2.242  -5.515  0.00  0.00    -0.060 I 
ATOM     10  F2  UNL d   1      -2.836  -2.234  -6.000  0.00  0.00    -0.096 F 
ATOM     11  F3  UNL d   1      -0.843  -3.696  -4.894  0.00  0.00    -0.097 F 
ATOM     12  F4  UNL d   1      -1.400  -5.578  -3.000  0.00  0.00    -0.092 F 
ENDROOT
TORSDOF 0
ENDMDL
