MODEL 1
REMARK minimizedAffinity 2.58503962
REMARK minimizedRMSD -1
REMARK  0 active torsions:
REMARK  status: ('A' for Active; 'I' for Inactive)
ROOT
ATOM      1  C   UNL d   1      -2.601  -4.555  -4.766  0.00  0.00     0.124 A 
ATOM      2  C1  UNL d   1      -2.352  -3.322  -5.353  0.00  0.00     0.062 A 
ATOM      3  C2  UNL d   1      -3.321  -2.322  -5.318  0.00  0.00     0.162 A 
ATOM      4  C3  UNL d   1      -4.547  -2.551  -4.694  0.00  0.00    -0.034 A 
ATOM      5  C4  UNL d   1      -4.789  -3.794  -4.107  0.00  0.00     0.162 A 
ATOM      6  C5  UNL d   1      -3.819  -4.790  -4.144  0.00  0.00     0.062 A 
ATOM      7  F   UNL d   1      -4.060  -5.981  -3.577  0.00  0.00    -0.097 F 
ATOM      8  F1  UNL d   1      -5.957  -4.048  -3.498  0.00  0.00    -0.096 F 
ATOM      9  I   UNL d   1      -5.997  -1.060  -4.640  0.00  0.00    -0.060 I 
ATOM     10  F2  UNL d   1      -3.053  -1.140  -5.893  0.00  0.00    -0.096 F 
ATOM     11  F3  UNL d   1      -1.177  -3.092  -5.956  0.00  0.00    -0.097 F 
ATOM     12  F4  UNL d   1      -1.668  -5.515  -4.802  0.00  0.00    -0.092 F 
ENDROOT
TORSDOF 0
ENDMDL
