MODEL 1
REMARK minimizedAffinity 4.96478605
REMARK minimizedRMSD -1
REMARK  0 active torsions:
REMARK  status: ('A' for Active; 'I' for Inactive)
ROOT
ATOM      1  C   UNL d   1      -4.120  -3.246  -3.126  0.00  0.00     0.124 A 
ATOM      2  C1  UNL d   1      -2.752  -3.298  -2.899  0.00  0.00     0.062 A 
ATOM      3  C2  UNL d   1      -1.936  -4.075  -3.717  0.00  0.00     0.162 A 
ATOM      4  C3  UNL d   1      -2.486  -4.805  -4.770  0.00  0.00    -0.034 A 
ATOM      5  C4  UNL d   1      -3.863  -4.748  -4.992  0.00  0.00     0.162 A 
ATOM      6  C5  UNL d   1      -4.674  -3.970  -4.172  0.00  0.00     0.062 A 
ATOM      7  F   UNL d   1      -5.996  -3.921  -4.392  0.00  0.00    -0.097 F 
ATOM      8  F1  UNL d   1      -4.425  -5.437  -5.996  0.00  0.00    -0.096 F 
ATOM      9  I   UNL d   1      -1.269  -5.967  -5.995  0.00  0.00    -0.060 I 
ATOM     10  F2  UNL d   1      -0.617  -4.106  -3.474  0.00  0.00    -0.096 F 
ATOM     11  F3  UNL d   1      -2.214  -2.600  -1.889  0.00  0.00    -0.097 F 
ATOM     12  F4  UNL d   1      -4.903  -2.499  -2.337  0.00  0.00    -0.092 F 
ENDROOT
TORSDOF 0
ENDMDL
