MODEL 1
REMARK minimizedAffinity 6.75216293
REMARK minimizedRMSD -1
REMARK  0 active torsions:
REMARK  status: ('A' for Active; 'I' for Inactive)
ROOT
ATOM      1  C   UNL d   1      -5.355  -3.932  -5.011  0.00  0.00     0.124 A 
ATOM      2  C1  UNL d   1      -5.291  -2.545  -5.005  0.00  0.00     0.062 A 
ATOM      3  C2  UNL d   1      -4.624  -1.880  -3.980  0.00  0.00     0.162 A 
ATOM      4  C3  UNL d   1      -4.015  -2.601  -2.953  0.00  0.00    -0.034 A 
ATOM      5  C4  UNL d   1      -4.085  -3.995  -2.965  0.00  0.00     0.162 A 
ATOM      6  C5  UNL d   1      -4.753  -4.655  -3.992  0.00  0.00     0.062 A 
ATOM      7  F   UNL d   1      -4.814  -5.995  -3.996  0.00  0.00    -0.097 F 
ATOM      8  F1  UNL d   1      -3.510  -4.719  -1.993  0.00  0.00    -0.096 F 
ATOM      9  I   UNL d   1      -3.017  -1.610  -1.418  0.00  0.00    -0.060 I 
ATOM     10  F2  UNL d   1      -4.577  -0.540  -3.999  0.00  0.00    -0.096 F 
ATOM     11  F3  UNL d   1      -5.873  -1.844  -5.988  0.00  0.00    -0.097 F 
ATOM     12  F4  UNL d   1      -5.999  -4.569  -5.998  0.00  0.00    -0.092 F 
ENDROOT
TORSDOF 0
ENDMDL
