MODEL 1
REMARK minimizedAffinity 13.0286331
REMARK minimizedRMSD -1
REMARK  0 active torsions:
REMARK  status: ('A' for Active; 'I' for Inactive)
ROOT
ATOM      1  C   UNL d   1      -4.347  -1.262  -2.739  0.00  0.00     0.124 A 
ATOM      2  C1  UNL d   1      -3.754  -2.469  -2.396  0.00  0.00     0.062 A 
ATOM      3  C2  UNL d   1      -3.878  -3.573  -3.234  0.00  0.00     0.162 A 
ATOM      4  C3  UNL d   1      -4.599  -3.475  -4.425  0.00  0.00    -0.034 A 
ATOM      5  C4  UNL d   1      -5.194  -2.258  -4.763  0.00  0.00     0.162 A 
ATOM      6  C5  UNL d   1      -5.066  -1.158  -3.922  0.00  0.00     0.062 A 
ATOM      7  F   UNL d   1      -5.641   0.008  -4.255  0.00  0.00    -0.097 F 
ATOM      8  F1  UNL d   1      -5.893  -2.130  -5.900  0.00  0.00    -0.096 F 
ATOM      9  I   UNL d   1      -4.787  -5.124  -5.681  0.00  0.00    -0.060 I 
ATOM     10  F2  UNL d   1      -3.295  -4.727  -2.878  0.00  0.00    -0.096 F 
ATOM     11  F3  UNL d   1      -3.060  -2.572  -1.254  0.00  0.00    -0.097 F 
ATOM     12  F4  UNL d   1      -4.227  -0.201  -1.931  0.00  0.00    -0.092 F 
ENDROOT
TORSDOF 0
ENDMDL
