MODEL 1
REMARK minimizedAffinity 7.75612736
REMARK minimizedRMSD -1
REMARK  0 active torsions:
REMARK  status: ('A' for Active; 'I' for Inactive)
ROOT
ATOM      1  C   UNL d   1      -4.413  -1.940  -2.882  0.00  0.00     0.124 A 
ATOM      2  C1  UNL d   1      -5.191  -1.908  -4.031  0.00  0.00     0.062 A 
ATOM      3  C2  UNL d   1      -5.210  -3.000  -4.894  0.00  0.00     0.162 A 
ATOM      4  C3  UNL d   1      -4.450  -4.135  -4.611  0.00  0.00    -0.034 A 
ATOM      5  C4  UNL d   1      -3.669  -4.159  -3.454  0.00  0.00     0.162 A 
ATOM      6  C5  UNL d   1      -3.653  -3.065  -2.594  0.00  0.00     0.062 A 
ATOM      7  F   UNL d   1      -2.900  -3.098  -1.485  0.00  0.00    -0.097 F 
ATOM      8  F1  UNL d   1      -2.926  -5.234  -3.151  0.00  0.00    -0.096 F 
ATOM      9  I   UNL d   1      -4.476  -5.769  -5.898  0.00  0.00    -0.060 I 
ATOM     10  F2  UNL d   1      -5.971  -2.941  -5.997  0.00  0.00    -0.096 F 
ATOM     11  F3  UNL d   1      -5.925  -0.822  -4.311  0.00  0.00    -0.097 F 
ATOM     12  F4  UNL d   1      -4.395  -0.888  -2.054  0.00  0.00    -0.092 F 
ENDROOT
TORSDOF 0
ENDMDL
