MODEL 1
REMARK minimizedAffinity 9.44010067
REMARK minimizedRMSD -1
REMARK  0 active torsions:
REMARK  status: ('A' for Active; 'I' for Inactive)
ROOT
ATOM      1  C   UNL d   1      -4.914  -2.443  -3.724  0.00  0.00     0.124 A 
ATOM      2  C1  UNL d   1      -3.940  -1.936  -4.574  0.00  0.00     0.062 A 
ATOM      3  C2  UNL d   1      -3.027  -2.792  -5.182  0.00  0.00     0.162 A 
ATOM      4  C3  UNL d   1      -3.083  -4.165  -4.943  0.00  0.00    -0.034 A 
ATOM      5  C4  UNL d   1      -4.064  -4.667  -4.087  0.00  0.00     0.162 A 
ATOM      6  C5  UNL d   1      -4.975  -3.808  -3.482  0.00  0.00     0.062 A 
ATOM      7  F   UNL d   1      -5.914  -4.299  -2.661  0.00  0.00    -0.097 F 
ATOM      8  F1  UNL d   1      -4.146  -5.982  -3.835  0.00  0.00    -0.096 F 
ATOM      9  I   UNL d   1      -1.719  -5.449  -5.850  0.00  0.00    -0.060 I 
ATOM     10  F2  UNL d   1      -2.097  -2.274  -5.998  0.00  0.00    -0.096 F 
ATOM     11  F3  UNL d   1      -3.879  -0.617  -4.809  0.00  0.00    -0.097 F 
ATOM     12  F4  UNL d   1      -5.791  -1.616  -3.140  0.00  0.00    -0.092 F 
ENDROOT
TORSDOF 0
ENDMDL
