MODEL 1
REMARK minimizedAffinity 13.9372492
REMARK minimizedRMSD -1
REMARK  0 active torsions:
REMARK  status: ('A' for Active; 'I' for Inactive)
ROOT
ATOM      1  C   UNL d   1      -1.753  -4.011  -3.498  0.00  0.00     0.124 A 
ATOM      2  C1  UNL d   1      -2.625  -2.961  -3.248  0.00  0.00     0.062 A 
ATOM      3  C2  UNL d   1      -3.838  -2.882  -3.926  0.00  0.00     0.162 A 
ATOM      4  C3  UNL d   1      -4.187  -3.857  -4.861  0.00  0.00    -0.034 A 
ATOM      5  C4  UNL d   1      -3.304  -4.910  -5.108  0.00  0.00     0.162 A 
ATOM      6  C5  UNL d   1      -2.093  -4.984  -4.427  0.00  0.00     0.062 A 
ATOM      7  F   UNL d   1      -1.252  -6.000  -4.670  0.00  0.00    -0.097 F 
ATOM      8  F1  UNL d   1      -3.608  -5.864  -6.000  0.00  0.00    -0.096 F 
ATOM      9  I   UNL d   1      -6.000  -3.742  -5.877  0.00  0.00    -0.060 I 
ATOM     10  F2  UNL d   1      -4.662  -1.856  -3.665  0.00  0.00    -0.096 F 
ATOM     11  F3  UNL d   1      -2.299  -2.019  -2.352  0.00  0.00    -0.097 F 
ATOM     12  F4  UNL d   1      -0.586  -4.085  -2.845  0.00  0.00    -0.092 F 
ENDROOT
TORSDOF 0
ENDMDL
