MODEL 1
REMARK minimizedAffinity 6.7568121
REMARK minimizedRMSD -1
REMARK  0 active torsions:
REMARK  status: ('A' for Active; 'I' for Inactive)
ROOT
ATOM      1  C   UNL d   1      -2.525  -2.387  -5.693  0.00  0.00     0.124 A 
ATOM      2  C1  UNL d   1      -3.845  -2.100  -5.377  0.00  0.00     0.062 A 
ATOM      3  C2  UNL d   1      -4.728  -3.127  -5.059  0.00  0.00     0.162 A 
ATOM      4  C3  UNL d   1      -4.294  -4.453  -5.055  0.00  0.00    -0.034 A 
ATOM      5  C4  UNL d   1      -2.964  -4.734  -5.376  0.00  0.00     0.162 A 
ATOM      6  C5  UNL d   1      -2.086  -3.704  -5.693  0.00  0.00     0.062 A 
ATOM      7  F   UNL d   1      -0.810  -3.983  -5.998  0.00  0.00    -0.097 F 
ATOM      8  F1  UNL d   1      -2.513  -5.997  -5.381  0.00  0.00    -0.096 F 
ATOM      9  I   UNL d   1      -5.611  -5.992  -4.580  0.00  0.00    -0.060 I 
ATOM     10  F2  UNL d   1      -5.999  -2.821  -4.757  0.00  0.00    -0.096 F 
ATOM     11  F3  UNL d   1      -4.272  -0.829  -5.378  0.00  0.00    -0.097 F 
ATOM     12  F4  UNL d   1      -1.677  -1.396  -6.000  0.00  0.00    -0.092 F 
ENDROOT
TORSDOF 0
ENDMDL
