MODEL 1
REMARK minimizedAffinity 12.4550705
REMARK minimizedRMSD -1
REMARK  0 active torsions:
REMARK  status: ('A' for Active; 'I' for Inactive)
ROOT
ATOM      1  C   UNL d   1      -3.651  -4.930  -5.080  0.00  0.00     0.124 A 
ATOM      2  C1  UNL d   1      -2.394  -4.542  -4.640  0.00  0.00     0.062 A 
ATOM      3  C2  UNL d   1      -2.266  -3.537  -3.685  0.00  0.00     0.162 A 
ATOM      4  C3  UNL d   1      -3.399  -2.914  -3.163  0.00  0.00    -0.034 A 
ATOM      5  C4  UNL d   1      -4.661  -3.309  -3.612  0.00  0.00     0.162 A 
ATOM      6  C5  UNL d   1      -4.783  -4.314  -4.566  0.00  0.00     0.062 A 
ATOM      7  F   UNL d   1      -5.999  -4.687  -4.991  0.00  0.00    -0.097 F 
ATOM      8  F1  UNL d   1      -5.771  -2.730  -3.131  0.00  0.00    -0.096 F 
ATOM      9  I   UNL d   1      -3.212  -1.411  -1.736  0.00  0.00    -0.060 I 
ATOM     10  F2  UNL d   1      -1.038  -3.183  -3.278  0.00  0.00    -0.096 F 
ATOM     11  F3  UNL d   1      -1.299  -5.136  -5.136  0.00  0.00    -0.097 F 
ATOM     12  F4  UNL d   1      -3.772  -5.897  -6.000  0.00  0.00    -0.092 F 
ENDROOT
TORSDOF 0
ENDMDL
