MODEL 1
REMARK minimizedAffinity 6.81444693
REMARK minimizedRMSD -1
REMARK  0 active torsions:
REMARK  status: ('A' for Active; 'I' for Inactive)
ROOT
ATOM      1  C   UNL d   1      -2.373  -3.027  -3.964  0.00  0.00     0.124 A 
ATOM      2  C1  UNL d   1      -3.689  -2.618  -3.797  0.00  0.00     0.062 A 
ATOM      3  C2  UNL d   1      -4.726  -3.347  -4.371  0.00  0.00     0.162 A 
ATOM      4  C3  UNL d   1      -4.452  -4.493  -5.118  0.00  0.00    -0.034 A 
ATOM      5  C4  UNL d   1      -3.125  -4.897  -5.282  0.00  0.00     0.162 A 
ATOM      6  C5  UNL d   1      -2.092  -4.165  -4.706  0.00  0.00     0.062 A 
ATOM      7  F   UNL d   1      -0.821  -4.561  -4.868  0.00  0.00    -0.097 F 
ATOM      8  F1  UNL d   1      -2.826  -5.994  -5.994  0.00  0.00    -0.096 F 
ATOM      9  I   UNL d   1      -6.000  -5.586  -5.978  0.00  0.00    -0.060 I 
ATOM     10  F2  UNL d   1      -5.988  -2.930  -4.193  0.00  0.00    -0.096 F 
ATOM     11  F3  UNL d   1      -3.962  -1.518  -3.081  0.00  0.00    -0.097 F 
ATOM     12  F4  UNL d   1      -1.376  -2.323  -3.411  0.00  0.00    -0.092 F 
ENDROOT
TORSDOF 0
ENDMDL
