MODEL 1
REMARK minimizedAffinity 0.860068738
REMARK minimizedRMSD -1
REMARK  0 active torsions:
REMARK  status: ('A' for Active; 'I' for Inactive)
ROOT
ATOM      1  C   UNL d   1      -4.934  -2.745  -4.435  0.00  0.00     0.124 A 
ATOM      2  C1  UNL d   1      -3.829  -2.349  -5.175  0.00  0.00     0.062 A 
ATOM      3  C2  UNL d   1      -2.719  -3.183  -5.278  0.00  0.00     0.162 A 
ATOM      4  C3  UNL d   1      -2.710  -4.423  -4.638  0.00  0.00    -0.034 A 
ATOM      5  C4  UNL d   1      -3.825  -4.814  -3.894  0.00  0.00     0.162 A 
ATOM      6  C5  UNL d   1      -4.931  -3.977  -3.795  0.00  0.00     0.062 A 
ATOM      7  F   UNL d   1      -5.998  -4.361  -3.079  0.00  0.00    -0.097 F 
ATOM      8  F1  UNL d   1      -3.849  -5.999  -3.267  0.00  0.00    -0.096 F 
ATOM      9  I   UNL d   1      -1.053  -5.674  -4.789  0.00  0.00    -0.060 I 
ATOM     10  F2  UNL d   1      -1.665  -2.775  -6.000  0.00  0.00    -0.096 F 
ATOM     11  F3  UNL d   1      -3.829  -1.159  -5.793  0.00  0.00    -0.097 F 
ATOM     12  F4  UNL d   1      -6.000  -1.940  -4.337  0.00  0.00    -0.092 F 
ENDROOT
TORSDOF 0
ENDMDL
