MODEL 1
REMARK minimizedAffinity -3.6327033
REMARK minimizedRMSD -1
REMARK  1 active torsions:
REMARK  status: ('A' for Active; 'I' for Inactive)
REMARK    1  A    between atoms: C1_2  and  C2_3 
ROOT
ATOM      1  C2  UNL d   1      -1.235   1.490   2.579  0.00  0.00    -0.077 A 
ATOM      2  C3  UNL d   1      -2.415   2.243   2.513  0.00  0.00     0.002 A 
ATOM      3  C4  UNL d   1      -2.617   3.318   3.381  0.00  0.00     0.002 A 
ATOM      4  C5  UNL d   1      -1.641   3.651   4.318  0.00  0.00    -0.004 A 
ATOM      5  C6  UNL d   1      -0.464   2.907   4.392  0.00  0.00     0.002 A 
ATOM      6  C7  UNL d   1      -0.261   1.831   3.526  0.00  0.00     0.002 A 
ENDROOT
BRANCH   1   7
ATOM      7  C1  UNL d   1      -0.994   0.361   1.611  0.00  0.00     0.055 C 
ATOM      8  C   UNL d   1      -1.294   0.785   0.180  0.00  0.00     0.019 C 
ENDBRANCH   1   7
TORSDOF 1
ENDMDL
