MODEL 1
REMARK minimizedAffinity -5.40599251
REMARK minimizedRMSD -1
REMARK  1 active torsions:
REMARK  status: ('A' for Active; 'I' for Inactive)
REMARK    1  A    between atoms: C1_2  and  C2_3 
ROOT
ATOM      1  C2  UNL d   1       0.360  -0.341  -1.002  0.00  0.00    -0.077 A 
ATOM      2  C3  UNL d   1      -0.798   0.442  -0.888  0.00  0.00     0.002 A 
ATOM      3  C4  UNL d   1      -1.358   0.697   0.365  0.00  0.00     0.002 A 
ATOM      4  C5  UNL d   1      -0.766   0.176   1.513  0.00  0.00    -0.004 A 
ATOM      5  C6  UNL d   1       0.384  -0.606   1.411  0.00  0.00     0.002 A 
ATOM      6  C7  UNL d   1       0.945  -0.862   0.159  0.00  0.00     0.002 A 
ENDROOT
BRANCH   1   7
ATOM      7  C1  UNL d   1       0.994  -0.575  -2.348  0.00  0.00     0.055 C 
ATOM      8  C   UNL d   1       1.219  -2.059  -2.603  0.00  0.00     0.019 C 
ENDBRANCH   1   7
TORSDOF 1
ENDMDL
