MODEL 1
REMARK minimizedAffinity -1.56169462
REMARK minimizedRMSD -1
REMARK  1 active torsions:
REMARK  status: ('A' for Active; 'I' for Inactive)
REMARK    1  A    between atoms: C1_2  and  C2_3 
ROOT
ATOM      1  C2  UNL d   1      -0.757  -0.392   1.542  0.00  0.00    -0.077 A 
ATOM      2  C3  UNL d   1       0.556  -0.025   1.213  0.00  0.00     0.002 A 
ATOM      3  C4  UNL d   1       0.896   0.267  -0.110  0.00  0.00     0.002 A 
ATOM      4  C5  UNL d   1      -0.070   0.199  -1.111  0.00  0.00    -0.004 A 
ATOM      5  C6  UNL d   1      -1.377  -0.167  -0.794  0.00  0.00     0.002 A 
ATOM      6  C7  UNL d   1      -1.719  -0.460   0.527  0.00  0.00     0.002 A 
ENDROOT
BRANCH   1   7
ATOM      7  C1  UNL d   1      -1.138  -0.659   2.975  0.00  0.00     0.055 C 
ATOM      8  C   UNL d   1      -1.024   0.600   3.822  0.00  0.00     0.019 C 
ENDBRANCH   1   7
TORSDOF 1
ENDMDL
