MODEL 1
REMARK minimizedAffinity -5.42479563
REMARK minimizedRMSD -1
REMARK  1 active torsions:
REMARK  status: ('A' for Active; 'I' for Inactive)
REMARK    1  A    between atoms: C1_2  and  C2_3 
ROOT
ATOM      1  C2  UNL d   1       0.149  -0.040  -0.177  0.00  0.00    -0.077 A 
ATOM      2  C3  UNL d   1      -0.889  -0.315   0.725  0.00  0.00     0.002 A 
ATOM      3  C4  UNL d   1      -0.616  -0.495   2.082  0.00  0.00     0.002 A 
ATOM      4  C5  UNL d   1       0.693  -0.399   2.550  0.00  0.00    -0.004 A 
ATOM      5  C6  UNL d   1       1.732  -0.128   1.661  0.00  0.00     0.002 A 
ATOM      6  C7  UNL d   1       1.461   0.051   0.304  0.00  0.00     0.002 A 
ENDROOT
BRANCH   1   7
ATOM      7  C1  UNL d   1      -0.150   0.204  -1.633  0.00  0.00     0.055 C 
ATOM      8  C   UNL d   1       0.954  -0.348  -2.524  0.00  0.00     0.019 C 
ENDBRANCH   1   7
TORSDOF 1
ENDMDL
