MODEL 1
REMARK minimizedAffinity -3.17451262
REMARK minimizedRMSD -1
REMARK  1 active torsions:
REMARK  status: ('A' for Active; 'I' for Inactive)
REMARK    1  A    between atoms: C1_2  and  C2_3 
ROOT
ATOM      1  C2  UNL d   1       0.540  -0.848  -0.714  0.00  0.00    -0.077 A 
ATOM      2  C3  UNL d   1       0.027  -2.033  -0.166  0.00  0.00     0.002 A 
ATOM      3  C4  UNL d   1      -0.582  -2.025   1.090  0.00  0.00     0.002 A 
ATOM      4  C5  UNL d   1      -0.687  -0.835   1.807  0.00  0.00    -0.004 A 
ATOM      5  C6  UNL d   1      -0.178   0.348   1.273  0.00  0.00     0.002 A 
ATOM      6  C7  UNL d   1       0.432   0.341   0.018  0.00  0.00     0.002 A 
ENDROOT
BRANCH   1   7
ATOM      7  C1  UNL d   1       1.153  -0.846  -2.090  0.00  0.00     0.055 C 
ATOM      8  C   UNL d   1       0.543  -1.928  -2.969  0.00  0.00     0.019 C 
ENDBRANCH   1   7
TORSDOF 1
ENDMDL
