MODEL 1
REMARK minimizedAffinity -5.2281971
REMARK minimizedRMSD -1
REMARK  1 active torsions:
REMARK  status: ('A' for Active; 'I' for Inactive)
REMARK    1  A    between atoms: C1_2  and  C2_3 
ROOT
ATOM      1  C2  UNL d   1      -1.714  -0.011   2.212  0.00  0.00    -0.077 A 
ATOM      2  C3  UNL d   1      -1.231   0.718   3.308  0.00  0.00     0.002 A 
ATOM      3  C4  UNL d   1       0.125   1.036   3.404  0.00  0.00     0.002 A 
ATOM      4  C5  UNL d   1       1.008   0.633   2.404  0.00  0.00    -0.004 A 
ATOM      5  C6  UNL d   1       0.539  -0.093   1.311  0.00  0.00     0.002 A 
ATOM      6  C7  UNL d   1      -0.816  -0.413   1.214  0.00  0.00     0.002 A 
ENDROOT
BRANCH   1   7
ATOM      7  C1  UNL d   1      -3.184  -0.312   2.082  0.00  0.00     0.055 C 
ATOM      8  C   UNL d   1      -3.785   0.376   0.865  0.00  0.00     0.019 C 
ENDBRANCH   1   7
TORSDOF 1
ENDMDL
