MODEL 1
REMARK minimizedAffinity -1.60946751
REMARK minimizedRMSD -1
REMARK  1 active torsions:
REMARK  status: ('A' for Active; 'I' for Inactive)
REMARK    1  A    between atoms: C1_2  and  C2_3 
ROOT
ATOM      1  C2  UNL d   1      -0.966   0.057   1.051  0.00  0.00    -0.077 A 
ATOM      2  C3  UNL d   1       0.151  -0.099   0.217  0.00  0.00     0.002 A 
ATOM      3  C4  UNL d   1       1.437  -0.130   0.759  0.00  0.00     0.002 A 
ATOM      4  C5  UNL d   1       1.619  -0.008   2.135  0.00  0.00    -0.004 A 
ATOM      5  C6  UNL d   1       0.515   0.150   2.972  0.00  0.00     0.002 A 
ATOM      6  C7  UNL d   1      -0.772   0.182   2.432  0.00  0.00     0.002 A 
ENDROOT
BRANCH   1   7
ATOM      7  C1  UNL d   1      -2.357   0.040   0.474  0.00  0.00     0.055 C 
ATOM      8  C   UNL d   1      -2.385   0.648  -0.921  0.00  0.00     0.019 C 
ENDBRANCH   1   7
TORSDOF 1
ENDMDL
