MODEL 1
REMARK minimizedAffinity -3.93732715
REMARK minimizedRMSD -1
REMARK  1 active torsions:
REMARK  status: ('A' for Active; 'I' for Inactive)
REMARK    1  A    between atoms: C1_2  and  C2_3 
ROOT
ATOM      1  C2  UNL d   1       0.843  -0.670  -1.511  0.00  0.00    -0.077 A 
ATOM      2  C3  UNL d   1      -0.016  -1.442  -2.306  0.00  0.00     0.002 A 
ATOM      3  C4  UNL d   1       0.504  -2.339  -3.240  0.00  0.00     0.002 A 
ATOM      4  C5  UNL d   1       1.883  -2.477  -3.385  0.00  0.00    -0.004 A 
ATOM      5  C6  UNL d   1       2.745  -1.712  -2.601  0.00  0.00     0.002 A 
ATOM      6  C7  UNL d   1       2.228  -0.813  -1.667  0.00  0.00     0.002 A 
ENDROOT
BRANCH   1   7
ATOM      7  C1  UNL d   1       0.285   0.263  -0.468  0.00  0.00     0.055 C 
ATOM      8  C   UNL d   1       1.160   0.289   0.777  0.00  0.00     0.019 C 
ENDBRANCH   1   7
TORSDOF 1
ENDMDL
