MODEL 1
REMARK minimizedAffinity 0.181873545
REMARK minimizedRMSD -1
REMARK  1 active torsions:
REMARK  status: ('A' for Active; 'I' for Inactive)
REMARK    1  A    between atoms: C1_2  and  C2_3 
ROOT
ATOM      1  C2  UNL d   1       0.817   0.429  -0.766  0.00  0.00    -0.077 A 
ATOM      2  C3  UNL d   1       1.680   0.685   0.309  0.00  0.00     0.002 A 
ATOM      3  C4  UNL d   1       1.207   0.639   1.621  0.00  0.00     0.002 A 
ATOM      4  C5  UNL d   1      -0.129   0.334   1.872  0.00  0.00    -0.004 A 
ATOM      5  C6  UNL d   1      -0.996   0.080   0.810  0.00  0.00     0.002 A 
ATOM      6  C7  UNL d   1      -0.525   0.126  -0.503  0.00  0.00     0.002 A 
ENDROOT
BRANCH   1   7
ATOM      7  C1  UNL d   1       1.337   0.430  -2.180  0.00  0.00     0.055 C 
ATOM      8  C   UNL d   1       2.784  -0.037  -2.238  0.00  0.00     0.019 C 
ENDBRANCH   1   7
TORSDOF 1
ENDMDL
