MODEL 1
REMARK minimizedAffinity -5.14269447
REMARK minimizedRMSD -1
REMARK  1 active torsions:
REMARK  status: ('A' for Active; 'I' for Inactive)
REMARK    1  A    between atoms: C1_2  and  C2_3 
ROOT
ATOM      1  C2  UNL d   1      -0.089   0.006  -0.148  0.00  0.00    -0.077 A 
ATOM      2  C3  UNL d   1       1.091   0.594   0.329  0.00  0.00     0.002 A 
ATOM      3  C4  UNL d   1       1.353   0.640   1.699  0.00  0.00     0.002 A 
ATOM      4  C5  UNL d   1       0.443   0.097   2.603  0.00  0.00    -0.004 A 
ATOM      5  C6  UNL d   1      -0.735  -0.489   2.139  0.00  0.00     0.002 A 
ATOM      6  C7  UNL d   1      -0.999  -0.535   0.770  0.00  0.00     0.002 A 
ENDROOT
BRANCH   1   7
ATOM      7  C1  UNL d   1      -0.350  -0.089  -1.629  0.00  0.00     0.055 C 
ATOM      8  C   UNL d   1       0.894  -0.533  -2.383  0.00  0.00     0.019 C 
ENDBRANCH   1   7
TORSDOF 1
ENDMDL
