MODEL 1
REMARK minimizedAffinity 5.99878788
REMARK minimizedRMSD -1
REMARK  1 active torsions:
REMARK  status: ('A' for Active; 'I' for Inactive)
REMARK    1  A    between atoms: C1_2  and  C2_3 
ROOT
ATOM      1  C2  UNL d   1       0.351  -2.137   3.184  0.00  0.00    -0.077 A 
ATOM      2  C3  UNL d   1      -0.803  -2.514   2.484  0.00  0.00     0.002 A 
ATOM      3  C4  UNL d   1      -1.975  -1.764   2.597  0.00  0.00     0.002 A 
ATOM      4  C5  UNL d   1      -2.003  -0.629   3.405  0.00  0.00    -0.004 A 
ATOM      5  C6  UNL d   1      -0.861  -0.247   4.107  0.00  0.00     0.002 A 
ATOM      6  C7  UNL d   1       0.311  -0.996   3.997  0.00  0.00     0.002 A 
ENDROOT
BRANCH   1   7
ATOM      7  C1  UNL d   1       1.630  -2.917   3.025  0.00  0.00     0.055 C 
ATOM      8  C   UNL d   1       1.908  -3.232   1.563  0.00  0.00     0.019 C 
ENDBRANCH   1   7
TORSDOF 1
ENDMDL
