MODEL 1
REMARK minimizedAffinity 6.22434664
REMARK minimizedRMSD -1
REMARK  1 active torsions:
REMARK  status: ('A' for Active; 'I' for Inactive)
REMARK    1  A    between atoms: C1_2  and  C2_3 
ROOT
ATOM      1  C2  UNL d   1       3.389  -4.439   3.696  0.00  0.00    -0.077 A 
ATOM      2  C3  UNL d   1       3.732  -3.393   4.564  0.00  0.00     0.002 A 
ATOM      3  C4  UNL d   1       4.487  -3.647   5.711  0.00  0.00     0.002 A 
ATOM      4  C5  UNL d   1       4.910  -4.943   5.997  0.00  0.00    -0.004 A 
ATOM      5  C6  UNL d   1       4.572  -5.990   5.140  0.00  0.00     0.002 A 
ATOM      6  C7  UNL d   1       3.816  -5.739   3.994  0.00  0.00     0.002 A 
ENDROOT
BRANCH   1   7
ATOM      7  C1  UNL d   1       2.616  -4.160   2.433  0.00  0.00     0.055 C 
ATOM      8  C   UNL d   1       1.827  -2.864   2.542  0.00  0.00     0.019 C 
ENDBRANCH   1   7
TORSDOF 1
ENDMDL
