MODEL 1
REMARK minimizedAffinity 4.24872875
REMARK minimizedRMSD -1
REMARK  1 active torsions:
REMARK  status: ('A' for Active; 'I' for Inactive)
REMARK    1  A    between atoms: C1_2  and  C2_3 
ROOT
ATOM      1  C2  UNL d   1      -3.267   3.480  -5.300  0.00  0.00    -0.077 A 
ATOM      2  C3  UNL d   1      -4.448   3.195  -6.000  0.00  0.00     0.002 A 
ATOM      3  C4  UNL d   1      -5.666   3.730  -5.578  0.00  0.00     0.002 A 
ATOM      4  C5  UNL d   1      -5.715   4.556  -4.457  0.00  0.00    -0.004 A 
ATOM      5  C6  UNL d   1      -4.547   4.845  -3.753  0.00  0.00     0.002 A 
ATOM      6  C7  UNL d   1      -3.328   4.310  -4.173  0.00  0.00     0.002 A 
ENDROOT
BRANCH   1   7
ATOM      7  C1  UNL d   1      -1.945   2.944  -5.783  0.00  0.00     0.055 C 
ATOM      8  C   UNL d   1      -0.939   4.065  -6.000  0.00  0.00     0.019 C 
ENDBRANCH   1   7
TORSDOF 1
ENDMDL
