MODEL 1
REMARK minimizedAffinity 9.82279682
REMARK minimizedRMSD -1
REMARK  1 active torsions:
REMARK  status: ('A' for Active; 'I' for Inactive)
REMARK    1  A    between atoms: C1_2  and  C2_3 
ROOT
ATOM      1  C2  UNL d   1       3.474   0.727  -2.646  0.00  0.00    -0.077 A 
ATOM      2  C3  UNL d   1       2.092   0.918  -2.784  0.00  0.00     0.002 A 
ATOM      3  C4  UNL d   1       1.292   1.131  -1.660  0.00  0.00     0.002 A 
ATOM      4  C5  UNL d   1       1.866   1.160  -0.391  0.00  0.00    -0.004 A 
ATOM      5  C6  UNL d   1       3.239   0.970  -0.242  0.00  0.00     0.002 A 
ATOM      6  C7  UNL d   1       4.039   0.755  -1.365  0.00  0.00     0.002 A 
ENDROOT
BRANCH   1   7
ATOM      7  C1  UNL d   1       4.345   0.546  -3.862  0.00  0.00     0.055 C 
ATOM      8  C   UNL d   1       5.781   0.230  -3.471  0.00  0.00     0.019 C 
ENDBRANCH   1   7
TORSDOF 1
ENDMDL
