MODEL 1
REMARK minimizedAffinity 8.50974941
REMARK minimizedRMSD -1
REMARK  1 active torsions:
REMARK  status: ('A' for Active; 'I' for Inactive)
REMARK    1  A    between atoms: C1_2  and  C2_3 
ROOT
ATOM      1  C2  UNL d   1      -4.130  -1.103  -4.479  0.00  0.00    -0.077 A 
ATOM      2  C3  UNL d   1      -3.403  -0.500  -3.443  0.00  0.00     0.002 A 
ATOM      3  C4  UNL d   1      -3.431  -1.038  -2.154  0.00  0.00     0.002 A 
ATOM      4  C5  UNL d   1      -4.180  -2.183  -1.892  0.00  0.00    -0.004 A 
ATOM      5  C6  UNL d   1      -4.908  -2.789  -2.915  0.00  0.00     0.002 A 
ATOM      6  C7  UNL d   1      -4.882  -2.252  -4.203  0.00  0.00     0.002 A 
ENDROOT
BRANCH   1   7
ATOM      7  C1  UNL d   1      -4.062  -0.553  -5.880  0.00  0.00     0.055 C 
ATOM      8  C   UNL d   1      -2.997   0.528  -5.999  0.00  0.00     0.019 C 
ENDBRANCH   1   7
TORSDOF 1
ENDMDL
