MODEL 1
REMARK minimizedAffinity 9.43290615
REMARK minimizedRMSD -1
REMARK  1 active torsions:
REMARK  status: ('A' for Active; 'I' for Inactive)
REMARK    1  A    between atoms: C1_2  and  C2_3 
ROOT
ATOM      1  C2  UNL d   1       0.982  -0.938   0.630  0.00  0.00    -0.077 A 
ATOM      2  C3  UNL d   1       1.831   0.142   0.911  0.00  0.00     0.002 A 
ATOM      3  C4  UNL d   1       1.888   1.239   0.049  0.00  0.00     0.002 A 
ATOM      4  C5  UNL d   1       1.096   1.269  -1.097  0.00  0.00    -0.004 A 
ATOM      5  C6  UNL d   1       0.250   0.199  -1.387  0.00  0.00     0.002 A 
ATOM      6  C7  UNL d   1       0.193  -0.899  -0.527  0.00  0.00     0.002 A 
ENDROOT
BRANCH   1   7
ATOM      7  C1  UNL d   1       0.883  -2.099   1.583  0.00  0.00     0.055 C 
ATOM      8  C   UNL d   1       2.079  -3.030   1.448  0.00  0.00     0.019 C 
ENDBRANCH   1   7
TORSDOF 1
ENDMDL
