MODEL 1
REMARK minimizedAffinity 7.20993423
REMARK minimizedRMSD -1
REMARK  1 active torsions:
REMARK  status: ('A' for Active; 'I' for Inactive)
REMARK    1  A    between atoms: C1_2  and  C2_3 
ROOT
ATOM      1  C2  UNL d   1       1.122  -0.926   0.468  0.00  0.00    -0.077 A 
ATOM      2  C3  UNL d   1       0.367  -1.023  -0.710  0.00  0.00     0.002 A 
ATOM      3  C4  UNL d   1       0.505  -0.066  -1.718  0.00  0.00     0.002 A 
ATOM      4  C5  UNL d   1       1.399   0.991  -1.560  0.00  0.00    -0.004 A 
ATOM      5  C6  UNL d   1       2.152   1.097  -0.392  0.00  0.00     0.002 A 
ATOM      6  C7  UNL d   1       2.015   0.143   0.617  0.00  0.00     0.002 A 
ENDROOT
BRANCH   1   7
ATOM      7  C1  UNL d   1       1.011  -1.983   1.535  0.00  0.00     0.055 C 
ATOM      8  C   UNL d   1       0.371  -1.429   2.799  0.00  0.00     0.019 C 
ENDBRANCH   1   7
TORSDOF 1
ENDMDL
