MODEL 1
REMARK minimizedAffinity 4.26652479
REMARK minimizedRMSD -1
REMARK  1 active torsions:
REMARK  status: ('A' for Active; 'I' for Inactive)
REMARK    1  A    between atoms: C1_2  and  C2_3 
ROOT
ATOM      1  C2  UNL d   1       5.010  -4.727   0.499  0.00  0.00    -0.077 A 
ATOM      2  C3  UNL d   1       5.441  -3.505   1.033  0.00  0.00     0.002 A 
ATOM      3  C4  UNL d   1       4.529  -2.635   1.633  0.00  0.00     0.002 A 
ATOM      4  C5  UNL d   1       3.181  -2.979   1.709  0.00  0.00    -0.004 A 
ATOM      5  C6  UNL d   1       2.742  -4.192   1.178  0.00  0.00     0.002 A 
ATOM      6  C7  UNL d   1       3.652  -5.062   0.577  0.00  0.00     0.002 A 
ENDROOT
BRANCH   1   7
ATOM      7  C1  UNL d   1       6.000  -5.688  -0.105  0.00  0.00     0.055 C 
ATOM      8  C   UNL d   1       5.866  -5.742  -1.620  0.00  0.00     0.019 C 
ENDBRANCH   1   7
TORSDOF 1
ENDMDL
