MODEL 1
REMARK minimizedAffinity 14.2360535
REMARK minimizedRMSD -1
REMARK  1 active torsions:
REMARK  status: ('A' for Active; 'I' for Inactive)
REMARK    1  A    between atoms: C1_2  and  C2_3 
ROOT
ATOM      1  C2  UNL d   1       0.447   0.253  -1.330  0.00  0.00    -0.077 A 
ATOM      2  C3  UNL d   1       0.935   0.308  -2.643  0.00  0.00     0.002 A 
ATOM      3  C4  UNL d   1       2.283   0.581  -2.885  0.00  0.00     0.002 A 
ATOM      4  C5  UNL d   1       3.154   0.796  -1.819  0.00  0.00    -0.004 A 
ATOM      5  C6  UNL d   1       2.678   0.745  -0.509  0.00  0.00     0.002 A 
ATOM      6  C7  UNL d   1       1.330   0.474  -0.266  0.00  0.00     0.002 A 
ENDROOT
BRANCH   1   7
ATOM      7  C1  UNL d   1      -0.996  -0.089  -1.066  0.00  0.00     0.055 C 
ATOM      8  C   UNL d   1      -1.154  -1.549  -0.665  0.00  0.00     0.019 C 
ENDBRANCH   1   7
TORSDOF 1
ENDMDL
