MODEL 1
REMARK minimizedAffinity 6.20002174
REMARK minimizedRMSD -1
REMARK  1 active torsions:
REMARK  status: ('A' for Active; 'I' for Inactive)
REMARK    1  A    between atoms: C1_2  and  C2_3 
ROOT
ATOM      1  C2  UNL d   1       3.711  -3.584   5.596  0.00  0.00    -0.077 A 
ATOM      2  C3  UNL d   1       5.095  -3.497   5.805  0.00  0.00     0.002 A 
ATOM      3  C4  UNL d   1       5.854  -4.653   6.000  0.00  0.00     0.002 A 
ATOM      4  C5  UNL d   1       5.239  -5.903   5.984  0.00  0.00    -0.004 A 
ATOM      5  C6  UNL d   1       3.864  -6.000   5.780  0.00  0.00     0.002 A 
ATOM      6  C7  UNL d   1       3.103  -4.846   5.586  0.00  0.00     0.002 A 
ENDROOT
BRANCH   1   7
ATOM      7  C1  UNL d   1       2.899  -2.343   5.337  0.00  0.00     0.055 C 
ATOM      8  C   UNL d   1       2.144  -2.441   4.019  0.00  0.00     0.019 C 
ENDBRANCH   1   7
TORSDOF 1
ENDMDL
