MODEL 1
REMARK minimizedAffinity -1.68907428
REMARK minimizedRMSD -1
REMARK  1 active torsions:
REMARK  status: ('A' for Active; 'I' for Inactive)
REMARK    1  A    between atoms: C3_4  and  O_7 
ROOT
ATOM      1  C   UNL d   1       0.241  -0.532  -1.049  0.00  0.00    -0.033 A 
ATOM      2  C1  UNL d   1      -0.732  -0.477  -0.049  0.00  0.00     0.039 A 
ATOM      3  C2  UNL d   1      -0.400  -0.794   1.269  0.00  0.00    -0.080 A 
ATOM      4  C3  UNL d   1       0.907  -1.162   1.575  0.00  0.00     0.150 A 
ATOM      5  C4  UNL d   1       1.883  -1.216   0.585  0.00  0.00    -0.007 A 
ATOM      6  C5  UNL d   1       1.549  -0.900  -0.732  0.00  0.00     0.039 A 
ENDROOT
BRANCH   4   7
ATOM      7  O   UNL d   1       1.278  -1.485   2.847  0.00  0.00    -0.526 OA
ATOM      8  H5  UNL d   1       0.494  -1.431   3.418  0.00  0.00     0.418 HD
ENDBRANCH   4   7
TORSDOF 1
ENDMDL
