MODEL 1
REMARK minimizedAffinity 4.06457376
REMARK minimizedRMSD -1
REMARK  1 active torsions:
REMARK  status: ('A' for Active; 'I' for Inactive)
REMARK    1  A    between atoms: C3_4  and  O_7 
ROOT
ATOM      1  C   UNL d   1       1.467   5.995   5.529  0.00  0.00    -0.033 A 
ATOM      2  C1  UNL d   1       2.860   5.996   5.623  0.00  0.00     0.039 A 
ATOM      3  C2  UNL d   1       3.639   5.997   4.464  0.00  0.00    -0.080 A 
ATOM      4  C3  UNL d   1       3.014   5.997   3.220  0.00  0.00     0.150 A 
ATOM      5  C4  UNL d   1       1.627   6.000   3.120  0.00  0.00    -0.007 A 
ATOM      6  C5  UNL d   1       0.850   5.998   4.278  0.00  0.00     0.039 A 
ENDROOT
BRANCH   4   7
ATOM      7  O   UNL d   1       3.732   5.992   2.062  0.00  0.00    -0.526 OA
ATOM      8  H5  UNL d   1       4.677   5.962   2.286  0.00  0.00     0.418 HD
ENDBRANCH   4   7
TORSDOF 1
ENDMDL
