MODEL 1
REMARK minimizedAffinity 0.0777881444
REMARK minimizedRMSD -1
REMARK  1 active torsions:
REMARK  status: ('A' for Active; 'I' for Inactive)
REMARK    1  A    between atoms: C3_4  and  O_7 
ROOT
ATOM      1  C   UNL d   1       3.069   0.625  -2.658  0.00  0.00    -0.033 A 
ATOM      2  C1  UNL d   1       1.860   0.408  -1.993  0.00  0.00     0.039 A 
ATOM      3  C2  UNL d   1       0.913   1.431  -1.912  0.00  0.00    -0.080 A 
ATOM      4  C3  UNL d   1       1.186   2.664  -2.498  0.00  0.00     0.150 A 
ATOM      5  C4  UNL d   1       2.387   2.885  -3.165  0.00  0.00    -0.007 A 
ATOM      6  C5  UNL d   1       3.332   1.863  -3.244  0.00  0.00     0.039 A 
ENDROOT
BRANCH   4   7
ATOM      7  O   UNL d   1       0.295   3.694  -2.440  0.00  0.00    -0.526 OA
ATOM      8  H5  UNL d   1      -0.476   3.405  -1.924  0.00  0.00     0.418 HD
ENDBRANCH   4   7
TORSDOF 1
ENDMDL
