MODEL 1
REMARK minimizedAffinity 0.268025756
REMARK minimizedRMSD -1
REMARK  1 active torsions:
REMARK  status: ('A' for Active; 'I' for Inactive)
REMARK    1  A    between atoms: C3_4  and  O_7 
ROOT
ATOM      1  C   UNL d   1      -1.587  -0.416  -0.003  0.00  0.00    -0.033 A 
ATOM      2  C1  UNL d   1      -0.358  -1.072   0.095  0.00  0.00     0.039 A 
ATOM      3  C2  UNL d   1       0.131  -1.460   1.343  0.00  0.00    -0.080 A 
ATOM      4  C3  UNL d   1      -0.618  -1.188   2.485  0.00  0.00     0.150 A 
ATOM      5  C4  UNL d   1      -1.845  -0.538   2.395  0.00  0.00    -0.007 A 
ATOM      6  C5  UNL d   1      -2.331  -0.151   1.147  0.00  0.00     0.039 A 
ENDROOT
BRANCH   4   7
ATOM      7  O   UNL d   1      -0.180  -1.543   3.726  0.00  0.00    -0.526 OA
ATOM      8  H5  UNL d   1       0.695  -1.957   3.637  0.00  0.00     0.418 HD
ENDBRANCH   4   7
TORSDOF 1
ENDMDL
