MODEL 1
REMARK minimizedAffinity 0.564513147
REMARK minimizedRMSD -1
REMARK  0 active torsions:
REMARK  status: ('A' for Active; 'I' for Inactive)
ROOT
ATOM      1  C1  DEN d   1      -0.481  -6.000  -1.916  0.00  0.00     0.130 A 
ATOM      2  C2  DEN d   1      -1.940  -5.970  -1.933  0.00  0.00    -0.031 A 
ATOM      3  C3  DEN d   1      -2.381  -5.953  -3.342  0.00  0.00     0.027 A 
ATOM      4  C4  DEN d   1      -0.952  -5.976  -5.489  0.00  0.00     0.027 A 
ATOM      5  C5  DEN d   1       0.334  -5.989  -5.981  0.00  0.00    -0.003 A 
ATOM      6  C6  DEN d   1       1.430  -5.972  -5.160  0.00  0.00     0.001 A 
ATOM      7  C7  DEN d   1       1.261  -5.987  -3.801  0.00  0.00     0.017 A 
ATOM      8  C8  DEN d   1      -0.033  -5.967  -3.297  0.00  0.00    -0.094 A 
ATOM      9  C9  DEN d   1      -1.129  -5.997  -4.144  0.00  0.00    -0.072 A 
ENDROOT
TORSDOF 0
ENDMDL
