MODEL 1
REMARK minimizedAffinity 2.09023499
REMARK minimizedRMSD -1
REMARK  0 active torsions:
REMARK  status: ('A' for Active; 'I' for Inactive)
ROOT
ATOM      1  C1  DEN d   1      -0.997  -5.999  -6.000  0.00  0.00     0.130 A 
ATOM      2  C2  DEN d   1       0.463  -5.983  -5.968  0.00  0.00    -0.031 A 
ATOM      3  C3  DEN d   1       0.888  -5.969  -4.554  0.00  0.00     0.027 A 
ATOM      4  C4  DEN d   1      -0.564  -5.977  -2.422  0.00  0.00     0.027 A 
ATOM      5  C5  DEN d   1      -1.856  -5.977  -1.944  0.00  0.00    -0.003 A 
ATOM      6  C6  DEN d   1      -2.943  -5.951  -2.777  0.00  0.00     0.001 A 
ATOM      7  C7  DEN d   1      -2.759  -5.969  -4.135  0.00  0.00     0.017 A 
ATOM      8  C8  DEN d   1      -1.459  -5.961  -4.624  0.00  0.00    -0.094 A 
ATOM      9  C9  DEN d   1      -0.374  -6.000  -3.766  0.00  0.00    -0.072 A 
ENDROOT
TORSDOF 0
ENDMDL
