MODEL 1
REMARK minimizedAffinity 5.81838083
REMARK minimizedRMSD -1
REMARK  0 active torsions:
REMARK  status: ('A' for Active; 'I' for Inactive)
ROOT
ATOM      1  C1  DEN d   1       2.419   1.874  -0.388  0.00  0.00     0.130 A 
ATOM      2  C2  DEN d   1       1.616   2.926   0.231  0.00  0.00    -0.031 A 
ATOM      3  C3  DEN d   1       2.452   4.139   0.330  0.00  0.00     0.027 A 
ATOM      4  C4  DEN d   1       4.895   4.492  -0.417  0.00  0.00     0.027 A 
ATOM      5  C5  DEN d   1       5.994   3.886  -0.985  0.00  0.00    -0.003 A 
ATOM      6  C6  DEN d   1       5.989   2.569  -1.359  0.00  0.00     0.001 A 
ATOM      7  C7  DEN d   1       4.848   1.825  -1.211  0.00  0.00     0.017 A 
ATOM      8  C8  DEN d   1       3.738   2.427  -0.633  0.00  0.00    -0.094 A 
ATOM      9  C9  DEN d   1       3.759   3.764  -0.273  0.00  0.00    -0.072 A 
ENDROOT
TORSDOF 0
ENDMDL
