MODEL 1
REMARK minimizedAffinity 5.32535696
REMARK minimizedRMSD -1
REMARK  0 active torsions:
REMARK  status: ('A' for Active; 'I' for Inactive)
ROOT
ATOM      1  C1  DEN d   1       0.716   0.799  -2.156  0.00  0.00     0.130 A 
ATOM      2  C2  DEN d   1      -0.714   0.570  -1.971  0.00  0.00    -0.031 A 
ATOM      3  C3  DEN d   1      -0.910  -0.046  -0.643  0.00  0.00     0.027 A 
ATOM      4  C4  DEN d   1       0.854  -0.658   1.137  0.00  0.00     0.027 A 
ATOM      5  C5  DEN d   1       2.200  -0.663   1.429  0.00  0.00    -0.003 A 
ATOM      6  C6  DEN d   1       3.141  -0.216   0.540  0.00  0.00     0.001 A 
ATOM      7  C7  DEN d   1       2.745   0.297  -0.667  0.00  0.00     0.017 A 
ATOM      8  C8  DEN d   1       1.390   0.299  -0.971  0.00  0.00    -0.094 A 
ATOM      9  C9  DEN d   1       0.453  -0.147  -0.054  0.00  0.00    -0.072 A 
ENDROOT
TORSDOF 0
ENDMDL
