MODEL 1
REMARK minimizedAffinity -2.28059268
REMARK minimizedRMSD -1
REMARK  0 active torsions:
REMARK  status: ('A' for Active; 'I' for Inactive)
ROOT
ATOM      1  C1  DEN d   1      -0.622  -5.973  -5.876  0.00  0.00     0.130 A 
ATOM      2  C2  DEN d   1       0.822  -5.932  -5.666  0.00  0.00    -0.031 A 
ATOM      3  C3  DEN d   1       1.072  -5.922  -4.211  0.00  0.00     0.027 A 
ATOM      4  C4  DEN d   1      -0.628  -5.972  -2.272  0.00  0.00     0.027 A 
ATOM      5  C5  DEN d   1      -1.968  -5.999  -1.955  0.00  0.00    -0.003 A 
ATOM      6  C6  DEN d   1      -2.946  -5.985  -2.914  0.00  0.00     0.001 A 
ATOM      7  C7  DEN d   1      -2.598  -5.989  -4.239  0.00  0.00     0.017 A 
ATOM      8  C8  DEN d   1      -1.249  -5.954  -4.566  0.00  0.00    -0.094 A 
ATOM      9  C9  DEN d   1      -0.275  -5.981  -3.582  0.00  0.00    -0.072 A 
ENDROOT
TORSDOF 0
ENDMDL
