MODEL 1
REMARK minimizedAffinity 0.615175962
REMARK minimizedRMSD -1
REMARK  0 active torsions:
REMARK  status: ('A' for Active; 'I' for Inactive)
ROOT
ATOM      1  C1  DEN d   1       0.915  -5.935  -4.524  0.00  0.00     0.130 A 
ATOM      2  C2  DEN d   1       0.525  -5.967  -5.931  0.00  0.00    -0.031 A 
ATOM      3  C3  DEN d   1      -0.950  -6.000  -5.994  0.00  0.00     0.027 A 
ATOM      4  C4  DEN d   1      -2.658  -6.000  -4.062  0.00  0.00     0.027 A 
ATOM      5  C5  DEN d   1      -2.803  -5.992  -2.692  0.00  0.00    -0.003 A 
ATOM      6  C6  DEN d   1      -1.728  -5.998  -1.844  0.00  0.00     0.001 A 
ATOM      7  C7  DEN d   1      -0.458  -5.968  -2.357  0.00  0.00     0.017 A 
ATOM      8  C8  DEN d   1      -0.304  -5.984  -3.737  0.00  0.00    -0.094 A 
ATOM      9  C9  DEN d   1      -1.404  -5.965  -4.578  0.00  0.00    -0.072 A 
ENDROOT
TORSDOF 0
ENDMDL
