MODEL 1
REMARK minimizedAffinity -0.504316092
REMARK minimizedRMSD -1
REMARK  0 active torsions:
REMARK  status: ('A' for Active; 'I' for Inactive)
ROOT
ATOM      1  C1  DEN d   1      -3.374  -5.902  -4.024  0.00  0.00     0.130 A 
ATOM      2  C2  DEN d   1      -3.329  -5.950  -2.565  0.00  0.00    -0.031 A 
ATOM      3  C3  DEN d   1      -1.912  -5.998  -2.153  0.00  0.00     0.027 A 
ATOM      4  C4  DEN d   1       0.207  -5.997  -3.624  0.00  0.00     0.027 A 
ATOM      5  C5  DEN d   1       0.674  -5.976  -4.919  0.00  0.00    -0.003 A 
ATOM      6  C6  DEN d   1      -0.169  -5.964  -5.999  0.00  0.00     0.001 A 
ATOM      7  C7  DEN d   1      -1.524  -5.927  -5.802  0.00  0.00     0.017 A 
ATOM      8  C8  DEN d   1      -2.003  -5.954  -4.499  0.00  0.00    -0.094 A 
ATOM      9  C9  DEN d   1      -1.134  -5.954  -3.420  0.00  0.00    -0.072 A 
ENDROOT
TORSDOF 0
ENDMDL
