MODEL 1
REMARK minimizedAffinity 4.89012861
REMARK minimizedRMSD -1
REMARK  0 active torsions:
REMARK  status: ('A' for Active; 'I' for Inactive)
ROOT
ATOM      1  C1  DEN d   1      -0.573  -0.636  -1.086  0.00  0.00     0.130 A 
ATOM      2  C2  DEN d   1       0.054   0.666  -0.880  0.00  0.00    -0.031 A 
ATOM      3  C3  DEN d   1       0.914   0.574   0.318  0.00  0.00     0.027 A 
ATOM      4  C4  DEN d   1       1.335  -1.449   1.861  0.00  0.00     0.027 A 
ATOM      5  C5  DEN d   1       1.016  -2.768   2.095  0.00  0.00    -0.003 A 
ATOM      6  C6  DEN d   1       0.125  -3.454   1.312  0.00  0.00     0.001 A 
ATOM      7  C7  DEN d   1      -0.442  -2.835   0.229  0.00  0.00     0.017 A 
ATOM      8  C8  DEN d   1      -0.131  -1.503  -0.009  0.00  0.00    -0.094 A 
ATOM      9  C9  DEN d   1       0.781  -0.831   0.787  0.00  0.00    -0.072 A 
ENDROOT
TORSDOF 0
ENDMDL
