MODEL 1
REMARK minimizedAffinity -2.34480047
REMARK minimizedRMSD -1
REMARK  0 active torsions:
REMARK  status: ('A' for Active; 'I' for Inactive)
ROOT
ATOM      1  C1  DEN d   1      -0.602  -5.857  -6.000  0.00  0.00     0.130 A 
ATOM      2  C2  DEN d   1       0.859  -5.867  -5.987  0.00  0.00    -0.031 A 
ATOM      3  C3  DEN d   1       1.302  -5.922  -4.579  0.00  0.00     0.027 A 
ATOM      4  C4  DEN d   1      -0.123  -5.999  -2.431  0.00  0.00     0.027 A 
ATOM      5  C5  DEN d   1      -1.409  -5.999  -1.936  0.00  0.00    -0.003 A 
ATOM      6  C6  DEN d   1      -2.505  -5.918  -2.752  0.00  0.00     0.001 A 
ATOM      7  C7  DEN d   1      -2.339  -5.880  -4.111  0.00  0.00     0.017 A 
ATOM      8  C8  DEN d   1      -1.045  -5.872  -4.618  0.00  0.00    -0.094 A 
ATOM      9  C9  DEN d   1       0.050  -5.966  -3.776  0.00  0.00    -0.072 A 
ENDROOT
TORSDOF 0
ENDMDL
