MODEL 1
REMARK minimizedAffinity 4.95783329
REMARK minimizedRMSD -1
REMARK  0 active torsions:
REMARK  status: ('A' for Active; 'I' for Inactive)
ROOT
ATOM      1  C1  DEN d   1       0.401  -3.168   4.449  0.00  0.00     0.130 A 
ATOM      2  C2  DEN d   1       0.996  -3.088   5.781  0.00  0.00    -0.031 A 
ATOM      3  C3  DEN d   1       2.051  -2.056   5.749  0.00  0.00     0.027 A 
ATOM      4  C4  DEN d   1       2.814  -0.576   3.779  0.00  0.00     0.027 A 
ATOM      5  C5  DEN d   1       2.613  -0.289   2.446  0.00  0.00    -0.003 A 
ATOM      6  C6  DEN d   1       1.692  -0.960   1.686  0.00  0.00     0.001 A 
ATOM      7  C7  DEN d   1       0.905  -1.921   2.264  0.00  0.00     0.017 A 
ATOM      8  C8  DEN d   1       1.107  -2.221   3.605  0.00  0.00    -0.094 A 
ATOM      9  C9  DEN d   1       2.034  -1.523   4.360  0.00  0.00    -0.072 A 
ENDROOT
TORSDOF 0
ENDMDL
