MODEL 1
REMARK minimizedAffinity -3.03685522
REMARK minimizedRMSD -1
REMARK  0 active torsions:
REMARK  status: ('A' for Active; 'I' for Inactive)
ROOT
ATOM      1  C1  DEN d   1       0.055  -5.961  -4.652  0.00  0.00     0.130 A 
ATOM      2  C2  DEN d   1      -0.522  -5.984  -5.993  0.00  0.00    -0.031 A 
ATOM      3  C3  DEN d   1      -1.992  -5.999  -5.856  0.00  0.00     0.027 A 
ATOM      4  C4  DEN d   1      -3.423  -5.985  -3.710  0.00  0.00     0.027 A 
ATOM      5  C5  DEN d   1      -3.382  -5.978  -2.334  0.00  0.00    -0.003 A 
ATOM      6  C6  DEN d   1      -2.202  -6.000  -1.639  0.00  0.00     0.001 A 
ATOM      7  C7  DEN d   1      -1.013  -5.983  -2.319  0.00  0.00     0.017 A 
ATOM      8  C8  DEN d   1      -1.047  -5.997  -3.707  0.00  0.00    -0.094 A 
ATOM      9  C9  DEN d   1      -2.250  -5.963  -4.392  0.00  0.00    -0.072 A 
ENDROOT
TORSDOF 0
ENDMDL
