MODEL 1
REMARK minimizedAffinity 3.75879097
REMARK minimizedRMSD -1
REMARK  0 active torsions:
REMARK  status: ('A' for Active; 'I' for Inactive)
ROOT
ATOM      1  C1  DEN d   1      -1.622  -5.997  -5.983  0.00  0.00     0.130 A 
ATOM      2  C2  DEN d   1      -0.167  -5.970  -5.859  0.00  0.00    -0.031 A 
ATOM      3  C3  DEN d   1       0.169  -5.957  -4.421  0.00  0.00     0.027 A 
ATOM      4  C4  DEN d   1      -1.413  -5.982  -2.385  0.00  0.00     0.027 A 
ATOM      5  C5  DEN d   1      -2.733  -5.993  -1.989  0.00  0.00    -0.003 A 
ATOM      6  C6  DEN d   1      -3.765  -5.972  -2.888  0.00  0.00     0.001 A 
ATOM      7  C7  DEN d   1      -3.496  -5.985  -4.231  0.00  0.00     0.017 A 
ATOM      8  C8  DEN d   1      -2.169  -5.966  -4.638  0.00  0.00    -0.094 A 
ATOM      9  C9  DEN d   1      -1.139  -5.999  -3.714  0.00  0.00    -0.072 A 
ENDROOT
TORSDOF 0
ENDMDL
