MODEL 1
REMARK minimizedAffinity 2.60243297
REMARK minimizedRMSD -1
REMARK  0 active torsions:
REMARK  status: ('A' for Active; 'I' for Inactive)
ROOT
ATOM      1  C1  DEN d   1      -2.676  -5.952  -1.044  0.00  0.00     0.130 A 
ATOM      2  C2  DEN d   1      -3.425  -5.961  -2.298  0.00  0.00    -0.031 A 
ATOM      3  C3  DEN d   1      -4.865  -5.967  -1.969  0.00  0.00     0.027 A 
ATOM      4  C4  DEN d   1      -6.000  -5.958   0.347  0.00  0.00     0.027 A 
ATOM      5  C5  DEN d   1      -5.777  -5.963   1.706  0.00  0.00    -0.003 A 
ATOM      6  C6  DEN d   1      -4.516  -5.998   2.240  0.00  0.00     0.001 A 
ATOM      7  C7  DEN d   1      -3.427  -5.984   1.409  0.00  0.00     0.017 A 
ATOM      8  C8  DEN d   1      -3.644  -5.988   0.037  0.00  0.00    -0.094 A 
ATOM      9  C9  DEN d   1      -4.926  -5.940  -0.483  0.00  0.00    -0.072 A 
ENDROOT
TORSDOF 0
ENDMDL
