MODEL 1
REMARK minimizedAffinity 0.855696321
REMARK minimizedRMSD -1
REMARK  0 active torsions:
REMARK  status: ('A' for Active; 'I' for Inactive)
ROOT
ATOM      1  C1  DEN d   1      -3.587  -5.942  -3.368  0.00  0.00     0.130 A 
ATOM      2  C2  DEN d   1      -3.524  -5.968  -1.909  0.00  0.00    -0.031 A 
ATOM      3  C3  DEN d   1      -2.101  -5.993  -1.514  0.00  0.00     0.027 A 
ATOM      4  C4  DEN d   1      -0.001  -5.991  -3.012  0.00  0.00     0.027 A 
ATOM      5  C5  DEN d   1       0.449  -5.985  -4.314  0.00  0.00    -0.003 A 
ATOM      6  C6  DEN d   1      -0.407  -5.999  -5.383  0.00  0.00     0.001 A 
ATOM      7  C7  DEN d   1      -1.760  -5.974  -5.169  0.00  0.00     0.017 A 
ATOM      8  C8  DEN d   1      -2.222  -5.987  -3.860  0.00  0.00    -0.094 A 
ATOM      9  C9  DEN d   1      -1.340  -5.960  -2.792  0.00  0.00    -0.072 A 
ENDROOT
TORSDOF 0
ENDMDL
