MODEL 1
REMARK minimizedAffinity -0.181533098
REMARK minimizedRMSD -1
REMARK  0 active torsions:
REMARK  status: ('A' for Active; 'I' for Inactive)
ROOT
ATOM      1  C1  DEN d   1      -0.118  -5.989  -2.046  0.00  0.00     0.130 A 
ATOM      2  C2  DEN d   1      -1.404  -5.964  -1.355  0.00  0.00    -0.031 A 
ATOM      3  C3  DEN d   1      -2.471  -5.957  -2.375  0.00  0.00     0.027 A 
ATOM      4  C4  DEN d   1      -2.258  -5.986  -4.946  0.00  0.00     0.027 A 
ATOM      5  C5  DEN d   1      -1.370  -5.996  -5.998  0.00  0.00    -0.003 A 
ATOM      6  C6  DEN d   1      -0.014  -5.971  -5.810  0.00  0.00     0.001 A 
ATOM      7  C7  DEN d   1       0.495  -5.979  -4.538  0.00  0.00     0.017 A 
ATOM      8  C8  DEN d   1      -0.394  -5.961  -3.471  0.00  0.00    -0.094 A 
ATOM      9  C9  DEN d   1      -1.762  -6.000  -3.683  0.00  0.00    -0.072 A 
ENDROOT
TORSDOF 0
ENDMDL
