MODEL 1
REMARK minimizedAffinity -0.889950693
REMARK minimizedRMSD -1
REMARK  0 active torsions:
REMARK  status: ('A' for Active; 'I' for Inactive)
ROOT
ATOM      1  C1  DEN d   1      -1.382  -5.999  -2.046  0.00  0.00     0.130 A 
ATOM      2  C2  DEN d   1      -2.832  -5.994  -2.219  0.00  0.00    -0.031 A 
ATOM      3  C3  DEN d   1      -3.119  -5.980  -3.668  0.00  0.00     0.027 A 
ATOM      4  C4  DEN d   1      -1.467  -5.973  -5.648  0.00  0.00     0.027 A 
ATOM      5  C5  DEN d   1      -0.135  -5.963  -5.999  0.00  0.00    -0.003 A 
ATOM      6  C6  DEN d   1       0.866  -5.930  -5.065  0.00  0.00     0.001 A 
ATOM      7  C7  DEN d   1       0.551  -5.952  -3.732  0.00  0.00     0.017 A 
ATOM      8  C8  DEN d   1      -0.789  -5.954  -3.370  0.00  0.00    -0.094 A 
ATOM      9  C9  DEN d   1      -1.787  -6.000  -4.330  0.00  0.00    -0.072 A 
ENDROOT
TORSDOF 0
ENDMDL
