MODEL 1
REMARK minimizedAffinity -3.1973474
REMARK minimizedRMSD -1
REMARK  0 active torsions:
REMARK  status: ('A' for Active; 'I' for Inactive)
ROOT
ATOM      1  C2' OXE d   1       3.571   3.824  -0.826  0.00  0.00     0.078 C 
ATOM      2  C1' OXE d   1       2.943   1.091  -0.965  0.00  0.00     0.078 C 
ATOM      3  C1  OXE d   1       2.835   1.770   0.377  0.00  0.00    -0.078 A 
ATOM      4  C2  OXE d   1       3.189   3.096   0.445  0.00  0.00    -0.078 A 
ATOM      5  C3  OXE d   1       3.056   3.785   1.647  0.00  0.00     0.003 A 
ATOM      6  C4  OXE d   1       2.712   3.102   2.821  0.00  0.00    -0.002 A 
ATOM      7  C5  OXE d   1       2.386   1.743   2.781  0.00  0.00    -0.002 A 
ATOM      8  C6  OXE d   1       2.401   1.073   1.563  0.00  0.00     0.003 A 
ENDROOT
TORSDOF 0
ENDMDL
