MODEL 1
REMARK minimizedAffinity -1.28097224
REMARK minimizedRMSD -1
REMARK  0 active torsions:
REMARK  status: ('A' for Active; 'I' for Inactive)
ROOT
ATOM      1  C2' OXE d   1       3.390   3.397  -0.103  0.00  0.00     0.078 C 
ATOM      2  C1' OXE d   1       1.793   3.450   2.205  0.00  0.00     0.078 C 
ATOM      3  C1  OXE d   1       1.517   2.376   1.183  0.00  0.00    -0.078 A 
ATOM      4  C2  OXE d   1       2.272   2.386   0.035  0.00  0.00    -0.078 A 
ATOM      5  C3  OXE d   1       2.095   1.385  -0.916  0.00  0.00     0.003 A 
ATOM      6  C4  OXE d   1       1.052   0.460  -0.785  0.00  0.00    -0.002 A 
ATOM      7  C5  OXE d   1       0.245   0.456   0.358  0.00  0.00    -0.002 A 
ATOM      8  C6  OXE d   1       0.491   1.379   1.369  0.00  0.00     0.003 A 
ENDROOT
TORSDOF 0
ENDMDL
