MODEL 1
REMARK minimizedAffinity -0.739617109
REMARK minimizedRMSD -1
REMARK  0 active torsions:
REMARK  status: ('A' for Active; 'I' for Inactive)
ROOT
ATOM      1  C2' OXE d   1      -2.881  -0.951  -0.063  0.00  0.00     0.078 C 
ATOM      2  C1' OXE d   1      -1.192  -1.729   2.039  0.00  0.00     0.078 C 
ATOM      3  C1  OXE d   1      -0.618  -0.832   0.971  0.00  0.00    -0.078 A 
ATOM      4  C2  OXE d   1      -1.438  -0.494  -0.078  0.00  0.00    -0.078 A 
ATOM      5  C3  OXE d   1      -0.976   0.376  -1.062  0.00  0.00     0.003 A 
ATOM      6  C4  OXE d   1       0.363   0.785  -1.074  0.00  0.00    -0.002 A 
ATOM      7  C5  OXE d   1       1.226   0.420  -0.035  0.00  0.00    -0.002 A 
ATOM      8  C6  OXE d   1       0.741  -0.351   1.015  0.00  0.00     0.003 A 
ENDROOT
TORSDOF 0
ENDMDL
