MODEL 1
REMARK minimizedAffinity -0.355654657
REMARK minimizedRMSD -1
REMARK  0 active torsions:
REMARK  status: ('A' for Active; 'I' for Inactive)
ROOT
ATOM      1  C2' OXE d   1       0.265   0.062  -3.010  0.00  0.00     0.078 C 
ATOM      2  C1' OXE d   1      -2.031  -1.442  -2.420  0.00  0.00     0.078 C 
ATOM      3  C1  OXE d   1      -1.224  -0.907  -1.264  0.00  0.00    -0.078 A 
ATOM      4  C2  OXE d   1      -0.077  -0.212  -1.561  0.00  0.00    -0.078 A 
ATOM      5  C3  OXE d   1       0.675   0.350  -0.533  0.00  0.00     0.003 A 
ATOM      6  C4  OXE d   1       0.357   0.084   0.804  0.00  0.00    -0.002 A 
ATOM      7  C5  OXE d   1      -0.785  -0.655   1.129  0.00  0.00    -0.002 A 
ATOM      8  C6  OXE d   1      -1.608  -1.121   0.110  0.00  0.00     0.003 A 
ENDROOT
TORSDOF 0
ENDMDL
