MODEL 1
REMARK minimizedAffinity -3.42527199
REMARK minimizedRMSD -1
REMARK  0 active torsions:
REMARK  status: ('A' for Active; 'I' for Inactive)
ROOT
ATOM      1  C2' OXE d   1       2.192   3.435   2.881  0.00  0.00     0.078 C 
ATOM      2  C1' OXE d   1       2.395   1.388   0.970  0.00  0.00     0.078 C 
ATOM      3  C1  OXE d   1       3.034   2.717   0.649  0.00  0.00    -0.078 A 
ATOM      4  C2  OXE d   1       2.889   3.726   1.569  0.00  0.00    -0.078 A 
ATOM      5  C3  OXE d   1       3.505   4.955   1.348  0.00  0.00     0.003 A 
ATOM      6  C4  OXE d   1       4.139   5.220   0.128  0.00  0.00    -0.002 A 
ATOM      7  C5  OXE d   1       4.263   4.218  -0.841  0.00  0.00    -0.002 A 
ATOM      8  C6  OXE d   1       3.754   2.950  -0.578  0.00  0.00     0.003 A 
ENDROOT
TORSDOF 0
ENDMDL
