MODEL 1
REMARK minimizedAffinity -1.50619638
REMARK minimizedRMSD -1
REMARK  0 active torsions:
REMARK  status: ('A' for Active; 'I' for Inactive)
ROOT
ATOM      1  C2' OXE d   1      -1.165  -1.940   1.831  0.00  0.00     0.078 C 
ATOM      2  C1' OXE d   1      -3.119  -1.467  -0.129  0.00  0.00     0.078 C 
ATOM      3  C1  OXE d   1      -1.773  -0.809  -0.304  0.00  0.00    -0.078 A 
ATOM      4  C2  OXE d   1      -0.838  -1.009   0.683  0.00  0.00    -0.078 A 
ATOM      5  C3  OXE d   1       0.438  -0.470   0.544  0.00  0.00     0.003 A 
ATOM      6  C4  OXE d   1       0.728   0.399  -0.515  0.00  0.00    -0.002 A 
ATOM      7  C5  OXE d   1      -0.223   0.647  -1.511  0.00  0.00    -0.002 A 
ATOM      8  C6  OXE d   1      -1.461   0.019  -1.443  0.00  0.00     0.003 A 
ENDROOT
TORSDOF 0
ENDMDL
