MODEL 1
REMARK minimizedAffinity 2.27771854
REMARK minimizedRMSD -1
REMARK  0 active torsions:
REMARK  status: ('A' for Active; 'I' for Inactive)
ROOT
ATOM      1  C2' OXE d   1      -0.501   0.565  -1.522  0.00  0.00     0.078 C 
ATOM      2  C1' OXE d   1      -2.418  -1.103  -0.328  0.00  0.00     0.078 C 
ATOM      3  C1  OXE d   1      -1.079  -0.969   0.354  0.00  0.00    -0.078 A 
ATOM      4  C2  OXE d   1      -0.131  -0.188  -0.262  0.00  0.00    -0.078 A 
ATOM      5  C3  OXE d   1       1.102   0.013   0.353  0.00  0.00     0.003 A 
ATOM      6  C4  OXE d   1       1.439  -0.695   1.513  0.00  0.00    -0.002 A 
ATOM      7  C5  OXE d   1       0.502  -1.527   2.135  0.00  0.00    -0.002 A 
ATOM      8  C6  OXE d   1      -0.774  -1.641   1.593  0.00  0.00     0.003 A 
ENDROOT
TORSDOF 0
ENDMDL
