MODEL 1
REMARK minimizedAffinity -1.44267094
REMARK minimizedRMSD -1
REMARK  0 active torsions:
REMARK  status: ('A' for Active; 'I' for Inactive)
ROOT
ATOM      1  C2' OXE d   1       1.491   2.570   2.585  0.00  0.00     0.078 C 
ATOM      2  C1' OXE d   1       1.276   0.377   0.845  0.00  0.00     0.078 C 
ATOM      3  C1  OXE d   1       2.167   1.521   0.429  0.00  0.00    -0.078 A 
ATOM      4  C2  OXE d   1       2.230   2.610   1.265  0.00  0.00    -0.078 A 
ATOM      5  C3  OXE d   1       3.079   3.669   0.955  0.00  0.00     0.003 A 
ATOM      6  C4  OXE d   1       3.751   3.703  -0.273  0.00  0.00    -0.002 A 
ATOM      7  C5  OXE d   1       3.670   2.621  -1.157  0.00  0.00    -0.002 A 
ATOM      8  C6  OXE d   1       2.918   1.507  -0.802  0.00  0.00     0.003 A 
ENDROOT
TORSDOF 0
ENDMDL
