MODEL 1
REMARK minimizedAffinity -1.46768224
REMARK minimizedRMSD -1
REMARK  0 active torsions:
REMARK  status: ('A' for Active; 'I' for Inactive)
ROOT
ATOM      1  C2' OXE d   1      -1.665  -2.263   2.726  0.00  0.00     0.078 C 
ATOM      2  C1' OXE d   1      -2.963  -0.696   0.792  0.00  0.00     0.078 C 
ATOM      3  C1  OXE d   1      -1.455  -0.681   0.813  0.00  0.00    -0.078 A 
ATOM      4  C2  OXE d   1      -0.829  -1.414   1.792  0.00  0.00    -0.078 A 
ATOM      5  C3  OXE d   1       0.561  -1.478   1.822  0.00  0.00     0.003 A 
ATOM      6  C4  OXE d   1       1.326  -0.682   0.962  0.00  0.00    -0.002 A 
ATOM      7  C5  OXE d   1       0.708   0.103  -0.017  0.00  0.00    -0.002 A 
ATOM      8  C6  OXE d   1      -0.678   0.082  -0.132  0.00  0.00     0.003 A 
ENDROOT
TORSDOF 0
ENDMDL
