MODEL 1
REMARK minimizedAffinity -4.53136063
REMARK minimizedRMSD -1
REMARK  0 active torsions:
REMARK  status: ('A' for Active; 'I' for Inactive)
ROOT
ATOM      1  C2' OXE d   1       1.685  -0.804   1.737  0.00  0.00     0.078 C 
ATOM      2  C1' OXE d   1      -0.898   0.055   1.051  0.00  0.00     0.078 C 
ATOM      3  C1  OXE d   1       0.238   1.033   0.879  0.00  0.00    -0.078 A 
ATOM      4  C2  OXE d   1       1.491   0.620   1.261  0.00  0.00    -0.078 A 
ATOM      5  C3  OXE d   1       2.582   1.463   1.072  0.00  0.00     0.003 A 
ATOM      6  C4  OXE d   1       2.393   2.782   0.641  0.00  0.00    -0.002 A 
ATOM      7  C5  OXE d   1       1.119   3.236   0.284  0.00  0.00    -0.002 A 
ATOM      8  C6  OXE d   1       0.039   2.363   0.357  0.00  0.00     0.003 A 
ENDROOT
TORSDOF 0
ENDMDL
