MODEL 1
REMARK minimizedAffinity -2.31624746
REMARK minimizedRMSD -1
REMARK  0 active torsions:
REMARK  status: ('A' for Active; 'I' for Inactive)
ROOT
ATOM      1  C2' OXE d   1      -0.011  -1.926   1.684  0.00  0.00     0.078 C 
ATOM      2  C1' OXE d   1       0.744   0.365   0.250  0.00  0.00     0.078 C 
ATOM      3  C1  OXE d   1      -0.597  -0.250  -0.063  0.00  0.00    -0.078 A 
ATOM      4  C2  OXE d   1      -0.938  -1.398   0.611  0.00  0.00    -0.078 A 
ATOM      5  C3  OXE d   1      -2.187  -1.975   0.401  0.00  0.00     0.003 A 
ATOM      6  C4  OXE d   1      -3.035  -1.486  -0.600  0.00  0.00    -0.002 A 
ATOM      7  C5  OXE d   1      -2.689  -0.341  -1.326  0.00  0.00    -0.002 A 
ATOM      8  C6  OXE d   1      -1.496   0.312  -1.041  0.00  0.00     0.003 A 
ENDROOT
TORSDOF 0
ENDMDL
