MODEL 1
REMARK minimizedAffinity -3.76610827
REMARK minimizedRMSD -1
REMARK  0 active torsions:
REMARK  status: ('A' for Active; 'I' for Inactive)
ROOT
ATOM      1  C2' OXE d   1       0.157   0.242  -2.203  0.00  0.00     0.078 C 
ATOM      2  C1' OXE d   1       0.990   0.243   0.477  0.00  0.00     0.078 C 
ATOM      3  C1  OXE d   1      -0.429  -0.173   0.182  0.00  0.00    -0.078 A 
ATOM      4  C2  OXE d   1      -0.842  -0.126  -1.128  0.00  0.00    -0.078 A 
ATOM      5  C3  OXE d   1      -2.125  -0.552  -1.462  0.00  0.00     0.003 A 
ATOM      6  C4  OXE d   1      -3.046  -0.881  -0.460  0.00  0.00    -0.002 A 
ATOM      7  C5  OXE d   1      -2.657  -0.897   0.884  0.00  0.00    -0.002 A 
ATOM      8  C6  OXE d   1      -1.343  -0.588   1.217  0.00  0.00     0.003 A 
ENDROOT
TORSDOF 0
ENDMDL
