MODEL 1
REMARK minimizedAffinity -3.89574146
REMARK minimizedRMSD -1
REMARK  0 active torsions:
REMARK  status: ('A' for Active; 'I' for Inactive)
ROOT
ATOM      1  C2' OXE d   1      -3.244  -1.004   0.029  0.00  0.00     0.078 C 
ATOM      2  C1' OXE d   1      -1.305  -1.994   1.802  0.00  0.00     0.078 C 
ATOM      3  C1  OXE d   1      -0.854  -1.029   0.734  0.00  0.00    -0.078 A 
ATOM      4  C2  OXE d   1      -1.801  -0.586  -0.158  0.00  0.00    -0.078 A 
ATOM      5  C3  OXE d   1      -1.450   0.347  -1.129  0.00  0.00     0.003 A 
ATOM      6  C4  OXE d   1      -0.111   0.721  -1.302  0.00  0.00    -0.002 A 
ATOM      7  C5  OXE d   1       0.875   0.251  -0.429  0.00  0.00    -0.002 A 
ATOM      8  C6  OXE d   1       0.514  -0.590   0.619  0.00  0.00     0.003 A 
ENDROOT
TORSDOF 0
ENDMDL
