MODEL 1
REMARK minimizedAffinity -2.12729406
REMARK minimizedRMSD -1
REMARK  0 active torsions:
REMARK  status: ('A' for Active; 'I' for Inactive)
ROOT
ATOM      1  C2' OXE d   1      -0.715   0.440  -2.093  0.00  0.00     0.078 C 
ATOM      2  C1' OXE d   1      -2.907  -0.833  -0.887  0.00  0.00     0.078 C 
ATOM      3  C1  OXE d   1      -1.640  -0.697  -0.079  0.00  0.00    -0.078 A 
ATOM      4  C2  OXE d   1      -0.558  -0.114  -0.694  0.00  0.00    -0.078 A 
ATOM      5  C3  OXE d   1       0.617   0.086   0.024  0.00  0.00     0.003 A 
ATOM      6  C4  OXE d   1       0.758  -0.438   1.315  0.00  0.00    -0.002 A 
ATOM      7  C5  OXE d   1      -0.319  -1.070   1.945  0.00  0.00    -0.002 A 
ATOM      8  C6  OXE d   1      -1.536  -1.170   1.279  0.00  0.00     0.003 A 
ENDROOT
TORSDOF 0
ENDMDL
