MODEL 1
REMARK minimizedAffinity -4.39127684
REMARK minimizedRMSD -1
REMARK  0 active torsions:
REMARK  status: ('A' for Active; 'I' for Inactive)
ROOT
ATOM      1  C2' OXE d   1       0.757  -1.456   1.264  0.00  0.00     0.078 C 
ATOM      2  C1' OXE d   1       1.383  -0.110  -1.119  0.00  0.00     0.078 C 
ATOM      3  C1  OXE d   1      -0.069  -0.192  -0.718  0.00  0.00    -0.078 A 
ATOM      4  C2  OXE d   1      -0.370  -0.893   0.425  0.00  0.00    -0.078 A 
ATOM      5  C3  OXE d   1      -1.688  -0.953   0.870  0.00  0.00     0.003 A 
ATOM      6  C4  OXE d   1      -2.726  -0.438   0.083  0.00  0.00    -0.002 A 
ATOM      7  C5  OXE d   1      -2.444   0.245  -1.104  0.00  0.00    -0.002 A 
ATOM      8  C6  OXE d   1      -1.121   0.414  -1.496  0.00  0.00     0.003 A 
ENDROOT
TORSDOF 0
ENDMDL
