MODEL 1
REMARK minimizedAffinity -6.06955719
REMARK minimizedRMSD -1
REMARK  0 active torsions:
REMARK  status: ('A' for Active; 'I' for Inactive)
ROOT
ATOM      1  C2' OXE d   1       0.479  -0.197   0.152  0.00  0.00     0.078 C 
ATOM      2  C1' OXE d   1      -1.720   0.872  -1.227  0.00  0.00     0.078 C 
ATOM      3  C1  OXE d   1      -1.950  -0.353  -0.377  0.00  0.00    -0.078 A 
ATOM      4  C2  OXE d   1      -0.859  -0.896   0.257  0.00  0.00    -0.078 A 
ATOM      5  C3  OXE d   1      -1.025  -1.993   1.098  0.00  0.00     0.003 A 
ATOM      6  C4  OXE d   1      -2.264  -2.640   1.181  0.00  0.00    -0.002 A 
ATOM      7  C5  OXE d   1      -3.380  -2.126   0.512  0.00  0.00    -0.002 A 
ATOM      8  C6  OXE d   1      -3.249  -0.961  -0.236  0.00  0.00     0.003 A 
ENDROOT
TORSDOF 0
ENDMDL
