MODEL 1
REMARK minimizedAffinity -3.84620428
REMARK minimizedRMSD -1
REMARK  0 active torsions:
REMARK  status: ('A' for Active; 'I' for Inactive)
ROOT
ATOM      1  C2' OXE d   1      -1.579  -1.398   2.154  0.00  0.00     0.078 C 
ATOM      2  C1' OXE d   1      -3.547  -1.355   0.153  0.00  0.00     0.078 C 
ATOM      3  C1  OXE d   1      -2.196  -0.769  -0.176  0.00  0.00    -0.078 A 
ATOM      4  C2  OXE d   1      -1.254  -0.752   0.825  0.00  0.00    -0.078 A 
ATOM      5  C3  OXE d   1       0.025  -0.272   0.558  0.00  0.00     0.003 A 
ATOM      6  C4  OXE d   1       0.314   0.333  -0.671  0.00  0.00    -0.002 A 
ATOM      7  C5  OXE d   1      -0.644   0.362  -1.690  0.00  0.00    -0.002 A 
ATOM      8  C6  OXE d   1      -1.887  -0.222  -1.474  0.00  0.00     0.003 A 
ENDROOT
TORSDOF 0
ENDMDL
