MODEL 1
REMARK minimizedAffinity -5.84868193
REMARK minimizedRMSD -1
REMARK  0 active torsions:
REMARK  status: ('A' for Active; 'I' for Inactive)
ROOT
ATOM      1  C2' OXE d   1       0.455  -0.107   0.435  0.00  0.00     0.078 C 
ATOM      2  C1' OXE d   1      -0.604  -2.217   1.955  0.00  0.00     0.078 C 
ATOM      3  C1  OXE d   1      -1.478  -1.614   0.884  0.00  0.00    -0.078 A 
ATOM      4  C2  OXE d   1      -0.969  -0.552   0.176  0.00  0.00    -0.078 A 
ATOM      5  C3  OXE d   1      -1.712   0.006  -0.860  0.00  0.00     0.003 A 
ATOM      6  C4  OXE d   1      -3.032  -0.404  -1.086  0.00  0.00    -0.002 A 
ATOM      7  C5  OXE d   1      -3.584  -1.458  -0.350  0.00  0.00    -0.002 A 
ATOM      8  C6  OXE d   1      -2.807  -2.101   0.608  0.00  0.00     0.003 A 
ENDROOT
TORSDOF 0
ENDMDL
