MODEL 1
REMARK minimizedAffinity 1.78354955
REMARK minimizedRMSD -1
REMARK  0 active torsions:
REMARK  status: ('A' for Active; 'I' for Inactive)
ROOT
ATOM      1  O1  BZF d   1       1.326  -3.183   1.039  0.00  0.00    -0.204 OA
ATOM      2  C2  BZF d   1       0.762  -1.981   0.660  0.00  0.00     0.174 A 
ATOM      3  C3  BZF d   1       0.650  -1.151   1.717  0.00  0.00    -0.012 A 
ATOM      4  C3A BZF d   1       1.261  -1.846   2.808  0.00  0.00    -0.107 A 
ATOM      5  C4  BZF d   1       1.475  -1.533   4.120  0.00  0.00     0.055 A 
ATOM      6  C5  BZF d   1       2.034  -2.462   4.938  0.00  0.00    -0.016 A 
ATOM      7  C6  BZF d   1       2.388  -3.714   4.480  0.00  0.00     0.022 A 
ATOM      8  C7  BZF d   1       2.200  -4.070   3.186  0.00  0.00     0.029 A 
ATOM      9  C7A BZF d   1       1.665  -3.121   2.349  0.00  0.00     0.058 A 
ENDROOT
TORSDOF 0
ENDMDL
