MODEL 1
REMARK minimizedAffinity 7.17558384
REMARK minimizedRMSD -1
REMARK  0 active torsions:
REMARK  status: ('A' for Active; 'I' for Inactive)
ROOT
ATOM      1  O1  BZF d   1       1.526  -3.577   1.587  0.00  0.00    -0.204 OA
ATOM      2  C2  BZF d   1       1.908  -2.313   1.993  0.00  0.00     0.174 A 
ATOM      3  C3  BZF d   1       2.110  -1.509   0.929  0.00  0.00    -0.012 A 
ATOM      4  C3A BZF d   1       1.746  -2.295  -0.210  0.00  0.00    -0.107 A 
ATOM      5  C4  BZF d   1       1.716  -2.045  -1.552  0.00  0.00     0.055 A 
ATOM      6  C5  BZF d   1       1.383  -3.050  -2.404  0.00  0.00    -0.016 A 
ATOM      7  C6  BZF d   1       1.079  -4.316  -1.949  0.00  0.00     0.022 A 
ATOM      8  C7  BZF d   1       1.090  -4.611  -0.626  0.00  0.00     0.029 A 
ATOM      9  C7A BZF d   1       1.395  -3.589   0.239  0.00  0.00     0.058 A 
ENDROOT
TORSDOF 0
ENDMDL
