MODEL 1
REMARK minimizedAffinity -2.71584177
REMARK minimizedRMSD -1
REMARK  0 active torsions:
REMARK  status: ('A' for Active; 'I' for Inactive)
ROOT
ATOM      1  O1  BZF d   1       1.895  -5.132   1.478  0.00  0.00    -0.204 OA
ATOM      2  C2  BZF d   1       1.358  -6.000   2.409  0.00  0.00     0.174 A 
ATOM      3  C3  BZF d   1       0.676  -5.323   3.357  0.00  0.00    -0.012 A 
ATOM      4  C3A BZF d   1       0.717  -3.954   2.944  0.00  0.00    -0.107 A 
ATOM      5  C4  BZF d   1       0.205  -2.800   3.465  0.00  0.00     0.055 A 
ATOM      6  C5  BZF d   1       0.487  -1.618   2.857  0.00  0.00    -0.016 A 
ATOM      7  C6  BZF d   1       1.282  -1.552   1.731  0.00  0.00     0.022 A 
ATOM      8  C7  BZF d   1       1.809  -2.670   1.175  0.00  0.00     0.029 A 
ATOM      9  C7A BZF d   1       1.498  -3.869   1.768  0.00  0.00     0.058 A 
ENDROOT
TORSDOF 0
ENDMDL
