MODEL 1
REMARK minimizedAffinity 12.9529982
REMARK minimizedRMSD -1
REMARK  0 active torsions:
REMARK  status: ('A' for Active; 'I' for Inactive)
ROOT
ATOM      1  O1  BZF d   1       0.582  -2.129   1.624  0.00  0.00    -0.204 OA
ATOM      2  C2  BZF d   1       0.897  -1.793   2.926  0.00  0.00     0.174 A 
ATOM      3  C3  BZF d   1       1.452  -2.840   3.570  0.00  0.00    -0.012 A 
ATOM      4  C3A BZF d   1       1.572  -3.868   2.583  0.00  0.00    -0.107 A 
ATOM      5  C4  BZF d   1       2.064  -5.142   2.609  0.00  0.00     0.055 A 
ATOM      6  C5  BZF d   1       1.966  -5.911   1.492  0.00  0.00    -0.016 A 
ATOM      7  C6  BZF d   1       1.378  -5.441   0.336  0.00  0.00     0.022 A 
ATOM      8  C7  BZF d   1       0.880  -4.183   0.261  0.00  0.00     0.029 A 
ATOM      9  C7A BZF d   1       1.007  -3.392   1.377  0.00  0.00     0.058 A 
ENDROOT
TORSDOF 0
ENDMDL
