MODEL 1
REMARK minimizedAffinity 15.9571095
REMARK minimizedRMSD -1
REMARK  0 active torsions:
REMARK  status: ('A' for Active; 'I' for Inactive)
ROOT
ATOM      1  O1  BZF d   1       4.886  -2.619   2.273  0.00  0.00    -0.204 OA
ATOM      2  C2  BZF d   1       6.000  -3.007   2.993  0.00  0.00     0.174 A 
ATOM      3  C3  BZF d   1       5.651  -3.411   4.232  0.00  0.00    -0.012 A 
ATOM      4  C3A BZF d   1       4.222  -3.354   4.258  0.00  0.00    -0.107 A 
ATOM      5  C4  BZF d   1       3.288  -3.649   5.209  0.00  0.00     0.055 A 
ATOM      6  C5  BZF d   1       1.976  -3.415   4.942  0.00  0.00    -0.016 A 
ATOM      7  C6  BZF d   1       1.564  -2.881   3.738  0.00  0.00     0.022 A 
ATOM      8  C7  BZF d   1       2.453  -2.577   2.762  0.00  0.00     0.029 A 
ATOM      9  C7A BZF d   1       3.777  -2.844   3.016  0.00  0.00     0.058 A 
ENDROOT
TORSDOF 0
ENDMDL
