MODEL 1
REMARK minimizedAffinity 8.19539547
REMARK minimizedRMSD -1
REMARK  0 active torsions:
REMARK  status: ('A' for Active; 'I' for Inactive)
ROOT
ATOM      1  O1  BZF d   1      -2.455   3.105   2.109  0.00  0.00    -0.204 OA
ATOM      2  C2  BZF d   1      -1.797   2.760   0.944  0.00  0.00     0.174 A 
ATOM      3  C3  BZF d   1      -2.596   2.939  -0.127  0.00  0.00    -0.012 A 
ATOM      4  C3A BZF d   1      -3.800   3.513   0.392  0.00  0.00    -0.107 A 
ATOM      5  C4  BZF d   1      -4.965   3.931  -0.183  0.00  0.00     0.055 A 
ATOM      6  C5  BZF d   1      -5.972   4.376   0.613  0.00  0.00    -0.016 A 
ATOM      7  C6  BZF d   1      -5.850   4.413   1.987  0.00  0.00     0.022 A 
ATOM      8  C7  BZF d   1      -4.711   4.014   2.603  0.00  0.00     0.029 A 
ATOM      9  C7A BZF d   1      -3.679   3.594   1.799  0.00  0.00     0.058 A 
ENDROOT
TORSDOF 0
ENDMDL
