MODEL 1
REMARK minimizedAffinity 5.43678427
REMARK minimizedRMSD -1
REMARK  1 active torsions:
REMARK  status: ('A' for Active; 'I' for Inactive)
REMARK    1  A    between atoms: C1_2  and  C2_3 
ROOT
ATOM      1  C2  UNL d   1       3.038  -3.090   3.223  0.00  0.00    -0.076 A 
ATOM      2  C3  UNL d   1       1.769  -3.626   3.502  0.00  0.00     0.004 A 
ATOM      3  C4  UNL d   1       1.585  -4.528   4.549  0.00  0.00    -0.003 A 
ATOM      4  C5  UNL d   1       2.667  -4.907   5.335  0.00  0.00     0.000 A 
ATOM      5  C6  UNL d   1       3.930  -4.371   5.084  0.00  0.00     0.000 A 
ATOM      6  C7  UNL d   1       4.129  -3.449   4.043  0.00  0.00    -0.073 A 
ATOM      7  C8  UNL d   1       5.514  -2.907   3.813  0.00  0.00     0.078 C 
ENDROOT
BRANCH   1   8
ATOM      8  C1  UNL d   1       3.182  -2.138   2.057  0.00  0.00     0.053 C 
ATOM      9  C   UNL d   1       2.212  -0.969   2.137  0.00  0.00     0.018 C 
ENDBRANCH   1   8
TORSDOF 1
ENDMDL
