MODEL 1
REMARK minimizedAffinity 3.70184565
REMARK minimizedRMSD -1
REMARK  1 active torsions:
REMARK  status: ('A' for Active; 'I' for Inactive)
REMARK    1  A    between atoms: C1_2  and  C2_3 
ROOT
ATOM      1  C2  UNL d   1       1.528  -2.397   3.037  0.00  0.00    -0.076 A 
ATOM      2  C3  UNL d   1       1.432  -1.933   4.361  0.00  0.00     0.004 A 
ATOM      3  C4  UNL d   1       1.493  -2.818   5.437  0.00  0.00    -0.003 A 
ATOM      4  C5  UNL d   1       1.652  -4.180   5.206  0.00  0.00     0.000 A 
ATOM      5  C6  UNL d   1       1.766  -4.655   3.900  0.00  0.00     0.000 A 
ATOM      6  C7  UNL d   1       1.723  -3.775   2.805  0.00  0.00    -0.073 A 
ATOM      7  C8  UNL d   1       1.845  -4.343   1.417  0.00  0.00     0.078 C 
ENDROOT
BRANCH   1   8
ATOM      8  C1  UNL d   1       1.428  -1.394   1.910  0.00  0.00     0.053 C 
ATOM      9  C   UNL d   1       2.781  -0.822   1.517  0.00  0.00     0.018 C 
ENDBRANCH   1   8
TORSDOF 1
ENDMDL
