MODEL 1
REMARK minimizedAffinity 4.85282135
REMARK minimizedRMSD -1
REMARK  1 active torsions:
REMARK  status: ('A' for Active; 'I' for Inactive)
REMARK    1  A    between atoms: C1_2  and  C2_3 
ROOT
ATOM      1  C2  UNL d   1       1.909  -1.514   2.580  0.00  0.00    -0.076 A 
ATOM      2  C3  UNL d   1       2.130  -2.824   2.121  0.00  0.00     0.004 A 
ATOM      3  C4  UNL d   1       2.019  -3.914   2.983  0.00  0.00    -0.003 A 
ATOM      4  C5  UNL d   1       1.684  -3.712   4.317  0.00  0.00     0.000 A 
ATOM      5  C6  UNL d   1       1.444  -2.420   4.785  0.00  0.00     0.000 A 
ATOM      6  C7  UNL d   1       1.536  -1.312   3.926  0.00  0.00    -0.073 A 
ATOM      7  C8  UNL d   1       1.272   0.059   4.486  0.00  0.00     0.078 C 
ENDROOT
BRANCH   1   8
ATOM      8  C1  UNL d   1       2.071  -0.368   1.606  0.00  0.00     0.053 C 
ATOM      9  C   UNL d   1       3.519   0.075   1.463  0.00  0.00     0.018 C 
ENDBRANCH   1   8
TORSDOF 1
ENDMDL
