MODEL 1
REMARK minimizedAffinity 5.31036377
REMARK minimizedRMSD -1
REMARK  1 active torsions:
REMARK  status: ('A' for Active; 'I' for Inactive)
REMARK    1  A    between atoms: C1_2  and  C2_3 
ROOT
ATOM      1  C2  UNL d   1       3.552  -2.894   3.658  0.00  0.00    -0.076 A 
ATOM      2  C3  UNL d   1       3.280  -1.881   2.722  0.00  0.00     0.004 A 
ATOM      3  C4  UNL d   1       1.992  -1.692   2.224  0.00  0.00    -0.003 A 
ATOM      4  C5  UNL d   1       0.955  -2.513   2.654  0.00  0.00     0.000 A 
ATOM      5  C6  UNL d   1       1.204  -3.511   3.595  0.00  0.00     0.000 A 
ATOM      6  C7  UNL d   1       2.493  -3.704   4.120  0.00  0.00    -0.073 A 
ATOM      7  C8  UNL d   1       2.706  -4.800   5.128  0.00  0.00     0.078 C 
ENDROOT
BRANCH   1   8
ATOM      8  C1  UNL d   1       4.974  -3.069   4.143  0.00  0.00     0.053 C 
ATOM      9  C   UNL d   1       6.000  -2.766   3.061  0.00  0.00     0.018 C 
ENDBRANCH   1   8
TORSDOF 1
ENDMDL
