MODEL 1
REMARK minimizedAffinity 8.57213306
REMARK minimizedRMSD -1
REMARK  1 active torsions:
REMARK  status: ('A' for Active; 'I' for Inactive)
REMARK    1  A    between atoms: C1_2  and  C2_3 
ROOT
ATOM      1  C2  UNL d   1       1.749  -4.014   3.819  0.00  0.00    -0.076 A 
ATOM      2  C3  UNL d   1       1.498  -2.829   4.531  0.00  0.00     0.004 A 
ATOM      3  C4  UNL d   1       1.455  -1.597   3.881  0.00  0.00    -0.003 A 
ATOM      4  C5  UNL d   1       1.662  -1.530   2.507  0.00  0.00     0.000 A 
ATOM      5  C6  UNL d   1       1.895  -2.698   1.782  0.00  0.00     0.000 A 
ATOM      6  C7  UNL d   1       1.926  -3.950   2.420  0.00  0.00    -0.073 A 
ATOM      7  C8  UNL d   1       2.188  -5.177   1.590  0.00  0.00     0.078 C 
ENDROOT
BRANCH   1   8
ATOM      8  C1  UNL d   1       1.811  -5.318   4.582  0.00  0.00     0.053 C 
ATOM      9  C   UNL d   1       1.227  -5.203   5.981  0.00  0.00     0.018 C 
ENDBRANCH   1   8
TORSDOF 1
ENDMDL
