MODEL 1
REMARK minimizedAffinity 6.70417976
REMARK minimizedRMSD -1
REMARK  1 active torsions:
REMARK  status: ('A' for Active; 'I' for Inactive)
REMARK    1  A    between atoms: C1_2  and  C2_3 
ROOT
ATOM      1  C2  UNL d   1       1.791  -1.664   2.999  0.00  0.00    -0.076 A 
ATOM      2  C3  UNL d   1       1.950  -2.659   2.018  0.00  0.00     0.004 A 
ATOM      3  C4  UNL d   1       2.141  -3.993   2.373  0.00  0.00    -0.003 A 
ATOM      4  C5  UNL d   1       2.175  -4.354   3.715  0.00  0.00     0.000 A 
ATOM      5  C6  UNL d   1       2.001  -3.384   4.701  0.00  0.00     0.000 A 
ATOM      6  C7  UNL d   1       1.792  -2.037   4.360  0.00  0.00    -0.073 A 
ATOM      7  C8  UNL d   1       1.616  -1.031   5.464  0.00  0.00     0.078 C 
ENDROOT
BRANCH   1   8
ATOM      8  C1  UNL d   1       1.615  -0.230   2.554  0.00  0.00     0.053 C 
ATOM      9  C   UNL d   1       2.752   0.248   1.664  0.00  0.00     0.018 C 
ENDBRANCH   1   8
TORSDOF 1
ENDMDL
