MODEL 1
REMARK minimizedAffinity 11.9534998
REMARK minimizedRMSD -1
REMARK  1 active torsions:
REMARK  status: ('A' for Active; 'I' for Inactive)
REMARK    1  A    between atoms: C1_2  and  C2_3 
ROOT
ATOM      1  C2  UNL d   1      -3.032  -0.268  -2.449  0.00  0.00    -0.076 A 
ATOM      2  C3  UNL d   1      -3.651  -0.827  -3.581  0.00  0.00     0.004 A 
ATOM      3  C4  UNL d   1      -3.835  -2.204  -3.691  0.00  0.00    -0.003 A 
ATOM      4  C5  UNL d   1      -3.405  -3.045  -2.671  0.00  0.00     0.000 A 
ATOM      5  C6  UNL d   1      -2.805  -2.507  -1.533  0.00  0.00     0.000 A 
ATOM      6  C7  UNL d   1      -2.626  -1.119  -1.399  0.00  0.00    -0.073 A 
ATOM      7  C8  UNL d   1      -1.968  -0.594  -0.153  0.00  0.00     0.078 C 
ENDROOT
BRANCH   1   8
ATOM      8  C1  UNL d   1      -2.834   1.230  -2.397  0.00  0.00     0.053 C 
ATOM      9  C   UNL d   1      -4.009   1.993  -2.988  0.00  0.00     0.018 C 
ENDBRANCH   1   8
TORSDOF 1
ENDMDL
