MODEL 1
REMARK minimizedAffinity 8.72020626
REMARK minimizedRMSD -1
REMARK  1 active torsions:
REMARK  status: ('A' for Active; 'I' for Inactive)
REMARK    1  A    between atoms: C1_2  and  C2_3 
ROOT
ATOM      1  C2  UNL d   1       1.729  -0.101   2.512  0.00  0.00    -0.076 A 
ATOM      2  C3  UNL d   1       1.539   0.632   3.697  0.00  0.00     0.004 A 
ATOM      3  C4  UNL d   1       2.152   1.869   3.881  0.00  0.00    -0.003 A 
ATOM      4  C5  UNL d   1       2.966   2.395   2.883  0.00  0.00     0.000 A 
ATOM      5  C6  UNL d   1       3.151   1.690   1.695  0.00  0.00     0.000 A 
ATOM      6  C7  UNL d   1       2.527   0.449   1.486  0.00  0.00    -0.073 A 
ATOM      7  C8  UNL d   1       2.767  -0.271   0.187  0.00  0.00     0.078 C 
ENDROOT
BRANCH   1   8
ATOM      8  C1  UNL d   1       1.059  -1.450   2.380  0.00  0.00     0.053 C 
ATOM      9  C   UNL d   1       1.915  -2.582   2.929  0.00  0.00     0.018 C 
ENDBRANCH   1   8
TORSDOF 1
ENDMDL
