MODEL 1
REMARK minimizedAffinity -3.09460568
REMARK minimizedRMSD -1
REMARK  0 active torsions:
REMARK  status: ('A' for Active; 'I' for Inactive)
ROOT
ATOM      1  C1  BNZ d   1      -0.719  -1.655   1.662  0.00  0.00     0.000 A 
ATOM      2  C2  BNZ d   1      -0.325  -0.367   1.908  0.00  0.00     0.000 A 
ATOM      3  C3  BNZ d   1       0.138   0.428   0.897  0.00  0.00     0.000 A 
ATOM      4  C4  BNZ d   1       0.242  -0.077  -0.349  0.00  0.00     0.000 A 
ATOM      5  C5  BNZ d   1      -0.143  -1.377  -0.611  0.00  0.00     0.000 A 
ATOM      6  C6  BNZ d   1      -0.644  -2.162   0.401  0.00  0.00     0.000 A 
ENDROOT
TORSDOF 0
ENDMDL
