MODEL 1
REMARK minimizedAffinity -2.10666299
REMARK minimizedRMSD -1
REMARK  0 active torsions:
REMARK  status: ('A' for Active; 'I' for Inactive)
ROOT
ATOM      1  C1  BNZ d   1       0.517  -0.038   1.255  0.00  0.00     0.000 A 
ATOM      2  C2  BNZ d   1       1.077   1.003   0.564  0.00  0.00     0.000 A 
ATOM      3  C3  BNZ d   1       0.434   1.560  -0.506  0.00  0.00     0.000 A 
ATOM      4  C4  BNZ d   1      -0.747   1.049  -0.908  0.00  0.00     0.000 A 
ATOM      5  C5  BNZ d   1      -1.321  -0.006  -0.228  0.00  0.00     0.000 A 
ATOM      6  C6  BNZ d   1      -0.689  -0.539   0.872  0.00  0.00     0.000 A 
ENDROOT
TORSDOF 0
ENDMDL
