MODEL 1
REMARK minimizedAffinity -3.13540649
REMARK minimizedRMSD -1
REMARK  0 active torsions:
REMARK  status: ('A' for Active; 'I' for Inactive)
ROOT
ATOM      1  C1  BNZ d   1       0.745  -1.128   1.090  0.00  0.00     0.000 A 
ATOM      2  C2  BNZ d   1       1.344  -0.102   0.409  0.00  0.00     0.000 A 
ATOM      3  C3  BNZ d   1       0.641   1.021   0.074  0.00  0.00     0.000 A 
ATOM      4  C4  BNZ d   1      -0.670   1.100   0.384  0.00  0.00     0.000 A 
ATOM      5  C5  BNZ d   1      -1.290   0.070   1.063  0.00  0.00     0.000 A 
ATOM      6  C6  BNZ d   1      -0.569  -1.042   1.433  0.00  0.00     0.000 A 
ENDROOT
TORSDOF 0
ENDMDL
