MODEL 1
REMARK minimizedAffinity -0.760814071
REMARK minimizedRMSD -1
REMARK  0 active torsions:
REMARK  status: ('A' for Active; 'I' for Inactive)
ROOT
ATOM      1  C1  BNZ d   1      -1.139  -3.983   1.037  0.00  0.00     0.000 A 
ATOM      2  C2  BNZ d   1      -0.397  -5.127   0.911  0.00  0.00     0.000 A 
ATOM      3  C3  BNZ d   1      -0.526  -5.927  -0.190  0.00  0.00     0.000 A 
ATOM      4  C4  BNZ d   1      -1.424  -5.604  -1.143  0.00  0.00     0.000 A 
ATOM      5  C5  BNZ d   1      -2.185  -4.458  -1.026  0.00  0.00     0.000 A 
ATOM      6  C6  BNZ d   1      -2.025  -3.635   0.064  0.00  0.00     0.000 A 
ENDROOT
TORSDOF 0
ENDMDL
