MODEL 1
REMARK minimizedAffinity -2.8666966
REMARK minimizedRMSD -1
REMARK  0 active torsions:
REMARK  status: ('A' for Active; 'I' for Inactive)
ROOT
ATOM      1  C1  BNZ d   1       0.398  -0.257   1.543  0.00  0.00     0.000 A 
ATOM      2  C2  BNZ d   1       0.959   0.936   1.174  0.00  0.00     0.000 A 
ATOM      3  C3  BNZ d   1       0.399   1.697   0.186  0.00  0.00     0.000 A 
ATOM      4  C4  BNZ d   1      -0.695   1.244  -0.459  0.00  0.00     0.000 A 
ATOM      5  C5  BNZ d   1      -1.267   0.038  -0.106  0.00  0.00     0.000 A 
ATOM      6  C6  BNZ d   1      -0.724  -0.706   0.916  0.00  0.00     0.000 A 
ENDROOT
TORSDOF 0
ENDMDL
