MODEL 1
REMARK minimizedAffinity -5.1239543
REMARK minimizedRMSD -1
REMARK  0 active torsions:
REMARK  status: ('A' for Active; 'I' for Inactive)
ROOT
ATOM      1  C1  BNZ d   1      -1.266  -2.133   0.589  0.00  0.00     0.000 A 
ATOM      2  C2  BNZ d   1      -0.176  -2.905   0.286  0.00  0.00     0.000 A 
ATOM      3  C3  BNZ d   1       1.055  -2.339   0.107  0.00  0.00     0.000 A 
ATOM      4  C4  BNZ d   1       1.188  -1.000   0.192  0.00  0.00     0.000 A 
ATOM      5  C5  BNZ d   1       0.097  -0.207   0.488  0.00  0.00     0.000 A 
ATOM      6  C6  BNZ d   1      -1.133  -0.784   0.706  0.00  0.00     0.000 A 
ENDROOT
TORSDOF 0
ENDMDL
