MODEL 1
REMARK minimizedAffinity -1.91986501
REMARK minimizedRMSD -1
REMARK  0 active torsions:
REMARK  status: ('A' for Active; 'I' for Inactive)
ROOT
ATOM      1  C1  BNZ d   1      -0.952  -1.894   1.579  0.00  0.00     0.000 A 
ATOM      2  C2  BNZ d   1      -0.548  -0.675   2.056  0.00  0.00     0.000 A 
ATOM      3  C3  BNZ d   1      -0.109   0.299   1.203  0.00  0.00     0.000 A 
ATOM      4  C4  BNZ d   1      -0.037   0.040  -0.118  0.00  0.00     0.000 A 
ATOM      5  C5  BNZ d   1      -0.431  -1.187  -0.613  0.00  0.00     0.000 A 
ATOM      6  C6  BNZ d   1      -0.909  -2.151   0.244  0.00  0.00     0.000 A 
ENDROOT
TORSDOF 0
ENDMDL
