MODEL 1
REMARK minimizedAffinity 0.318323731
REMARK minimizedRMSD -1
REMARK  0 active torsions:
REMARK  status: ('A' for Active; 'I' for Inactive)
ROOT
ATOM      1  C1  BNZ d   1      -1.264   0.702   1.288  0.00  0.00     0.000 A 
ATOM      2  C2  BNZ d   1      -1.880  -0.268   2.031  0.00  0.00     0.000 A 
ATOM      3  C3  BNZ d   1      -1.962  -1.554   1.574  0.00  0.00     0.000 A 
ATOM      4  C4  BNZ d   1      -1.463  -1.859   0.359  0.00  0.00     0.000 A 
ATOM      5  C5  BNZ d   1      -0.847  -0.889  -0.407  0.00  0.00     0.000 A 
ATOM      6  C6  BNZ d   1      -0.733   0.395   0.073  0.00  0.00     0.000 A 
ENDROOT
TORSDOF 0
ENDMDL
