MODEL 1
REMARK minimizedAffinity 2.8706646
REMARK minimizedRMSD -1
REMARK  0 active torsions:
REMARK  status: ('A' for Active; 'I' for Inactive)
ROOT
ATOM      1  C1  BNZ d   1      -0.600   0.692   0.227  0.00  0.00     0.000 A 
ATOM      2  C2  BNZ d   1      -1.868   0.201   0.393  0.00  0.00     0.000 A 
ATOM      3  C3  BNZ d   1      -2.305  -0.208   1.621  0.00  0.00     0.000 A 
ATOM      4  C4  BNZ d   1      -1.463  -0.163   2.674  0.00  0.00     0.000 A 
ATOM      5  C5  BNZ d   1      -0.179   0.321   2.521  0.00  0.00     0.000 A 
ATOM      6  C6  BNZ d   1       0.245   0.768   1.291  0.00  0.00     0.000 A 
ENDROOT
TORSDOF 0
ENDMDL
