MODEL 1
REMARK minimizedAffinity -0.487128913
REMARK minimizedRMSD -1
REMARK  0 active torsions:
REMARK  status: ('A' for Active; 'I' for Inactive)
ROOT
ATOM      1  C1  BNZ d   1      -1.714  -0.606   0.803  0.00  0.00     0.000 A 
ATOM      2  C2  BNZ d   1      -1.357   0.289  -0.170  0.00  0.00     0.000 A 
ATOM      3  C3  BNZ d   1      -0.137   0.905  -0.141  0.00  0.00     0.000 A 
ATOM      4  C4  BNZ d   1       0.707   0.655   0.881  0.00  0.00     0.000 A 
ATOM      5  C5  BNZ d   1       0.358  -0.238   1.874  0.00  0.00     0.000 A 
ATOM      6  C6  BNZ d   1      -0.855  -0.885   1.821  0.00  0.00     0.000 A 
ENDROOT
TORSDOF 0
ENDMDL
