MODEL 1
REMARK minimizedAffinity -2.38366485
REMARK minimizedRMSD -1
REMARK  0 active torsions:
REMARK  status: ('A' for Active; 'I' for Inactive)
ROOT
ATOM      1  C1  BNZ d   1       0.015  -0.368  -2.083  0.00  0.00     0.000 A 
ATOM      2  C2  BNZ d   1      -0.559  -0.279  -0.843  0.00  0.00     0.000 A 
ATOM      3  C3  BNZ d   1      -0.013   0.517   0.125  0.00  0.00     0.000 A 
ATOM      4  C4  BNZ d   1       1.127   1.189  -0.134  0.00  0.00     0.000 A 
ATOM      5  C5  BNZ d   1       1.723   1.102  -1.377  0.00  0.00     0.000 A 
ATOM      6  C6  BNZ d   1       1.149   0.331  -2.361  0.00  0.00     0.000 A 
ENDROOT
TORSDOF 0
ENDMDL
