MODEL 1
REMARK minimizedAffinity -2.02107382
REMARK minimizedRMSD -1
REMARK  0 active torsions:
REMARK  status: ('A' for Active; 'I' for Inactive)
ROOT
ATOM      1  C1  BNZ d   1      -0.615  -1.609   1.904  0.00  0.00     0.000 A 
ATOM      2  C2  BNZ d   1       0.081  -0.431   1.835  0.00  0.00     0.000 A 
ATOM      3  C3  BNZ d   1       0.352   0.152   0.629  0.00  0.00     0.000 A 
ATOM      4  C4  BNZ d   1      -0.037  -0.462  -0.507  0.00  0.00     0.000 A 
ATOM      5  C5  BNZ d   1      -0.732  -1.654  -0.455  0.00  0.00     0.000 A 
ATOM      6  C6  BNZ d   1      -1.037  -2.218   0.763  0.00  0.00     0.000 A 
ENDROOT
TORSDOF 0
ENDMDL
