MODEL 1
REMARK minimizedAffinity -2.98190713
REMARK minimizedRMSD -1
REMARK  0 active torsions:
REMARK  status: ('A' for Active; 'I' for Inactive)
ROOT
ATOM      1  C1  BNZ d   1       0.955   0.537   0.884  0.00  0.00     0.000 A 
ATOM      2  C2  BNZ d   1       1.697   1.658   1.144  0.00  0.00     0.000 A 
ATOM      3  C3  BNZ d   1       1.627   2.749   0.325  0.00  0.00     0.000 A 
ATOM      4  C4  BNZ d   1       0.846   2.704  -0.774  0.00  0.00     0.000 A 
ATOM      5  C5  BNZ d   1       0.099   1.578  -1.055  0.00  0.00     0.000 A 
ATOM      6  C6  BNZ d   1       0.143   0.495  -0.207  0.00  0.00     0.000 A 
ENDROOT
TORSDOF 0
ENDMDL
