MODEL 1
REMARK minimizedAffinity -3.32686114
REMARK minimizedRMSD -1
REMARK  0 active torsions:
REMARK  status: ('A' for Active; 'I' for Inactive)
ROOT
ATOM      1  C1  BNZ d   1      -0.001  -1.272  -1.824  0.00  0.00     0.000 A 
ATOM      2  C2  BNZ d   1      -0.527  -2.291  -1.076  0.00  0.00     0.000 A 
ATOM      3  C3  BNZ d   1      -0.891  -2.088   0.226  0.00  0.00     0.000 A 
ATOM      4  C4  BNZ d   1      -0.691  -0.879   0.789  0.00  0.00     0.000 A 
ATOM      5  C5  BNZ d   1      -0.153   0.156   0.050  0.00  0.00     0.000 A 
ATOM      6  C6  BNZ d   1       0.176  -0.041  -1.271  0.00  0.00     0.000 A 
ENDROOT
TORSDOF 0
ENDMDL
