MODEL 1
REMARK minimizedAffinity -2.50302005
REMARK minimizedRMSD -1
REMARK  0 active torsions:
REMARK  status: ('A' for Active; 'I' for Inactive)
ROOT
ATOM      1  C1  BNZ d   1      -0.866  -2.267  -0.088  0.00  0.00     0.000 A 
ATOM      2  C2  BNZ d   1      -0.667  -1.419  -1.144  0.00  0.00     0.000 A 
ATOM      3  C3  BNZ d   1      -0.350  -0.105  -0.936  0.00  0.00     0.000 A 
ATOM      4  C4  BNZ d   1      -0.273   0.367   0.325  0.00  0.00     0.000 A 
ATOM      5  C5  BNZ d   1      -0.480  -0.475   1.400  0.00  0.00     0.000 A 
ATOM      6  C6  BNZ d   1      -0.760  -1.805   1.187  0.00  0.00     0.000 A 
ENDROOT
TORSDOF 0
ENDMDL
