MODEL 1
REMARK minimizedAffinity -2.21051311
REMARK minimizedRMSD -1
REMARK  0 active torsions:
REMARK  status: ('A' for Active; 'I' for Inactive)
ROOT
ATOM      1  C1  BNZ d   1      -0.930  -0.034   1.464  0.00  0.00     0.000 A 
ATOM      2  C2  BNZ d   1      -0.692   1.153   0.823  0.00  0.00     0.000 A 
ATOM      3  C3  BNZ d   1      -0.082   1.177  -0.400  0.00  0.00     0.000 A 
ATOM      4  C4  BNZ d   1       0.325   0.021  -0.961  0.00  0.00     0.000 A 
ATOM      5  C5  BNZ d   1       0.101  -1.183  -0.323  0.00  0.00     0.000 A 
ATOM      6  C6  BNZ d   1      -0.548  -1.207   0.890  0.00  0.00     0.000 A 
ENDROOT
TORSDOF 0
ENDMDL
