MODEL 1
REMARK minimizedAffinity -3.30753016
REMARK minimizedRMSD -1
REMARK  0 active torsions:
REMARK  status: ('A' for Active; 'I' for Inactive)
ROOT
ATOM      1  C1  BNZ d   1       1.124   0.967   1.837  0.00  0.00     0.000 A 
ATOM      2  C2  BNZ d   1       0.613  -0.133   1.202  0.00  0.00     0.000 A 
ATOM      3  C3  BNZ d   1       0.076  -0.031  -0.051  0.00  0.00     0.000 A 
ATOM      4  C4  BNZ d   1       0.012   1.176  -0.649  0.00  0.00     0.000 A 
ATOM      5  C5  BNZ d   1       0.514   2.296  -0.017  0.00  0.00     0.000 A 
ATOM      6  C6  BNZ d   1       1.090   2.183   1.228  0.00  0.00     0.000 A 
ENDROOT
TORSDOF 0
ENDMDL
