MODEL 1
REMARK minimizedAffinity -2.87095094
REMARK minimizedRMSD -1
REMARK  0 active torsions:
REMARK  status: ('A' for Active; 'I' for Inactive)
ROOT
ATOM      1  C1  BNZ d   1      -1.130  -1.723   1.165  0.00  0.00     0.000 A 
ATOM      2  C2  BNZ d   1      -0.961  -0.369   1.272  0.00  0.00     0.000 A 
ATOM      3  C3  BNZ d   1      -0.390   0.348   0.257  0.00  0.00     0.000 A 
ATOM      4  C4  BNZ d   1       0.047  -0.296  -0.844  0.00  0.00     0.000 A 
ATOM      5  C5  BNZ d   1      -0.108  -1.663  -0.963  0.00  0.00     0.000 A 
ATOM      6  C6  BNZ d   1      -0.719  -2.375   0.044  0.00  0.00     0.000 A 
ENDROOT
TORSDOF 0
ENDMDL
