MODEL 1
REMARK minimizedAffinity -2.66652441
REMARK minimizedRMSD -1
REMARK  0 active torsions:
REMARK  status: ('A' for Active; 'I' for Inactive)
ROOT
ATOM      1  C1  BNZ d   1      -0.342  -0.503  -0.688  0.00  0.00     0.000 A 
ATOM      2  C2  BNZ d   1      -1.125  -1.595  -0.422  0.00  0.00     0.000 A 
ATOM      3  C3  BNZ d   1      -1.376  -1.979   0.866  0.00  0.00     0.000 A 
ATOM      4  C4  BNZ d   1      -0.812  -1.297   1.883  0.00  0.00     0.000 A 
ATOM      5  C5  BNZ d   1      -0.012  -0.200   1.631  0.00  0.00     0.000 A 
ATOM      6  C6  BNZ d   1       0.206   0.207   0.335  0.00  0.00     0.000 A 
ENDROOT
TORSDOF 0
ENDMDL
