MODEL 1
REMARK minimizedAffinity -3.26456928
REMARK minimizedRMSD -1
REMARK  1 active torsions:
REMARK  status: ('A' for Active; 'I' for Inactive)
REMARK    1  A    between atoms: C1_2  and  C2_3 
ROOT
ATOM      1  C2  UNL d   1       0.347  -0.731  -0.060  0.00  0.00    -0.081 A 
ATOM      2  C3  UNL d   1       0.769  -0.411   1.236  0.00  0.00     0.006 A 
ATOM      3  C4  UNL d   1       0.249   0.705   1.895  0.00  0.00     0.002 A 
ATOM      4  C5  UNL d   1      -0.707   1.515   1.273  0.00  0.00    -0.080 A 
ATOM      5  C6  UNL d   1      -1.296   2.699   1.981  0.00  0.00     0.076 C 
ATOM      6  C7  UNL d   1      -1.116   1.206  -0.028  0.00  0.00     0.002 A 
ATOM      7  C8  UNL d   1      -0.596   0.090  -0.688  0.00  0.00     0.006 A 
ENDROOT
BRANCH   1   8
ATOM      8  C1  UNL d   1       0.858  -1.971  -0.749  0.00  0.00     0.054 C 
ATOM      9  C   UNL d   1      -0.181  -3.083  -0.729  0.00  0.00     0.018 C 
ENDBRANCH   1   8
TORSDOF 1
ENDMDL
