MODEL 1
REMARK minimizedAffinity -3.98276305
REMARK minimizedRMSD -1
REMARK  1 active torsions:
REMARK  status: ('A' for Active; 'I' for Inactive)
REMARK    1  A    between atoms: C1_2  and  C2_3 
ROOT
ATOM      1  C2  UNL d   1       0.061  -0.594  -0.145  0.00  0.00    -0.081 A 
ATOM      2  C3  UNL d   1       0.310  -0.353   1.212  0.00  0.00     0.006 A 
ATOM      3  C4  UNL d   1      -0.054   0.863   1.794  0.00  0.00     0.002 A 
ATOM      4  C5  UNL d   1      -0.679   1.856   1.032  0.00  0.00    -0.080 A 
ATOM      5  C6  UNL d   1      -1.102   3.154   1.651  0.00  0.00     0.076 C 
ATOM      6  C7  UNL d   1      -0.912   1.622  -0.328  0.00  0.00     0.002 A 
ATOM      7  C8  UNL d   1      -0.548   0.406  -0.910  0.00  0.00     0.006 A 
ENDROOT
BRANCH   1   8
ATOM      8  C1  UNL d   1       0.394  -1.929  -0.760  0.00  0.00     0.054 C 
ATOM      9  C   UNL d   1      -0.857  -2.628  -1.275  0.00  0.00     0.018 C 
ENDBRANCH   1   8
TORSDOF 1
ENDMDL
