MODEL 1
REMARK minimizedAffinity -2.29708838
REMARK minimizedRMSD -1
REMARK  1 active torsions:
REMARK  status: ('A' for Active; 'I' for Inactive)
REMARK    1  A    between atoms: C1_2  and  C2_3 
ROOT
ATOM      1  C2  UNL d   1       0.032   0.102   0.678  0.00  0.00    -0.081 A 
ATOM      2  C3  UNL d   1      -0.575   1.266   1.165  0.00  0.00     0.006 A 
ATOM      3  C4  UNL d   1       0.121   2.123   2.020  0.00  0.00     0.002 A 
ATOM      4  C5  UNL d   1       1.438   1.836   2.395  0.00  0.00    -0.080 A 
ATOM      5  C6  UNL d   1       2.207   2.764   3.288  0.00  0.00     0.076 C 
ATOM      6  C7  UNL d   1       2.039   0.664   1.923  0.00  0.00     0.002 A 
ATOM      7  C8  UNL d   1       1.343  -0.194   1.069  0.00  0.00     0.006 A 
ENDROOT
BRANCH   1   8
ATOM      8  C1  UNL d   1      -0.693  -0.792  -0.296  0.00  0.00     0.054 C 
ATOM      9  C   UNL d   1       0.283  -1.603  -1.136  0.00  0.00     0.018 C 
ENDBRANCH   1   8
TORSDOF 1
ENDMDL
