MODEL 1
REMARK minimizedAffinity -4.7899847
REMARK minimizedRMSD -1
REMARK  1 active torsions:
REMARK  status: ('A' for Active; 'I' for Inactive)
REMARK    1  A    between atoms: C1_2  and  C2_3 
ROOT
ATOM      1  C2  UNL d   1       0.409  -0.827  -0.703  0.00  0.00    -0.081 A 
ATOM      2  C3  UNL d   1       1.076  -0.969   0.521  0.00  0.00     0.006 A 
ATOM      3  C4  UNL d   1       0.822  -0.086   1.573  0.00  0.00     0.002 A 
ATOM      4  C5  UNL d   1      -0.108   0.949   1.422  0.00  0.00    -0.080 A 
ATOM      5  C6  UNL d   1      -0.413   1.885   2.554  0.00  0.00     0.076 C 
ATOM      6  C7  UNL d   1      -0.761   1.102   0.194  0.00  0.00     0.002 A 
ATOM      7  C8  UNL d   1      -0.507   0.219  -0.858  0.00  0.00     0.006 A 
ENDROOT
BRANCH   1   8
ATOM      8  C1  UNL d   1       0.633  -1.816  -1.817  0.00  0.00     0.054 C 
ATOM      9  C   UNL d   1       0.681  -3.243  -1.289  0.00  0.00     0.018 C 
ENDBRANCH   1   8
TORSDOF 1
ENDMDL
