MODEL 1
REMARK minimizedAffinity -4.95922804
REMARK minimizedRMSD -1
REMARK  1 active torsions:
REMARK  status: ('A' for Active; 'I' for Inactive)
REMARK    1  A    between atoms: C1_2  and  C2_3 
ROOT
ATOM      1  C2  UNL d   1       0.077   1.316   1.568  0.00  0.00    -0.081 A 
ATOM      2  C3  UNL d   1       1.078   0.393   1.892  0.00  0.00     0.006 A 
ATOM      3  C4  UNL d   1       1.235  -0.774   1.141  0.00  0.00     0.002 A 
ATOM      4  C5  UNL d   1       0.401  -1.033   0.048  0.00  0.00    -0.080 A 
ATOM      5  C6  UNL d   1       0.579  -2.267  -0.785  0.00  0.00     0.076 C 
ATOM      6  C7  UNL d   1      -0.611  -0.118  -0.265  0.00  0.00     0.002 A 
ATOM      7  C8  UNL d   1      -0.769   1.048   0.486  0.00  0.00     0.006 A 
ENDROOT
BRANCH   1   8
ATOM      8  C1  UNL d   1      -0.054   2.607   2.337  0.00  0.00     0.054 C 
ATOM      9  C   UNL d   1      -1.159   3.482   1.764  0.00  0.00     0.018 C 
ENDBRANCH   1   8
TORSDOF 1
ENDMDL
