MODEL 1
REMARK minimizedAffinity -5.07327366
REMARK minimizedRMSD -1
REMARK  1 active torsions:
REMARK  status: ('A' for Active; 'I' for Inactive)
REMARK    1  A    between atoms: C1_2  and  C2_3 
ROOT
ATOM      1  C2  UNL d   1       0.653  -0.788  -0.144  0.00  0.00    -0.081 A 
ATOM      2  C3  UNL d   1       0.915  -0.479   1.197  0.00  0.00     0.006 A 
ATOM      3  C4  UNL d   1       0.347   0.653   1.786  0.00  0.00     0.002 A 
ATOM      4  C5  UNL d   1      -0.497   1.490   1.049  0.00  0.00    -0.080 A 
ATOM      5  C6  UNL d   1      -1.137   2.691   1.679  0.00  0.00     0.076 C 
ATOM      6  C7  UNL d   1      -0.745   1.191  -0.295  0.00  0.00     0.002 A 
ATOM      7  C8  UNL d   1      -0.177   0.060  -0.885  0.00  0.00     0.006 A 
ENDROOT
BRANCH   1   8
ATOM      8  C1  UNL d   1       1.212  -2.043  -0.764  0.00  0.00     0.054 C 
ATOM      9  C   UNL d   1       0.109  -2.899  -1.370  0.00  0.00     0.018 C 
ENDBRANCH   1   8
TORSDOF 1
ENDMDL
