MODEL 1
REMARK minimizedAffinity -3.25600433
REMARK minimizedRMSD -1
REMARK  1 active torsions:
REMARK  status: ('A' for Active; 'I' for Inactive)
REMARK    1  A    between atoms: C1_2  and  C2_3 
ROOT
ATOM      1  C2  UNL d   1       0.024   0.084   0.926  0.00  0.00    -0.081 A 
ATOM      2  C3  UNL d   1      -0.685   1.204   1.377  0.00  0.00     0.006 A 
ATOM      3  C4  UNL d   1      -0.077   2.133   2.225  0.00  0.00     0.002 A 
ATOM      4  C5  UNL d   1       1.251   1.961   2.631  0.00  0.00    -0.080 A 
ATOM      5  C6  UNL d   1       1.924   2.967   3.517  0.00  0.00     0.076 C 
ATOM      6  C7  UNL d   1       1.953   0.833   2.195  0.00  0.00     0.002 A 
ATOM      7  C8  UNL d   1       1.346  -0.096   1.347  0.00  0.00     0.006 A 
ENDROOT
BRANCH   1   8
ATOM      8  C1  UNL d   1      -0.608  -0.885  -0.040  0.00  0.00     0.054 C 
ATOM      9  C   UNL d   1       0.443  -1.571  -0.901  0.00  0.00     0.018 C 
ENDBRANCH   1   8
TORSDOF 1
ENDMDL
