MODEL 1
REMARK minimizedAffinity -4.57110643
REMARK minimizedRMSD -1
REMARK  1 active torsions:
REMARK  status: ('A' for Active; 'I' for Inactive)
REMARK    1  A    between atoms: C1_2  and  C2_3 
ROOT
ATOM      1  C2  UNL d   1       0.785  -1.636  -0.406  0.00  0.00    -0.081 A 
ATOM      2  C3  UNL d   1       1.222  -1.523   0.919  0.00  0.00     0.006 A 
ATOM      3  C4  UNL d   1       0.959  -0.365   1.655  0.00  0.00     0.002 A 
ATOM      4  C5  UNL d   1       0.248   0.694   1.082  0.00  0.00    -0.080 A 
ATOM      5  C6  UNL d   1      -0.068   1.930   1.871  0.00  0.00     0.076 C 
ATOM      6  C7  UNL d   1      -0.174   0.588  -0.248  0.00  0.00     0.002 A 
ATOM      7  C8  UNL d   1       0.089  -0.569  -0.984  0.00  0.00     0.006 A 
ENDROOT
BRANCH   1   8
ATOM      8  C1  UNL d   1       1.011  -2.909  -1.181  0.00  0.00     0.054 C 
ATOM      9  C   UNL d   1      -0.214  -3.811  -1.132  0.00  0.00     0.018 C 
ENDBRANCH   1   8
TORSDOF 1
ENDMDL
