MODEL 1
REMARK minimizedAffinity -4.07635784
REMARK minimizedRMSD -1
REMARK  1 active torsions:
REMARK  status: ('A' for Active; 'I' for Inactive)
REMARK    1  A    between atoms: C1_2  and  C2_3 
ROOT
ATOM      1  C2  UNL d   1       0.190  -1.735  -0.358  0.00  0.00    -0.081 A 
ATOM      2  C3  UNL d   1       0.544  -1.727   0.996  0.00  0.00     0.006 A 
ATOM      3  C4  UNL d   1       0.369  -0.576   1.768  0.00  0.00     0.002 A 
ATOM      4  C5  UNL d   1      -0.171   0.583   1.200  0.00  0.00    -0.080 A 
ATOM      5  C6  UNL d   1      -0.393   1.817   2.024  0.00  0.00     0.076 C 
ATOM      6  C7  UNL d   1      -0.509   0.581  -0.158  0.00  0.00     0.002 A 
ATOM      7  C8  UNL d   1      -0.333  -0.570  -0.930  0.00  0.00     0.006 A 
ENDROOT
BRANCH   1   8
ATOM      8  C1  UNL d   1       0.318  -2.994  -1.177  0.00  0.00     0.054 C 
ATOM      9  C   UNL d   1      -0.674  -3.007  -2.331  0.00  0.00     0.018 C 
ENDBRANCH   1   8
TORSDOF 1
ENDMDL
