MODEL 1
REMARK minimizedAffinity 2.07631397
REMARK minimizedRMSD -1
REMARK  0 active torsions:
REMARK  status: ('A' for Active; 'I' for Inactive)
ROOT
ATOM      1  C   UNL d   1      -5.240  -2.001   5.999  0.00  0.00     0.077 C 
ATOM      2  C1  UNL d   1      -4.799  -1.027   4.948  0.00  0.00    -0.074 A 
ATOM      3  C2  UNL d   1      -5.035  -1.277   3.592  0.00  0.00    -0.005 A 
ATOM      4  C3  UNL d   1      -4.628  -0.357   2.626  0.00  0.00     0.006 A 
ATOM      5  C4  UNL d   1      -3.983   0.821   3.005  0.00  0.00    -0.005 A 
ATOM      6  C5  UNL d   1      -3.740   1.089   4.356  0.00  0.00    -0.074 A 
ATOM      7  C6  UNL d   1      -3.057   2.355   4.781  0.00  0.00     0.077 C 
ATOM      8  C7  UNL d   1      -4.158   0.163   5.321  0.00  0.00    -0.001 A 
ENDROOT
TORSDOF 0
ENDMDL
