MODEL 1
REMARK minimizedAffinity 12.7419844
REMARK minimizedRMSD -1
REMARK  0 active torsions:
REMARK  status: ('A' for Active; 'I' for Inactive)
ROOT
ATOM      1  C   UNL d   1      -4.434   1.092   5.999  0.00  0.00     0.077 C 
ATOM      2  C1  UNL d   1      -4.830   0.075   4.971  0.00  0.00    -0.074 A 
ATOM      3  C2  UNL d   1      -5.509  -1.091   5.337  0.00  0.00    -0.005 A 
ATOM      4  C3  UNL d   1      -5.880  -2.023   4.368  0.00  0.00     0.006 A 
ATOM      5  C4  UNL d   1      -5.575  -1.799   3.025  0.00  0.00    -0.005 A 
ATOM      6  C5  UNL d   1      -4.897  -0.638   2.639  0.00  0.00    -0.074 A 
ATOM      7  C6  UNL d   1      -4.570  -0.377   1.199  0.00  0.00     0.077 C 
ATOM      8  C7  UNL d   1      -4.534   0.297   3.618  0.00  0.00    -0.001 A 
ENDROOT
TORSDOF 0
ENDMDL
