MODEL 1
REMARK minimizedAffinity 6.90380239
REMARK minimizedRMSD -1
REMARK  0 active torsions:
REMARK  status: ('A' for Active; 'I' for Inactive)
ROOT
ATOM      1  C   UNL d   1      -3.079   1.269   4.575  0.00  0.00     0.077 C 
ATOM      2  C1  UNL d   1      -3.810   0.059   4.073  0.00  0.00    -0.074 A 
ATOM      3  C2  UNL d   1      -3.911  -0.202   2.703  0.00  0.00    -0.005 A 
ATOM      4  C3  UNL d   1      -4.586  -1.337   2.251  0.00  0.00     0.006 A 
ATOM      5  C4  UNL d   1      -5.165  -2.219   3.164  0.00  0.00    -0.005 A 
ATOM      6  C5  UNL d   1      -5.073  -1.975   4.538  0.00  0.00    -0.074 A 
ATOM      7  C6  UNL d   1      -5.681  -2.918   5.532  0.00  0.00     0.077 C 
ATOM      8  C7  UNL d   1      -4.387  -0.836   4.984  0.00  0.00    -0.001 A 
ENDROOT
TORSDOF 0
ENDMDL
