MODEL 1
REMARK minimizedAffinity 11.8024178
REMARK minimizedRMSD -1
REMARK  0 active torsions:
REMARK  status: ('A' for Active; 'I' for Inactive)
ROOT
ATOM      1  C   UNL d   1       0.027  -0.816   3.930  0.00  0.00     0.077 C 
ATOM      2  C1  UNL d   1      -0.260  -1.756   2.797  0.00  0.00    -0.074 A 
ATOM      3  C2  UNL d   1      -1.526  -1.800   2.204  0.00  0.00    -0.005 A 
ATOM      4  C3  UNL d   1      -1.776  -2.672   1.145  0.00  0.00     0.006 A 
ATOM      5  C4  UNL d   1      -0.765  -3.507   0.668  0.00  0.00    -0.005 A 
ATOM      6  C5  UNL d   1       0.507  -3.476   1.248  0.00  0.00    -0.074 A 
ATOM      7  C6  UNL d   1       1.608  -4.360   0.742  0.00  0.00     0.077 C 
ATOM      8  C7  UNL d   1       0.753  -2.592   2.308  0.00  0.00    -0.001 A 
ENDROOT
TORSDOF 0
ENDMDL
