MODEL 1
REMARK minimizedAffinity -1.52198088
REMARK minimizedRMSD -1
REMARK  0 active torsions:
REMARK  status: ('A' for Active; 'I' for Inactive)
ROOT
ATOM      1  C   UNL d   1       5.549  -5.999  -0.003  0.00  0.00     0.077 C 
ATOM      2  C1  UNL d   1       4.547  -4.944  -0.367  0.00  0.00    -0.074 A 
ATOM      3  C2  UNL d   1       4.799  -4.041  -1.405  0.00  0.00    -0.005 A 
ATOM      4  C3  UNL d   1       3.853  -3.072  -1.738  0.00  0.00     0.006 A 
ATOM      5  C4  UNL d   1       2.648  -2.995  -1.038  0.00  0.00    -0.005 A 
ATOM      6  C5  UNL d   1       2.379  -3.890   0.002  0.00  0.00    -0.074 A 
ATOM      7  C6  UNL d   1       1.085  -3.829   0.758  0.00  0.00     0.077 C 
ATOM      8  C7  UNL d   1       3.331  -4.866   0.326  0.00  0.00    -0.001 A 
ENDROOT
TORSDOF 0
ENDMDL
