MODEL 1
REMARK minimizedAffinity -2.79891491
REMARK minimizedRMSD -1
REMARK  0 active torsions:
REMARK  status: ('A' for Active; 'I' for Inactive)
ROOT
ATOM      1  C   UNL d   1       1.222  -3.419   0.878  0.00  0.00     0.077 C 
ATOM      2  C1  UNL d   1       2.468  -3.631   0.070  0.00  0.00    -0.074 A 
ATOM      3  C2  UNL d   1       3.399  -4.611   0.429  0.00  0.00    -0.005 A 
ATOM      4  C3  UNL d   1       4.548  -4.803  -0.338  0.00  0.00     0.006 A 
ATOM      5  C4  UNL d   1       4.779  -4.018  -1.468  0.00  0.00    -0.005 A 
ATOM      6  C5  UNL d   1       3.859  -3.033  -1.842  0.00  0.00    -0.074 A 
ATOM      7  C6  UNL d   1       4.086  -2.187  -3.060  0.00  0.00     0.077 C 
ATOM      8  C7  UNL d   1       2.702  -2.851  -1.071  0.00  0.00    -0.001 A 
ENDROOT
TORSDOF 0
ENDMDL
