MODEL 1
REMARK minimizedAffinity -3.69862175
REMARK minimizedRMSD -1
REMARK  0 active torsions:
REMARK  status: ('A' for Active; 'I' for Inactive)
ROOT
ATOM      1  C   UNL d   1       1.487  -2.839   0.648  0.00  0.00     0.077 C 
ATOM      2  C1  UNL d   1       2.677  -3.264  -0.161  0.00  0.00    -0.074 A 
ATOM      3  C2  UNL d   1       2.956  -2.668  -1.396  0.00  0.00    -0.005 A 
ATOM      4  C3  UNL d   1       4.071  -3.067  -2.133  0.00  0.00     0.006 A 
ATOM      5  C4  UNL d   1       4.917  -4.063  -1.643  0.00  0.00    -0.005 A 
ATOM      6  C5  UNL d   1       4.654  -4.669  -0.411  0.00  0.00    -0.074 A 
ATOM      7  C6  UNL d   1       5.559  -5.734   0.134  0.00  0.00     0.077 C 
ATOM      8  C7  UNL d   1       3.536  -4.258   0.327  0.00  0.00    -0.001 A 
ENDROOT
TORSDOF 0
ENDMDL
