MODEL 1
REMARK minimizedAffinity -2.34687519
REMARK minimizedRMSD -1
REMARK  0 active torsions:
REMARK  status: ('A' for Active; 'I' for Inactive)
ROOT
ATOM      1  C   UNL d   1       4.789  -5.370  -1.900  0.00  0.00     0.077 C 
ATOM      2  C1  UNL d   1       3.840  -4.328  -1.389  0.00  0.00    -0.074 A 
ATOM      3  C2  UNL d   1       3.991  -2.983  -1.743  0.00  0.00    -0.005 A 
ATOM      4  C3  UNL d   1       3.095  -2.026  -1.267  0.00  0.00     0.006 A 
ATOM      5  C4  UNL d   1       2.041  -2.403  -0.435  0.00  0.00    -0.005 A 
ATOM      6  C5  UNL d   1       1.873  -3.743  -0.071  0.00  0.00    -0.074 A 
ATOM      7  C6  UNL d   1       0.740  -4.166   0.815  0.00  0.00     0.077 C 
ATOM      8  C7  UNL d   1       2.774  -4.700  -0.559  0.00  0.00    -0.001 A 
ENDROOT
TORSDOF 0
ENDMDL
