MODEL 1
REMARK minimizedAffinity -2.24777722
REMARK minimizedRMSD -1
REMARK  0 active torsions:
REMARK  status: ('A' for Active; 'I' for Inactive)
ROOT
ATOM      1  C   UNL d   1       5.991  -5.392  -0.044  0.00  0.00     0.077 C 
ATOM      2  C1  UNL d   1       5.076  -4.205  -0.096  0.00  0.00    -0.074 A 
ATOM      3  C2  UNL d   1       5.542  -2.923   0.211  0.00  0.00    -0.005 A 
ATOM      4  C3  UNL d   1       4.681  -1.827   0.149  0.00  0.00     0.006 A 
ATOM      5  C4  UNL d   1       3.347  -2.002  -0.220  0.00  0.00    -0.005 A 
ATOM      6  C5  UNL d   1       2.863  -3.277  -0.532  0.00  0.00    -0.074 A 
ATOM      7  C6  UNL d   1       1.434  -3.481  -0.940  0.00  0.00     0.077 C 
ATOM      8  C7  UNL d   1       3.736  -4.372  -0.474  0.00  0.00    -0.001 A 
ENDROOT
TORSDOF 0
ENDMDL
