MODEL 1
REMARK minimizedAffinity -2.45249796
REMARK minimizedRMSD -1
REMARK  0 active torsions:
REMARK  status: ('A' for Active; 'I' for Inactive)
ROOT
ATOM      1  C   UNL d   1       1.205  -2.672   0.839  0.00  0.00     0.077 C 
ATOM      2  C1  UNL d   1       2.351  -2.950  -0.088  0.00  0.00    -0.074 A 
ATOM      3  C2  UNL d   1       2.554  -2.174  -1.233  0.00  0.00    -0.005 A 
ATOM      4  C3  UNL d   1       3.630  -2.438  -2.081  0.00  0.00     0.006 A 
ATOM      5  C4  UNL d   1       4.513  -3.480  -1.791  0.00  0.00    -0.005 A 
ATOM      6  C5  UNL d   1       4.326  -4.266  -0.650  0.00  0.00    -0.074 A 
ATOM      7  C6  UNL d   1       5.271  -5.383  -0.319  0.00  0.00     0.077 C 
ATOM      8  C7  UNL d   1       3.247  -3.989   0.200  0.00  0.00    -0.001 A 
ENDROOT
TORSDOF 0
ENDMDL
