MODEL 1
REMARK minimizedAffinity 8.7697773
REMARK minimizedRMSD -1
REMARK  0 active torsions:
REMARK  status: ('A' for Active; 'I' for Inactive)
ROOT
ATOM      1  C   UNL d   1      -3.019  -0.559   1.618  0.00  0.00     0.077 C 
ATOM      2  C1  UNL d   1      -1.833  -1.457   1.429  0.00  0.00    -0.074 A 
ATOM      3  C2  UNL d   1      -1.992  -2.775   0.990  0.00  0.00    -0.005 A 
ATOM      4  C3  UNL d   1      -0.879  -3.596   0.809  0.00  0.00     0.006 A 
ATOM      5  C4  UNL d   1       0.403  -3.108   1.065  0.00  0.00    -0.005 A 
ATOM      6  C5  UNL d   1       0.582  -1.792   1.504  0.00  0.00    -0.074 A 
ATOM      7  C6  UNL d   1       1.953  -1.248   1.775  0.00  0.00     0.077 C 
ATOM      8  C7  UNL d   1      -0.541  -0.971   1.676  0.00  0.00    -0.001 A 
ENDROOT
TORSDOF 0
ENDMDL
