MODEL 1
REMARK minimizedAffinity -4.64569378
REMARK minimizedRMSD -1
REMARK  0 active torsions:
REMARK  status: ('A' for Active; 'I' for Inactive)
ROOT
ATOM      1  C   UNL d   1       5.992  -6.000   0.692  0.00  0.00     0.077 C 
ATOM      2  C1  UNL d   1       4.963  -5.150   0.008  0.00  0.00    -0.074 A 
ATOM      3  C2  UNL d   1       5.253  -4.498  -1.195  0.00  0.00    -0.005 A 
ATOM      4  C3  UNL d   1       4.283  -3.718  -1.824  0.00  0.00     0.006 A 
ATOM      5  C4  UNL d   1       3.015  -3.582  -1.258  0.00  0.00    -0.005 A 
ATOM      6  C5  UNL d   1       2.706  -4.227  -0.056  0.00  0.00    -0.074 A 
ATOM      7  C6  UNL d   1       1.345  -4.100   0.562  0.00  0.00     0.077 C 
ATOM      8  C7  UNL d   1       3.685  -5.014   0.567  0.00  0.00    -0.001 A 
ENDROOT
TORSDOF 0
ENDMDL
