MODEL 1
REMARK minimizedAffinity -4.11958218
REMARK minimizedRMSD -1
REMARK  0 active torsions:
REMARK  status: ('A' for Active; 'I' for Inactive)
ROOT
ATOM      1  C   UNL d   1       5.207  -4.826  -0.222  0.00  0.00     0.077 C 
ATOM      2  C1  UNL d   1       4.054  -3.928  -0.561  0.00  0.00    -0.074 A 
ATOM      3  C2  UNL d   1       4.083  -3.122  -1.704  0.00  0.00    -0.005 A 
ATOM      4  C3  UNL d   1       3.000  -2.300  -2.012  0.00  0.00     0.006 A 
ATOM      5  C4  UNL d   1       1.878  -2.274  -1.182  0.00  0.00    -0.005 A 
ATOM      6  C5  UNL d   1       1.831  -3.074  -0.035  0.00  0.00    -0.074 A 
ATOM      7  C6  UNL d   1       0.630  -3.066   0.863  0.00  0.00     0.077 C 
ATOM      8  C7  UNL d   1       2.921  -3.903   0.264  0.00  0.00    -0.001 A 
ENDROOT
TORSDOF 0
ENDMDL
