MODEL 1
REMARK minimizedAffinity 8.67894745
REMARK minimizedRMSD -1
REMARK  0 active torsions:
REMARK  status: ('A' for Active; 'I' for Inactive)
ROOT
ATOM      1  C   UNL d   1       0.113   4.654   1.020  0.00  0.00     0.077 C 
ATOM      2  C1  UNL d   1      -0.779   5.131  -0.088  0.00  0.00    -0.074 A 
ATOM      3  C2  UNL d   1      -0.244   5.563  -1.306  0.00  0.00    -0.005 A 
ATOM      4  C3  UNL d   1      -1.086   5.995  -2.330  0.00  0.00     0.006 A 
ATOM      5  C4  UNL d   1      -2.470   5.999  -2.147  0.00  0.00    -0.005 A 
ATOM      6  C5  UNL d   1      -3.023   5.570  -0.937  0.00  0.00    -0.074 A 
ATOM      7  C6  UNL d   1      -4.508   5.559  -0.727  0.00  0.00     0.077 C 
ATOM      8  C7  UNL d   1      -2.170   5.131   0.085  0.00  0.00    -0.001 A 
ENDROOT
TORSDOF 0
ENDMDL
