MODEL 1
REMARK minimizedAffinity 3.69223309
REMARK minimizedRMSD -1
REMARK  0 active torsions:
REMARK  status: ('A' for Active; 'I' for Inactive)
ROOT
ATOM      1  C   UNL d   1       5.878  -5.949  -2.388  0.00  0.00     0.077 C 
ATOM      2  C1  UNL d   1       5.927  -5.183  -1.099  0.00  0.00    -0.074 A 
ATOM      3  C2  UNL d   1       5.942  -3.785  -1.095  0.00  0.00    -0.005 A 
ATOM      4  C3  UNL d   1       5.978  -3.086   0.112  0.00  0.00     0.006 A 
ATOM      5  C4  UNL d   1       6.000  -3.777   1.324  0.00  0.00    -0.005 A 
ATOM      6  C5  UNL d   1       5.985  -5.175   1.339  0.00  0.00    -0.074 A 
ATOM      7  C6  UNL d   1       5.998  -5.933   2.633  0.00  0.00     0.077 C 
ATOM      8  C7  UNL d   1       5.941  -5.870   0.123  0.00  0.00    -0.001 A 
ENDROOT
TORSDOF 0
ENDMDL
