MODEL 1
REMARK minimizedAffinity 8.10947132
REMARK minimizedRMSD -1
REMARK  0 active torsions:
REMARK  status: ('A' for Active; 'I' for Inactive)
ROOT
ATOM      1  C   UNL d   1      -0.118   5.146  -4.826  0.00  0.00     0.077 C 
ATOM      2  C1  UNL d   1       0.397   4.444  -3.606  0.00  0.00    -0.074 A 
ATOM      3  C2  UNL d   1       1.376   3.450  -3.708  0.00  0.00    -0.005 A 
ATOM      4  C3  UNL d   1       1.852   2.812  -2.563  0.00  0.00     0.006 A 
ATOM      5  C4  UNL d   1       1.356   3.160  -1.306  0.00  0.00    -0.005 A 
ATOM      6  C5  UNL d   1       0.378   4.152  -1.184  0.00  0.00    -0.074 A 
ATOM      7  C6  UNL d   1      -0.159   4.546   0.160  0.00  0.00     0.077 C 
ATOM      8  C7  UNL d   1      -0.091   4.794  -2.339  0.00  0.00    -0.001 A 
ENDROOT
TORSDOF 0
ENDMDL
