MODEL 1
REMARK minimizedAffinity -1.61322629
REMARK minimizedRMSD -1
REMARK  0 active torsions:
REMARK  status: ('A' for Active; 'I' for Inactive)
ROOT
ATOM      1  C   UNL d   1       0.229  -3.325   0.514  0.00  0.00     0.077 C 
ATOM      2  C1  UNL d   1       1.717  -3.336   0.324  0.00  0.00    -0.074 A 
ATOM      3  C2  UNL d   1       2.457  -2.150   0.372  0.00  0.00    -0.005 A 
ATOM      4  C3  UNL d   1       3.841  -2.177   0.204  0.00  0.00     0.006 A 
ATOM      5  C4  UNL d   1       4.499  -3.389  -0.014  0.00  0.00    -0.005 A 
ATOM      6  C5  UNL d   1       3.776  -4.585  -0.064  0.00  0.00    -0.074 A 
ATOM      7  C6  UNL d   1       4.468  -5.896  -0.287  0.00  0.00     0.077 C 
ATOM      8  C7  UNL d   1       2.386  -4.550   0.113  0.00  0.00    -0.001 A 
ENDROOT
TORSDOF 0
ENDMDL
