MODEL 1
REMARK minimizedAffinity 2.23098445
REMARK minimizedRMSD -1
REMARK  0 active torsions:
REMARK  status: ('A' for Active; 'I' for Inactive)
ROOT
ATOM      1  C   UNL d   1       4.708   3.031  -1.132  0.00  0.00     0.077 C 
ATOM      2  C1  UNL d   1       4.083   4.054  -0.232  0.00  0.00    -0.074 A 
ATOM      3  C2  UNL d   1       4.858   5.049   0.373  0.00  0.00    -0.005 A 
ATOM      4  C3  UNL d   1       4.261   5.999   1.201  0.00  0.00     0.006 A 
ATOM      5  C4  UNL d   1       2.885   5.966   1.431  0.00  0.00    -0.005 A 
ATOM      6  C5  UNL d   1       2.094   4.979   0.834  0.00  0.00    -0.074 A 
ATOM      7  C6  UNL d   1       0.613   4.935   1.064  0.00  0.00     0.077 C 
ATOM      8  C7  UNL d   1       2.700   4.031  -0.002  0.00  0.00    -0.001 A 
ENDROOT
TORSDOF 0
ENDMDL
