MODEL 1
REMARK minimizedAffinity -0.850290895
REMARK minimizedRMSD -1
REMARK  0 active torsions:
REMARK  status: ('A' for Active; 'I' for Inactive)
ROOT
ATOM      1  C   UNL d   1       0.044   3.959   0.066  0.00  0.00    -0.002 A 
ATOM      2  C1  UNL d   1       0.690   3.262  -0.946  0.00  0.00     0.010 A 
ATOM      3  C2  UNL d   1       0.742   1.867  -0.925  0.00  0.00     0.041 A 
ATOM      4  C3  UNL d   1       0.127   1.177   0.139  0.00  0.00    -0.075 A 
ATOM      5  S   UNL d   1       0.063  -0.530   0.372  0.00  0.00     0.015 SA
ATOM      6  C4  UNL d   1      -0.823  -0.374   1.819  0.00  0.00     0.022 A 
ATOM      7  C5  UNL d   1      -1.073   0.942   2.132  0.00  0.00     0.026 A 
ATOM      8  C6  UNL d   1      -0.530   1.857   1.168  0.00  0.00    -0.082 A 
ATOM      9  C7  UNL d   1      -0.565   3.272   1.119  0.00  0.00     0.045 A 
ENDROOT
TORSDOF 0
ENDMDL
