MODEL 1
REMARK minimizedAffinity -2.8746829
REMARK minimizedRMSD -1
REMARK  0 active torsions:
REMARK  status: ('A' for Active; 'I' for Inactive)
ROOT
ATOM      1  C   UNL d   1       0.616   0.256   0.540  0.00  0.00    -0.002 A 
ATOM      2  C1  UNL d   1      -0.675  -0.205   0.756  0.00  0.00     0.010 A 
ATOM      3  C2  UNL d   1      -1.174  -1.287   0.027  0.00  0.00     0.041 A 
ATOM      4  C3  UNL d   1      -0.346  -1.904  -0.931  0.00  0.00    -0.075 A 
ATOM      5  S   UNL d   1      -0.743  -3.243  -1.940  0.00  0.00     0.015 SA
ATOM      6  C4  UNL d   1       0.791  -3.236  -2.681  0.00  0.00     0.022 A 
ATOM      7  C5  UNL d   1       1.600  -2.242  -2.183  0.00  0.00     0.026 A 
ATOM      8  C6  UNL d   1       0.958  -1.458  -1.165  0.00  0.00    -0.082 A 
ATOM      9  C7  UNL d   1       1.435  -0.359  -0.411  0.00  0.00     0.045 A 
ENDROOT
TORSDOF 0
ENDMDL
