MODEL 1
REMARK minimizedAffinity -2.5088284
REMARK minimizedRMSD -1
REMARK  0 active torsions:
REMARK  status: ('A' for Active; 'I' for Inactive)
ROOT
ATOM      1  C   UNL d   1      -0.307   0.181   1.406  0.00  0.00    -0.002 A 
ATOM      2  C1  UNL d   1      -1.545  -0.378   1.125  0.00  0.00     0.010 A 
ATOM      3  C2  UNL d   1      -1.689  -1.299   0.085  0.00  0.00     0.041 A 
ATOM      4  C3  UNL d   1      -0.556  -1.653  -0.673  0.00  0.00    -0.075 A 
ATOM      5  S   UNL d   1      -0.493  -2.760  -1.993  0.00  0.00     0.015 SA
ATOM      6  C4  UNL d   1       1.179  -2.517  -2.214  0.00  0.00     0.022 A 
ATOM      7  C5  UNL d   1       1.693  -1.617  -1.312  0.00  0.00     0.026 A 
ATOM      8  C6  UNL d   1       0.702  -1.104  -0.408  0.00  0.00    -0.082 A 
ATOM      9  C7  UNL d   1       0.815  -0.172   0.652  0.00  0.00     0.045 A 
ENDROOT
TORSDOF 0
ENDMDL
