MODEL 1
REMARK minimizedAffinity -2.27467728
REMARK minimizedRMSD -1
REMARK  0 active torsions:
REMARK  status: ('A' for Active; 'I' for Inactive)
ROOT
ATOM      1  C   UNL d   1      -0.442   3.554   0.881  0.00  0.00    -0.002 A 
ATOM      2  C1  UNL d   1       0.166   3.349  -0.350  0.00  0.00     0.010 A 
ATOM      3  C2  UNL d   1       0.423   2.055  -0.808  0.00  0.00     0.041 A 
ATOM      4  C3  UNL d   1       0.055   0.960  -0.002  0.00  0.00    -0.075 A 
ATOM      5  S   UNL d   1       0.271  -0.713  -0.358  0.00  0.00     0.015 SA
ATOM      6  C4  UNL d   1      -0.439  -1.194   1.115  0.00  0.00     0.022 A 
ATOM      7  C5  UNL d   1      -0.837  -0.118   1.872  0.00  0.00     0.026 A 
ATOM      8  C6  UNL d   1      -0.559   1.142   1.241  0.00  0.00    -0.082 A 
ATOM      9  C7  UNL d   1      -0.806   2.465   1.678  0.00  0.00     0.045 A 
ENDROOT
TORSDOF 0
ENDMDL
