MODEL 1
REMARK minimizedAffinity -2.60424209
REMARK minimizedRMSD -1
REMARK  0 active torsions:
REMARK  status: ('A' for Active; 'I' for Inactive)
ROOT
ATOM      1  C   UNL d   1      -0.128   4.115   0.112  0.00  0.00    -0.002 A 
ATOM      2  C1  UNL d   1       0.416   3.540  -1.029  0.00  0.00     0.010 A 
ATOM      3  C2  UNL d   1       0.460   2.152  -1.173  0.00  0.00     0.041 A 
ATOM      4  C3  UNL d   1      -0.058   1.343  -0.142  0.00  0.00    -0.075 A 
ATOM      5  S   UNL d   1      -0.112  -0.379  -0.101  0.00  0.00     0.015 SA
ATOM      6  C4  UNL d   1      -0.858  -0.394   1.431  0.00  0.00     0.022 A 
ATOM      7  C5  UNL d   1      -1.068   0.876   1.914  0.00  0.00     0.026 A 
ATOM      8  C6  UNL d   1      -0.611   1.898   1.015  0.00  0.00    -0.082 A 
ATOM      9  C7  UNL d   1      -0.640   3.309   1.132  0.00  0.00     0.045 A 
ENDROOT
TORSDOF 0
ENDMDL
