MODEL 1
REMARK minimizedAffinity -1.5388577
REMARK minimizedRMSD -1
REMARK  0 active torsions:
REMARK  status: ('A' for Active; 'I' for Inactive)
ROOT
ATOM      1  C   UNL d   1      -0.249   0.742   1.254  0.00  0.00    -0.002 A 
ATOM      2  C1  UNL d   1      -1.477   0.100   1.310  0.00  0.00     0.010 A 
ATOM      3  C2  UNL d   1      -1.731  -1.019   0.514  0.00  0.00     0.041 A 
ATOM      4  C3  UNL d   1      -0.718  -1.486  -0.347  0.00  0.00    -0.075 A 
ATOM      5  S   UNL d   1      -0.802  -2.838  -1.413  0.00  0.00     0.015 SA
ATOM      6  C4  UNL d   1       0.792  -2.596  -1.967  0.00  0.00     0.022 A 
ATOM      7  C5  UNL d   1       1.388  -1.514  -1.363  0.00  0.00     0.026 A 
ATOM      8  C6  UNL d   1       0.528  -0.857  -0.419  0.00  0.00    -0.082 A 
ATOM      9  C7  UNL d   1       0.754   0.275   0.400  0.00  0.00     0.045 A 
ENDROOT
TORSDOF 0
ENDMDL
