MODEL 1
REMARK minimizedAffinity -4.07566261
REMARK minimizedRMSD -1
REMARK  0 active torsions:
REMARK  status: ('A' for Active; 'I' for Inactive)
ROOT
ATOM      1  C   UNL d   1      -0.508   3.830   0.345  0.00  0.00    -0.002 A 
ATOM      2  C1  UNL d   1       0.213   3.384  -0.754  0.00  0.00     0.010 A 
ATOM      3  C2  UNL d   1       0.490   2.025  -0.917  0.00  0.00     0.041 A 
ATOM      4  C3  UNL d   1       0.024   1.113   0.051  0.00  0.00    -0.075 A 
ATOM      5  S   UNL d   1       0.243  -0.597   0.058  0.00  0.00     0.015 SA
ATOM      6  C4  UNL d   1      -0.616  -0.775   1.519  0.00  0.00     0.022 A 
ATOM      7  C5  UNL d   1      -1.065   0.430   2.004  0.00  0.00     0.026 A 
ATOM      8  C6  UNL d   1      -0.704   1.539   1.165  0.00  0.00    -0.082 A 
ATOM      9  C7  UNL d   1      -0.968   2.923   1.303  0.00  0.00     0.045 A 
ENDROOT
TORSDOF 0
ENDMDL
