MODEL 1
REMARK minimizedAffinity -3.57511044
REMARK minimizedRMSD -1
REMARK  0 active torsions:
REMARK  status: ('A' for Active; 'I' for Inactive)
ROOT
ATOM      1  C   UNL d   1      -0.099   4.038   0.167  0.00  0.00    -0.002 A 
ATOM      2  C1  UNL d   1      -0.842   3.781   1.311  0.00  0.00     0.010 A 
ATOM      3  C2  UNL d   1      -1.057   2.469   1.738  0.00  0.00     0.041 A 
ATOM      4  C3  UNL d   1      -0.505   1.410   0.991  0.00  0.00    -0.075 A 
ATOM      5  S   UNL d   1      -0.636  -0.277   1.324  0.00  0.00     0.015 SA
ATOM      6  C4  UNL d   1       0.292  -0.696  -0.042  0.00  0.00     0.022 A 
ATOM      7  C5  UNL d   1       0.700   0.412  -0.748  0.00  0.00     0.026 A 
ATOM      8  C6  UNL d   1       0.248   1.643  -0.163  0.00  0.00    -0.082 A 
ATOM      9  C7  UNL d   1       0.447   2.984  -0.571  0.00  0.00     0.045 A 
ENDROOT
TORSDOF 0
ENDMDL
