MODEL 1
REMARK minimizedAffinity -2.61540866
REMARK minimizedRMSD -1
REMARK  0 active torsions:
REMARK  status: ('A' for Active; 'I' for Inactive)
ROOT
ATOM      1  C   UNL d   1      -0.346   3.902   0.703  0.00  0.00    -0.002 A 
ATOM      2  C1  UNL d   1       0.349   3.661  -0.474  0.00  0.00     0.010 A 
ATOM      3  C2  UNL d   1       0.736   2.364  -0.818  0.00  0.00     0.041 A 
ATOM      4  C3  UNL d   1       0.406   1.303   0.048  0.00  0.00    -0.075 A 
ATOM      5  S   UNL d   1       0.775  -0.367  -0.168  0.00  0.00     0.015 SA
ATOM      6  C4  UNL d   1       0.017  -0.801   1.295  0.00  0.00     0.022 A 
ATOM      7  C5  UNL d   1      -0.510   0.289   1.946  0.00  0.00     0.026 A 
ATOM      8  C6  UNL d   1      -0.295   1.520   1.238  0.00  0.00    -0.082 A 
ATOM      9  C7  UNL d   1      -0.672   2.846   1.559  0.00  0.00     0.045 A 
ENDROOT
TORSDOF 0
ENDMDL
