MODEL 1
REMARK minimizedAffinity -2.79986
REMARK minimizedRMSD -1
REMARK  0 active torsions:
REMARK  status: ('A' for Active; 'I' for Inactive)
ROOT
ATOM      1  C   UNL d   1      -0.161   4.256   0.506  0.00  0.00    -0.002 A 
ATOM      2  C1  UNL d   1       0.600   3.741  -0.534  0.00  0.00     0.010 A 
ATOM      3  C2  UNL d   1       0.709   2.361  -0.718  0.00  0.00     0.041 A 
ATOM      4  C3  UNL d   1       0.031   1.500   0.167  0.00  0.00    -0.075 A 
ATOM      5  S   UNL d   1       0.019  -0.224   0.134  0.00  0.00     0.015 SA
ATOM      6  C4  UNL d   1      -0.998  -0.317   1.498  0.00  0.00     0.022 A 
ATOM      7  C5  UNL d   1      -1.329   0.927   1.980  0.00  0.00     0.026 A 
ATOM      8  C6  UNL d   1      -0.742   1.995   1.221  0.00  0.00    -0.082 A 
ATOM      9  C7  UNL d   1      -0.832   3.398   1.382  0.00  0.00     0.045 A 
ENDROOT
TORSDOF 0
ENDMDL
