MODEL 1
REMARK minimizedAffinity 7.35216284
REMARK minimizedRMSD -1
REMARK  0 active torsions:
REMARK  status: ('A' for Active; 'I' for Inactive)
ROOT
ATOM      1  C1  DEN d   1       5.750  -5.517  -4.570  0.00  0.00     0.130 A 
ATOM      2  C2  DEN d   1       5.322  -5.507  -5.966  0.00  0.00    -0.031 A 
ATOM      3  C3  DEN d   1       3.854  -5.658  -5.995  0.00  0.00     0.027 A 
ATOM      4  C4  DEN d   1       2.208  -5.899  -4.023  0.00  0.00     0.027 A 
ATOM      5  C5  DEN d   1       2.103  -5.973  -2.652  0.00  0.00    -0.003 A 
ATOM      6  C6  DEN d   1       3.200  -5.936  -1.832  0.00  0.00     0.001 A 
ATOM      7  C7  DEN d   1       4.447  -5.775  -2.374  0.00  0.00     0.017 A 
ATOM      8  C8  DEN d   1       4.562  -5.706  -3.757  0.00  0.00    -0.094 A 
ATOM      9  C9  DEN d   1       3.440  -5.734  -4.568  0.00  0.00    -0.072 A 
ENDROOT
TORSDOF 0
ENDMDL
