MODEL 1
REMARK minimizedAffinity 0.466716319
REMARK minimizedRMSD -1
REMARK  0 active torsions:
REMARK  status: ('A' for Active; 'I' for Inactive)
ROOT
ATOM      1  C1  DEN d   1       1.974  -5.957  -4.312  0.00  0.00     0.130 A 
ATOM      2  C2  DEN d   1       2.224  -5.990  -5.751  0.00  0.00    -0.031 A 
ATOM      3  C3  DEN d   1       3.685  -5.998  -5.960  0.00  0.00     0.027 A 
ATOM      4  C4  DEN d   1       5.576  -5.967  -4.206  0.00  0.00     0.027 A 
ATOM      5  C5  DEN d   1       5.856  -5.926  -2.858  0.00  0.00    -0.003 A 
ATOM      6  C6  DEN d   1       4.871  -5.859  -1.909  0.00  0.00     0.001 A 
ATOM      7  C7  DEN d   1       3.556  -5.877  -2.294  0.00  0.00     0.017 A 
ATOM      8  C8  DEN d   1       3.266  -5.910  -3.651  0.00  0.00    -0.094 A 
ATOM      9  C9  DEN d   1       4.276  -5.990  -4.595  0.00  0.00    -0.072 A 
ENDROOT
TORSDOF 0
ENDMDL
