MODEL 1
REMARK minimizedAffinity 11.6624146
REMARK minimizedRMSD -1
REMARK  0 active torsions:
REMARK  status: ('A' for Active; 'I' for Inactive)
ROOT
ATOM      1  C1  DEN d   1       2.405   0.767   2.713  0.00  0.00     0.130 A 
ATOM      2  C2  DEN d   1       1.185   1.216   3.379  0.00  0.00    -0.031 A 
ATOM      3  C3  DEN d   1       0.536   2.221   2.513  0.00  0.00     0.027 A 
ATOM      4  C4  DEN d   1       1.296   3.118   0.217  0.00  0.00     0.027 A 
ATOM      5  C5  DEN d   1       2.275   3.044  -0.749  0.00  0.00    -0.003 A 
ATOM      6  C6  DEN d   1       3.374   2.238  -0.614  0.00  0.00     0.001 A 
ATOM      7  C7  DEN d   1       3.498   1.439   0.492  0.00  0.00     0.017 A 
ATOM      8  C8  DEN d   1       2.519   1.513   1.473  0.00  0.00    -0.094 A 
ATOM      9  C9  DEN d   1       1.409   2.325   1.313  0.00  0.00    -0.072 A 
ENDROOT
TORSDOF 0
ENDMDL
