MODEL 1
REMARK minimizedAffinity 6.854074
REMARK minimizedRMSD -1
REMARK  0 active torsions:
REMARK  status: ('A' for Active; 'I' for Inactive)
ROOT
ATOM      1  C1  DEN d   1       2.401   0.143   4.139  0.00  0.00     0.130 A 
ATOM      2  C2  DEN d   1       1.901   1.494   4.379  0.00  0.00    -0.031 A 
ATOM      3  C3  DEN d   1       2.217   2.314   3.192  0.00  0.00     0.027 A 
ATOM      4  C4  DEN d   1       3.421   1.626   1.017  0.00  0.00     0.027 A 
ATOM      5  C5  DEN d   1       4.039   0.587   0.357  0.00  0.00    -0.003 A 
ATOM      6  C6  DEN d   1       4.183  -0.653   0.919  0.00  0.00     0.001 A 
ATOM      7  C7  DEN d   1       3.662  -0.899   2.163  0.00  0.00     0.017 A 
ATOM      8  C8  DEN d   1       3.045   0.146   2.838  0.00  0.00    -0.094 A 
ATOM      9  C9  DEN d   1       2.898   1.389   2.247  0.00  0.00    -0.072 A 
ENDROOT
TORSDOF 0
ENDMDL
