MODEL 1
REMARK minimizedAffinity -3.13543081
REMARK minimizedRMSD -1
REMARK  0 active torsions:
REMARK  status: ('A' for Active; 'I' for Inactive)
ROOT
ATOM      1  C1  DEN d   1       1.603  -5.933  -1.413  0.00  0.00     0.130 A 
ATOM      2  C2  DEN d   1       1.613  -5.964   0.047  0.00  0.00    -0.031 A 
ATOM      3  C3  DEN d   1       3.020  -5.998   0.494  0.00  0.00     0.027 A 
ATOM      4  C4  DEN d   1       5.173  -6.000  -0.925  0.00  0.00     0.027 A 
ATOM      5  C5  DEN d   1       5.672  -5.992  -2.209  0.00  0.00    -0.003 A 
ATOM      6  C6  DEN d   1       4.855  -5.998  -3.309  0.00  0.00     0.001 A 
ATOM      7  C7  DEN d   1       3.496  -5.967  -3.145  0.00  0.00     0.017 A 
ATOM      8  C8  DEN d   1       2.986  -5.982  -1.854  0.00  0.00    -0.094 A 
ATOM      9  C9  DEN d   1       3.828  -5.964  -0.755  0.00  0.00    -0.072 A 
ENDROOT
TORSDOF 0
ENDMDL
