MODEL 1
REMARK minimizedAffinity 7.34314728
REMARK minimizedRMSD -1
REMARK  0 active torsions:
REMARK  status: ('A' for Active; 'I' for Inactive)
ROOT
ATOM      1  C1  DEN d   1       1.266  -0.261   4.541  0.00  0.00     0.130 A 
ATOM      2  C2  DEN d   1       1.423  -1.711   4.613  0.00  0.00    -0.031 A 
ATOM      3  C3  DEN d   1       2.201  -2.145   3.435  0.00  0.00     0.027 A 
ATOM      4  C4  DEN d   1       3.177  -0.720   1.520  0.00  0.00     0.027 A 
ATOM      5  C5  DEN d   1       3.293   0.558   1.019  0.00  0.00    -0.003 A 
ATOM      6  C6  DEN d   1       2.717   1.639   1.633  0.00  0.00     0.001 A 
ATOM      7  C7  DEN d   1       2.037   1.468   2.809  0.00  0.00     0.017 A 
ATOM      8  C8  DEN d   1       1.909   0.182   3.317  0.00  0.00    -0.094 A 
ATOM      9  C9  DEN d   1       2.509  -0.896   2.688  0.00  0.00    -0.072 A 
ENDROOT
TORSDOF 0
ENDMDL
