MODEL 1
REMARK minimizedAffinity 3.4901104
REMARK minimizedRMSD -1
REMARK  0 active torsions:
REMARK  status: ('A' for Active; 'I' for Inactive)
ROOT
ATOM      1  C1  DEN d   1       2.938  -5.998  -0.006  0.00  0.00     0.130 A 
ATOM      2  C2  DEN d   1       1.528  -5.949  -0.381  0.00  0.00    -0.031 A 
ATOM      3  C3  DEN d   1       1.448  -5.922  -1.856  0.00  0.00     0.027 A 
ATOM      4  C4  DEN d   1       3.362  -5.954  -3.585  0.00  0.00     0.027 A 
ATOM      5  C5  DEN d   1       4.730  -5.981  -3.745  0.00  0.00    -0.003 A 
ATOM      6  C6  DEN d   1       5.590  -5.981  -2.679  0.00  0.00     0.001 A 
ATOM      7  C7  DEN d   1       5.090  -6.000  -1.404  0.00  0.00     0.017 A 
ATOM      8  C8  DEN d   1       3.712  -5.965  -1.234  0.00  0.00    -0.094 A 
ATOM      9  C9  DEN d   1       2.859  -5.977  -2.324  0.00  0.00    -0.072 A 
ENDROOT
TORSDOF 0
ENDMDL
