MODEL 1
REMARK minimizedAffinity 5.69758034
REMARK minimizedRMSD -1
REMARK  0 active torsions:
REMARK  status: ('A' for Active; 'I' for Inactive)
ROOT
ATOM      1  C1  DEN d   1       5.887  -4.882  -4.610  0.00  0.00     0.130 A 
ATOM      2  C2  DEN d   1       5.421  -4.975  -5.991  0.00  0.00    -0.031 A 
ATOM      3  C3  DEN d   1       4.009  -5.405  -5.968  0.00  0.00     0.027 A 
ATOM      4  C4  DEN d   1       2.504  -5.927  -3.939  0.00  0.00     0.027 A 
ATOM      5  C5  DEN d   1       2.459  -6.000  -2.565  0.00  0.00    -0.003 A 
ATOM      6  C6  DEN d   1       3.553  -5.741  -1.783  0.00  0.00     0.001 A 
ATOM      7  C7  DEN d   1       4.729  -5.352  -2.369  0.00  0.00     0.017 A 
ATOM      8  C8  DEN d   1       4.784  -5.283  -3.755  0.00  0.00    -0.094 A 
ATOM      9  C9  DEN d   1       3.664  -5.537  -4.527  0.00  0.00    -0.072 A 
ENDROOT
TORSDOF 0
ENDMDL
