MODEL 1
REMARK minimizedAffinity -0.360399544
REMARK minimizedRMSD -1
REMARK  0 active torsions:
REMARK  status: ('A' for Active; 'I' for Inactive)
ROOT
ATOM      1  C1  DEN d   1       5.511   1.137  -5.986  0.00  0.00     0.130 A 
ATOM      2  C2  DEN d   1       5.019   2.034  -4.944  0.00  0.00    -0.031 A 
ATOM      3  C3  DEN d   1       4.821   1.240  -3.715  0.00  0.00     0.027 A 
ATOM      4  C4  DEN d   1       5.231  -1.276  -3.324  0.00  0.00     0.027 A 
ATOM      5  C5  DEN d   1       5.637  -2.452  -3.915  0.00  0.00    -0.003 A 
ATOM      6  C6  DEN d   1       5.993  -2.521  -5.236  0.00  0.00     0.001 A 
ATOM      7  C7  DEN d   1       5.994  -1.383  -5.998  0.00  0.00     0.017 A 
ATOM      8  C8  DEN d   1       5.580  -0.195  -5.412  0.00  0.00    -0.094 A 
ATOM      9  C9  DEN d   1       5.235  -0.143  -4.072  0.00  0.00    -0.072 A 
ENDROOT
TORSDOF 0
ENDMDL
