MODEL 1
REMARK minimizedAffinity -3.2544136
REMARK minimizedRMSD -1
REMARK  0 active torsions:
REMARK  status: ('A' for Active; 'I' for Inactive)
ROOT
ATOM      1  C1  DEN d   1       2.202  -3.802  -5.976  0.00  0.00     0.130 A 
ATOM      2  C2  DEN d   1       2.529  -5.225  -5.998  0.00  0.00    -0.031 A 
ATOM      3  C3  DEN d   1       4.000  -5.355  -5.999  0.00  0.00     0.027 A 
ATOM      4  C4  DEN d   1       5.793  -3.501  -5.964  0.00  0.00     0.027 A 
ATOM      5  C5  DEN d   1       6.000  -2.140  -5.953  0.00  0.00    -0.003 A 
ATOM      6  C6  DEN d   1       4.964  -1.244  -5.983  0.00  0.00     0.001 A 
ATOM      7  C7  DEN d   1       3.672  -1.699  -5.980  0.00  0.00     0.017 A 
ATOM      8  C8  DEN d   1       3.456  -3.071  -5.998  0.00  0.00    -0.094 A 
ATOM      9  C9  DEN d   1       4.516  -3.960  -5.955  0.00  0.00    -0.072 A 
ENDROOT
TORSDOF 0
ENDMDL
