MODEL 1
REMARK minimizedAffinity 7.99351931
REMARK minimizedRMSD -1
REMARK  0 active torsions:
REMARK  status: ('A' for Active; 'I' for Inactive)
ROOT
ATOM      1  C1  DEN d   1       0.014   2.261  -0.747  0.00  0.00     0.130 A 
ATOM      2  C2  DEN d   1      -0.200   2.667   0.640  0.00  0.00    -0.031 A 
ATOM      3  C3  DEN d   1       0.106   1.512   1.506  0.00  0.00     0.027 A 
ATOM      4  C4  DEN d   1       0.891  -0.853   0.841  0.00  0.00     0.027 A 
ATOM      5  C5  DEN d   1       1.202  -1.676  -0.220  0.00  0.00    -0.003 A 
ATOM      6  C6  DEN d   1       1.107  -1.258  -1.520  0.00  0.00     0.001 A 
ATOM      7  C7  DEN d   1       0.734   0.032  -1.793  0.00  0.00     0.017 A 
ATOM      8  C8  DEN d   1       0.411   0.865  -0.730  0.00  0.00    -0.094 A 
ATOM      9  C9  DEN d   1       0.525   0.427   0.578  0.00  0.00    -0.072 A 
ENDROOT
TORSDOF 0
ENDMDL
