MODEL 1
REMARK minimizedAffinity 5.02770329
REMARK minimizedRMSD -1
REMARK  0 active torsions:
REMARK  status: ('A' for Active; 'I' for Inactive)
ROOT
ATOM      1  C1  DEN d   1      -0.576   2.027  -0.586  0.00  0.00     0.130 A 
ATOM      2  C2  DEN d   1      -0.358   2.956   0.519  0.00  0.00    -0.031 A 
ATOM      3  C3  DEN d   1       0.689   2.389   1.393  0.00  0.00     0.027 A 
ATOM      4  C4  DEN d   1       1.988   0.175   1.141  0.00  0.00     0.027 A 
ATOM      5  C5  DEN d   1       2.142  -0.955   0.369  0.00  0.00    -0.003 A 
ATOM      6  C6  DEN d   1       1.383  -1.184  -0.748  0.00  0.00     0.001 A 
ATOM      7  C7  DEN d   1       0.466  -0.249  -1.150  0.00  0.00     0.017 A 
ATOM      8  C8  DEN d   1       0.300   0.889  -0.372  0.00  0.00    -0.094 A 
ATOM      9  C9  DEN d   1       1.086   1.109   0.747  0.00  0.00    -0.072 A 
ENDROOT
TORSDOF 0
ENDMDL
