MODEL 1
REMARK minimizedAffinity -2.61433887
REMARK minimizedRMSD -1
REMARK  0 active torsions:
REMARK  status: ('A' for Active; 'I' for Inactive)
ROOT
ATOM      1  C   UNL d   1      -0.796   1.654   2.797  0.00  0.00    -0.002 A 
ATOM      2  C1  UNL d   1       0.578   1.534   2.947  0.00  0.00     0.010 A 
ATOM      3  C2  UNL d   1       1.332   0.805   2.025  0.00  0.00     0.041 A 
ATOM      4  C3  UNL d   1       0.675   0.195   0.938  0.00  0.00    -0.075 A 
ATOM      5  S   UNL d   1       1.393  -0.746  -0.316  0.00  0.00     0.015 SA
ATOM      6  C4  UNL d   1      -0.107  -1.009  -1.081  0.00  0.00     0.022 A 
ATOM      7  C5  UNL d   1      -1.142  -0.401  -0.409  0.00  0.00     0.026 A 
ATOM      8  C6  UNL d   1      -0.708   0.303   0.765  0.00  0.00    -0.082 A 
ATOM      9  C7  UNL d   1      -1.444   1.048   1.717  0.00  0.00     0.045 A 
ENDROOT
TORSDOF 0
ENDMDL
