MODEL 1
REMARK minimizedAffinity -3.29508829
REMARK minimizedRMSD -1
REMARK  0 active torsions:
REMARK  status: ('A' for Active; 'I' for Inactive)
ROOT
ATOM      1  C   UNL d   1      -1.152   1.489   2.193  0.00  0.00    -0.002 A 
ATOM      2  C1  UNL d   1       0.118   1.254   2.701  0.00  0.00     0.010 A 
ATOM      3  C2  UNL d   1       1.070   0.570   1.943  0.00  0.00     0.041 A 
ATOM      4  C3  UNL d   1       0.722   0.123   0.653  0.00  0.00    -0.075 A 
ATOM      5  S   UNL d   1       1.725  -0.734  -0.457  0.00  0.00     0.015 SA
ATOM      6  C4  UNL d   1       0.492  -0.808  -1.630  0.00  0.00     0.022 A 
ATOM      7  C5  UNL d   1      -0.664  -0.199  -1.203  0.00  0.00     0.026 A 
ATOM      8  C6  UNL d   1      -0.550   0.349   0.120  0.00  0.00    -0.082 A 
ATOM      9  C7  UNL d   1      -1.494   1.044   0.913  0.00  0.00     0.045 A 
ENDROOT
TORSDOF 0
ENDMDL
