MODEL 1
REMARK minimizedAffinity -1.23706925
REMARK minimizedRMSD -1
REMARK  0 active torsions:
REMARK  status: ('A' for Active; 'I' for Inactive)
ROOT
ATOM      1  C   UNL d   1       1.630   0.793  -3.963  0.00  0.00    -0.002 A 
ATOM      2  C1  UNL d   1       0.486   0.053  -4.224  0.00  0.00     0.010 A 
ATOM      3  C2  UNL d   1      -0.313  -0.414  -3.178  0.00  0.00     0.041 A 
ATOM      4  C3  UNL d   1       0.061  -0.120  -1.852  0.00  0.00    -0.075 A 
ATOM      5  S   UNL d   1      -0.765  -0.587  -0.412  0.00  0.00     0.015 SA
ATOM      6  C4  UNL d   1       0.381   0.187   0.584  0.00  0.00     0.022 A 
ATOM      7  C5  UNL d   1       1.376   0.791  -0.147  0.00  0.00     0.026 A 
ATOM      8  C6  UNL d   1       1.208   0.625  -1.564  0.00  0.00    -0.082 A 
ATOM      9  C7  UNL d   1       1.997   1.083  -2.646  0.00  0.00     0.045 A 
ENDROOT
TORSDOF 0
ENDMDL
