MODEL 1
REMARK minimizedAffinity -2.08008385
REMARK minimizedRMSD -1
REMARK  0 active torsions:
REMARK  status: ('A' for Active; 'I' for Inactive)
ROOT
ATOM      1  C   UNL d   1       0.709   1.103  -4.208  0.00  0.00    -0.002 A 
ATOM      2  C1  UNL d   1       1.956   0.502  -4.112  0.00  0.00     0.010 A 
ATOM      3  C2  UNL d   1       2.300  -0.244  -2.983  0.00  0.00     0.041 A 
ATOM      4  C3  UNL d   1       1.359  -0.380  -1.943  0.00  0.00    -0.075 A 
ATOM      5  S   UNL d   1       1.560  -1.248  -0.467  0.00  0.00     0.015 SA
ATOM      6  C4  UNL d   1      -0.006  -0.843   0.071  0.00  0.00     0.022 A 
ATOM      7  C5  UNL d   1      -0.679  -0.064  -0.841  0.00  0.00     0.026 A 
ATOM      8  C6  UNL d   1       0.097   0.215  -2.017  0.00  0.00    -0.082 A 
ATOM      9  C7  UNL d   1      -0.222   0.966  -3.174  0.00  0.00     0.045 A 
ENDROOT
TORSDOF 0
ENDMDL
