MODEL 1
REMARK minimizedAffinity -2.47173548
REMARK minimizedRMSD -1
REMARK  0 active torsions:
REMARK  status: ('A' for Active; 'I' for Inactive)
ROOT
ATOM      1  C   UNL d   1       1.609  -1.262   0.022  0.00  0.00    -0.002 A 
ATOM      2  C1  UNL d   1       2.200  -0.698   1.144  0.00  0.00     0.010 A 
ATOM      3  C2  UNL d   1       1.485   0.187   1.954  0.00  0.00     0.041 A 
ATOM      4  C3  UNL d   1       0.153   0.497   1.614  0.00  0.00    -0.075 A 
ATOM      5  S   UNL d   1      -0.916   1.553   2.459  0.00  0.00     0.015 SA
ATOM      6  C4  UNL d   1      -2.182   1.280   1.351  0.00  0.00     0.022 A 
ATOM      7  C5  UNL d   1      -1.815   0.407   0.354  0.00  0.00     0.026 A 
ATOM      8  C6  UNL d   1      -0.464  -0.060   0.490  0.00  0.00    -0.082 A 
ATOM      9  C7  UNL d   1       0.288  -0.952  -0.311  0.00  0.00     0.045 A 
ENDROOT
TORSDOF 0
ENDMDL
