MODEL 1
REMARK minimizedAffinity -0.73268199
REMARK minimizedRMSD -1
REMARK  0 active torsions:
REMARK  status: ('A' for Active; 'I' for Inactive)
ROOT
ATOM      1  C   UNL d   1      -1.339   1.291   2.280  0.00  0.00    -0.002 A 
ATOM      2  C1  UNL d   1       0.024   1.319   2.537  0.00  0.00     0.010 A 
ATOM      3  C2  UNL d   1       0.931   0.778   1.624  0.00  0.00     0.041 A 
ATOM      4  C3  UNL d   1       0.440   0.204   0.435  0.00  0.00    -0.075 A 
ATOM      5  S   UNL d   1       1.363  -0.519  -0.829  0.00  0.00     0.015 SA
ATOM      6  C4  UNL d   1      -0.030  -0.881  -1.741  0.00  0.00     0.022 A 
ATOM      7  C5  UNL d   1      -1.180  -0.468  -1.112  0.00  0.00     0.026 A 
ATOM      8  C6  UNL d   1      -0.929   0.164   0.153  0.00  0.00    -0.082 A 
ATOM      9  C7  UNL d   1      -1.823   0.720   1.099  0.00  0.00     0.045 A 
ENDROOT
TORSDOF 0
ENDMDL
