MODEL 1
REMARK minimizedAffinity -4.84084463
REMARK minimizedRMSD -1
REMARK  1 active torsions:
REMARK  status: ('A' for Active; 'I' for Inactive)
REMARK    1  A    between atoms: C1_2  and  C2_3 
ROOT
ATOM      1  C2  UNL d   1       0.559  -1.781   1.639  0.00  0.00    -0.081 A 
ATOM      2  C3  UNL d   1       1.659  -2.392   1.026  0.00  0.00     0.006 A 
ATOM      3  C4  UNL d   1       2.233  -1.833  -0.118  0.00  0.00     0.002 A 
ATOM      4  C5  UNL d   1       1.722  -0.651  -0.664  0.00  0.00    -0.080 A 
ATOM      5  C6  UNL d   1       2.348  -0.024  -1.874  0.00  0.00     0.076 C 
ATOM      6  C7  UNL d   1       0.612  -0.049  -0.062  0.00  0.00     0.002 A 
ATOM      7  C8  UNL d   1       0.037  -0.608   1.082  0.00  0.00     0.006 A 
ENDROOT
BRANCH   1   8
ATOM      8  C1  UNL d   1      -0.022  -2.346   2.910  0.00  0.00     0.054 C 
ATOM      9  C   UNL d   1      -1.224  -1.536   3.377  0.00  0.00     0.018 C 
ENDBRANCH   1   8
TORSDOF 1
ENDMDL
