MODEL 1
REMARK minimizedAffinity -2.64449191
REMARK minimizedRMSD -1
REMARK  1 active torsions:
REMARK  status: ('A' for Active; 'I' for Inactive)
REMARK    1  A    between atoms: C1_2  and  C2_3 
ROOT
ATOM      1  C2  UNL d   1      -1.031   1.081  -1.057  0.00  0.00    -0.081 A 
ATOM      2  C3  UNL d   1       0.218   0.966  -1.680  0.00  0.00     0.006 A 
ATOM      3  C4  UNL d   1       1.225   0.185  -1.109  0.00  0.00     0.002 A 
ATOM      4  C5  UNL d   1       0.998  -0.500   0.089  0.00  0.00    -0.080 A 
ATOM      5  C6  UNL d   1       2.061  -1.367   0.697  0.00  0.00     0.076 C 
ATOM      6  C7  UNL d   1      -0.244  -0.372   0.721  0.00  0.00     0.002 A 
ATOM      7  C8  UNL d   1      -1.251   0.409   0.151  0.00  0.00     0.006 A 
ENDROOT
BRANCH   1   8
ATOM      8  C1  UNL d   1      -2.141   1.870  -1.704  0.00  0.00     0.054 C 
ATOM      9  C   UNL d   1      -1.971   1.928  -3.215  0.00  0.00     0.018 C 
ENDBRANCH   1   8
TORSDOF 1
ENDMDL
