MODEL 1
REMARK minimizedAffinity -3.11191607
REMARK minimizedRMSD -1
REMARK  1 active torsions:
REMARK  status: ('A' for Active; 'I' for Inactive)
REMARK    1  A    between atoms: C1_2  and  C2_3 
ROOT
ATOM      1  C2  UNL d   1      -0.728   3.600  -4.026  0.00  0.00    -0.081 A 
ATOM      2  C3  UNL d   1      -1.175   2.463  -4.712  0.00  0.00     0.006 A 
ATOM      3  C4  UNL d   1      -1.982   1.521  -4.070  0.00  0.00     0.002 A 
ATOM      4  C5  UNL d   1      -2.363   1.703  -2.736  0.00  0.00    -0.080 A 
ATOM      5  C6  UNL d   1      -3.255   0.715  -2.045  0.00  0.00     0.076 C 
ATOM      6  C7  UNL d   1      -1.903   2.830  -2.046  0.00  0.00     0.002 A 
ATOM      7  C8  UNL d   1      -1.095   3.772  -2.687  0.00  0.00     0.006 A 
ENDROOT
BRANCH   1   8
ATOM      8  C1  UNL d   1       0.089   4.650  -4.734  0.00  0.00     0.054 C 
ATOM      9  C   UNL d   1       0.524   5.751  -3.777  0.00  0.00     0.018 C 
ENDBRANCH   1   8
TORSDOF 1
ENDMDL
