MODEL 1
REMARK minimizedAffinity -4.35524273
REMARK minimizedRMSD -1
REMARK  1 active torsions:
REMARK  status: ('A' for Active; 'I' for Inactive)
REMARK    1  A    between atoms: C1_2  and  C2_3 
ROOT
ATOM      1  C2  UNL d   1      -1.004   1.384  -0.065  0.00  0.00    -0.081 A 
ATOM      2  C3  UNL d   1      -0.050   0.362   0.007  0.00  0.00     0.006 A 
ATOM      3  C4  UNL d   1      -0.024  -0.507   1.101  0.00  0.00     0.002 A 
ATOM      4  C5  UNL d   1      -0.956  -0.373   2.135  0.00  0.00    -0.080 A 
ATOM      5  C6  UNL d   1      -0.959  -1.318   3.300  0.00  0.00     0.076 C 
ATOM      6  C7  UNL d   1      -1.898   0.659   2.072  0.00  0.00     0.002 A 
ATOM      7  C8  UNL d   1      -1.924   1.528   0.979  0.00  0.00     0.006 A 
ENDROOT
BRANCH   1   8
ATOM      8  C1  UNL d   1      -1.075   2.282  -1.273  0.00  0.00     0.054 C 
ATOM      9  C   UNL d   1      -2.080   1.761  -2.291  0.00  0.00     0.018 C 
ENDBRANCH   1   8
TORSDOF 1
ENDMDL
