MODEL 1
REMARK minimizedAffinity -3.98082209
REMARK minimizedRMSD -1
REMARK  1 active torsions:
REMARK  status: ('A' for Active; 'I' for Inactive)
REMARK    1  A    between atoms: C1_2  and  C2_3 
ROOT
ATOM      1  C2  UNL d   1       0.219  -1.645   1.793  0.00  0.00    -0.081 A 
ATOM      2  C3  UNL d   1       1.508  -1.958   1.345  0.00  0.00     0.006 A 
ATOM      3  C4  UNL d   1       2.118  -1.188   0.352  0.00  0.00     0.002 A 
ATOM      4  C5  UNL d   1       1.454  -0.089  -0.203  0.00  0.00    -0.080 A 
ATOM      5  C6  UNL d   1       2.110   0.764  -1.248  0.00  0.00     0.076 C 
ATOM      6  C7  UNL d   1       0.159   0.213   0.233  0.00  0.00     0.002 A 
ATOM      7  C8  UNL d   1      -0.452  -0.557   1.225  0.00  0.00     0.006 A 
ENDROOT
BRANCH   1   8
ATOM      8  C1  UNL d   1      -0.416  -2.434   2.910  0.00  0.00     0.054 C 
ATOM      9  C   UNL d   1      -1.707  -1.781   3.384  0.00  0.00     0.018 C 
ENDBRANCH   1   8
TORSDOF 1
ENDMDL
