MODEL 1
REMARK minimizedAffinity -3.11881185
REMARK minimizedRMSD -1
REMARK  1 active torsions:
REMARK  status: ('A' for Active; 'I' for Inactive)
REMARK    1  A    between atoms: C1_2  and  C2_3 
ROOT
ATOM      1  C2  UNL d   1      -0.062   4.672  -3.654  0.00  0.00    -0.081 A 
ATOM      2  C3  UNL d   1      -0.376   3.879  -4.764  0.00  0.00     0.006 A 
ATOM      3  C4  UNL d   1      -1.069   2.677  -4.602  0.00  0.00     0.002 A 
ATOM      4  C5  UNL d   1      -1.466   2.252  -3.330  0.00  0.00    -0.080 A 
ATOM      5  C6  UNL d   1      -2.238   0.979  -3.146  0.00  0.00     0.076 C 
ATOM      6  C7  UNL d   1      -1.137   3.036  -2.219  0.00  0.00     0.002 A 
ATOM      7  C8  UNL d   1      -0.443   4.237  -2.380  0.00  0.00     0.006 A 
ENDROOT
BRANCH   1   8
ATOM      8  C1  UNL d   1       0.629   6.000  -3.831  0.00  0.00     0.054 C 
ATOM      9  C   UNL d   1       2.093   5.817  -4.206  0.00  0.00     0.018 C 
ENDBRANCH   1   8
TORSDOF 1
ENDMDL
