MODEL 1
REMARK minimizedAffinity -2.2669313
REMARK minimizedRMSD -1
REMARK  1 active torsions:
REMARK  status: ('A' for Active; 'I' for Inactive)
REMARK    1  A    between atoms: C1_2  and  C2_3 
ROOT
ATOM      1  C2  UNL d   1      -0.483   1.535  -0.983  0.00  0.00    -0.081 A 
ATOM      2  C3  UNL d   1       0.815   1.285  -1.446  0.00  0.00     0.006 A 
ATOM      3  C4  UNL d   1       1.592   0.280  -0.865  0.00  0.00     0.002 A 
ATOM      4  C5  UNL d   1       1.082  -0.497   0.181  0.00  0.00    -0.080 A 
ATOM      5  C6  UNL d   1       1.895  -1.599   0.793  0.00  0.00     0.076 C 
ATOM      6  C7  UNL d   1      -0.208  -0.236   0.654  0.00  0.00     0.002 A 
ATOM      7  C8  UNL d   1      -0.986   0.770   0.075  0.00  0.00     0.006 A 
ENDROOT
BRANCH   1   8
ATOM      8  C1  UNL d   1      -1.347   2.574  -1.650  0.00  0.00     0.054 C 
ATOM      9  C   UNL d   1      -2.250   1.950  -2.704  0.00  0.00     0.018 C 
ENDBRANCH   1   8
TORSDOF 1
ENDMDL
