MODEL 1
REMARK minimizedAffinity -4.2320056
REMARK minimizedRMSD -1
REMARK  1 active torsions:
REMARK  status: ('A' for Active; 'I' for Inactive)
REMARK    1  A    between atoms: C1_2  and  C2_3 
ROOT
ATOM      1  C2  UNL d   1      -0.362   1.067  -0.313  0.00  0.00    -0.081 A 
ATOM      2  C3  UNL d   1       0.870   0.437  -0.532  0.00  0.00     0.006 A 
ATOM      3  C4  UNL d   1       1.288  -0.608   0.295  0.00  0.00     0.002 A 
ATOM      4  C5  UNL d   1       0.479  -1.046   1.348  0.00  0.00    -0.080 A 
ATOM      5  C6  UNL d   1       0.902  -2.187   2.225  0.00  0.00     0.076 C 
ATOM      6  C7  UNL d   1      -0.744  -0.406   1.578  0.00  0.00     0.002 A 
ATOM      7  C8  UNL d   1      -1.162   0.640   0.752  0.00  0.00     0.006 A 
ENDROOT
BRANCH   1   8
ATOM      8  C1  UNL d   1      -0.845   2.151  -1.243  0.00  0.00     0.054 C 
ATOM      9  C   UNL d   1      -1.607   1.568  -2.424  0.00  0.00     0.018 C 
ENDBRANCH   1   8
TORSDOF 1
ENDMDL
