MODEL 1
REMARK minimizedAffinity -3.30737901
REMARK minimizedRMSD -1
REMARK  1 active torsions:
REMARK  status: ('A' for Active; 'I' for Inactive)
REMARK    1  A    between atoms: C1_2  and  C2_3 
ROOT
ATOM      1  C2  UNL d   1       0.137   0.030  -0.219  0.00  0.00    -0.081 A 
ATOM      2  C3  UNL d   1      -0.779  -0.257   0.800  0.00  0.00     0.006 A 
ATOM      3  C4  UNL d   1      -0.506  -1.256   1.737  0.00  0.00     0.002 A 
ATOM      4  C5  UNL d   1       0.690  -1.979   1.676  0.00  0.00    -0.080 A 
ATOM      5  C6  UNL d   1       1.009  -3.034   2.693  0.00  0.00     0.076 C 
ATOM      6  C7  UNL d   1       1.598  -1.704   0.647  0.00  0.00     0.002 A 
ATOM      7  C8  UNL d   1       1.325  -0.705  -0.290  0.00  0.00     0.006 A 
ENDROOT
BRANCH   1   8
ATOM      8  C1  UNL d   1      -0.125   1.151  -1.192  0.00  0.00     0.054 C 
ATOM      9  C   UNL d   1      -1.452   0.960  -1.912  0.00  0.00     0.018 C 
ENDBRANCH   1   8
TORSDOF 1
ENDMDL
