MODEL 1
REMARK minimizedAffinity -4.65853548
REMARK minimizedRMSD -1
REMARK  1 active torsions:
REMARK  status: ('A' for Active; 'I' for Inactive)
REMARK    1  A    between atoms: C1_2  and  C2_3 
ROOT
ATOM      1  C2  UNL d   1      -0.390   1.294  -0.697  0.00  0.00    -0.081 A 
ATOM      2  C3  UNL d   1       0.892   0.929  -1.124  0.00  0.00     0.006 A 
ATOM      3  C4  UNL d   1       1.599  -0.078  -0.463  0.00  0.00     0.002 A 
ATOM      4  C5  UNL d   1       1.033  -0.742   0.630  0.00  0.00    -0.080 A 
ATOM      5  C6  UNL d   1       1.769  -1.846   1.330  0.00  0.00     0.076 C 
ATOM      6  C7  UNL d   1      -0.241  -0.365   1.069  0.00  0.00     0.002 A 
ATOM      7  C8  UNL d   1      -0.948   0.642   0.408  0.00  0.00     0.006 A 
ENDROOT
BRANCH   1   8
ATOM      8  C1  UNL d   1      -1.181   2.335  -1.447  0.00  0.00     0.054 C 
ATOM      9  C   UNL d   1      -2.240   1.693  -2.333  0.00  0.00     0.018 C 
ENDBRANCH   1   8
TORSDOF 1
ENDMDL
