MODEL 1
REMARK minimizedAffinity -3.49643803
REMARK minimizedRMSD -1
REMARK  1 active torsions:
REMARK  status: ('A' for Active; 'I' for Inactive)
REMARK    1  A    between atoms: C1_2  and  C2_3 
ROOT
ATOM      1  C2  UNL d   1      -0.549   3.686  -4.267  0.00  0.00    -0.081 A 
ATOM      2  C3  UNL d   1      -0.186   3.278  -2.978  0.00  0.00     0.006 A 
ATOM      3  C4  UNL d   1      -0.983   2.374  -2.271  0.00  0.00     0.002 A 
ATOM      4  C5  UNL d   1      -2.150   1.857  -2.844  0.00  0.00    -0.080 A 
ATOM      5  C6  UNL d   1      -2.997   0.862  -2.108  0.00  0.00     0.076 C 
ATOM      6  C7  UNL d   1      -2.521   2.278  -4.126  0.00  0.00     0.002 A 
ATOM      7  C8  UNL d   1      -1.725   3.182  -4.832  0.00  0.00     0.006 A 
ENDROOT
BRANCH   1   8
ATOM      8  C1  UNL d   1       0.342   4.611  -5.057  0.00  0.00     0.054 C 
ATOM      9  C   UNL d   1       0.386   6.000  -4.437  0.00  0.00     0.018 C 
ENDBRANCH   1   8
TORSDOF 1
ENDMDL
