MODEL 1
REMARK minimizedAffinity -0.243749812
REMARK minimizedRMSD -1
REMARK  1 active torsions:
REMARK  status: ('A' for Active; 'I' for Inactive)
REMARK    1  A    between atoms: C1_2  and  C2_3 
ROOT
ATOM      1  C2  UNL d   1       0.383  -1.497   2.350  0.00  0.00    -0.081 A 
ATOM      2  C3  UNL d   1       1.681  -1.791   1.915  0.00  0.00     0.006 A 
ATOM      3  C4  UNL d   1       2.192  -1.198   0.758  0.00  0.00     0.002 A 
ATOM      4  C5  UNL d   1       1.417  -0.296   0.021  0.00  0.00    -0.080 A 
ATOM      5  C6  UNL d   1       1.965   0.370  -1.206  0.00  0.00     0.076 C 
ATOM      6  C7  UNL d   1       0.114  -0.016   0.446  0.00  0.00     0.002 A 
ATOM      7  C8  UNL d   1      -0.398  -0.609   1.602  0.00  0.00     0.006 A 
ENDROOT
BRANCH   1   8
ATOM      8  C1  UNL d   1      -0.148  -2.085   3.632  0.00  0.00     0.054 C 
ATOM      9  C   UNL d   1       0.203  -1.211   4.828  0.00  0.00     0.018 C 
ENDBRANCH   1   8
TORSDOF 1
ENDMDL
