MODEL 1
REMARK minimizedAffinity -3.81261134
REMARK minimizedRMSD -1
REMARK  0 active torsions:
REMARK  status: ('A' for Active; 'I' for Inactive)
ROOT
ATOM      1  C   UNL d   1       1.017   0.354   0.015  0.00  0.00     0.023 A 
ATOM      2  C1  UNL d   1       0.387   1.518  -0.422  0.00  0.00     0.003 A 
ATOM      3  C2  UNL d   1      -1.006   1.611  -0.399  0.00  0.00     0.048 A 
ATOM      4  C3  UNL d   1      -1.763   0.535   0.064  0.00  0.00     0.023 A 
ATOM      5  C4  UNL d   1      -1.136  -0.633   0.504  0.00  0.00     0.048 A 
ATOM      6  C5  UNL d   1       0.257  -0.721   0.478  0.00  0.00     0.003 A 
ATOM      7  I   UNL d   1      -3.837   0.669   0.099  0.00  0.00    -0.146 I 
ENDROOT
TORSDOF 0
ENDMDL
