MODEL 1
REMARK minimizedAffinity -5.32524443
REMARK minimizedRMSD -1
REMARK  0 active torsions:
REMARK  status: ('A' for Active; 'I' for Inactive)
ROOT
ATOM      1  C   UNL d   1       2.512  -1.336   0.646  0.00  0.00     0.023 A 
ATOM      2  C1  UNL d   1       1.489  -2.002  -0.030  0.00  0.00     0.003 A 
ATOM      3  C2  UNL d   1       0.305  -1.330  -0.344  0.00  0.00     0.048 A 
ATOM      4  C3  UNL d   1       0.152   0.007   0.020  0.00  0.00     0.023 A 
ATOM      5  C4  UNL d   1       1.173   0.677   0.696  0.00  0.00     0.048 A 
ATOM      6  C5  UNL d   1       2.354   0.001   1.009  0.00  0.00     0.003 A 
ATOM      7  I   UNL d   1      -1.609   1.009  -0.446  0.00  0.00    -0.146 I 
ENDROOT
TORSDOF 0
ENDMDL
