MODEL 1
REMARK minimizedAffinity 3.60107374
REMARK minimizedRMSD -1
REMARK  1 active torsions:
REMARK  status: ('A' for Active; 'I' for Inactive)
REMARK    1  A    between atoms: N_2  and  C1_3 
ROOT
ATOM      1  C1  UNL d   1       4.318  -3.636   2.722  0.00  0.00     0.143 A 
ATOM      2  C2  UNL d   1       3.164  -3.248   2.032  0.00  0.00    -0.057 A 
ATOM      3  C3  UNL d   1       3.076  -3.367   0.640  0.00  0.00     0.033 A 
ATOM      4  C4  UNL d   1       4.155  -3.850  -0.093  0.00  0.00    -0.042 A 
ATOM      5  C5  UNL d   1       5.321  -4.218   0.569  0.00  0.00     0.033 A 
ATOM      6  C6  UNL d   1       5.401  -4.103   1.960  0.00  0.00    -0.057 A 
ENDROOT
BRANCH   1   7
ATOM      7  N   UNL d   1       4.504  -3.451   4.094  0.00  0.00    -0.732 N 
ATOM      8  C   UNL d   1       5.059  -2.215   4.603  0.00  0.00     0.284 C 
ATOM      9  H3  UNL d   1       3.729  -3.816   4.643  0.00  0.00     0.395 HD
ENDBRANCH   1   7
TORSDOF 1
ENDMDL
