MODEL 1
REMARK minimizedAffinity 2.79535246
REMARK minimizedRMSD -1
REMARK  1 active torsions:
REMARK  status: ('A' for Active; 'I' for Inactive)
REMARK    1  A    between atoms: N_2  and  C1_3 
ROOT
ATOM      1  C1  UNL d   1      -3.550  -0.829  -3.111  0.00  0.00     0.143 A 
ATOM      2  C2  UNL d   1      -4.830  -1.014  -3.644  0.00  0.00    -0.057 A 
ATOM      3  C3  UNL d   1      -5.013  -1.476  -4.953  0.00  0.00     0.033 A 
ATOM      4  C4  UNL d   1      -3.913  -1.734  -5.765  0.00  0.00    -0.042 A 
ATOM      5  C5  UNL d   1      -2.631  -1.533  -5.265  0.00  0.00     0.033 A 
ATOM      6  C6  UNL d   1      -2.456  -1.078  -3.955  0.00  0.00    -0.057 A 
ENDROOT
BRANCH   1   7
ATOM      7  N   UNL d   1      -3.304  -0.279  -1.851  0.00  0.00    -0.732 N 
ATOM      8  C   UNL d   1      -3.622   1.106  -1.576  0.00  0.00     0.284 C 
ATOM      9  H3  UNL d   1      -3.541  -0.917  -1.095  0.00  0.00     0.395 HD
ENDBRANCH   1   7
TORSDOF 1
ENDMDL
