MODEL 1
REMARK minimizedAffinity 0.923052669
REMARK minimizedRMSD -1
REMARK  1 active torsions:
REMARK  status: ('A' for Active; 'I' for Inactive)
REMARK    1  A    between atoms: N_2  and  C1_3 
ROOT
ATOM      1  C1  UNL d   1       5.184   2.560  -5.306  0.00  0.00     0.143 A 
ATOM      2  C2  UNL d   1       4.746   2.307  -4.001  0.00  0.00    -0.057 A 
ATOM      3  C3  UNL d   1       4.952   1.062  -3.394  0.00  0.00     0.033 A 
ATOM      4  C4  UNL d   1       5.578   0.035  -4.094  0.00  0.00    -0.042 A 
ATOM      5  C5  UNL d   1       6.000   0.256  -5.400  0.00  0.00     0.033 A 
ATOM      6  C6  UNL d   1       5.797   1.504  -5.999  0.00  0.00    -0.057 A 
ENDROOT
BRANCH   1   7
ATOM      7  N   UNL d   1       4.921   3.744  -5.999  0.00  0.00    -0.732 N 
ATOM      8  C   UNL d   1       3.746   4.531  -5.694  0.00  0.00     0.284 C 
ATOM      9  H3  UNL d   1       5.761   4.295  -6.158  0.00  0.00     0.395 HD
ENDBRANCH   1   7
TORSDOF 1
ENDMDL
