MODEL 1
REMARK minimizedAffinity 4.26409626
REMARK minimizedRMSD -1
REMARK  1 active torsions:
REMARK  status: ('A' for Active; 'I' for Inactive)
REMARK    1  A    between atoms: N_2  and  C1_3 
ROOT
ATOM      1  C1  UNL d   1      -3.400  -0.036  -4.668  0.00  0.00     0.143 A 
ATOM      2  C2  UNL d   1      -3.120   1.283  -4.296  0.00  0.00    -0.057 A 
ATOM      3  C3  UNL d   1      -3.920   2.346  -4.731  0.00  0.00     0.033 A 
ATOM      4  C4  UNL d   1      -5.003   2.111  -5.572  0.00  0.00    -0.042 A 
ATOM      5  C5  UNL d   1      -5.286   0.810  -5.975  0.00  0.00     0.033 A 
ATOM      6  C6  UNL d   1      -4.486  -0.248  -5.531  0.00  0.00    -0.057 A 
ENDROOT
BRANCH   1   7
ATOM      7  N   UNL d   1      -2.585  -1.124  -4.349  0.00  0.00    -0.732 N 
ATOM      8  C   UNL d   1      -1.891  -1.855  -5.387  0.00  0.00     0.284 C 
ATOM      9  H3  UNL d   1      -2.028  -0.960  -3.513  0.00  0.00     0.395 HD
ENDBRANCH   1   7
TORSDOF 1
ENDMDL
