MODEL 1
REMARK minimizedAffinity -1.33599353
REMARK minimizedRMSD -1
REMARK  1 active torsions:
REMARK  status: ('A' for Active; 'I' for Inactive)
REMARK    1  A    between atoms: N_2  and  C1_3 
ROOT
ATOM      1  C1  UNL d   1       4.523  -4.497   2.924  0.00  0.00     0.143 A 
ATOM      2  C2  UNL d   1       3.425  -3.807   2.399  0.00  0.00    -0.057 A 
ATOM      3  C3  UNL d   1       3.220  -3.712   1.017  0.00  0.00     0.033 A 
ATOM      4  C4  UNL d   1       4.129  -4.284   0.133  0.00  0.00    -0.042 A 
ATOM      5  C5  UNL d   1       5.240  -4.953   0.631  0.00  0.00     0.033 A 
ATOM      6  C6  UNL d   1       5.436  -5.050   2.012  0.00  0.00    -0.057 A 
ENDROOT
BRANCH   1   7
ATOM      7  N   UNL d   1       4.835  -4.543   4.285  0.00  0.00    -0.732 N 
ATOM      8  C   UNL d   1       5.140  -3.329   5.012  0.00  0.00     0.284 C 
ATOM      9  H3  UNL d   1       4.247  -5.197   4.797  0.00  0.00     0.395 HD
ENDBRANCH   1   7
TORSDOF 1
ENDMDL
