MODEL 1
REMARK minimizedAffinity -0.676020682
REMARK minimizedRMSD -1
REMARK  1 active torsions:
REMARK  status: ('A' for Active; 'I' for Inactive)
REMARK    1  A    between atoms: N_2  and  C1_3 
ROOT
ATOM      1  C1  UNL d   1      -2.162   4.167  -5.696  0.00  0.00     0.143 A 
ATOM      2  C2  UNL d   1      -2.801   5.375  -5.996  0.00  0.00    -0.057 A 
ATOM      3  C3  UNL d   1      -4.170   5.550  -5.759  0.00  0.00     0.033 A 
ATOM      4  C4  UNL d   1      -4.932   4.506  -5.245  0.00  0.00    -0.042 A 
ATOM      5  C5  UNL d   1      -4.324   3.289  -4.964  0.00  0.00     0.033 A 
ATOM      6  C6  UNL d   1      -2.955   3.122  -5.196  0.00  0.00    -0.057 A 
ENDROOT
BRANCH   1   7
ATOM      7  N   UNL d   1      -0.825   3.898  -6.000  0.00  0.00    -0.732 N 
ATOM      8  C   UNL d   1       0.159   4.959  -5.998  0.00  0.00     0.284 C 
ATOM      9  H3  UNL d   1      -0.500   3.028  -5.584  0.00  0.00     0.395 HD
ENDBRANCH   1   7
TORSDOF 1
ENDMDL
