MODEL 1
REMARK minimizedAffinity 1.00141215
REMARK minimizedRMSD -1
REMARK  1 active torsions:
REMARK  status: ('A' for Active; 'I' for Inactive)
REMARK    1  A    between atoms: N_2  and  C1_3 
ROOT
ATOM      1  C1  UNL d   1      -3.667  -0.389  -3.846  0.00  0.00     0.143 A 
ATOM      2  C2  UNL d   1      -3.052   0.107  -5.000  0.00  0.00    -0.057 A 
ATOM      3  C3  UNL d   1      -3.793   0.750  -5.999  0.00  0.00     0.033 A 
ATOM      4  C4  UNL d   1      -5.171   0.883  -5.874  0.00  0.00    -0.042 A 
ATOM      5  C5  UNL d   1      -5.808   0.375  -4.747  0.00  0.00     0.033 A 
ATOM      6  C6  UNL d   1      -5.062  -0.260  -3.750  0.00  0.00    -0.057 A 
ENDROOT
BRANCH   1   7
ATOM      7  N   UNL d   1      -3.000  -1.125  -2.864  0.00  0.00    -0.732 N 
ATOM      8  C   UNL d   1      -2.640  -0.513  -1.602  0.00  0.00     0.284 C 
ATOM      9  H3  UNL d   1      -3.358  -2.073  -2.779  0.00  0.00     0.395 HD
ENDBRANCH   1   7
TORSDOF 1
ENDMDL
