MODEL 1
REMARK minimizedAffinity 7.63676023
REMARK minimizedRMSD -1
REMARK  1 active torsions:
REMARK  status: ('A' for Active; 'I' for Inactive)
REMARK    1  A    between atoms: N_2  and  C1_3 
ROOT
ATOM      1  C1  UNL d   1      -3.656   0.459  -5.454  0.00  0.00     0.143 A 
ATOM      2  C2  UNL d   1      -3.473   1.845  -5.482  0.00  0.00    -0.057 A 
ATOM      3  C3  UNL d   1      -4.523   2.722  -5.186  0.00  0.00     0.033 A 
ATOM      4  C4  UNL d   1      -5.787   2.227  -4.883  0.00  0.00    -0.042 A 
ATOM      5  C5  UNL d   1      -5.998   0.852  -4.873  0.00  0.00     0.033 A 
ATOM      6  C6  UNL d   1      -4.944  -0.018  -5.163  0.00  0.00    -0.057 A 
ENDROOT
BRANCH   1   7
ATOM      7  N   UNL d   1      -2.678  -0.463  -5.835  0.00  0.00    -0.732 N 
ATOM      8  C   UNL d   1      -2.480  -1.682  -5.081  0.00  0.00     0.284 C 
ATOM      9  H3  UNL d   1      -2.633  -0.586  -6.844  0.00  0.00     0.395 HD
ENDBRANCH   1   7
TORSDOF 1
ENDMDL
