MODEL 1
REMARK minimizedAffinity 1.45443404
REMARK minimizedRMSD -1
REMARK  1 active torsions:
REMARK  status: ('A' for Active; 'I' for Inactive)
REMARK    1  A    between atoms: N_2  and  C1_3 
ROOT
ATOM      1  C1  UNL d   1      -3.251   0.147  -5.241  0.00  0.00     0.143 A 
ATOM      2  C2  UNL d   1      -3.043  -0.838  -4.269  0.00  0.00    -0.057 A 
ATOM      3  C3  UNL d   1      -4.119  -1.452  -3.616  0.00  0.00     0.033 A 
ATOM      4  C4  UNL d   1      -5.425  -1.071  -3.905  0.00  0.00    -0.042 A 
ATOM      5  C5  UNL d   1      -5.654  -0.077  -4.850  0.00  0.00     0.033 A 
ATOM      6  C6  UNL d   1      -4.576   0.528  -5.503  0.00  0.00    -0.057 A 
ENDROOT
BRANCH   1   7
ATOM      7  N   UNL d   1      -2.221   0.864  -5.854  0.00  0.00    -0.732 N 
ATOM      8  C   UNL d   1      -1.994   2.255  -5.525  0.00  0.00     0.284 C 
ATOM      9  H3  UNL d   1      -1.369   0.316  -5.950  0.00  0.00     0.395 HD
ENDBRANCH   1   7
TORSDOF 1
ENDMDL
