MODEL 1
REMARK minimizedAffinity 6.87534857
REMARK minimizedRMSD -1
REMARK  1 active torsions:
REMARK  status: ('A' for Active; 'I' for Inactive)
REMARK    1  A    between atoms: C1_2  and  C2_3 
ROOT
ATOM      1  C2  UNL d   1      -0.310   2.537   0.400  0.00  0.00    -0.077 A 
ATOM      2  C3  UNL d   1       0.945   3.148   0.269  0.00  0.00     0.002 A 
ATOM      3  C4  UNL d   1       1.264   3.865  -0.885  0.00  0.00     0.002 A 
ATOM      4  C5  UNL d   1       0.333   3.982  -1.915  0.00  0.00    -0.004 A 
ATOM      5  C6  UNL d   1      -0.917   3.376  -1.795  0.00  0.00     0.002 A 
ATOM      6  C7  UNL d   1      -1.238   2.658  -0.643  0.00  0.00     0.002 A 
ENDROOT
BRANCH   1   7
ATOM      7  C1  UNL d   1      -0.675   1.804   1.665  0.00  0.00     0.055 C 
ATOM      8  C   UNL d   1       0.293   2.131   2.793  0.00  0.00     0.019 C 
ENDBRANCH   1   7
TORSDOF 1
ENDMDL
