MODEL 1
REMARK minimizedAffinity 10.2129097
REMARK minimizedRMSD -1
REMARK  1 active torsions:
REMARK  status: ('A' for Active; 'I' for Inactive)
REMARK    1  A    between atoms: C1_2  and  C2_3 
ROOT
ATOM      1  C2  UNL d   1      -1.280   2.657  -0.815  0.00  0.00    -0.077 A 
ATOM      2  C3  UNL d   1      -0.783   2.662   0.496  0.00  0.00     0.002 A 
ATOM      3  C4  UNL d   1       0.504   3.134   0.761  0.00  0.00     0.002 A 
ATOM      4  C5  UNL d   1       1.302   3.608  -0.278  0.00  0.00    -0.004 A 
ATOM      5  C6  UNL d   1       0.818   3.605  -1.585  0.00  0.00     0.002 A 
ATOM      6  C7  UNL d   1      -0.467   3.132  -1.853  0.00  0.00     0.002 A 
ENDROOT
BRANCH   1   7
ATOM      7  C1  UNL d   1      -2.685   2.194  -1.097  0.00  0.00     0.055 C 
ATOM      8  C   UNL d   1      -3.071   2.446  -2.548  0.00  0.00     0.019 C 
ENDBRANCH   1   7
TORSDOF 1
ENDMDL
