MODEL 1
REMARK minimizedAffinity 13.7936583
REMARK minimizedRMSD -1
REMARK  1 active torsions:
REMARK  status: ('A' for Active; 'I' for Inactive)
REMARK    1  A    between atoms: C1_2  and  C2_3 
ROOT
ATOM      1  C2  UNL d   1       2.845  -2.648  -0.406  0.00  0.00    -0.077 A 
ATOM      2  C3  UNL d   1       3.234  -3.612  -1.347  0.00  0.00     0.002 A 
ATOM      3  C4  UNL d   1       2.336  -4.597  -1.761  0.00  0.00     0.002 A 
ATOM      4  C5  UNL d   1       1.043  -4.625  -1.243  0.00  0.00    -0.004 A 
ATOM      5  C6  UNL d   1       0.647  -3.672  -0.306  0.00  0.00     0.002 A 
ATOM      6  C7  UNL d   1       1.544  -2.687   0.110  0.00  0.00     0.002 A 
ENDROOT
BRANCH   1   7
ATOM      7  C1  UNL d   1       3.797  -1.554   0.005  0.00  0.00     0.055 C 
ATOM      8  C   UNL d   1       5.225  -1.881  -0.405  0.00  0.00     0.019 C 
ENDBRANCH   1   7
TORSDOF 1
ENDMDL
