MODEL 1
REMARK minimizedAffinity 6.86437798
REMARK minimizedRMSD -1
REMARK  1 active torsions:
REMARK  status: ('A' for Active; 'I' for Inactive)
REMARK    1  A    between atoms: C1_2  and  C2_3 
ROOT
ATOM      1  C2  UNL d   1       0.326   2.915   0.115  0.00  0.00    -0.077 A 
ATOM      2  C3  UNL d   1      -1.043   3.072   0.369  0.00  0.00     0.002 A 
ATOM      3  C4  UNL d   1      -1.588   2.657   1.586  0.00  0.00     0.002 A 
ATOM      4  C5  UNL d   1      -0.770   2.086   2.559  0.00  0.00    -0.004 A 
ATOM      5  C6  UNL d   1       0.593   1.924   2.315  0.00  0.00     0.002 A 
ATOM      6  C7  UNL d   1       1.139   2.337   1.098  0.00  0.00     0.002 A 
ENDROOT
BRANCH   1   7
ATOM      7  C1  UNL d   1       0.924   3.407  -1.177  0.00  0.00     0.055 C 
ATOM      8  C   UNL d   1       2.054   4.394  -0.924  0.00  0.00     0.019 C 
ENDBRANCH   1   7
TORSDOF 1
ENDMDL
