MODEL 1
REMARK minimizedAffinity 8.30479145
REMARK minimizedRMSD -1
REMARK  1 active torsions:
REMARK  status: ('A' for Active; 'I' for Inactive)
REMARK    1  A    between atoms: C1_2  and  C2_3 
ROOT
ATOM      1  C2  UNL d   1      -2.130   4.673   0.584  0.00  0.00    -0.077 A 
ATOM      2  C3  UNL d   1      -2.138   3.530   1.395  0.00  0.00     0.002 A 
ATOM      3  C4  UNL d   1      -1.645   2.316   0.911  0.00  0.00     0.002 A 
ATOM      4  C5  UNL d   1      -1.137   2.236  -0.384  0.00  0.00    -0.004 A 
ATOM      5  C6  UNL d   1      -1.126   3.367  -1.199  0.00  0.00     0.002 A 
ATOM      6  C7  UNL d   1      -1.619   4.580  -0.717  0.00  0.00     0.002 A 
ENDROOT
BRANCH   1   7
ATOM      7  C1  UNL d   1      -2.616   5.994   1.121  0.00  0.00     0.055 C 
ATOM      8  C   UNL d   1      -2.634   6.000   2.642  0.00  0.00     0.019 C 
ENDBRANCH   1   7
TORSDOF 1
ENDMDL
