MODEL 1
REMARK minimizedAffinity 5.27945137
REMARK minimizedRMSD -1
REMARK  1 active torsions:
REMARK  status: ('A' for Active; 'I' for Inactive)
REMARK    1  A    between atoms: C1_2  and  C2_3 
ROOT
ATOM      1  C2  UNL d   1      -3.085  -5.079  -4.936  0.00  0.00    -0.077 A 
ATOM      2  C3  UNL d   1      -4.148  -5.993  -4.934  0.00  0.00     0.002 A 
ATOM      3  C4  UNL d   1      -5.390  -5.632  -5.460  0.00  0.00     0.002 A 
ATOM      4  C5  UNL d   1      -5.579  -4.359  -5.995  0.00  0.00    -0.004 A 
ATOM      5  C6  UNL d   1      -4.529  -3.443  -5.999  0.00  0.00     0.002 A 
ATOM      6  C7  UNL d   1      -3.287  -3.801  -5.473  0.00  0.00     0.002 A 
ENDROOT
BRANCH   1   7
ATOM      7  C1  UNL d   1      -1.731  -5.483  -4.414  0.00  0.00     0.055 C 
ATOM      8  C   UNL d   1      -1.281  -4.574  -3.279  0.00  0.00     0.019 C 
ENDBRANCH   1   7
TORSDOF 1
ENDMDL
