MODEL 1
REMARK minimizedAffinity 9.44254303
REMARK minimizedRMSD -1
REMARK  1 active torsions:
REMARK  status: ('A' for Active; 'I' for Inactive)
REMARK    1  A    between atoms: C1_2  and  C2_3 
ROOT
ATOM      1  C2  UNL d   1      -1.317   3.063   1.117  0.00  0.00    -0.077 A 
ATOM      2  C3  UNL d   1      -1.595   3.234  -0.246  0.00  0.00     0.002 A 
ATOM      3  C4  UNL d   1      -0.791   2.626  -1.213  0.00  0.00     0.002 A 
ATOM      4  C5  UNL d   1       0.293   1.841  -0.826  0.00  0.00    -0.004 A 
ATOM      5  C6  UNL d   1       0.579   1.666   0.527  0.00  0.00     0.002 A 
ATOM      6  C7  UNL d   1      -0.223   2.274   1.495  0.00  0.00     0.002 A 
ENDROOT
BRANCH   1   7
ATOM      7  C1  UNL d   1      -2.212   3.677   2.162  0.00  0.00     0.055 C 
ATOM      8  C   UNL d   1      -2.420   5.163   1.908  0.00  0.00     0.019 C 
ENDBRANCH   1   7
TORSDOF 1
ENDMDL
