MODEL 1
REMARK minimizedAffinity 18.6204128
REMARK minimizedRMSD -1
REMARK  1 active torsions:
REMARK  status: ('A' for Active; 'I' for Inactive)
REMARK    1  A    between atoms: C1_2  and  C2_3 
ROOT
ATOM      1  C2  UNL d   1       0.803   4.167  -1.488  0.00  0.00    -0.077 A 
ATOM      2  C3  UNL d   1      -0.342   4.542  -0.771  0.00  0.00     0.002 A 
ATOM      3  C4  UNL d   1      -1.035   3.601  -0.007  0.00  0.00     0.002 A 
ATOM      4  C5  UNL d   1      -0.589   2.282   0.051  0.00  0.00    -0.004 A 
ATOM      5  C6  UNL d   1       0.547   1.900  -0.661  0.00  0.00     0.002 A 
ATOM      6  C7  UNL d   1       1.241   2.838  -1.426  0.00  0.00     0.002 A 
ENDROOT
BRANCH   1   7
ATOM      7  C1  UNL d   1       1.581   5.191  -2.273  0.00  0.00     0.055 C 
ATOM      8  C   UNL d   1       0.884   5.531  -3.582  0.00  0.00     0.019 C 
ENDBRANCH   1   7
TORSDOF 1
ENDMDL
