MODEL 1
REMARK minimizedAffinity 9.22662735
REMARK minimizedRMSD -1
REMARK  1 active torsions:
REMARK  status: ('A' for Active; 'I' for Inactive)
REMARK    1  A    between atoms: C1_2  and  C2_3 
ROOT
ATOM      1  C2  UNL d   1      -1.991   2.228  -0.237  0.00  0.00    -0.077 A 
ATOM      2  C3  UNL d   1      -2.877   3.093  -0.895  0.00  0.00     0.002 A 
ATOM      3  C4  UNL d   1      -3.986   2.584  -1.575  0.00  0.00     0.002 A 
ATOM      4  C5  UNL d   1      -4.219   1.211  -1.600  0.00  0.00    -0.004 A 
ATOM      5  C6  UNL d   1      -3.342   0.343  -0.951  0.00  0.00     0.002 A 
ATOM      6  C7  UNL d   1      -2.233   0.849  -0.272  0.00  0.00     0.002 A 
ENDROOT
BRANCH   1   7
ATOM      7  C1  UNL d   1      -0.822   2.779   0.538  0.00  0.00     0.055 C 
ATOM      8  C   UNL d   1       0.501   2.378  -0.097  0.00  0.00     0.019 C 
ENDBRANCH   1   7
TORSDOF 1
ENDMDL
