MODEL 1
REMARK minimizedAffinity 9.09048843
REMARK minimizedRMSD -1
REMARK  1 active torsions:
REMARK  status: ('A' for Active; 'I' for Inactive)
REMARK    1  A    between atoms: C1_2  and  C2_3 
ROOT
ATOM      1  C2  UNL d   1       1.299   2.523   0.923  0.00  0.00    -0.077 A 
ATOM      2  C3  UNL d   1       1.770   3.315  -0.135  0.00  0.00     0.002 A 
ATOM      3  C4  UNL d   1       0.880   3.841  -1.073  0.00  0.00     0.002 A 
ATOM      4  C5  UNL d   1      -0.486   3.586  -0.960  0.00  0.00    -0.004 A 
ATOM      5  C6  UNL d   1      -0.963   2.798   0.086  0.00  0.00     0.002 A 
ATOM      6  C7  UNL d   1      -0.075   2.270   1.024  0.00  0.00     0.002 A 
ENDROOT
BRANCH   1   7
ATOM      7  C1  UNL d   1       2.252   1.995   1.963  0.00  0.00     0.055 C 
ATOM      8  C   UNL d   1       2.847   3.124   2.793  0.00  0.00     0.019 C 
ENDBRANCH   1   7
TORSDOF 1
ENDMDL
