MODEL 1
REMARK minimizedAffinity 9.54394627
REMARK minimizedRMSD -1
REMARK  1 active torsions:
REMARK  status: ('A' for Active; 'I' for Inactive)
REMARK    1  A    between atoms: C1_2  and  C2_3 
ROOT
ATOM      1  C2  UNL d   1       2.308  -5.158  -2.041  0.00  0.00    -0.077 A 
ATOM      2  C3  UNL d   1       1.907  -4.685  -3.298  0.00  0.00     0.002 A 
ATOM      3  C4  UNL d   1       0.738  -3.933  -3.430  0.00  0.00     0.002 A 
ATOM      4  C5  UNL d   1      -0.037  -3.644  -2.308  0.00  0.00    -0.004 A 
ATOM      5  C6  UNL d   1       0.353  -4.112  -1.054  0.00  0.00     0.002 A 
ATOM      6  C7  UNL d   1       1.521  -4.865  -0.921  0.00  0.00     0.002 A 
ENDROOT
BRANCH   1   7
ATOM      7  C1  UNL d   1       3.595  -5.928  -1.890  0.00  0.00     0.055 C 
ATOM      8  C   UNL d   1       4.444  -5.840  -3.150  0.00  0.00     0.019 C 
ENDBRANCH   1   7
TORSDOF 1
ENDMDL
