MODEL 1
REMARK minimizedAffinity 0.887710273
REMARK minimizedRMSD -1
REMARK  0 active torsions:
REMARK  status: ('A' for Active; 'I' for Inactive)
ROOT
ATOM      1  C4' PXY d   1       1.366  -5.972  -5.230  0.00  0.00     0.077 C 
ATOM      2  C1' PXY d   1      -3.513  -6.000  -2.130  0.00  0.00     0.077 C 
ATOM      3  C1  PXY d   1      -2.240  -5.998  -2.953  0.00  0.00    -0.082 A 
ATOM      4  C2  PXY d   1      -1.066  -5.997  -2.342  0.00  0.00     0.003 A 
ATOM      5  C3  PXY d   1       0.095  -5.963  -3.071  0.00  0.00     0.003 A 
ATOM      6  C4  PXY d   1       0.055  -5.984  -4.440  0.00  0.00    -0.082 A 
ATOM      7  C5  PXY d   1      -1.139  -5.995  -5.070  0.00  0.00     0.003 A 
ATOM      8  C6  PXY d   1      -2.306  -5.988  -4.312  0.00  0.00     0.003 A 
ENDROOT
TORSDOF 0
ENDMDL
