MODEL 1
REMARK minimizedAffinity 2.39183903
REMARK minimizedRMSD -1
REMARK  0 active torsions:
REMARK  status: ('A' for Active; 'I' for Inactive)
ROOT
ATOM      1  C4' PXY d   1      -3.557  -5.996  -2.090  0.00  0.00     0.077 C 
ATOM      2  C1' PXY d   1       1.306  -5.978  -5.215  0.00  0.00     0.077 C 
ATOM      3  C1  PXY d   1       0.038  -5.988  -4.385  0.00  0.00    -0.082 A 
ATOM      4  C2  PXY d   1      -1.139  -6.000  -4.990  0.00  0.00     0.003 A 
ATOM      5  C3  PXY d   1      -2.297  -5.977  -4.256  0.00  0.00     0.003 A 
ATOM      6  C4  PXY d   1      -2.249  -5.995  -2.887  0.00  0.00    -0.082 A 
ATOM      7  C5  PXY d   1      -1.053  -5.993  -2.263  0.00  0.00     0.003 A 
ATOM      8  C6  PXY d   1       0.111  -5.975  -3.027  0.00  0.00     0.003 A 
ENDROOT
TORSDOF 0
ENDMDL
