MODEL 1
REMARK minimizedAffinity 2.89315701
REMARK minimizedRMSD -1
REMARK  0 active torsions:
REMARK  status: ('A' for Active; 'I' for Inactive)
ROOT
ATOM      1  C4' PXY d   1      -3.094  -5.999  -1.648  0.00  0.00     0.077 C 
ATOM      2  C1' PXY d   1       1.211  -5.979  -5.506  0.00  0.00     0.077 C 
ATOM      3  C1  PXY d   1       0.090  -5.990  -4.485  0.00  0.00    -0.082 A 
ATOM      4  C2  PXY d   1      -1.168  -6.000  -4.895  0.00  0.00     0.003 A 
ATOM      5  C3  PXY d   1      -2.194  -5.977  -3.986  0.00  0.00     0.003 A 
ATOM      6  C4  PXY d   1      -1.930  -5.998  -2.643  0.00  0.00    -0.082 A 
ATOM      7  C5  PXY d   1      -0.649  -5.999  -2.216  0.00  0.00     0.003 A 
ATOM      8  C6  PXY d   1       0.378  -5.980  -3.155  0.00  0.00     0.003 A 
ENDROOT
TORSDOF 0
ENDMDL
