MODEL 1
REMARK minimizedAffinity 2.8891778
REMARK minimizedRMSD -1
REMARK  0 active torsions:
REMARK  status: ('A' for Active; 'I' for Inactive)
ROOT
ATOM      1  C4' PXY d   1       0.412   4.080   0.808  0.00  0.00     0.077 C 
ATOM      2  C1' PXY d   1       5.999   4.399  -0.640  0.00  0.00     0.077 C 
ATOM      3  C1  PXY d   1       4.536   4.321  -0.249  0.00  0.00    -0.082 A 
ATOM      4  C2  PXY d   1       3.754   3.418  -0.818  0.00  0.00     0.003 A 
ATOM      5  C3  PXY d   1       2.422   3.355  -0.499  0.00  0.00     0.003 A 
ATOM      6  C4  PXY d   1       1.896   4.189   0.451  0.00  0.00    -0.082 A 
ATOM      7  C5  PXY d   1       2.690   5.106   1.044  0.00  0.00     0.003 A 
ATOM      8  C6  PXY d   1       4.031   5.182   0.676  0.00  0.00     0.003 A 
ENDROOT
TORSDOF 0
ENDMDL
