MODEL 1
REMARK minimizedAffinity 2.74972868
REMARK minimizedRMSD -1
REMARK  0 active torsions:
REMARK  status: ('A' for Active; 'I' for Inactive)
ROOT
ATOM      1  C4' PXY d   1      -2.872  -5.996  -2.263  0.00  0.00     0.077 C 
ATOM      2  C1' PXY d   1       1.853  -5.981  -5.594  0.00  0.00     0.077 C 
ATOM      3  C1  PXY d   1       0.607  -5.980  -4.730  0.00  0.00    -0.082 A 
ATOM      4  C2  PXY d   1       0.724  -5.969  -3.412  0.00  0.00     0.003 A 
ATOM      5  C3  PXY d   1      -0.391  -5.999  -2.616  0.00  0.00     0.003 A 
ATOM      6  C4  PXY d   1      -1.641  -5.988  -3.174  0.00  0.00    -0.082 A 
ATOM      7  C5  PXY d   1      -1.770  -5.989  -4.518  0.00  0.00     0.003 A 
ATOM      8  C6  PXY d   1      -0.625  -5.999  -5.309  0.00  0.00     0.003 A 
ENDROOT
TORSDOF 0
ENDMDL
