MODEL 1
REMARK minimizedAffinity -2.41580081
REMARK minimizedRMSD -1
REMARK  0 active torsions:
REMARK  status: ('A' for Active; 'I' for Inactive)
ROOT
ATOM      1  C4' PXY d   1      -2.958  -5.999  -2.225  0.00  0.00     0.077 C 
ATOM      2  C1' PXY d   1       1.418  -5.871  -6.000  0.00  0.00     0.077 C 
ATOM      3  C1  PXY d   1       0.278  -5.910  -5.001  0.00  0.00    -0.082 A 
ATOM      4  C2  PXY d   1      -0.972  -5.901  -5.434  0.00  0.00     0.003 A 
ATOM      5  C3  PXY d   1      -2.015  -5.904  -4.544  0.00  0.00     0.003 A 
ATOM      6  C4  PXY d   1      -1.776  -5.970  -3.197  0.00  0.00    -0.082 A 
ATOM      7  C5  PXY d   1      -0.503  -5.991  -2.748  0.00  0.00     0.003 A 
ATOM      8  C6  PXY d   1       0.541  -5.946  -3.666  0.00  0.00     0.003 A 
ENDROOT
TORSDOF 0
ENDMDL
