MODEL 1
REMARK minimizedAffinity 5.69268751
REMARK minimizedRMSD -1
REMARK  0 active torsions:
REMARK  status: ('A' for Active; 'I' for Inactive)
ROOT
ATOM      1  C4' PXY d   1      -2.380  -1.823   0.255  0.00  0.00     0.077 C 
ATOM      2  C1' PXY d   1       3.217  -0.575   0.980  0.00  0.00     0.077 C 
ATOM      3  C1  PXY d   1       1.746  -0.890   0.793  0.00  0.00    -0.082 A 
ATOM      4  C2  PXY d   1       1.327  -2.141   0.896  0.00  0.00     0.003 A 
ATOM      5  C3  PXY d   1       0.005  -2.448   0.699  0.00  0.00     0.003 A 
ATOM      6  C4  PXY d   1      -0.905  -1.457   0.445  0.00  0.00    -0.082 A 
ATOM      7  C5  PXY d   1      -0.487  -0.178   0.348  0.00  0.00     0.003 A 
ATOM      8  C6  PXY d   1       0.865   0.108   0.511  0.00  0.00     0.003 A 
ENDROOT
TORSDOF 0
ENDMDL
