MODEL 1
REMARK minimizedAffinity -3.00960779
REMARK minimizedRMSD -1
REMARK  0 active torsions:
REMARK  status: ('A' for Active; 'I' for Inactive)
ROOT
ATOM      1  C4' PXY d   1       1.615  -5.573  -4.849  0.00  0.00     0.077 C 
ATOM      2  C1' PXY d   1      -4.150  -5.997  -4.886  0.00  0.00     0.077 C 
ATOM      3  C1  PXY d   1      -2.638  -5.882  -4.864  0.00  0.00    -0.082 A 
ATOM      4  C2  PXY d   1      -1.979  -5.711  -5.998  0.00  0.00     0.003 A 
ATOM      5  C3  PXY d   1      -0.609  -5.637  -6.000  0.00  0.00     0.003 A 
ATOM      6  C4  PXY d   1       0.088  -5.685  -4.823  0.00  0.00    -0.082 A 
ATOM      7  C5  PXY d   1      -0.578  -5.849  -3.660  0.00  0.00     0.003 A 
ATOM      8  C6  PXY d   1      -1.965  -5.963  -3.684  0.00  0.00     0.003 A 
ENDROOT
TORSDOF 0
ENDMDL
