MODEL 1
REMARK minimizedAffinity 1.22590566
REMARK minimizedRMSD -1
REMARK  0 active torsions:
REMARK  status: ('A' for Active; 'I' for Inactive)
ROOT
ATOM      1  C4' PXY d   1       3.692  -1.012   0.883  0.00  0.00     0.077 C 
ATOM      2  C1' PXY d   1      -1.945  -1.911  -0.028  0.00  0.00     0.077 C 
ATOM      3  C1  PXY d   1      -0.466  -1.685   0.219  0.00  0.00    -0.082 A 
ATOM      4  C2  PXY d   1       0.061  -0.494  -0.012  0.00  0.00     0.003 A 
ATOM      5  C3  PXY d   1       1.403  -0.281   0.175  0.00  0.00     0.003 A 
ATOM      6  C4  PXY d   1       2.203  -1.283   0.656  0.00  0.00    -0.082 A 
ATOM      7  C5  PXY d   1       1.670  -2.498   0.905  0.00  0.00     0.003 A 
ATOM      8  C6  PXY d   1       0.314  -2.705   0.669  0.00  0.00     0.003 A 
ENDROOT
TORSDOF 0
ENDMDL
