MODEL 1
REMARK minimizedAffinity 1.59228492
REMARK minimizedRMSD -1
REMARK  0 active torsions:
REMARK  status: ('A' for Active; 'I' for Inactive)
ROOT
ATOM      1  C4' PXY d   1       1.647  -5.960  -5.976  0.00  0.00     0.077 C 
ATOM      2  C1' PXY d   1      -2.997  -6.000  -2.535  0.00  0.00     0.077 C 
ATOM      3  C1  PXY d   1      -1.772  -5.984  -3.428  0.00  0.00    -0.082 A 
ATOM      4  C2  PXY d   1      -1.921  -5.980  -4.742  0.00  0.00     0.003 A 
ATOM      5  C3  PXY d   1      -0.824  -5.998  -5.565  0.00  0.00     0.003 A 
ATOM      6  C4  PXY d   1       0.438  -5.966  -5.036  0.00  0.00    -0.082 A 
ATOM      7  C5  PXY d   1       0.598  -5.960  -3.696  0.00  0.00     0.003 A 
ATOM      8  C6  PXY d   1      -0.528  -5.983  -2.878  0.00  0.00     0.003 A 
ENDROOT
TORSDOF 0
ENDMDL
