MODEL 1
REMARK minimizedAffinity 10.9092989
REMARK minimizedRMSD -1
REMARK  0 active torsions:
REMARK  status: ('A' for Active; 'I' for Inactive)
ROOT
ATOM      1  C4' PXY d   1       2.541  -5.860  -3.694  0.00  0.00     0.077 C 
ATOM      2  C1' PXY d   1      -2.971  -5.999  -5.430  0.00  0.00     0.077 C 
ATOM      3  C1  PXY d   1      -1.522  -5.968  -4.986  0.00  0.00    -0.082 A 
ATOM      4  C2  PXY d   1      -1.234  -5.919  -3.696  0.00  0.00     0.003 A 
ATOM      5  C3  PXY d   1       0.070  -5.858  -3.278  0.00  0.00     0.003 A 
ATOM      6  C4  PXY d   1       1.092  -5.902  -4.188  0.00  0.00    -0.082 A 
ATOM      7  C5  PXY d   1       0.807  -5.963  -5.506  0.00  0.00     0.003 A 
ATOM      8  C6  PXY d   1      -0.524  -5.982  -5.912  0.00  0.00     0.003 A 
ENDROOT
TORSDOF 0
ENDMDL
