MODEL 1
REMARK minimizedAffinity -1.57330525
REMARK minimizedRMSD -1
REMARK  0 active torsions:
REMARK  status: ('A' for Active; 'I' for Inactive)
ROOT
ATOM      1  C4' PXY d   1       3.249  -0.554   0.395  0.00  0.00     0.077 C 
ATOM      2  C1' PXY d   1      -2.096  -2.613   1.171  0.00  0.00     0.077 C 
ATOM      3  C1  PXY d   1      -0.699  -2.061   0.964  0.00  0.00    -0.082 A 
ATOM      4  C2  PXY d   1       0.295  -2.888   0.684  0.00  0.00     0.003 A 
ATOM      5  C3  PXY d   1       1.571  -2.409   0.526  0.00  0.00     0.003 A 
ATOM      6  C4  PXY d   1       1.821  -1.065   0.603  0.00  0.00    -0.082 A 
ATOM      7  C5  PXY d   1       0.809  -0.215   0.877  0.00  0.00     0.003 A 
ATOM      8  C6  PXY d   1      -0.471  -0.725   1.075  0.00  0.00     0.003 A 
ENDROOT
TORSDOF 0
ENDMDL
