MODEL 1
REMARK minimizedAffinity 0.197748989
REMARK minimizedRMSD -1
REMARK  0 active torsions:
REMARK  status: ('A' for Active; 'I' for Inactive)
ROOT
ATOM      1  C4' PXY d   1      -2.068  -2.744   1.523  0.00  0.00     0.077 C 
ATOM      2  C1' PXY d   1       2.403   0.630   0.095  0.00  0.00     0.077 C 
ATOM      3  C1  PXY d   1       1.233  -0.262   0.459  0.00  0.00    -0.082 A 
ATOM      4  C2  PXY d   1       0.262   0.211   1.224  0.00  0.00     0.003 A 
ATOM      5  C3  PXY d   1      -0.788  -0.592   1.588  0.00  0.00     0.003 A 
ATOM      6  C4  PXY d   1      -0.872  -1.877   1.122  0.00  0.00    -0.082 A 
ATOM      7  C5  PXY d   1       0.109  -2.364   0.333  0.00  0.00     0.003 A 
ATOM      8  C6  PXY d   1       1.187  -1.545   0.008  0.00  0.00     0.003 A 
ENDROOT
TORSDOF 0
ENDMDL
