MODEL 1
REMARK minimizedAffinity 5.55195522
REMARK minimizedRMSD -1
REMARK  0 active torsions:
REMARK  status: ('A' for Active; 'I' for Inactive)
ROOT
ATOM      1  C4' PXY d   1       1.910   1.867  -0.104  0.00  0.00     0.077 C 
ATOM      2  C1' PXY d   1      -0.618  -3.157   1.229  0.00  0.00     0.077 C 
ATOM      3  C1  PXY d   1       0.043  -1.842   0.866  0.00  0.00    -0.082 A 
ATOM      4  C2  PXY d   1       0.916  -1.298   1.698  0.00  0.00     0.003 A 
ATOM      5  C3  PXY d   1       1.499  -0.093   1.401  0.00  0.00     0.003 A 
ATOM      6  C4  PXY d   1       1.226   0.536   0.216  0.00  0.00    -0.082 A 
ATOM      7  C5  PXY d   1       0.344  -0.019  -0.643  0.00  0.00     0.003 A 
ATOM      8  C6  PXY d   1      -0.268  -1.222  -0.304  0.00  0.00     0.003 A 
ENDROOT
TORSDOF 0
ENDMDL
