MODEL 1
REMARK minimizedAffinity -4.22534227
REMARK minimizedRMSD -1
REMARK  0 active torsions:
REMARK  status: ('A' for Active; 'I' for Inactive)
ROOT
ATOM      1  C4' PXY d   1      -3.675  -6.000  -2.061  0.00  0.00     0.077 C 
ATOM      2  C1' PXY d   1       0.714  -5.707  -5.812  0.00  0.00     0.077 C 
ATOM      3  C1  PXY d   1      -0.445  -5.778  -4.837  0.00  0.00    -0.082 A 
ATOM      4  C2  PXY d   1      -0.203  -5.846  -3.538  0.00  0.00     0.003 A 
ATOM      5  C3  PXY d   1      -1.239  -5.944  -2.645  0.00  0.00     0.003 A 
ATOM      6  C4  PXY d   1      -2.536  -5.917  -3.082  0.00  0.00    -0.082 A 
ATOM      7  C5  PXY d   1      -2.791  -5.836  -4.405  0.00  0.00     0.003 A 
ATOM      8  C6  PXY d   1      -1.725  -5.780  -5.298  0.00  0.00     0.003 A 
ENDROOT
TORSDOF 0
ENDMDL
