MODEL 1
REMARK minimizedAffinity -1.25555897
REMARK minimizedRMSD -1
REMARK  0 active torsions:
REMARK  status: ('A' for Active; 'I' for Inactive)
ROOT
ATOM      1  C4' PXY d   1      -3.611  -5.999  -1.879  0.00  0.00     0.077 C 
ATOM      2  C1' PXY d   1       1.082  -5.979  -5.255  0.00  0.00     0.077 C 
ATOM      3  C1  PXY d   1      -0.141  -5.989  -4.360  0.00  0.00    -0.082 A 
ATOM      4  C2  PXY d   1      -1.348  -5.998  -4.902  0.00  0.00     0.003 A 
ATOM      5  C3  PXY d   1      -2.466  -5.976  -4.108  0.00  0.00     0.003 A 
ATOM      6  C4  PXY d   1      -2.347  -5.998  -2.744  0.00  0.00    -0.082 A 
ATOM      7  C5  PXY d   1      -1.119  -5.999  -2.183  0.00  0.00     0.003 A 
ATOM      8  C6  PXY d   1       0.003  -5.981  -3.007  0.00  0.00     0.003 A 
ENDROOT
TORSDOF 0
ENDMDL
