MODEL 1
REMARK minimizedAffinity 1.70748711
REMARK minimizedRMSD -1
REMARK  0 active torsions:
REMARK  status: ('A' for Active; 'I' for Inactive)
ROOT
ATOM      1  C4' PXY d   1      -3.447  -5.995  -1.944  0.00  0.00     0.077 C 
ATOM      2  C1' PXY d   1       0.854  -5.984  -5.806  0.00  0.00     0.077 C 
ATOM      3  C1  PXY d   1      -0.266  -5.992  -4.785  0.00  0.00    -0.082 A 
ATOM      4  C2  PXY d   1      -1.525  -6.000  -5.193  0.00  0.00     0.003 A 
ATOM      5  C3  PXY d   1      -2.550  -5.975  -4.283  0.00  0.00     0.003 A 
ATOM      6  C4  PXY d   1      -2.284  -5.996  -2.940  0.00  0.00    -0.082 A 
ATOM      7  C5  PXY d   1      -1.003  -5.999  -2.515  0.00  0.00     0.003 A 
ATOM      8  C6  PXY d   1       0.023  -5.983  -3.455  0.00  0.00     0.003 A 
ENDROOT
TORSDOF 0
ENDMDL
