MODEL 1
REMARK minimizedAffinity 5.81954861
REMARK minimizedRMSD -1
REMARK  0 active torsions:
REMARK  status: ('A' for Active; 'I' for Inactive)
ROOT
ATOM      1  C4' PXY d   1      -3.433  -5.974  -1.091  0.00  0.00     0.077 C 
ATOM      2  C1' PXY d   1       0.594  -5.963  -5.238  0.00  0.00     0.077 C 
ATOM      3  C1  PXY d   1      -0.471  -5.961  -4.159  0.00  0.00    -0.082 A 
ATOM      4  C2  PXY d   1      -0.112  -5.937  -2.886  0.00  0.00     0.003 A 
ATOM      5  C3  PXY d   1      -1.061  -5.967  -1.897  0.00  0.00     0.003 A 
ATOM      6  C4  PXY d   1      -2.393  -5.967  -2.214  0.00  0.00    -0.082 A 
ATOM      7  C5  PXY d   1      -2.768  -5.981  -3.511  0.00  0.00     0.003 A 
ATOM      8  C6  PXY d   1      -1.788  -5.992  -4.500  0.00  0.00     0.003 A 
ENDROOT
TORSDOF 0
ENDMDL
