MODEL 1
REMARK minimizedAffinity 4.89700651
REMARK minimizedRMSD -1
REMARK  0 active torsions:
REMARK  status: ('A' for Active; 'I' for Inactive)
ROOT
ATOM      1  C4' PXY d   1      -1.772  -2.759   0.604  0.00  0.00     0.077 C 
ATOM      2  C1' PXY d   1       3.599  -0.623   0.644  0.00  0.00     0.077 C 
ATOM      3  C1  PXY d   1       2.195  -1.195   0.629  0.00  0.00    -0.082 A 
ATOM      4  C2  PXY d   1       1.160  -0.383   0.491  0.00  0.00     0.003 A 
ATOM      5  C3  PXY d   1      -0.118  -0.880   0.508  0.00  0.00     0.003 A 
ATOM      6  C4  PXY d   1      -0.336  -2.227   0.614  0.00  0.00    -0.082 A 
ATOM      7  C5  PXY d   1       0.716  -3.063   0.745  0.00  0.00     0.003 A 
ATOM      8  C6  PXY d   1       2.003  -2.535   0.767  0.00  0.00     0.003 A 
ENDROOT
TORSDOF 0
ENDMDL
