MODEL 1
REMARK minimizedAffinity -0.232241943
REMARK minimizedRMSD -1
REMARK  0 active torsions:
REMARK  status: ('A' for Active; 'I' for Inactive)
ROOT
ATOM      1  C4' PXY d   1       4.402  -0.079   0.577  0.00  0.00     0.077 C 
ATOM      2  C1' PXY d   1      -1.128  -1.724   0.229  0.00  0.00     0.077 C 
ATOM      3  C1  PXY d   1       0.320  -1.284   0.310  0.00  0.00    -0.082 A 
ATOM      4  C2  PXY d   1       1.226  -2.106   0.814  0.00  0.00     0.003 A 
ATOM      5  C3  PXY d   1       2.535  -1.713   0.925  0.00  0.00     0.003 A 
ATOM      6  C4  PXY d   1       2.930  -0.485   0.466  0.00  0.00    -0.082 A 
ATOM      7  C5  PXY d   1       2.013   0.356  -0.059  0.00  0.00     0.003 A 
ATOM      8  C6  PXY d   1       0.683  -0.047  -0.125  0.00  0.00     0.003 A 
ENDROOT
TORSDOF 0
ENDMDL
