MODEL 1
REMARK minimizedAffinity 9.36757374
REMARK minimizedRMSD -1
REMARK  0 active torsions:
REMARK  status: ('A' for Active; 'I' for Inactive)
ROOT
ATOM      1  N1  IND d   1       4.875  -5.187   4.255  0.00  0.00    -0.196 N 
ATOM      2  C2  IND d   1       5.836  -5.413   5.201  0.00  0.00     0.054 A 
ATOM      3  C3  IND d   1       5.973  -4.330   6.000  0.00  0.00    -0.031 A 
ATOM      4  C4  IND d   1       4.652  -2.120   5.999  0.00  0.00     0.051 A 
ATOM      5  C5  IND d   1       3.699  -1.435   5.300  0.00  0.00    -0.031 A 
ATOM      6  C6  IND d   1       3.074  -1.978   4.196  0.00  0.00     0.015 A 
ATOM      7  C7  IND d   1       3.373  -3.236   3.755  0.00  0.00    -0.016 A 
ATOM      8  C8  IND d   1       4.346  -3.932   4.459  0.00  0.00    -0.047 A 
ATOM      9  C9  IND d   1       5.014  -3.370   5.554  0.00  0.00    -0.096 A 
ATOM     10  HN1 IND d   1       4.641  -5.737   3.638  0.00  0.00     0.298 HD
ENDROOT
TORSDOF 0
ENDMDL
