MODEL 1
REMARK minimizedAffinity 8.0302496
REMARK minimizedRMSD -1
REMARK  0 active torsions:
REMARK  status: ('A' for Active; 'I' for Inactive)
ROOT
ATOM      1  N1  IND d   1      -1.232  -3.754  -2.640  0.00  0.00    -0.196 N 
ATOM      2  C2  IND d   1      -1.341  -4.278  -3.898  0.00  0.00     0.054 A 
ATOM      3  C3  IND d   1      -0.351  -5.170  -4.124  0.00  0.00    -0.031 A 
ATOM      4  C4  IND d   1       1.497  -6.000  -2.536  0.00  0.00     0.051 A 
ATOM      5  C5  IND d   1       2.026  -5.786  -1.294  0.00  0.00    -0.031 A 
ATOM      6  C6  IND d   1       1.484  -4.867  -0.419  0.00  0.00     0.015 A 
ATOM      7  C7  IND d   1       0.380  -4.133  -0.750  0.00  0.00    -0.016 A 
ATOM      8  C8  IND d   1      -0.156  -4.343  -2.013  0.00  0.00    -0.047 A 
ATOM      9  C9  IND d   1       0.416  -5.243  -2.921  0.00  0.00    -0.096 A 
ATOM     10  HN1 IND d   1      -1.748  -3.158  -2.298  0.00  0.00     0.298 HD
ENDROOT
TORSDOF 0
ENDMDL
