MODEL 1
REMARK minimizedAffinity 0.249318957
REMARK minimizedRMSD -1
REMARK  0 active torsions:
REMARK  status: ('A' for Active; 'I' for Inactive)
ROOT
ATOM      1  N1  IND d   1       0.763   2.906   0.442  0.00  0.00    -0.196 N 
ATOM      2  C2  IND d   1      -0.006   2.801   1.567  0.00  0.00     0.054 A 
ATOM      3  C3  IND d   1      -1.158   3.493   1.415  0.00  0.00    -0.031 A 
ATOM      4  C4  IND d   1      -2.033   4.784  -0.633  0.00  0.00     0.051 A 
ATOM      5  C5  IND d   1      -1.668   5.192  -1.885  0.00  0.00    -0.031 A 
ATOM      6  C6  IND d   1      -0.451   4.851  -2.438  0.00  0.00     0.015 A 
ATOM      7  C7  IND d   1       0.446   4.074  -1.760  0.00  0.00    -0.016 A 
ATOM      8  C8  IND d   1       0.082   3.664  -0.486  0.00  0.00    -0.047 A 
ATOM      9  C9  IND d   1      -1.134   4.043   0.097  0.00  0.00    -0.096 A 
ATOM     10  HN1 IND d   1       1.542   2.558   0.332  0.00  0.00     0.298 HD
ENDROOT
TORSDOF 0
ENDMDL
