MODEL 1
REMARK minimizedAffinity 4.72195148
REMARK minimizedRMSD -1
REMARK  0 active torsions:
REMARK  status: ('A' for Active; 'I' for Inactive)
ROOT
ATOM      1  N1  IND d   1       0.123   2.930  -0.510  0.00  0.00    -0.196 N 
ATOM      2  C2  IND d   1      -0.104   3.361   0.767  0.00  0.00     0.054 A 
ATOM      3  C3  IND d   1      -0.721   4.564   0.755  0.00  0.00    -0.031 A 
ATOM      4  C4  IND d   1      -1.544   5.959  -1.246  0.00  0.00     0.051 A 
ATOM      5  C5  IND d   1      -1.531   5.995  -2.613  0.00  0.00    -0.031 A 
ATOM      6  C6  IND d   1      -0.957   4.989  -3.363  0.00  0.00     0.015 A 
ATOM      7  C7  IND d   1      -0.382   3.900  -2.772  0.00  0.00    -0.016 A 
ATOM      8  C8  IND d   1      -0.387   3.863  -1.385  0.00  0.00    -0.047 A 
ATOM      9  C9  IND d   1      -0.930   4.902  -0.618  0.00  0.00    -0.096 A 
ATOM     10  HN1 IND d   1       0.518   2.198  -0.730  0.00  0.00     0.298 HD
ENDROOT
TORSDOF 0
ENDMDL
