MODEL 1
REMARK minimizedAffinity 7.82389784
REMARK minimizedRMSD -1
REMARK  0 active torsions:
REMARK  status: ('A' for Active; 'I' for Inactive)
ROOT
ATOM      1  N1  IND d   1       1.856   4.878   0.663  0.00  0.00    -0.196 N 
ATOM      2  C2  IND d   1       0.927   4.966  -0.337  0.00  0.00     0.054 A 
ATOM      3  C3  IND d   1      -0.061   4.063  -0.141  0.00  0.00    -0.031 A 
ATOM      4  C4  IND d   1      -0.408   2.414   1.805  0.00  0.00     0.051 A 
ATOM      5  C5  IND d   1       0.194   1.942   2.937  0.00  0.00    -0.031 A 
ATOM      6  C6  IND d   1       1.404   2.437   3.380  0.00  0.00     0.015 A 
ATOM      7  C7  IND d   1       2.054   3.434   2.710  0.00  0.00    -0.016 A 
ATOM      8  C8  IND d   1       1.449   3.911   1.555  0.00  0.00    -0.047 A 
ATOM      9  C9  IND d   1       0.242   3.383   1.078  0.00  0.00    -0.096 A 
ATOM     10  HN1 IND d   1       2.573   5.349   0.724  0.00  0.00     0.298 HD
ENDROOT
TORSDOF 0
ENDMDL
