MODEL 1
REMARK minimizedAffinity 5.72393417
REMARK minimizedRMSD -1
REMARK  0 active torsions:
REMARK  status: ('A' for Active; 'I' for Inactive)
ROOT
ATOM      1  N1  IND d   1       1.359  -3.004  -0.482  0.00  0.00    -0.196 N 
ATOM      2  C2  IND d   1       0.756  -4.210  -0.709  0.00  0.00     0.054 A 
ATOM      3  C3  IND d   1       1.682  -5.151  -1.001  0.00  0.00    -0.031 A 
ATOM      4  C4  IND d   1       4.248  -4.956  -1.065  0.00  0.00     0.051 A 
ATOM      5  C5  IND d   1       5.262  -4.045  -0.963  0.00  0.00    -0.031 A 
ATOM      6  C6  IND d   1       5.022  -2.714  -0.687  0.00  0.00     0.015 A 
ATOM      7  C7  IND d   1       3.754  -2.245  -0.491  0.00  0.00    -0.016 A 
ATOM      8  C8  IND d   1       2.722  -3.166  -0.601  0.00  0.00    -0.047 A 
ATOM      9  C9  IND d   1       2.956  -4.509  -0.922  0.00  0.00    -0.096 A 
ATOM     10  HN1 IND d   1       0.954  -2.268  -0.297  0.00  0.00     0.298 HD
ENDROOT
TORSDOF 0
ENDMDL
