MODEL 1
REMARK minimizedAffinity 21.5739288
REMARK minimizedRMSD -1
REMARK  0 active torsions:
REMARK  status: ('A' for Active; 'I' for Inactive)
ROOT
ATOM      1  N1  IND d   1      -0.727   4.107   0.961  0.00  0.00    -0.196 N 
ATOM      2  C2  IND d   1       0.051   2.985   0.894  0.00  0.00     0.054 A 
ATOM      3  C3  IND d   1       0.422   2.745  -0.383  0.00  0.00    -0.031 A 
ATOM      4  C4  IND d   1      -0.047   4.120  -2.509  0.00  0.00     0.051 A 
ATOM      5  C5  IND d   1      -0.745   5.207  -2.956  0.00  0.00    -0.031 A 
ATOM      6  C6  IND d   1      -1.485   6.000  -2.103  0.00  0.00     0.015 A 
ATOM      7  C7  IND d   1      -1.546   5.741  -0.763  0.00  0.00    -0.016 A 
ATOM      8  C8  IND d   1      -0.845   4.634  -0.306  0.00  0.00    -0.047 A 
ATOM      9  C9  IND d   1      -0.127   3.801  -1.173  0.00  0.00    -0.096 A 
ATOM     10  HN1 IND d   1      -1.084   4.428   1.674  0.00  0.00     0.298 HD
ENDROOT
TORSDOF 0
ENDMDL
