MODEL 1
REMARK minimizedAffinity 9.87099743
REMARK minimizedRMSD -1
REMARK  0 active torsions:
REMARK  status: ('A' for Active; 'I' for Inactive)
ROOT
ATOM      1  N1  IND d   1      -5.998   5.981  -4.767  0.00  0.00    -0.196 N 
ATOM      2  C2  IND d   1      -5.238   5.785  -5.886  0.00  0.00     0.054 A 
ATOM      3  C3  IND d   1      -4.307   4.832  -5.661  0.00  0.00    -0.031 A 
ATOM      4  C4  IND d   1      -3.915   3.390  -3.564  0.00  0.00     0.051 A 
ATOM      5  C5  IND d   1      -4.334   3.230  -2.273  0.00  0.00    -0.031 A 
ATOM      6  C6  IND d   1      -5.353   3.991  -1.738  0.00  0.00     0.015 A 
ATOM      7  C7  IND d   1      -6.000   4.939  -2.480  0.00  0.00    -0.016 A 
ATOM      8  C8  IND d   1      -5.571   5.109  -3.789  0.00  0.00    -0.047 A 
ATOM      9  C9  IND d   1      -4.510   4.369  -4.325  0.00  0.00    -0.096 A 
ATOM     10  HN1 IND d   1      -6.636   6.552  -4.687  0.00  0.00     0.298 HD
ENDROOT
TORSDOF 0
ENDMDL
