MODEL 1
REMARK minimizedAffinity 15.0782871
REMARK minimizedRMSD -1
REMARK  0 active torsions:
REMARK  status: ('A' for Active; 'I' for Inactive)
ROOT
ATOM      1  N1  IND d   1      -5.986   0.930  -3.473  0.00  0.00    -0.196 N 
ATOM      2  C2  IND d   1      -5.950   1.809  -4.520  0.00  0.00     0.054 A 
ATOM      3  C3  IND d   1      -5.922   3.082  -4.064  0.00  0.00    -0.031 A 
ATOM      4  C4  IND d   1      -5.827   3.950  -1.643  0.00  0.00     0.051 A 
ATOM      5  C5  IND d   1      -5.877   3.528  -0.344  0.00  0.00    -0.031 A 
ATOM      6  C6  IND d   1      -5.965   2.191  -0.015  0.00  0.00     0.015 A 
ATOM      7  C7  IND d   1      -5.995   1.221  -0.977  0.00  0.00    -0.016 A 
ATOM      8  C8  IND d   1      -5.951   1.647  -2.297  0.00  0.00    -0.047 A 
ATOM      9  C9  IND d   1      -5.905   3.005  -2.638  0.00  0.00    -0.096 A 
ATOM     10  HN1 IND d   1      -6.025   0.074  -3.538  0.00  0.00     0.298 HD
ENDROOT
TORSDOF 0
ENDMDL
