MODEL 1
REMARK minimizedAffinity 6.32810402
REMARK minimizedRMSD -1
REMARK  0 active torsions:
REMARK  status: ('A' for Active; 'I' for Inactive)
ROOT
ATOM      1  C   UNL d   1      -2.781  -4.672  -0.833  0.00  0.00     0.020 A 
ATOM      2  C1  UNL d   1      -3.181  -3.501  -1.478  0.00  0.00     0.020 A 
ATOM      3  C2  UNL d   1      -2.763  -2.260  -0.993  0.00  0.00     0.034 A 
ATOM      4  C3  UNL d   1      -1.943  -2.186   0.138  0.00  0.00     0.017 A 
ATOM      5  C4  UNL d   1      -1.542  -3.361   0.785  0.00  0.00     0.017 A 
ATOM      6  C5  UNL d   1      -1.964  -4.601   0.295  0.00  0.00     0.034 A 
ATOM      7 Cl   UNL d   1      -0.531  -3.350   2.186  0.00  0.00    -0.070 Cl
ATOM      8 Cl1  UNL d   1      -1.463  -0.617   0.682  0.00  0.00    -0.070 Cl
ENDROOT
TORSDOF 0
ENDMDL
