MODEL 1
REMARK minimizedAffinity 1.45723081
REMARK minimizedRMSD -1
REMARK  0 active torsions:
REMARK  status: ('A' for Active; 'I' for Inactive)
ROOT
ATOM      1  C   UNL d   1      -0.481  -1.070  -0.930  0.00  0.00     0.020 A 
ATOM      2  C1  UNL d   1       0.114  -1.522   0.248  0.00  0.00     0.020 A 
ATOM      3  C2  UNL d   1       0.499  -0.608   1.231  0.00  0.00     0.034 A 
ATOM      4  C3  UNL d   1       0.290   0.762   1.038  0.00  0.00     0.017 A 
ATOM      5  C4  UNL d   1      -0.306   1.215  -0.144  0.00  0.00     0.017 A 
ATOM      6  C5  UNL d   1      -0.690   0.295  -1.125  0.00  0.00     0.034 A 
ATOM      7 Cl   UNL d   1      -0.596   2.890  -0.453  0.00  0.00    -0.070 Cl
ATOM      8 Cl1  UNL d   1       0.791   1.836   2.296  0.00  0.00    -0.070 Cl
ENDROOT
TORSDOF 0
ENDMDL
