MODEL 1
REMARK minimizedAffinity 9.966362
REMARK minimizedRMSD -1
REMARK  0 active torsions:
REMARK  status: ('A' for Active; 'I' for Inactive)
ROOT
ATOM      1  C   UNL d   1       3.333   3.892   0.118  0.00  0.00     0.020 A 
ATOM      2  C1  UNL d   1       3.742   2.568   0.276  0.00  0.00     0.020 A 
ATOM      3  C2  UNL d   1       4.560   2.214   1.350  0.00  0.00     0.034 A 
ATOM      4  C3  UNL d   1       4.973   3.184   2.271  0.00  0.00     0.017 A 
ATOM      5  C4  UNL d   1       4.562   4.512   2.111  0.00  0.00     0.017 A 
ATOM      6  C5  UNL d   1       3.743   4.862   1.034  0.00  0.00     0.034 A 
ATOM      7 Cl   UNL d   1       5.031   5.765   3.206  0.00  0.00    -0.070 Cl
ATOM      8 Cl1  UNL d   1       5.984   2.674   3.576  0.00  0.00    -0.070 Cl
ENDROOT
TORSDOF 0
ENDMDL
