MODEL 1
REMARK minimizedAffinity -0.144090056
REMARK minimizedRMSD -1
REMARK  0 active torsions:
REMARK  status: ('A' for Active; 'I' for Inactive)
ROOT
ATOM      1  C   UNL d   1      -5.613   5.275  -3.962  0.00  0.00     0.020 A 
ATOM      2  C1  UNL d   1      -5.881   6.000  -2.801  0.00  0.00     0.020 A 
ATOM      3  C2  UNL d   1      -5.996   5.338  -1.576  0.00  0.00     0.034 A 
ATOM      4  C3  UNL d   1      -5.844   3.948  -1.510  0.00  0.00     0.017 A 
ATOM      5  C4  UNL d   1      -5.575   3.222  -2.676  0.00  0.00     0.017 A 
ATOM      6  C5  UNL d   1      -5.461   3.890  -3.899  0.00  0.00     0.034 A 
ATOM      7 Cl   UNL d   1      -5.375   1.506  -2.673  0.00  0.00    -0.070 Cl
ATOM      8 Cl1  UNL d   1      -5.999   3.196   0.038  0.00  0.00    -0.070 Cl
ENDROOT
TORSDOF 0
ENDMDL
