MODEL 1
REMARK minimizedAffinity 14.0366259
REMARK minimizedRMSD -1
REMARK  0 active torsions:
REMARK  status: ('A' for Active; 'I' for Inactive)
ROOT
ATOM      1  C   UNL d   1      -4.755  -4.537  -1.709  0.00  0.00     0.020 A 
ATOM      2  C1  UNL d   1      -5.319  -4.063  -0.526  0.00  0.00     0.020 A 
ATOM      3  C2  UNL d   1      -4.496  -3.618   0.511  0.00  0.00     0.034 A 
ATOM      4  C3  UNL d   1      -3.104  -3.646   0.365  0.00  0.00     0.017 A 
ATOM      5  C4  UNL d   1      -2.539  -4.122  -0.823  0.00  0.00     0.017 A 
ATOM      6  C5  UNL d   1      -3.368  -4.566  -1.858  0.00  0.00     0.034 A 
ATOM      7 Cl   UNL d   1      -0.831  -4.187  -1.076  0.00  0.00    -0.070 Cl
ATOM      8 Cl1  UNL d   1      -2.147  -3.080   1.688  0.00  0.00    -0.070 Cl
ENDROOT
TORSDOF 0
ENDMDL
