MODEL 1
REMARK minimizedAffinity 11.2938709
REMARK minimizedRMSD -1
REMARK  0 active torsions:
REMARK  status: ('A' for Active; 'I' for Inactive)
ROOT
ATOM      1  C   UNL d   1      -2.066  -4.377  -0.286  0.00  0.00     0.020 A 
ATOM      2  C1  UNL d   1      -2.655  -3.353  -1.026  0.00  0.00     0.020 A 
ATOM      3  C2  UNL d   1      -2.878  -2.105  -0.439  0.00  0.00     0.034 A 
ATOM      4  C3  UNL d   1      -2.511  -1.879   0.893  0.00  0.00     0.017 A 
ATOM      5  C4  UNL d   1      -1.920  -2.908   1.635  0.00  0.00     0.017 A 
ATOM      6  C5  UNL d   1      -1.699  -4.155   1.042  0.00  0.00     0.034 A 
ATOM      7 Cl   UNL d   1      -1.441  -2.705   3.284  0.00  0.00    -0.070 Cl
ATOM      8 Cl1  UNL d   1      -2.816  -0.313   1.556  0.00  0.00    -0.070 Cl
ENDROOT
TORSDOF 0
ENDMDL
