MODEL 1
REMARK minimizedAffinity 0.219583184
REMARK minimizedRMSD -1
REMARK  0 active torsions:
REMARK  status: ('A' for Active; 'I' for Inactive)
ROOT
ATOM      1  C   UNL d   1      -5.984   4.000  -4.186  0.00  0.00     0.020 A 
ATOM      2  C1  UNL d   1      -5.990   5.389  -4.066  0.00  0.00     0.020 A 
ATOM      3  C2  UNL d   1      -5.995   5.981  -2.801  0.00  0.00     0.034 A 
ATOM      4  C3  UNL d   1      -5.993   5.183  -1.651  0.00  0.00     0.017 A 
ATOM      5  C4  UNL d   1      -5.987   3.789  -1.772  0.00  0.00     0.017 A 
ATOM      6  C5  UNL d   1      -5.982   3.202  -3.041  0.00  0.00     0.034 A 
ATOM      7 Cl   UNL d   1      -5.985   2.739  -0.399  0.00  0.00    -0.070 Cl
ATOM      8 Cl1  UNL d   1      -5.999   5.982  -0.119  0.00  0.00    -0.070 Cl
ENDROOT
TORSDOF 0
ENDMDL
