MODEL 1
REMARK minimizedAffinity 0.079483442
REMARK minimizedRMSD -1
REMARK  0 active torsions:
REMARK  status: ('A' for Active; 'I' for Inactive)
ROOT
ATOM      1  C   UNL d   1       1.057  -0.255  -1.300  0.00  0.00     0.020 A 
ATOM      2  C1  UNL d   1      -0.311  -0.514  -1.367  0.00  0.00     0.020 A 
ATOM      3  C2  UNL d   1      -1.174   0.039  -0.418  0.00  0.00     0.034 A 
ATOM      4  C3  UNL d   1      -0.669   0.854   0.602  0.00  0.00     0.017 A 
ATOM      5  C4  UNL d   1       0.705   1.113   0.668  0.00  0.00     0.017 A 
ATOM      6  C5  UNL d   1       1.564   0.557  -0.284  0.00  0.00     0.034 A 
ATOM      7 Cl   UNL d   1       1.401   2.109   1.897  0.00  0.00    -0.070 Cl
ATOM      8 Cl1  UNL d   1      -1.793   1.504   1.741  0.00  0.00    -0.070 Cl
ENDROOT
TORSDOF 0
ENDMDL
