MODEL 1
REMARK minimizedAffinity 6.2472949
REMARK minimizedRMSD -1
REMARK  0 active torsions:
REMARK  status: ('A' for Active; 'I' for Inactive)
ROOT
ATOM      1  C   UNL d   1      -5.993   3.992   1.160  0.00  0.00     0.020 A 
ATOM      2  C1  UNL d   1      -5.994   5.379   1.026  0.00  0.00     0.020 A 
ATOM      3  C2  UNL d   1      -5.996   5.958  -0.245  0.00  0.00     0.034 A 
ATOM      4  C3  UNL d   1      -5.997   5.149  -1.387  0.00  0.00     0.017 A 
ATOM      5  C4  UNL d   1      -5.996   3.756  -1.252  0.00  0.00     0.017 A 
ATOM      6  C5  UNL d   1      -5.994   3.182   0.023  0.00  0.00     0.034 A 
ATOM      7 Cl   UNL d   1      -5.997   2.692  -2.614  0.00  0.00    -0.070 Cl
ATOM      8 Cl1  UNL d   1      -6.000   5.932  -2.927  0.00  0.00    -0.070 Cl
ENDROOT
TORSDOF 0
ENDMDL
