MODEL 1
REMARK minimizedAffinity 3.98979402
REMARK minimizedRMSD -1
REMARK  0 active torsions:
REMARK  status: ('A' for Active; 'I' for Inactive)
ROOT
ATOM      1  C   UNL d   1       2.360   2.245   1.526  0.00  0.00     0.020 A 
ATOM      2  C1  UNL d   1       2.136   1.212   0.617  0.00  0.00     0.020 A 
ATOM      3  C2  UNL d   1       0.867   0.638   0.511  0.00  0.00     0.034 A 
ATOM      4  C3  UNL d   1      -0.183   1.098   1.315  0.00  0.00     0.017 A 
ATOM      5  C4  UNL d   1       0.043   2.135   2.227  0.00  0.00     0.017 A 
ATOM      6  C5  UNL d   1       1.316   2.705   2.329  0.00  0.00     0.034 A 
ATOM      7 Cl   UNL d   1      -1.202   2.755   3.253  0.00  0.00    -0.070 Cl
ATOM      8 Cl1  UNL d   1      -1.726   0.343   1.130  0.00  0.00    -0.070 Cl
ENDROOT
TORSDOF 0
ENDMDL
