MODEL 1
REMARK minimizedAffinity 7.34998417
REMARK minimizedRMSD -1
REMARK  0 active torsions:
REMARK  status: ('A' for Active; 'I' for Inactive)
ROOT
ATOM      1  C   UNL d   1       1.956   0.832   0.398  0.00  0.00     0.020 A 
ATOM      2  C1  UNL d   1       0.661   0.319   0.475  0.00  0.00     0.020 A 
ATOM      3  C2  UNL d   1      -0.311   0.987   1.222  0.00  0.00     0.034 A 
ATOM      4  C3  UNL d   1       0.009   2.172   1.894  0.00  0.00     0.017 A 
ATOM      5  C4  UNL d   1       1.308   2.687   1.816  0.00  0.00     0.017 A 
ATOM      6  C5  UNL d   1       2.278   2.013   1.067  0.00  0.00     0.034 A 
ATOM      7 Cl   UNL d   1       1.778   4.144   2.619  0.00  0.00    -0.070 Cl
ATOM      8 Cl1  UNL d   1      -1.244   2.946   2.799  0.00  0.00    -0.070 Cl
ENDROOT
TORSDOF 0
ENDMDL
