MODEL 1
REMARK minimizedAffinity 8.29700375
REMARK minimizedRMSD -1
REMARK  0 active torsions:
REMARK  status: ('A' for Active; 'I' for Inactive)
ROOT
ATOM      1  C   UNL d   1       6.000   5.636  -0.864  0.00  0.00     0.020 A 
ATOM      2  C1  UNL d   1       5.999   4.300  -1.263  0.00  0.00     0.020 A 
ATOM      3  C2  UNL d   1       5.423   3.327  -0.444  0.00  0.00     0.034 A 
ATOM      4  C3  UNL d   1       4.846   3.688   0.779  0.00  0.00     0.017 A 
ATOM      5  C4  UNL d   1       4.847   5.030   1.179  0.00  0.00     0.017 A 
ATOM      6  C5  UNL d   1       5.425   6.000   0.355  0.00  0.00     0.034 A 
ATOM      7 Cl   UNL d   1       4.153   5.552   2.673  0.00  0.00    -0.070 Cl
ATOM      8 Cl1  UNL d   1       4.151   2.433   1.742  0.00  0.00    -0.070 Cl
ENDROOT
TORSDOF 0
ENDMDL
