MODEL 1
REMARK minimizedAffinity 15.5967569
REMARK minimizedRMSD -1
REMARK  0 active torsions:
REMARK  status: ('A' for Active; 'I' for Inactive)
ROOT
ATOM      1  C   UNL d   1       0.953   4.487  -5.948  0.00  0.00     0.020 A 
ATOM      2  C1  UNL d   1       0.427   5.776  -5.879  0.00  0.00     0.020 A 
ATOM      3  C2  UNL d   1      -0.947   5.962  -5.718  0.00  0.00     0.034 A 
ATOM      4  C3  UNL d   1      -1.801   4.856  -5.627  0.00  0.00     0.017 A 
ATOM      5  C4  UNL d   1      -1.272   3.563  -5.697  0.00  0.00     0.017 A 
ATOM      6  C5  UNL d   1       0.105   3.383  -5.857  0.00  0.00     0.034 A 
ATOM      7 Cl   UNL d   1      -2.262   2.150  -5.591  0.00  0.00    -0.070 Cl
ATOM      8 Cl1  UNL d   1      -3.490   5.160  -5.429  0.00  0.00    -0.070 Cl
ENDROOT
TORSDOF 0
ENDMDL
