MODEL 1
REMARK minimizedAffinity 7.1318388
REMARK minimizedRMSD -1
REMARK  0 active torsions:
REMARK  status: ('A' for Active; 'I' for Inactive)
ROOT
ATOM      1  C   UNL d   1       5.999   3.870  -5.665  0.00  0.00     0.020 A 
ATOM      2  C1  UNL d   1       5.292   5.048  -5.904  0.00  0.00     0.020 A 
ATOM      3  C2  UNL d   1       3.899   5.019  -6.000  0.00  0.00     0.034 A 
ATOM      4  C3  UNL d   1       3.209   3.810  -5.856  0.00  0.00     0.017 A 
ATOM      5  C4  UNL d   1       3.919   2.628  -5.616  0.00  0.00     0.017 A 
ATOM      6  C5  UNL d   1       5.314   2.663  -5.521  0.00  0.00     0.034 A 
ATOM      7 Cl   UNL d   1       3.137   1.099  -5.427  0.00  0.00    -0.070 Cl
ATOM      8 Cl1  UNL d   1       1.486   3.848  -5.985  0.00  0.00    -0.070 Cl
ENDROOT
TORSDOF 0
ENDMDL
