MODEL 1
REMARK minimizedAffinity 5.06876898
REMARK minimizedRMSD -1
REMARK  0 active torsions:
REMARK  status: ('A' for Active; 'I' for Inactive)
ROOT
ATOM      1  C   UNL d   1      -1.020   1.189   0.911  0.00  0.00     0.020 A 
ATOM      2  C1  UNL d   1       0.341   1.194   1.213  0.00  0.00     0.020 A 
ATOM      3  C2  UNL d   1       0.797   1.835   2.367  0.00  0.00     0.034 A 
ATOM      4  C3  UNL d   1      -0.108   2.472   3.223  0.00  0.00     0.017 A 
ATOM      5  C4  UNL d   1      -1.474   2.466   2.919  0.00  0.00     0.017 A 
ATOM      6  C5  UNL d   1      -1.926   1.823   1.762  0.00  0.00     0.034 A 
ATOM      7 Cl   UNL d   1      -2.652   3.231   3.927  0.00  0.00    -0.070 Cl
ATOM      8 Cl1  UNL d   1       0.526   3.244   4.633  0.00  0.00    -0.070 Cl
ENDROOT
TORSDOF 0
ENDMDL
