MODEL 1
REMARK minimizedAffinity 0.215885624
REMARK minimizedRMSD -1
REMARK  0 active torsions:
REMARK  status: ('A' for Active; 'I' for Inactive)
ROOT
ATOM      1  C   UNL d   1      -2.435  -3.663   1.035  0.00  0.00     0.020 A 
ATOM      2  C1  UNL d   1      -2.332  -2.334   0.627  0.00  0.00     0.020 A 
ATOM      3  C2  UNL d   1      -2.441  -2.008  -0.726  0.00  0.00     0.034 A 
ATOM      4  C3  UNL d   1      -2.653  -3.013  -1.677  0.00  0.00     0.017 A 
ATOM      5  C4  UNL d   1      -2.757  -4.347  -1.267  0.00  0.00     0.017 A 
ATOM      6  C5  UNL d   1      -2.647  -4.668   0.090  0.00  0.00     0.034 A 
ATOM      7 Cl   UNL d   1      -3.018  -5.642  -2.382  0.00  0.00    -0.070 Cl
ATOM      8 Cl1  UNL d   1      -2.778  -2.538  -3.334  0.00  0.00    -0.070 Cl
ENDROOT
TORSDOF 0
ENDMDL
