MODEL 1
REMARK minimizedAffinity -3.1906662
REMARK minimizedRMSD -1
REMARK  0 active torsions:
REMARK  status: ('A' for Active; 'I' for Inactive)
ROOT
ATOM      1  C   UNL d   1      -5.691   2.078  -5.034  0.00  0.00     0.020 A 
ATOM      2  C1  UNL d   1      -5.882   2.094  -3.652  0.00  0.00     0.020 A 
ATOM      3  C2  UNL d   1      -5.974   3.311  -2.974  0.00  0.00     0.034 A 
ATOM      4  C3  UNL d   1      -5.876   4.518  -3.677  0.00  0.00     0.017 A 
ATOM      5  C4  UNL d   1      -5.685   4.501  -5.063  0.00  0.00     0.017 A 
ATOM      6  C5  UNL d   1      -5.593   3.279  -5.737  0.00  0.00     0.034 A 
ATOM      7 Cl   UNL d   1      -5.554   5.948  -5.999  0.00  0.00    -0.070 Cl
ATOM      8 Cl1  UNL d   1      -6.000   5.986  -2.774  0.00  0.00    -0.070 Cl
ENDROOT
TORSDOF 0
ENDMDL
