MODEL 1
REMARK minimizedAffinity 4.08077717
REMARK minimizedRMSD -1
REMARK  0 active torsions:
REMARK  status: ('A' for Active; 'I' for Inactive)
ROOT
ATOM      1  C   UNL d   1      -2.951  -1.090   1.632  0.00  0.00     0.020 A 
ATOM      2  C1  UNL d   1      -2.263  -1.634   2.716  0.00  0.00     0.020 A 
ATOM      3  C2  UNL d   1      -1.721  -2.918   2.624  0.00  0.00     0.034 A 
ATOM      4  C3  UNL d   1      -1.865  -3.661   1.447  0.00  0.00     0.017 A 
ATOM      5  C4  UNL d   1      -2.556  -3.114   0.360  0.00  0.00     0.017 A 
ATOM      6  C5  UNL d   1      -3.097  -1.828   0.457  0.00  0.00     0.034 A 
ATOM      7 Cl   UNL d   1      -2.775  -3.970  -1.125  0.00  0.00    -0.070 Cl
ATOM      8 Cl1  UNL d   1      -1.169  -5.242   1.405  0.00  0.00    -0.070 Cl
ENDROOT
TORSDOF 0
ENDMDL
