MODEL 1
REMARK minimizedAffinity 6.93964672
REMARK minimizedRMSD -1
REMARK  0 active torsions:
REMARK  status: ('A' for Active; 'I' for Inactive)
ROOT
ATOM      1  C   UNL d   1      -0.325   4.328  -5.802  0.00  0.00     0.020 A 
ATOM      2  C1  UNL d   1       1.055   4.317  -5.999  0.00  0.00     0.020 A 
ATOM      3  C2  UNL d   1       1.815   3.234  -5.551  0.00  0.00     0.034 A 
ATOM      4  C3  UNL d   1       1.196   2.158  -4.904  0.00  0.00     0.017 A 
ATOM      5  C4  UNL d   1      -0.190   2.170  -4.708  0.00  0.00     0.017 A 
ATOM      6  C5  UNL d   1      -0.946   3.257  -5.158  0.00  0.00     0.034 A 
ATOM      7 Cl   UNL d   1      -1.026   0.880  -3.919  0.00  0.00    -0.070 Cl
ATOM      8 Cl1  UNL d   1       2.197   0.853  -4.377  0.00  0.00    -0.070 Cl
ENDROOT
TORSDOF 0
ENDMDL
