MODEL 1
REMARK minimizedAffinity 5.07612276
REMARK minimizedRMSD -1
REMARK  0 active torsions:
REMARK  status: ('A' for Active; 'I' for Inactive)
ROOT
ATOM      1  C   UNL d   1      -0.129  -0.924  -0.656  0.00  0.00     0.023 A 
ATOM      2  C1  UNL d   1      -0.489  -0.654   0.664  0.00  0.00     0.003 A 
ATOM      3  C2  UNL d   1      -0.258   0.611   1.208  0.00  0.00     0.048 A 
ATOM      4  C3  UNL d   1       0.333   1.602   0.425  0.00  0.00     0.023 A 
ATOM      5  C4  UNL d   1       0.694   1.337  -0.897  0.00  0.00     0.048 A 
ATOM      6  C5  UNL d   1       0.462   0.070  -1.436  0.00  0.00     0.003 A 
ATOM      7  I   UNL d   1       0.678   3.487   1.231  0.00  0.00    -0.146 I 
ENDROOT
TORSDOF 0
ENDMDL
