MODEL 1
REMARK minimizedAffinity 5.00950909
REMARK minimizedRMSD -1
REMARK  0 active torsions:
REMARK  status: ('A' for Active; 'I' for Inactive)
ROOT
ATOM      1  C   UNL d   1      -1.901  -0.573   2.563  0.00  0.00     0.023 A 
ATOM      2  C1  UNL d   1      -1.371   0.678   2.247  0.00  0.00     0.003 A 
ATOM      3  C2  UNL d   1      -0.689   0.864   1.043  0.00  0.00     0.048 A 
ATOM      4  C3  UNL d   1      -0.540  -0.204   0.159  0.00  0.00     0.023 A 
ATOM      5  C4  UNL d   1      -1.069  -1.458   0.471  0.00  0.00     0.048 A 
ATOM      6  C5  UNL d   1      -1.750  -1.640   1.677  0.00  0.00     0.003 A 
ATOM      7  I   UNL d   1       0.475   0.071  -1.633  0.00  0.00    -0.146 I 
ENDROOT
TORSDOF 0
ENDMDL
