MODEL 1
REMARK minimizedAffinity 4.55583525
REMARK minimizedRMSD -1
REMARK  0 active torsions:
REMARK  status: ('A' for Active; 'I' for Inactive)
ROOT
ATOM      1  C   UNL d   1       3.747   3.305   0.245  0.00  0.00     0.023 A 
ATOM      2  C1  UNL d   1       3.523   2.203  -0.582  0.00  0.00     0.003 A 
ATOM      3  C2  UNL d   1       2.463   1.335  -0.317  0.00  0.00     0.048 A 
ATOM      4  C3  UNL d   1       1.629   1.574   0.775  0.00  0.00     0.023 A 
ATOM      5  C4  UNL d   1       1.849   2.675   1.604  0.00  0.00     0.048 A 
ATOM      6  C5  UNL d   1       2.911   3.540   1.336  0.00  0.00     0.003 A 
ATOM      7  I   UNL d   1       0.049   0.282   1.171  0.00  0.00    -0.146 I 
ENDROOT
TORSDOF 0
ENDMDL
