MODEL 1
REMARK minimizedAffinity 3.75178742
REMARK minimizedRMSD -1
REMARK  0 active torsions:
REMARK  status: ('A' for Active; 'I' for Inactive)
ROOT
ATOM      1  C   UNL d   1       0.420   0.029  -1.629  0.00  0.00     0.023 A 
ATOM      2  C1  UNL d   1      -0.519   0.503  -0.714  0.00  0.00     0.003 A 
ATOM      3  C2  UNL d   1      -0.166   1.499   0.199  0.00  0.00     0.048 A 
ATOM      4  C3  UNL d   1       1.129   2.017   0.190  0.00  0.00     0.023 A 
ATOM      5  C4  UNL d   1       2.072   1.546  -0.724  0.00  0.00     0.048 A 
ATOM      6  C5  UNL d   1       1.714   0.550  -1.635  0.00  0.00     0.003 A 
ATOM      7  I   UNL d   1       1.657   3.499   1.548  0.00  0.00    -0.146 I 
ENDROOT
TORSDOF 0
ENDMDL
