MODEL 1
REMARK minimizedAffinity 1.94004583
REMARK minimizedRMSD -1
REMARK  0 active torsions:
REMARK  status: ('A' for Active; 'I' for Inactive)
ROOT
ATOM      1  C   UNL d   1      -1.526  -2.125   1.739  0.00  0.00     0.023 A 
ATOM      2  C1  UNL d   1      -1.353  -0.743   1.662  0.00  0.00     0.003 A 
ATOM      3  C2  UNL d   1      -0.687  -0.182   0.571  0.00  0.00     0.048 A 
ATOM      4  C3  UNL d   1      -0.197  -1.008  -0.440  0.00  0.00     0.023 A 
ATOM      5  C4  UNL d   1      -0.369  -2.391  -0.368  0.00  0.00     0.048 A 
ATOM      6  C5  UNL d   1      -1.035  -2.948   0.726  0.00  0.00     0.003 A 
ATOM      7  I   UNL d   1       0.794  -0.175  -2.066  0.00  0.00    -0.146 I 
ENDROOT
TORSDOF 0
ENDMDL
