MODEL 1
REMARK minimizedAffinity -4.43771744
REMARK minimizedRMSD -1
REMARK  0 active torsions:
REMARK  status: ('A' for Active; 'I' for Inactive)
ROOT
ATOM      1  C   UNL d   1      -1.601  -1.375   1.603  0.00  0.00     0.023 A 
ATOM      2  C1  UNL d   1      -0.980  -2.386   0.870  0.00  0.00     0.003 A 
ATOM      3  C2  UNL d   1      -0.096  -2.062  -0.161  0.00  0.00     0.048 A 
ATOM      4  C3  UNL d   1       0.164  -0.723  -0.453  0.00  0.00     0.023 A 
ATOM      5  C4  UNL d   1      -0.454   0.292   0.278  0.00  0.00     0.048 A 
ATOM      6  C5  UNL d   1      -1.338  -0.037   1.307  0.00  0.00     0.003 A 
ATOM      7  I   UNL d   1       1.481  -0.238  -1.986  0.00  0.00    -0.146 I 
ENDROOT
TORSDOF 0
ENDMDL
