MODEL 1
REMARK minimizedAffinity -0.467584997
REMARK minimizedRMSD -1
REMARK  0 active torsions:
REMARK  status: ('A' for Active; 'I' for Inactive)
ROOT
ATOM      1  C   UNL d   1       4.259  -2.490   6.000  0.00  0.00     0.023 A 
ATOM      2  C1  UNL d   1       3.517  -3.107   4.993  0.00  0.00     0.003 A 
ATOM      3  C2  UNL d   1       4.013  -3.156   3.688  0.00  0.00     0.048 A 
ATOM      4  C3  UNL d   1       5.252  -2.587   3.398  0.00  0.00     0.023 A 
ATOM      5  C4  UNL d   1       5.999  -1.970   4.403  0.00  0.00     0.048 A 
ATOM      6  C5  UNL d   1       5.499  -1.923   5.706  0.00  0.00     0.003 A 
ATOM      7  I   UNL d   1       5.993  -2.659   1.458  0.00  0.00    -0.146 I 
ENDROOT
TORSDOF 0
ENDMDL
