MODEL 1
REMARK minimizedAffinity -0.424696356
REMARK minimizedRMSD -1
REMARK  0 active torsions:
REMARK  status: ('A' for Active; 'I' for Inactive)
ROOT
ATOM      1  C   UNL d   1      -1.490  -2.823   0.603  0.00  0.00     0.023 A 
ATOM      2  C1  UNL d   1      -1.518  -1.501   0.160  0.00  0.00     0.003 A 
ATOM      3  C2  UNL d   1      -0.382  -0.935  -0.423  0.00  0.00     0.048 A 
ATOM      4  C3  UNL d   1       0.778  -1.697  -0.560  0.00  0.00     0.023 A 
ATOM      5  C4  UNL d   1       0.810  -3.021  -0.118  0.00  0.00     0.048 A 
ATOM      6  C5  UNL d   1      -0.328  -3.582   0.465  0.00  0.00     0.003 A 
ATOM      7  I   UNL d   1       2.469  -0.856  -1.427  0.00  0.00    -0.146 I 
ENDROOT
TORSDOF 0
ENDMDL
