MODEL 1
REMARK minimizedAffinity -4.5325613
REMARK minimizedRMSD -1
REMARK  0 active torsions:
REMARK  status: ('A' for Active; 'I' for Inactive)
ROOT
ATOM      1  C   UNL d   1      -0.066  -4.280  -0.265  0.00  0.00     0.023 A 
ATOM      2  C1  UNL d   1       0.118  -3.390   0.793  0.00  0.00     0.003 A 
ATOM      3  C2  UNL d   1       0.139  -2.014   0.554  0.00  0.00     0.048 A 
ATOM      4  C3  UNL d   1      -0.024  -1.536  -0.746  0.00  0.00     0.023 A 
ATOM      5  C4  UNL d   1      -0.209  -2.423  -1.808  0.00  0.00     0.048 A 
ATOM      6  C5  UNL d   1      -0.229  -3.797  -1.564  0.00  0.00     0.003 A 
ATOM      7  I   UNL d   1       0.008   0.511  -1.104  0.00  0.00    -0.146 I 
ENDROOT
TORSDOF 0
ENDMDL
