MODEL 1
REMARK minimizedAffinity -5.53799534
REMARK minimizedRMSD -1
REMARK  0 active torsions:
REMARK  status: ('A' for Active; 'I' for Inactive)
ROOT
ATOM      1  C   UNL d   1       0.732  -3.511  -1.074  0.00  0.00     0.023 A 
ATOM      2  C1  UNL d   1       1.162  -2.803  -2.197  0.00  0.00     0.003 A 
ATOM      3  C2  UNL d   1       1.083  -1.409  -2.218  0.00  0.00     0.048 A 
ATOM      4  C3  UNL d   1       0.574  -0.729  -1.113  0.00  0.00     0.023 A 
ATOM      5  C4  UNL d   1       0.143  -1.432   0.013  0.00  0.00     0.048 A 
ATOM      6  C5  UNL d   1       0.223  -2.826   0.029  0.00  0.00     0.003 A 
ATOM      7  I   UNL d   1       0.455   1.346  -1.142  0.00  0.00    -0.146 I 
ENDROOT
TORSDOF 0
ENDMDL
