MODEL 1
REMARK minimizedAffinity -4.33706379
REMARK minimizedRMSD -1
REMARK  0 active torsions:
REMARK  status: ('A' for Active; 'I' for Inactive)
ROOT
ATOM      1  C   UNL d   1      -0.428  -1.750  -0.862  0.00  0.00     0.023 A 
ATOM      2  C1  UNL d   1       0.081  -0.979  -1.908  0.00  0.00     0.003 A 
ATOM      3  C2  UNL d   1       0.282   0.392  -1.733  0.00  0.00     0.048 A 
ATOM      4  C3  UNL d   1      -0.027   0.985  -0.510  0.00  0.00     0.023 A 
ATOM      5  C4  UNL d   1      -0.535   0.218   0.540  0.00  0.00     0.048 A 
ATOM      6  C5  UNL d   1      -0.735  -1.152   0.360  0.00  0.00     0.003 A 
ATOM      7  I   UNL d   1       0.272   3.025  -0.247  0.00  0.00    -0.146 I 
ENDROOT
TORSDOF 0
ENDMDL
