MODEL 1
REMARK minimizedAffinity 6.29344034
REMARK minimizedRMSD -1
REMARK  0 active torsions:
REMARK  status: ('A' for Active; 'I' for Inactive)
ROOT
ATOM      1  C   UNL d   1      -5.386   2.304  -2.578  0.00  0.00     0.124 A 
ATOM      2  C1  UNL d   1      -5.547   3.656  -2.307  0.00  0.00     0.062 A 
ATOM      3  C2  UNL d   1      -5.254   4.605  -3.283  0.00  0.00     0.162 A 
ATOM      4  C3  UNL d   1      -4.798   4.205  -4.539  0.00  0.00    -0.034 A 
ATOM      5  C4  UNL d   1      -4.638   2.844  -4.803  0.00  0.00     0.162 A 
ATOM      6  C5  UNL d   1      -4.932   1.899  -3.825  0.00  0.00     0.062 A 
ATOM      7  F   UNL d   1      -4.776   0.594  -4.088  0.00  0.00    -0.097 F 
ATOM      8  F1  UNL d   1      -4.201   2.424  -6.000  0.00  0.00    -0.096 F 
ATOM      9  I   UNL d   1      -4.358   5.620  -6.000  0.00  0.00    -0.060 I 
ATOM     10  F2  UNL d   1      -5.418   5.904  -2.994  0.00  0.00    -0.096 F 
ATOM     11  F3  UNL d   1      -5.985   4.050  -1.103  0.00  0.00    -0.097 F 
ATOM     12  F4  UNL d   1      -5.668   1.394  -1.637  0.00  0.00    -0.092 F 
ENDROOT
TORSDOF 0
ENDMDL
