MODEL 1
REMARK minimizedAffinity 15.8252497
REMARK minimizedRMSD -1
REMARK  0 active torsions:
REMARK  status: ('A' for Active; 'I' for Inactive)
ROOT
ATOM      1  C   UNL d   1      -1.757   0.381  -5.036  0.00  0.00     0.124 A 
ATOM      2  C1  UNL d   1      -2.493   1.310  -4.314  0.00  0.00     0.062 A 
ATOM      3  C2  UNL d   1      -1.883   2.059  -3.311  0.00  0.00     0.162 A 
ATOM      4  C3  UNL d   1      -0.529   1.881  -3.025  0.00  0.00    -0.034 A 
ATOM      5  C4  UNL d   1       0.204   0.944  -3.755  0.00  0.00     0.162 A 
ATOM      6  C5  UNL d   1      -0.410   0.198  -4.756  0.00  0.00     0.062 A 
ATOM      7  F   UNL d   1       0.302  -0.699  -5.453  0.00  0.00    -0.097 F 
ATOM      8  F1  UNL d   1       1.507   0.748  -3.506  0.00  0.00    -0.096 F 
ATOM      9  I   UNL d   1       0.386   2.998  -1.526  0.00  0.00    -0.060 I 
ATOM     10  F2  UNL d   1      -2.618   2.950  -2.629  0.00  0.00    -0.096 F 
ATOM     11  F3  UNL d   1      -3.794   1.488  -4.582  0.00  0.00    -0.097 F 
ATOM     12  F4  UNL d   1      -2.347  -0.339  -6.000  0.00  0.00    -0.092 F 
ENDROOT
TORSDOF 0
ENDMDL
