MODEL 1
REMARK minimizedAffinity 17.696146
REMARK minimizedRMSD -1
REMARK  0 active torsions:
REMARK  status: ('A' for Active; 'I' for Inactive)
ROOT
ATOM      1  C   UNL d   1      -0.647  -2.149  -5.708  0.00  0.00     0.124 A 
ATOM      2  C1  UNL d   1      -2.018  -1.962  -5.806  0.00  0.00     0.062 A 
ATOM      3  C2  UNL d   1      -2.870  -3.060  -5.890  0.00  0.00     0.162 A 
ATOM      4  C3  UNL d   1      -2.352  -4.355  -5.875  0.00  0.00    -0.034 A 
ATOM      5  C4  UNL d   1      -0.971  -4.535  -5.777  0.00  0.00     0.162 A 
ATOM      6  C5  UNL d   1      -0.124  -3.434  -5.693  0.00  0.00     0.062 A 
ATOM      7  F   UNL d   1       1.201  -3.616  -5.599  0.00  0.00    -0.097 F 
ATOM      8  F1  UNL d   1      -0.440  -5.766  -5.759  0.00  0.00    -0.096 F 
ATOM      9  I   UNL d   1      -3.622  -5.999  -5.999  0.00  0.00    -0.060 I 
ATOM     10  F2  UNL d   1      -4.191  -2.850  -5.983  0.00  0.00    -0.096 F 
ATOM     11  F3  UNL d   1      -2.526  -0.721  -5.821  0.00  0.00    -0.097 F 
ATOM     12  F4  UNL d   1       0.170  -1.091  -5.628  0.00  0.00    -0.092 F 
ENDROOT
TORSDOF 0
ENDMDL
