MODEL 1
REMARK minimizedAffinity 32.16539
REMARK minimizedRMSD -1
REMARK  0 active torsions:
REMARK  status: ('A' for Active; 'I' for Inactive)
ROOT
ATOM      1  C   UNL d   1      -1.746   1.723   1.627  0.00  0.00     0.124 A 
ATOM      2  C1  UNL d   1      -1.124   1.379   2.820  0.00  0.00     0.062 A 
ATOM      3  C2  UNL d   1       0.260   1.464   2.938  0.00  0.00     0.162 A 
ATOM      4  C3  UNL d   1       1.033   1.895   1.860  0.00  0.00    -0.034 A 
ATOM      5  C4  UNL d   1       0.401   2.238   0.663  0.00  0.00     0.162 A 
ATOM      6  C5  UNL d   1      -0.983   2.152   0.551  0.00  0.00     0.062 A 
ATOM      7  F   UNL d   1      -1.581   2.485  -0.602  0.00  0.00    -0.097 F 
ATOM      8  F1  UNL d   1       1.114   2.657  -0.393  0.00  0.00    -0.096 F 
ATOM      9  I   UNL d   1       3.103   2.023   2.032  0.00  0.00    -0.060 I 
ATOM     10  F2  UNL d   1       0.834   1.125   4.102  0.00  0.00    -0.096 F 
ATOM     11  F3  UNL d   1      -1.859   0.963   3.862  0.00  0.00    -0.097 F 
ATOM     12  F4  UNL d   1      -3.078   1.640   1.517  0.00  0.00    -0.092 F 
ENDROOT
TORSDOF 0
ENDMDL
