MODEL 1
REMARK minimizedAffinity 23.471756
REMARK minimizedRMSD -1
REMARK  0 active torsions:
REMARK  status: ('A' for Active; 'I' for Inactive)
ROOT
ATOM      1  C   UNL d   1       0.046  -0.882   5.036  0.00  0.00     0.124 A 
ATOM      2  C1  UNL d   1      -0.412   0.253   4.383  0.00  0.00     0.062 A 
ATOM      3  C2  UNL d   1       0.363   0.854   3.395  0.00  0.00     0.162 A 
ATOM      4  C3  UNL d   1       1.605   0.319   3.053  0.00  0.00    -0.034 A 
ATOM      5  C4  UNL d   1       2.060  -0.823   3.715  0.00  0.00     0.162 A 
ATOM      6  C5  UNL d   1       1.282  -1.419   4.701  0.00  0.00     0.062 A 
ATOM      7  F   UNL d   1       1.726  -2.517   5.331  0.00  0.00    -0.097 F 
ATOM      8  F1  UNL d   1       3.249  -1.364   3.411  0.00  0.00    -0.096 F 
ATOM      9  I   UNL d   1       2.767   1.213   1.576  0.00  0.00    -0.060 I 
ATOM     10  F2  UNL d   1      -0.105   1.950   2.780  0.00  0.00    -0.096 F 
ATOM     11  F3  UNL d   1      -1.605   0.775   4.705  0.00  0.00    -0.097 F 
ATOM     12  F4  UNL d   1      -0.701  -1.457   5.987  0.00  0.00    -0.092 F 
ENDROOT
TORSDOF 0
ENDMDL
