MODEL 1
REMARK minimizedAffinity 14.2060699
REMARK minimizedRMSD -1
REMARK  0 active torsions:
REMARK  status: ('A' for Active; 'I' for Inactive)
ROOT
ATOM      1  C   UNL d   1       2.640  -2.213  -2.000  0.00  0.00     0.124 A 
ATOM      2  C1  UNL d   1       3.939  -1.731  -2.088  0.00  0.00     0.062 A 
ATOM      3  C2  UNL d   1       4.749  -2.092  -3.160  0.00  0.00     0.162 A 
ATOM      4  C3  UNL d   1       4.262  -2.940  -4.156  0.00  0.00    -0.034 A 
ATOM      5  C4  UNL d   1       2.955  -3.421  -4.061  0.00  0.00     0.162 A 
ATOM      6  C5  UNL d   1       2.150  -3.058  -2.987  0.00  0.00     0.062 A 
ATOM      7  F   UNL d   1       0.895  -3.524  -2.904  0.00  0.00    -0.097 F 
ATOM      8  F1  UNL d   1       2.456  -4.238  -5.000  0.00  0.00    -0.096 F 
ATOM      9  I   UNL d   1       5.470  -3.482  -5.761  0.00  0.00    -0.060 I 
ATOM     10  F2  UNL d   1       6.000  -1.612  -3.219  0.00  0.00    -0.096 F 
ATOM     11  F3  UNL d   1       4.415  -0.916  -1.136  0.00  0.00    -0.097 F 
ATOM     12  F4  UNL d   1       1.863  -1.865  -0.967  0.00  0.00    -0.092 F 
ENDROOT
TORSDOF 0
ENDMDL
