MODEL 1
REMARK minimizedAffinity 24.5445671
REMARK minimizedRMSD -1
REMARK  0 active torsions:
REMARK  status: ('A' for Active; 'I' for Inactive)
ROOT
ATOM      1  C   UNL d   1       2.040  -0.721  -2.686  0.00  0.00     0.124 A 
ATOM      2  C1  UNL d   1       2.116  -1.021  -4.040  0.00  0.00     0.062 A 
ATOM      3  C2  UNL d   1       3.246  -1.652  -4.554  0.00  0.00     0.162 A 
ATOM      4  C3  UNL d   1       4.308  -1.988  -3.715  0.00  0.00    -0.034 A 
ATOM      5  C4  UNL d   1       4.224  -1.683  -2.355  0.00  0.00     0.162 A 
ATOM      6  C5  UNL d   1       3.093  -1.052  -1.846  0.00  0.00     0.062 A 
ATOM      7  F   UNL d   1       3.021  -0.764  -0.538  0.00  0.00    -0.097 F 
ATOM      8  F1  UNL d   1       5.227  -1.992  -1.520  0.00  0.00    -0.096 F 
ATOM      9  I   UNL d   1       5.998  -2.931  -4.480  0.00  0.00    -0.060 I 
ATOM     10  F2  UNL d   1       3.293  -1.929  -5.865  0.00  0.00    -0.096 F 
ATOM     11  F3  UNL d   1       1.101  -0.702  -4.854  0.00  0.00    -0.097 F 
ATOM     12  F4  UNL d   1       0.953  -0.114  -2.194  0.00  0.00    -0.092 F 
ENDROOT
TORSDOF 0
ENDMDL
