MODEL 1
REMARK minimizedAffinity 13.8722029
REMARK minimizedRMSD -1
REMARK  0 active torsions:
REMARK  status: ('A' for Active; 'I' for Inactive)
ROOT
ATOM      1  C   UNL d   1      -2.995   4.474  -1.796  0.00  0.00     0.124 A 
ATOM      2  C1  UNL d   1      -2.785   4.870  -0.483  0.00  0.00     0.062 A 
ATOM      3  C2  UNL d   1      -1.579   4.585   0.151  0.00  0.00     0.162 A 
ATOM      4  C3  UNL d   1      -0.571   3.901  -0.530  0.00  0.00    -0.034 A 
ATOM      5  C4  UNL d   1      -0.790   3.505  -1.850  0.00  0.00     0.162 A 
ATOM      6  C5  UNL d   1      -1.997   3.792  -2.479  0.00  0.00     0.062 A 
ATOM      7  F   UNL d   1      -2.198   3.409  -3.748  0.00  0.00    -0.097 F 
ATOM      8  F1  UNL d   1       0.157   2.845  -2.534  0.00  0.00    -0.096 F 
ATOM      9  I   UNL d   1       1.234   3.473   0.413  0.00  0.00    -0.060 I 
ATOM     10  F2  UNL d   1      -1.404   4.980   1.420  0.00  0.00    -0.096 F 
ATOM     11  F3  UNL d   1      -3.748   5.528   0.179  0.00  0.00    -0.097 F 
ATOM     12  F4  UNL d   1      -4.157   4.749  -2.403  0.00  0.00    -0.092 F 
ENDROOT
TORSDOF 0
ENDMDL
