MODEL 1
REMARK minimizedAffinity 0.789652765
REMARK minimizedRMSD -1
REMARK  0 active torsions:
REMARK  status: ('A' for Active; 'I' for Inactive)
ROOT
ATOM      1  C   UNL d   1       1.281   2.119   2.917  0.00  0.00     0.124 A 
ATOM      2  C1  UNL d   1       0.931   2.501   1.629  0.00  0.00     0.062 A 
ATOM      3  C2  UNL d   1       0.946   1.570   0.595  0.00  0.00     0.162 A 
ATOM      4  C3  UNL d   1       1.312   0.247   0.844  0.00  0.00    -0.034 A 
ATOM      5  C4  UNL d   1       1.664  -0.129   2.142  0.00  0.00     0.162 A 
ATOM      6  C5  UNL d   1       1.647   0.805   3.172  0.00  0.00     0.062 A 
ATOM      7  F   UNL d   1       1.986   0.435   4.416  0.00  0.00    -0.097 F 
ATOM      8  F1  UNL d   1       2.020  -1.393   2.416  0.00  0.00    -0.096 F 
ATOM      9  I   UNL d   1       1.335  -1.149  -0.700  0.00  0.00    -0.060 I 
ATOM     10  F2  UNL d   1       0.602   1.966  -0.639  0.00  0.00    -0.096 F 
ATOM     11  F3  UNL d   1       0.578   3.770   1.380  0.00  0.00    -0.097 F 
ATOM     12  F4  UNL d   1       1.267   3.017   3.910  0.00  0.00    -0.092 F 
ENDROOT
TORSDOF 0
ENDMDL
