MODEL 1
REMARK minimizedAffinity -2.02242112
REMARK minimizedRMSD -1
REMARK  0 active torsions:
REMARK  status: ('A' for Active; 'I' for Inactive)
ROOT
ATOM      1  C   UNL d   1      -1.911   0.604   1.450  0.00  0.00     0.078 C 
ATOM      2  C1  UNL d   1      -0.819   0.033   0.594  0.00  0.00    -0.077 A 
ATOM      3  C2  UNL d   1      -1.055  -0.306  -0.743  0.00  0.00    -0.001 A 
ATOM      4  C3  UNL d   1      -0.032  -0.846  -1.525  0.00  0.00     0.003 A 
ATOM      5  C4  UNL d   1       1.233  -1.051  -0.978  0.00  0.00    -0.005 A 
ATOM      6  C5  UNL d   1       1.476  -0.719   0.353  0.00  0.00     0.003 A 
ATOM      7  C6  UNL d   1       0.454  -0.179   1.137  0.00  0.00    -0.001 A 
ENDROOT
TORSDOF 0
ENDMDL
