MODEL 1
REMARK minimizedAffinity -3.68522191
REMARK minimizedRMSD -1
REMARK  0 active torsions:
REMARK  status: ('A' for Active; 'I' for Inactive)
ROOT
ATOM      1  C   UNL d   1       0.326  -0.773  -2.964  0.00  0.00     0.078 C 
ATOM      2  C1  UNL d   1      -0.317  -0.507  -1.636  0.00  0.00    -0.077 A 
ATOM      3  C2  UNL d   1      -1.709  -0.440  -1.509  0.00  0.00    -0.001 A 
ATOM      4  C3  UNL d   1      -2.294  -0.183  -0.268  0.00  0.00     0.003 A 
ATOM      5  C4  UNL d   1      -1.493   0.012   0.856  0.00  0.00    -0.005 A 
ATOM      6  C5  UNL d   1      -0.106  -0.050   0.739  0.00  0.00     0.003 A 
ATOM      7  C6  UNL d   1       0.480  -0.308  -0.501  0.00  0.00    -0.001 A 
ENDROOT
TORSDOF 0
ENDMDL
