MODEL 1
REMARK minimizedAffinity -3.266078
REMARK minimizedRMSD -1
REMARK  0 active torsions:
REMARK  status: ('A' for Active; 'I' for Inactive)
ROOT
ATOM      1  C   UNL d   1       0.384   0.064  -2.127  0.00  0.00     0.078 C 
ATOM      2  C1  UNL d   1      -0.337   0.134  -0.814  0.00  0.00    -0.077 A 
ATOM      3  C2  UNL d   1      -1.618   0.693  -0.725  0.00  0.00    -0.001 A 
ATOM      4  C3  UNL d   1      -2.274   0.760   0.506  0.00  0.00     0.003 A 
ATOM      5  C4  UNL d   1      -1.657   0.272   1.656  0.00  0.00    -0.005 A 
ATOM      6  C5  UNL d   1      -0.381  -0.283   1.576  0.00  0.00     0.003 A 
ATOM      7  C6  UNL d   1       0.276  -0.351   0.347  0.00  0.00    -0.001 A 
ENDROOT
TORSDOF 0
ENDMDL
