MODEL 1
REMARK minimizedAffinity -1.2488569
REMARK minimizedRMSD -1
REMARK  0 active torsions:
REMARK  status: ('A' for Active; 'I' for Inactive)
ROOT
ATOM      1  C   UNL d   1       0.837  -0.085  -2.528  0.00  0.00     0.078 C 
ATOM      2  C1  UNL d   1       0.184  -0.057  -1.179  0.00  0.00    -0.077 A 
ATOM      3  C2  UNL d   1      -1.185   0.204  -1.045  0.00  0.00    -0.001 A 
ATOM      4  C3  UNL d   1      -1.778   0.237   0.218  0.00  0.00     0.003 A 
ATOM      5  C4  UNL d   1      -1.008   0.011   1.358  0.00  0.00    -0.005 A 
ATOM      6  C5  UNL d   1       0.355  -0.247   1.235  0.00  0.00     0.003 A 
ATOM      7  C6  UNL d   1       0.950  -0.280  -0.027  0.00  0.00    -0.001 A 
ENDROOT
TORSDOF 0
ENDMDL
