MODEL 1
REMARK minimizedAffinity -3.8656764
REMARK minimizedRMSD -1
REMARK  0 active torsions:
REMARK  status: ('A' for Active; 'I' for Inactive)
ROOT
ATOM      1  C   UNL d   1       0.388  -0.184  -1.637  0.00  0.00     0.078 C 
ATOM      2  C1  UNL d   1      -0.206  -0.122  -0.262  0.00  0.00    -0.077 A 
ATOM      3  C2  UNL d   1      -1.540   0.254  -0.068  0.00  0.00    -0.001 A 
ATOM      4  C3  UNL d   1      -2.077   0.316   1.219  0.00  0.00     0.003 A 
ATOM      5  C4  UNL d   1      -1.285   0.005   2.323  0.00  0.00    -0.005 A 
ATOM      6  C5  UNL d   1       0.045  -0.368   2.140  0.00  0.00     0.003 A 
ATOM      7  C6  UNL d   1       0.583  -0.431   0.854  0.00  0.00    -0.001 A 
ENDROOT
TORSDOF 0
ENDMDL
