MODEL 1
REMARK minimizedAffinity -2.35708523
REMARK minimizedRMSD -1
REMARK  0 active torsions:
REMARK  status: ('A' for Active; 'I' for Inactive)
ROOT
ATOM      1  C   UNL d   1      -1.720   0.868   0.772  0.00  0.00     0.078 C 
ATOM      2  C1  UNL d   1      -0.423   0.171   0.491  0.00  0.00    -0.077 A 
ATOM      3  C2  UNL d   1      -0.177  -0.421  -0.754  0.00  0.00    -0.001 A 
ATOM      4  C3  UNL d   1       1.031  -1.075  -0.999  0.00  0.00     0.003 A 
ATOM      5  C4  UNL d   1       2.003  -1.144  -0.003  0.00  0.00    -0.005 A 
ATOM      6  C5  UNL d   1       1.768  -0.560   1.240  0.00  0.00     0.003 A 
ATOM      7  C6  UNL d   1       0.560   0.095   1.486  0.00  0.00    -0.001 A 
ENDROOT
TORSDOF 0
ENDMDL
