MODEL 1
REMARK minimizedAffinity -4.09551096
REMARK minimizedRMSD -1
REMARK  0 active torsions:
REMARK  status: ('A' for Active; 'I' for Inactive)
ROOT
ATOM      1  C   UNL d   1       1.770  -0.824   2.666  0.00  0.00     0.078 C 
ATOM      2  C1  UNL d   1       0.555  -0.411   1.890  0.00  0.00    -0.077 A 
ATOM      3  C2  UNL d   1      -0.594   0.053   2.542  0.00  0.00    -0.001 A 
ATOM      4  C3  UNL d   1      -1.721   0.425   1.808  0.00  0.00     0.003 A 
ATOM      5  C4  UNL d   1      -1.711   0.335   0.417  0.00  0.00    -0.005 A 
ATOM      6  C5  UNL d   1      -0.573  -0.128  -0.240  0.00  0.00     0.003 A 
ATOM      7  C6  UNL d   1       0.555  -0.500   0.492  0.00  0.00    -0.001 A 
ENDROOT
TORSDOF 0
ENDMDL
