MODEL 1
REMARK minimizedAffinity -2.80473614
REMARK minimizedRMSD -1
REMARK  0 active torsions:
REMARK  status: ('A' for Active; 'I' for Inactive)
ROOT
ATOM      1  C   UNL d   1      -0.555  -0.420  -0.078  0.00  0.00     0.078 C 
ATOM      2  C1  UNL d   1       0.087   0.028  -1.357  0.00  0.00    -0.077 A 
ATOM      3  C2  UNL d   1       0.277   1.389  -1.630  0.00  0.00    -0.001 A 
ATOM      4  C3  UNL d   1       0.867   1.792  -2.829  0.00  0.00     0.003 A 
ATOM      5  C4  UNL d   1       1.271   0.842  -3.765  0.00  0.00    -0.005 A 
ATOM      6  C5  UNL d   1       1.083  -0.513  -3.503  0.00  0.00     0.003 A 
ATOM      7  C6  UNL d   1       0.493  -0.919  -2.305  0.00  0.00    -0.001 A 
ENDROOT
TORSDOF 0
ENDMDL
