MODEL 1
REMARK minimizedAffinity 6.6385746
REMARK minimizedRMSD -1
REMARK  0 active torsions:
REMARK  status: ('A' for Active; 'I' for Inactive)
ROOT
ATOM      1  C   UNL d   1       1.520  -0.748   0.592  0.00  0.00     0.023 A 
ATOM      2  C1  UNL d   1       1.312  -0.800  -0.786  0.00  0.00     0.003 A 
ATOM      3  C2  UNL d   1       1.128   0.379  -1.511  0.00  0.00     0.048 A 
ATOM      4  C3  UNL d   1       1.153   1.607  -0.852  0.00  0.00     0.023 A 
ATOM      5  C4  UNL d   1       1.361   1.665   0.527  0.00  0.00     0.048 A 
ATOM      6  C5  UNL d   1       1.544   0.483   1.248  0.00  0.00     0.003 A 
ATOM      7  I   UNL d   1       0.878   3.363  -1.929  0.00  0.00    -0.146 I 
ENDROOT
TORSDOF 0
ENDMDL
