MODEL 1
REMARK minimizedAffinity 6.6874218
REMARK minimizedRMSD -1
REMARK  0 active torsions:
REMARK  status: ('A' for Active; 'I' for Inactive)
ROOT
ATOM      1  C   UNL d   1       0.623   4.181  -0.362  0.00  0.00     0.023 A 
ATOM      2  C1  UNL d   1       0.648   3.667  -1.658  0.00  0.00     0.003 A 
ATOM      3  C2  UNL d   1       1.004   2.334  -1.876  0.00  0.00     0.048 A 
ATOM      4  C3  UNL d   1       1.333   1.521  -0.792  0.00  0.00     0.023 A 
ATOM      5  C4  UNL d   1       1.309   2.031   0.507  0.00  0.00     0.048 A 
ATOM      6  C5  UNL d   1       0.953   3.364   0.720  0.00  0.00     0.003 A 
ATOM      7  I   UNL d   1       1.863  -0.463  -1.112  0.00  0.00    -0.146 I 
ENDROOT
TORSDOF 0
ENDMDL
