MODEL 1
REMARK minimizedAffinity -1.44186544
REMARK minimizedRMSD -1
REMARK  0 active torsions:
REMARK  status: ('A' for Active; 'I' for Inactive)
ROOT
ATOM      1  C   UNL d   1       0.944   3.000  -0.731  0.00  0.00     0.023 A 
ATOM      2  C1  UNL d   1       0.604   2.266   0.405  0.00  0.00     0.003 A 
ATOM      3  C2  UNL d   1       0.737   0.876   0.406  0.00  0.00     0.048 A 
ATOM      4  C3  UNL d   1       1.211   0.227  -0.733  0.00  0.00     0.023 A 
ATOM      5  C4  UNL d   1       1.553   0.957  -1.872  0.00  0.00     0.048 A 
ATOM      6  C5  UNL d   1       1.418   2.346  -1.869  0.00  0.00     0.003 A 
ATOM      7  I   UNL d   1       1.410  -1.842  -0.734  0.00  0.00    -0.146 I 
ENDROOT
TORSDOF 0
ENDMDL
