MODEL 1
REMARK minimizedAffinity 0.163633853
REMARK minimizedRMSD -1
REMARK  0 active torsions:
REMARK  status: ('A' for Active; 'I' for Inactive)
ROOT
ATOM      1  C   UNL d   1       1.124   1.843   0.333  0.00  0.00     0.023 A 
ATOM      2  C1  UNL d   1       1.575   0.730   1.042  0.00  0.00     0.003 A 
ATOM      3  C2  UNL d   1       1.462  -0.547   0.488  0.00  0.00     0.048 A 
ATOM      4  C3  UNL d   1       0.897  -0.703  -0.778  0.00  0.00     0.023 A 
ATOM      5  C4  UNL d   1       0.445   0.408  -1.492  0.00  0.00     0.048 A 
ATOM      6  C5  UNL d   1       0.560   1.682  -0.933  0.00  0.00     0.003 A 
ATOM      7  I   UNL d   1       0.728  -2.602  -1.605  0.00  0.00    -0.146 I 
ENDROOT
TORSDOF 0
ENDMDL
