MODEL 1
REMARK minimizedAffinity 1.24901474
REMARK minimizedRMSD -1
REMARK  0 active torsions:
REMARK  status: ('A' for Active; 'I' for Inactive)
ROOT
ATOM      1  C   UNL d   1       0.926   1.564   0.197  0.00  0.00     0.023 A 
ATOM      2  C1  UNL d   1       1.199   0.199   0.287  0.00  0.00     0.003 A 
ATOM      3  C2  UNL d   1       1.412  -0.549  -0.873  0.00  0.00     0.048 A 
ATOM      4  C3  UNL d   1       1.352   0.074  -2.119  0.00  0.00     0.023 A 
ATOM      5  C4  UNL d   1       1.080   1.440  -2.213  0.00  0.00     0.048 A 
ATOM      6  C5  UNL d   1       0.867   2.184  -1.051  0.00  0.00     0.003 A 
ATOM      7  I   UNL d   1       1.669  -1.037  -3.846  0.00  0.00    -0.146 I 
ENDROOT
TORSDOF 0
ENDMDL
