MODEL 1
REMARK minimizedAffinity -0.091821827
REMARK minimizedRMSD -1
REMARK  0 active torsions:
REMARK  status: ('A' for Active; 'I' for Inactive)
ROOT
ATOM      1  C   UNL d   1       0.792   0.366  -0.077  0.00  0.00     0.023 A 
ATOM      2  C1  UNL d   1       0.983   0.760  -1.401  0.00  0.00     0.003 A 
ATOM      3  C2  UNL d   1       1.267   2.094  -1.699  0.00  0.00     0.048 A 
ATOM      4  C3  UNL d   1       1.361   3.029  -0.669  0.00  0.00     0.023 A 
ATOM      5  C4  UNL d   1       1.172   2.638   0.658  0.00  0.00     0.048 A 
ATOM      6  C5  UNL d   1       0.887   1.304   0.952  0.00  0.00     0.003 A 
ATOM      7  I   UNL d   1       1.785   5.015  -1.110  0.00  0.00    -0.146 I 
ENDROOT
TORSDOF 0
ENDMDL
