MODEL 1
REMARK minimizedAffinity 6.66274881
REMARK minimizedRMSD -1
REMARK  0 active torsions:
REMARK  status: ('A' for Active; 'I' for Inactive)
ROOT
ATOM      1  C   UNL d   1       0.083   2.238  -2.651  0.00  0.00     0.023 A 
ATOM      2  C1  UNL d   1       0.456   0.900  -2.781  0.00  0.00     0.003 A 
ATOM      3  C2  UNL d   1       1.241   0.294  -1.798  0.00  0.00     0.048 A 
ATOM      4  C3  UNL d   1       1.649   1.032  -0.687  0.00  0.00     0.023 A 
ATOM      5  C4  UNL d   1       1.277   2.371  -0.552  0.00  0.00     0.048 A 
ATOM      6  C5  UNL d   1       0.493   2.972  -1.538  0.00  0.00     0.003 A 
ATOM      7  I   UNL d   1       2.817   0.132   0.778  0.00  0.00    -0.146 I 
ENDROOT
TORSDOF 0
ENDMDL
