MODEL 1
REMARK minimizedAffinity -3.79524875
REMARK minimizedRMSD -1
REMARK  0 active torsions:
REMARK  status: ('A' for Active; 'I' for Inactive)
ROOT
ATOM      1  C   UNL d   1       0.776   3.277  -0.460  0.00  0.00     0.023 A 
ATOM      2  C1  UNL d   1       1.119   2.816  -1.731  0.00  0.00     0.003 A 
ATOM      3  C2  UNL d   1       1.266   1.447  -1.962  0.00  0.00     0.048 A 
ATOM      4  C3  UNL d   1       1.069   0.544  -0.918  0.00  0.00     0.023 A 
ATOM      5  C4  UNL d   1       0.725   1.001   0.356  0.00  0.00     0.048 A 
ATOM      6  C5  UNL d   1       0.579   2.371   0.582  0.00  0.00     0.003 A 
ATOM      7  I   UNL d   1       1.288  -1.494  -1.260  0.00  0.00    -0.146 I 
ENDROOT
TORSDOF 0
ENDMDL
