MODEL 1
REMARK minimizedAffinity -2.56867409
REMARK minimizedRMSD -1
REMARK  0 active torsions:
REMARK  status: ('A' for Active; 'I' for Inactive)
ROOT
ATOM      1  C   UNL d   1       0.821   3.136   0.012  0.00  0.00     0.023 A 
ATOM      2  C1  UNL d   1       0.853   2.280   1.112  0.00  0.00     0.003 A 
ATOM      3  C2  UNL d   1       0.995   0.904   0.924  0.00  0.00     0.048 A 
ATOM      4  C3  UNL d   1       1.106   0.390  -0.367  0.00  0.00     0.023 A 
ATOM      5  C4  UNL d   1       1.076   1.243  -1.472  0.00  0.00     0.048 A 
ATOM      6  C5  UNL d   1       0.933   2.618  -1.279  0.00  0.00     0.003 A 
ATOM      7  I   UNL d   1       1.319  -1.658  -0.650  0.00  0.00    -0.146 I 
ENDROOT
TORSDOF 0
ENDMDL
