MODEL 1
REMARK minimizedAffinity -2.17626476
REMARK minimizedRMSD -1
REMARK  0 active torsions:
REMARK  status: ('A' for Active; 'I' for Inactive)
ROOT
ATOM      1  C   UNL d   1       1.167   0.506  -3.105  0.00  0.00     0.023 A 
ATOM      2  C1  UNL d   1       1.004  -0.274  -1.959  0.00  0.00     0.003 A 
ATOM      3  C2  UNL d   1       0.890   0.336  -0.709  0.00  0.00     0.048 A 
ATOM      4  C3  UNL d   1       0.937   1.726  -0.610  0.00  0.00     0.023 A 
ATOM      5  C4  UNL d   1       1.098   2.510  -1.754  0.00  0.00     0.048 A 
ATOM      6  C5  UNL d   1       1.214   1.896  -3.002  0.00  0.00     0.003 A 
ATOM      7  I   UNL d   1       0.766   2.637   1.250  0.00  0.00    -0.146 I 
ENDROOT
TORSDOF 0
ENDMDL
