MODEL 1
REMARK minimizedAffinity 2.12694931
REMARK minimizedRMSD -1
REMARK  0 active torsions:
REMARK  status: ('A' for Active; 'I' for Inactive)
ROOT
ATOM      1  C   UNL d   1       0.892   1.009  -2.177  0.00  0.00     0.023 A 
ATOM      2  C1  UNL d   1       1.026  -0.137  -1.394  0.00  0.00     0.003 A 
ATOM      3  C2  UNL d   1       1.241  -0.023  -0.018  0.00  0.00     0.048 A 
ATOM      4  C3  UNL d   1       1.318   1.241   0.566  0.00  0.00     0.023 A 
ATOM      5  C4  UNL d   1       1.183   2.390  -0.214  0.00  0.00     0.048 A 
ATOM      6  C5  UNL d   1       0.970   2.271  -1.588  0.00  0.00     0.003 A 
ATOM      7  I   UNL d   1       1.637   1.413   2.613  0.00  0.00    -0.146 I 
ENDROOT
TORSDOF 0
ENDMDL
