MODEL 1
REMARK minimizedAffinity -2.27333498
REMARK minimizedRMSD -1
REMARK  0 active torsions:
REMARK  status: ('A' for Active; 'I' for Inactive)
ROOT
ATOM      1  C   UNL d   1       0.925  -0.125  -3.190  0.00  0.00     0.023 A 
ATOM      2  C1  UNL d   1      -0.170   0.684  -2.887  0.00  0.00     0.003 A 
ATOM      3  C2  UNL d   1      -0.178   1.438  -1.712  0.00  0.00     0.048 A 
ATOM      4  C3  UNL d   1       0.912   1.379  -0.844  0.00  0.00     0.023 A 
ATOM      5  C4  UNL d   1       2.010   0.571  -1.143  0.00  0.00     0.048 A 
ATOM      6  C5  UNL d   1       2.014  -0.182  -2.319  0.00  0.00     0.003 A 
ATOM      7  I   UNL d   1       0.901   2.501   0.906  0.00  0.00    -0.146 I 
ENDROOT
TORSDOF 0
ENDMDL
