MODEL 1
REMARK minimizedAffinity 0.642320693
REMARK minimizedRMSD -1
REMARK  0 active torsions:
REMARK  status: ('A' for Active; 'I' for Inactive)
ROOT
ATOM      1  C   UNL d   1       1.179   3.113  -0.290  0.00  0.00     0.023 A 
ATOM      2  C1  UNL d   1       1.452   2.471  -1.498  0.00  0.00     0.003 A 
ATOM      3  C2  UNL d   1       1.406   1.078  -1.575  0.00  0.00     0.048 A 
ATOM      4  C3  UNL d   1       1.086   0.333  -0.441  0.00  0.00     0.023 A 
ATOM      5  C4  UNL d   1       0.811   0.971   0.770  0.00  0.00     0.048 A 
ATOM      6  C5  UNL d   1       0.859   2.364   0.842  0.00  0.00     0.003 A 
ATOM      7  I   UNL d   1       1.017  -1.742  -0.553  0.00  0.00    -0.146 I 
ENDROOT
TORSDOF 0
ENDMDL
