MODEL 1
REMARK minimizedAffinity -1.56316578
REMARK minimizedRMSD -1
REMARK  0 active torsions:
REMARK  status: ('A' for Active; 'I' for Inactive)
ROOT
ATOM      1  C   UNL d   1       0.789   0.037  -0.245  0.00  0.00     0.023 A 
ATOM      2  C1  UNL d   1       1.055   0.526  -1.524  0.00  0.00     0.003 A 
ATOM      3  C2  UNL d   1       1.288   1.889  -1.718  0.00  0.00     0.048 A 
ATOM      4  C3  UNL d   1       1.256   2.758  -0.628  0.00  0.00     0.023 A 
ATOM      5  C4  UNL d   1       0.991   2.273   0.654  0.00  0.00     0.048 A 
ATOM      6  C5  UNL d   1       0.757   0.910   0.843  0.00  0.00     0.003 A 
ATOM      7  I   UNL d   1       1.603   4.787  -0.913  0.00  0.00    -0.146 I 
ENDROOT
TORSDOF 0
ENDMDL
