MODEL 1
REMARK minimizedAffinity -0.875867069
REMARK minimizedRMSD -1
REMARK  0 active torsions:
REMARK  status: ('A' for Active; 'I' for Inactive)
ROOT
ATOM      1  C   UNL d   1       1.079   2.793  -0.239  0.00  0.00     0.023 A 
ATOM      2  C1  UNL d   1       0.815   2.207  -1.477  0.00  0.00     0.003 A 
ATOM      3  C2  UNL d   1       0.840   0.818  -1.613  0.00  0.00     0.048 A 
ATOM      4  C3  UNL d   1       1.129   0.020  -0.506  0.00  0.00     0.023 A 
ATOM      5  C4  UNL d   1       1.393   0.602   0.735  0.00  0.00     0.048 A 
ATOM      6  C5  UNL d   1       1.367   1.992   0.866  0.00  0.00     0.003 A 
ATOM      7  I   UNL d   1       1.167  -2.048  -0.706  0.00  0.00    -0.146 I 
ENDROOT
TORSDOF 0
ENDMDL
