MODEL 1
REMARK minimizedAffinity 3.53458071
REMARK minimizedRMSD -1
REMARK  0 active torsions:
REMARK  status: ('A' for Active; 'I' for Inactive)
ROOT
ATOM      1  C   UNL d   1       0.888  -0.168  -0.777  0.00  0.00     0.023 A 
ATOM      2  C1  UNL d   1       0.456   0.548   0.339  0.00  0.00     0.003 A 
ATOM      3  C2  UNL d   1       0.508   1.943   0.339  0.00  0.00     0.048 A 
ATOM      4  C3  UNL d   1       0.992   2.617  -0.782  0.00  0.00     0.023 A 
ATOM      5  C4  UNL d   1       1.425   1.905  -1.902  0.00  0.00     0.048 A 
ATOM      6  C5  UNL d   1       1.372   0.510  -1.897  0.00  0.00     0.003 A 
ATOM      7  I   UNL d   1       1.071   4.694  -0.785  0.00  0.00    -0.146 I 
ENDROOT
TORSDOF 0
ENDMDL
