MODEL 1
REMARK minimizedAffinity 5.98754358
REMARK minimizedRMSD -1
REMARK  1 active torsions:
REMARK  status: ('A' for Active; 'I' for Inactive)
REMARK    1  A    between atoms: N_2  and  C1_3 
ROOT
ATOM      1  C1  UNL d   1       0.751   2.339   1.377  0.00  0.00     0.143 A 
ATOM      2  C2  UNL d   1      -0.558   2.802   1.207  0.00  0.00    -0.057 A 
ATOM      3  C3  UNL d   1      -1.554   2.530   2.153  0.00  0.00     0.033 A 
ATOM      4  C4  UNL d   1      -1.263   1.761   3.275  0.00  0.00    -0.042 A 
ATOM      5  C5  UNL d   1       0.025   1.269   3.453  0.00  0.00     0.033 A 
ATOM      6  C6  UNL d   1       1.016   1.550   2.508  0.00  0.00    -0.057 A 
ENDROOT
BRANCH   1   7
ATOM      7  N   UNL d   1       1.761   2.493   0.424  0.00  0.00    -0.732 N 
ATOM      8  C   UNL d   1       2.640   1.391   0.097  0.00  0.00     0.284 C 
ATOM      9  H3  UNL d   1       1.455   3.034  -0.381  0.00  0.00     0.395 HD
ENDBRANCH   1   7
TORSDOF 1
ENDMDL
