MODEL 1
REMARK minimizedAffinity 2.57316399
REMARK minimizedRMSD -1
REMARK  1 active torsions:
REMARK  status: ('A' for Active; 'I' for Inactive)
REMARK    1  A    between atoms: N_2  and  C1_3 
ROOT
ATOM      1  C1  UNL d   1       0.250  -2.646  -0.671  0.00  0.00     0.143 A 
ATOM      2  C2  UNL d   1       1.381  -3.392  -0.325  0.00  0.00    -0.057 A 
ATOM      3  C3  UNL d   1       2.589  -2.767   0.010  0.00  0.00     0.033 A 
ATOM      4  C4  UNL d   1       2.694  -1.381  -0.024  0.00  0.00    -0.042 A 
ATOM      5  C5  UNL d   1       1.590  -0.620  -0.390  0.00  0.00     0.033 A 
ATOM      6  C6  UNL d   1       0.385  -1.249  -0.717  0.00  0.00    -0.057 A 
ENDROOT
BRANCH   1   7
ATOM      7  N   UNL d   1      -0.951  -3.211  -1.109  0.00  0.00    -0.732 N 
ATOM      8  C   UNL d   1      -1.025  -4.617  -1.441  0.00  0.00     0.284 C 
ATOM      9  H3  UNL d   1      -1.755  -2.862  -0.593  0.00  0.00     0.395 HD
ENDBRANCH   1   7
TORSDOF 1
ENDMDL
