MODEL 1
REMARK minimizedAffinity 3.08521008
REMARK minimizedRMSD -1
REMARK  1 active torsions:
REMARK  status: ('A' for Active; 'I' for Inactive)
REMARK    1  A    between atoms: N_2  and  C1_3 
ROOT
ATOM      1  C1  UNL d   1       4.069  -0.924   1.104  0.00  0.00     0.143 A 
ATOM      2  C2  UNL d   1       3.451  -0.521  -0.084  0.00  0.00    -0.057 A 
ATOM      3  C3  UNL d   1       2.433  -1.284  -0.669  0.00  0.00     0.033 A 
ATOM      4  C4  UNL d   1       2.034  -2.483  -0.088  0.00  0.00    -0.042 A 
ATOM      5  C5  UNL d   1       2.652  -2.916   1.080  0.00  0.00     0.033 A 
ATOM      6  C6  UNL d   1       3.663  -2.146   1.662  0.00  0.00    -0.057 A 
ENDROOT
BRANCH   1   7
ATOM      7  N   UNL d   1       5.154  -0.259   1.681  0.00  0.00    -0.732 N 
ATOM      8  C   UNL d   1       5.987  -0.922   2.662  0.00  0.00     0.284 C 
ATOM      9  H3  UNL d   1       5.670   0.300   1.006  0.00  0.00     0.395 HD
ENDBRANCH   1   7
TORSDOF 1
ENDMDL
