MODEL 1
REMARK minimizedAffinity -3.66696668
REMARK minimizedRMSD -1
REMARK  1 active torsions:
REMARK  status: ('A' for Active; 'I' for Inactive)
REMARK    1  A    between atoms: N_2  and  C1_3 
ROOT
ATOM      1  C1  UNL d   1       1.022   0.700  -0.060  0.00  0.00     0.143 A 
ATOM      2  C2  UNL d   1      -0.180  -0.002  -0.202  0.00  0.00    -0.057 A 
ATOM      3  C3  UNL d   1      -0.205  -1.402  -0.219  0.00  0.00     0.033 A 
ATOM      4  C4  UNL d   1       0.978  -2.127  -0.123  0.00  0.00    -0.042 A 
ATOM      5  C5  UNL d   1       2.187  -1.450  -0.006  0.00  0.00     0.033 A 
ATOM      6  C6  UNL d   1       2.205  -0.052   0.017  0.00  0.00    -0.057 A 
ENDROOT
BRANCH   1   7
ATOM      7  N   UNL d   1       1.123   2.091  -0.135  0.00  0.00    -0.732 N 
ATOM      8  C   UNL d   1       1.006   2.904   1.056  0.00  0.00     0.284 C 
ATOM      9  H3  UNL d   1       1.855   2.393  -0.774  0.00  0.00     0.395 HD
ENDBRANCH   1   7
TORSDOF 1
ENDMDL
