MODEL 1
REMARK minimizedAffinity 1.16494954
REMARK minimizedRMSD -1
REMARK  1 active torsions:
REMARK  status: ('A' for Active; 'I' for Inactive)
REMARK    1  A    between atoms: N_2  and  C1_3 
ROOT
ATOM      1  C1  UNL d   1      -1.529   1.965   1.648  0.00  0.00     0.143 A 
ATOM      2  C2  UNL d   1      -0.923   2.245   0.418  0.00  0.00    -0.057 A 
ATOM      3  C3  UNL d   1       0.438   1.995   0.207  0.00  0.00     0.033 A 
ATOM      4  C4  UNL d   1       1.226   1.485   1.233  0.00  0.00    -0.042 A 
ATOM      5  C5  UNL d   1       0.650   1.223   2.471  0.00  0.00     0.033 A 
ATOM      6  C6  UNL d   1      -0.711   1.468   2.675  0.00  0.00    -0.057 A 
ENDROOT
BRANCH   1   7
ATOM      7  N   UNL d   1      -2.855   2.283   1.951  0.00  0.00    -0.732 N 
ATOM      8  C   UNL d   1      -3.945   1.674   1.221  0.00  0.00     0.284 C 
ATOM      9  H3  UNL d   1      -3.017   2.359   2.953  0.00  0.00     0.395 HD
ENDBRANCH   1   7
TORSDOF 1
ENDMDL
