MODEL 1
REMARK minimizedAffinity 3.69704914
REMARK minimizedRMSD -1
REMARK  1 active torsions:
REMARK  status: ('A' for Active; 'I' for Inactive)
REMARK    1  A    between atoms: N_2  and  C1_3 
ROOT
ATOM      1  C1  UNL d   1       2.276   0.497  -0.029  0.00  0.00     0.143 A 
ATOM      2  C2  UNL d   1       2.471   0.085   1.294  0.00  0.00    -0.057 A 
ATOM      3  C3  UNL d   1       2.658  -1.265   1.614  0.00  0.00     0.033 A 
ATOM      4  C4  UNL d   1       2.624  -2.234   0.616  0.00  0.00    -0.042 A 
ATOM      5  C5  UNL d   1       2.407  -1.850  -0.702  0.00  0.00     0.033 A 
ATOM      6  C6  UNL d   1       2.227  -0.500  -1.016  0.00  0.00    -0.057 A 
ENDROOT
BRANCH   1   7
ATOM      7  N   UNL d   1       1.987   1.812  -0.399  0.00  0.00    -0.732 N 
ATOM      8  C   UNL d   1       1.354   2.719   0.535  0.00  0.00     0.284 C 
ATOM      9  H3  UNL d   1       2.732   2.234  -0.948  0.00  0.00     0.395 HD
ENDBRANCH   1   7
TORSDOF 1
ENDMDL
