MODEL 1
REMARK minimizedAffinity 4.76739836
REMARK minimizedRMSD -1
REMARK  1 active torsions:
REMARK  status: ('A' for Active; 'I' for Inactive)
REMARK    1  A    between atoms: N_2  and  C1_3 
ROOT
ATOM      1  C1  UNL d   1      -0.471   1.980   2.157  0.00  0.00     0.143 A 
ATOM      2  C2  UNL d   1       0.822   1.740   2.636  0.00  0.00    -0.057 A 
ATOM      3  C3  UNL d   1       1.938   1.845   1.797  0.00  0.00     0.033 A 
ATOM      4  C4  UNL d   1       1.778   2.165   0.453  0.00  0.00    -0.042 A 
ATOM      5  C5  UNL d   1       0.500   2.383  -0.051  0.00  0.00     0.033 A 
ATOM      6  C6  UNL d   1      -0.610   2.283   0.794  0.00  0.00    -0.057 A 
ENDROOT
BRANCH   1   7
ATOM      7  N   UNL d   1      -1.628   1.795   2.917  0.00  0.00    -0.732 N 
ATOM      8  C   UNL d   1      -2.932   2.078   2.356  0.00  0.00     0.284 C 
ATOM      9  H3  UNL d   1      -1.593   0.948   3.479  0.00  0.00     0.395 HD
ENDBRANCH   1   7
TORSDOF 1
ENDMDL
