MODEL 1
REMARK minimizedAffinity -2.14275217
REMARK minimizedRMSD -1
REMARK  1 active torsions:
REMARK  status: ('A' for Active; 'I' for Inactive)
REMARK    1  A    between atoms: N_2  and  C1_3 
ROOT
ATOM      1  C1  UNL d   1       0.593   0.304  -0.936  0.00  0.00     0.143 A 
ATOM      2  C2  UNL d   1       1.879  -0.169  -0.655  0.00  0.00    -0.057 A 
ATOM      3  C3  UNL d   1       2.189  -1.531  -0.751  0.00  0.00     0.033 A 
ATOM      4  C4  UNL d   1       1.207  -2.450  -1.104  0.00  0.00    -0.042 A 
ATOM      5  C5  UNL d   1      -0.085  -2.006  -1.364  0.00  0.00     0.033 A 
ATOM      6  C6  UNL d   1      -0.386  -0.644  -1.272  0.00  0.00    -0.057 A 
ENDROOT
BRANCH   1   7
ATOM      7  N   UNL d   1       0.198   1.633  -0.762  0.00  0.00    -0.732 N 
ATOM      8  C   UNL d   1       0.056   2.193   0.565  0.00  0.00     0.284 C 
ATOM      9  H3  UNL d   1       0.636   2.260  -1.433  0.00  0.00     0.395 HD
ENDBRANCH   1   7
TORSDOF 1
ENDMDL
