MODEL 1
REMARK minimizedAffinity 0.21038577
REMARK minimizedRMSD -1
REMARK  1 active torsions:
REMARK  status: ('A' for Active; 'I' for Inactive)
REMARK    1  A    between atoms: N_2  and  C1_3 
ROOT
ATOM      1  C1  UNL d   1      -0.046  -3.325   5.546  0.00  0.00     0.143 A 
ATOM      2  C2  UNL d   1      -1.409  -3.559   5.761  0.00  0.00    -0.057 A 
ATOM      3  C3  UNL d   1      -1.895  -4.851   5.992  0.00  0.00     0.033 A 
ATOM      4  C4  UNL d   1      -1.029  -5.939   5.985  0.00  0.00    -0.042 A 
ATOM      5  C5  UNL d   1       0.326  -5.733   5.749  0.00  0.00     0.033 A 
ATOM      6  C6  UNL d   1       0.807  -4.440   5.525  0.00  0.00    -0.057 A 
ENDROOT
BRANCH   1   7
ATOM      7  N   UNL d   1       0.486  -2.077   5.212  0.00  0.00    -0.732 N 
ATOM      8  C   UNL d   1       1.072  -1.850   3.909  0.00  0.00     0.284 C 
ATOM      9  H3  UNL d   1      -0.088  -1.308   5.550  0.00  0.00     0.395 HD
ENDBRANCH   1   7
TORSDOF 1
ENDMDL
