MODEL 1
REMARK minimizedAffinity 10.0471258
REMARK minimizedRMSD -1
REMARK  1 active torsions:
REMARK  status: ('A' for Active; 'I' for Inactive)
REMARK    1  A    between atoms: C1_2  and  C2_3 
ROOT
ATOM      1  C2  UNL d   1       2.602   5.988  -0.802  0.00  0.00    -0.077 A 
ATOM      2  C3  UNL d   1       3.045   5.991   0.528  0.00  0.00     0.002 A 
ATOM      3  C4  UNL d   1       2.126   5.999   1.579  0.00  0.00     0.002 A 
ATOM      4  C5  UNL d   1       0.759   6.000   1.311  0.00  0.00    -0.004 A 
ATOM      5  C6  UNL d   1       0.308   5.999  -0.008  0.00  0.00     0.002 A 
ATOM      6  C7  UNL d   1       1.225   5.992  -1.060  0.00  0.00     0.002 A 
ENDROOT
BRANCH   1   7
ATOM      7  C1  UNL d   1       3.591   5.929  -1.937  0.00  0.00     0.055 C 
ATOM      8  C   UNL d   1       4.098   4.512  -2.156  0.00  0.00     0.019 C 
ENDBRANCH   1   7
TORSDOF 1
ENDMDL
