MODEL 1
REMARK minimizedAffinity 15.5541544
REMARK minimizedRMSD -1
REMARK  1 active torsions:
REMARK  status: ('A' for Active; 'I' for Inactive)
REMARK    1  A    between atoms: C1_2  and  C2_3 
ROOT
ATOM      1  C2  UNL d   1       1.534   0.798   1.231  0.00  0.00    -0.077 A 
ATOM      2  C3  UNL d   1       1.234  -0.152   0.245  0.00  0.00     0.002 A 
ATOM      3  C4  UNL d   1       1.998  -0.225  -0.922  0.00  0.00     0.002 A 
ATOM      4  C5  UNL d   1       3.070   0.645  -1.110  0.00  0.00    -0.004 A 
ATOM      5  C6  UNL d   1       3.375   1.595  -0.137  0.00  0.00     0.002 A 
ATOM      6  C7  UNL d   1       2.611   1.671   1.029  0.00  0.00     0.002 A 
ENDROOT
BRANCH   1   7
ATOM      7  C1  UNL d   1       0.742   0.847   2.511  0.00  0.00     0.055 C 
ATOM      8  C   UNL d   1      -0.620   1.490   2.295  0.00  0.00     0.019 C 
ENDBRANCH   1   7
TORSDOF 1
ENDMDL
