MODEL 1
REMARK minimizedAffinity 21.6072311
REMARK minimizedRMSD -1
REMARK  1 active torsions:
REMARK  status: ('A' for Active; 'I' for Inactive)
REMARK    1  A    between atoms: C1_2  and  C2_3 
ROOT
ATOM      1  C2  UNL d   1      -3.634   1.454   3.678  0.00  0.00    -0.077 A 
ATOM      2  C3  UNL d   1      -3.037   1.479   4.946  0.00  0.00     0.002 A 
ATOM      3  C4  UNL d   1      -3.505   2.351   5.931  0.00  0.00     0.002 A 
ATOM      4  C5  UNL d   1      -4.574   3.202   5.659  0.00  0.00    -0.004 A 
ATOM      5  C6  UNL d   1      -5.174   3.187   4.400  0.00  0.00     0.002 A 
ATOM      6  C7  UNL d   1      -4.706   2.316   3.415  0.00  0.00     0.002 A 
ENDROOT
BRANCH   1   7
ATOM      7  C1  UNL d   1      -3.163   0.480   2.631  0.00  0.00     0.055 C 
ATOM      8  C   UNL d   1      -3.694  -0.921   2.899  0.00  0.00     0.019 C 
ENDBRANCH   1   7
TORSDOF 1
ENDMDL
