MODEL 1
REMARK minimizedAffinity 15.6946659
REMARK minimizedRMSD -1
REMARK  1 active torsions:
REMARK  status: ('A' for Active; 'I' for Inactive)
REMARK    1  A    between atoms: C1_2  and  C2_3 
ROOT
ATOM      1  C2  UNL d   1       2.414   1.721  -2.778  0.00  0.00    -0.077 A 
ATOM      2  C3  UNL d   1       3.371   2.337  -1.959  0.00  0.00     0.002 A 
ATOM      3  C4  UNL d   1       3.302   3.707  -1.702  0.00  0.00     0.002 A 
ATOM      4  C5  UNL d   1       2.277   4.472  -2.255  0.00  0.00    -0.004 A 
ATOM      5  C6  UNL d   1       1.322   3.869  -3.073  0.00  0.00     0.002 A 
ATOM      6  C7  UNL d   1       1.390   2.499  -3.332  0.00  0.00     0.002 A 
ENDROOT
BRANCH   1   7
ATOM      7  C1  UNL d   1       2.457   0.234  -3.018  0.00  0.00     0.055 C 
ATOM      8  C   UNL d   1       2.535  -0.085  -4.503  0.00  0.00     0.019 C 
ENDBRANCH   1   7
TORSDOF 1
ENDMDL
