MODEL 1
REMARK minimizedAffinity 14.6642904
REMARK minimizedRMSD -1
REMARK  1 active torsions:
REMARK  status: ('A' for Active; 'I' for Inactive)
REMARK    1  A    between atoms: C1_2  and  C2_3 
ROOT
ATOM      1  C2  UNL d   1       3.112   1.769  -0.324  0.00  0.00    -0.077 A 
ATOM      2  C3  UNL d   1       2.850   2.608   0.768  0.00  0.00     0.002 A 
ATOM      3  C4  UNL d   1       2.443   3.928   0.563  0.00  0.00     0.002 A 
ATOM      4  C5  UNL d   1       2.291   4.419  -0.732  0.00  0.00    -0.004 A 
ATOM      5  C6  UNL d   1       2.552   3.593  -1.825  0.00  0.00     0.002 A 
ATOM      6  C7  UNL d   1       2.960   2.274  -1.622  0.00  0.00     0.002 A 
ENDROOT
BRANCH   1   7
ATOM      7  C1  UNL d   1       3.503   0.331  -0.106  0.00  0.00     0.055 C 
ATOM      8  C   UNL d   1       2.356  -0.611  -0.438  0.00  0.00     0.019 C 
ENDBRANCH   1   7
TORSDOF 1
ENDMDL
