MODEL 1
REMARK minimizedAffinity 20.2599621
REMARK minimizedRMSD -1
REMARK  1 active torsions:
REMARK  status: ('A' for Active; 'I' for Inactive)
REMARK    1  A    between atoms: C1_2  and  C2_3 
ROOT
ATOM      1  C2  UNL d   1       3.307  -0.089  -0.123  0.00  0.00    -0.077 A 
ATOM      2  C3  UNL d   1       2.153  -0.691  -0.645  0.00  0.00     0.002 A 
ATOM      3  C4  UNL d   1       2.052  -2.082  -0.712  0.00  0.00     0.002 A 
ATOM      4  C5  UNL d   1       3.097  -2.882  -0.255  0.00  0.00    -0.004 A 
ATOM      5  C6  UNL d   1       4.249  -2.292   0.264  0.00  0.00     0.002 A 
ATOM      6  C7  UNL d   1       4.353  -0.902   0.330  0.00  0.00     0.002 A 
ENDROOT
BRANCH   1   7
ATOM      7  C1  UNL d   1       3.398   1.410  -0.005  0.00  0.00     0.055 C 
ATOM      8  C   UNL d   1       2.851   1.895   1.330  0.00  0.00     0.019 C 
ENDBRANCH   1   7
TORSDOF 1
ENDMDL
