MODEL 1
REMARK minimizedAffinity 10.2820396
REMARK minimizedRMSD -1
REMARK  1 active torsions:
REMARK  status: ('A' for Active; 'I' for Inactive)
REMARK    1  A    between atoms: C1_2  and  C2_3 
ROOT
ATOM      1  C2  UNL d   1       0.924   0.862   1.283  0.00  0.00    -0.077 A 
ATOM      2  C3  UNL d   1       0.588   0.022   0.212  0.00  0.00     0.002 A 
ATOM      3  C4  UNL d   1       1.530  -0.278  -0.773  0.00  0.00     0.002 A 
ATOM      4  C5  UNL d   1       2.816   0.253  -0.695  0.00  0.00    -0.004 A 
ATOM      5  C6  UNL d   1       3.160   1.090   0.365  0.00  0.00     0.002 A 
ATOM      6  C7  UNL d   1       2.219   1.393   1.350  0.00  0.00     0.002 A 
ENDROOT
BRANCH   1   7
ATOM      7  C1  UNL d   1      -0.076   1.148   2.373  0.00  0.00     0.055 C 
ATOM      8  C   UNL d   1      -1.500   1.112   1.840  0.00  0.00     0.019 C 
ENDBRANCH   1   7
TORSDOF 1
ENDMDL
