MODEL 1
REMARK minimizedAffinity 12.8695726
REMARK minimizedRMSD -1
REMARK  1 active torsions:
REMARK  status: ('A' for Active; 'I' for Inactive)
REMARK    1  A    between atoms: C1_2  and  C2_3 
ROOT
ATOM      1  C2  UNL d   1       1.294   5.962   0.003  0.00  0.00    -0.077 A 
ATOM      2  C3  UNL d   1       0.032   5.995  -0.607  0.00  0.00     0.002 A 
ATOM      3  C4  UNL d   1      -0.080   5.992  -1.998  0.00  0.00     0.002 A 
ATOM      4  C5  UNL d   1       1.065   5.953  -2.792  0.00  0.00    -0.004 A 
ATOM      5  C6  UNL d   1       2.324   5.923  -2.195  0.00  0.00     0.002 A 
ATOM      6  C7  UNL d   1       2.439   5.926  -0.804  0.00  0.00     0.002 A 
ENDROOT
BRANCH   1   7
ATOM      7  C1  UNL d   1       1.416   5.915   1.503  0.00  0.00     0.055 C 
ATOM      8  C   UNL d   1       2.871   5.992   1.943  0.00  0.00     0.019 C 
ENDBRANCH   1   7
TORSDOF 1
ENDMDL
