MODEL 1
REMARK minimizedAffinity 13.9081888
REMARK minimizedRMSD -1
REMARK  1 active torsions:
REMARK  status: ('A' for Active; 'I' for Inactive)
REMARK    1  A    between atoms: C1_2  and  C2_3 
ROOT
ATOM      1  C2  UNL d   1      -2.003  -3.897  -3.826  0.00  0.00    -0.077 A 
ATOM      2  C3  UNL d   1      -1.931  -4.007  -2.430  0.00  0.00     0.002 A 
ATOM      3  C4  UNL d   1      -0.781  -4.513  -1.820  0.00  0.00     0.002 A 
ATOM      4  C5  UNL d   1       0.306  -4.908  -2.597  0.00  0.00    -0.004 A 
ATOM      5  C6  UNL d   1       0.243  -4.803  -3.986  0.00  0.00     0.002 A 
ATOM      6  C7  UNL d   1      -0.905  -4.299  -4.598  0.00  0.00     0.002 A 
ENDROOT
BRANCH   1   7
ATOM      7  C1  UNL d   1      -3.222  -3.306  -4.483  0.00  0.00     0.055 C 
ATOM      8  C   UNL d   1      -3.231  -3.577  -5.981  0.00  0.00     0.019 C 
ENDBRANCH   1   7
TORSDOF 1
ENDMDL
