MODEL 1
REMARK minimizedAffinity 13.6545019
REMARK minimizedRMSD -1
REMARK  1 active torsions:
REMARK  status: ('A' for Active; 'I' for Inactive)
REMARK    1  A    between atoms: C1_2  and  C2_3 
ROOT
ATOM      1  C2  UNL d   1       2.909   0.452  -0.913  0.00  0.00    -0.077 A 
ATOM      2  C3  UNL d   1       2.115  -0.700  -0.838  0.00  0.00     0.002 A 
ATOM      3  C4  UNL d   1       1.126  -0.941  -1.795  0.00  0.00     0.002 A 
ATOM      4  C5  UNL d   1       0.926  -0.036  -2.835  0.00  0.00    -0.004 A 
ATOM      5  C6  UNL d   1       1.710   1.115  -2.917  0.00  0.00     0.002 A 
ATOM      6  C7  UNL d   1       2.697   1.357  -1.961  0.00  0.00     0.002 A 
ENDROOT
BRANCH   1   7
ATOM      7  C1  UNL d   1       4.008   0.689   0.089  0.00  0.00     0.055 C 
ATOM      8  C   UNL d   1       5.374   0.712  -0.582  0.00  0.00     0.019 C 
ENDBRANCH   1   7
TORSDOF 1
ENDMDL
