MODEL 1
REMARK minimizedAffinity -6.7196641
REMARK minimizedRMSD -1
REMARK  0 active torsions:
REMARK  status: ('A' for Active; 'I' for Inactive)
ROOT
ATOM      1  O1  BZF d   1       0.667  -0.765  -1.158  0.00  0.00    -0.204 OA
ATOM      2  C2  BZF d   1      -0.510  -0.150  -0.778  0.00  0.00     0.174 A 
ATOM      3  C3  BZF d   1      -0.622  -0.121   0.566  0.00  0.00    -0.012 A 
ATOM      4  C3A BZF d   1       0.602  -0.675   1.058  0.00  0.00    -0.107 A 
ATOM      5  C4  BZF d   1       1.094  -0.899   2.312  0.00  0.00     0.055 A 
ATOM      6  C5  BZF d   1       2.293  -1.524   2.449  0.00  0.00    -0.016 A 
ATOM      7  C6  BZF d   1       3.023  -1.942   1.355  0.00  0.00     0.022 A 
ATOM      8  C7  BZF d   1       2.578  -1.738   0.092  0.00  0.00     0.029 A 
ATOM      9  C7A BZF d   1       1.382  -1.077  -0.051  0.00  0.00     0.058 A 
ENDROOT
TORSDOF 0
ENDMDL
