MODEL 1
REMARK minimizedAffinity -4.63940477
REMARK minimizedRMSD -1
REMARK  0 active torsions:
REMARK  status: ('A' for Active; 'I' for Inactive)
ROOT
ATOM      1  O1  BZF d   1       0.560  -0.853   2.966  0.00  0.00    -0.204 OA
ATOM      2  C2  BZF d   1       1.936  -0.929   2.870  0.00  0.00     0.174 A 
ATOM      3  C3  BZF d   1       2.341  -0.692   1.606  0.00  0.00    -0.012 A 
ATOM      4  C3A BZF d   1       1.151  -0.363   0.885  0.00  0.00    -0.107 A 
ATOM      5  C4  BZF d   1       0.905  -0.014  -0.413  0.00  0.00     0.055 A 
ATOM      6  C5  BZF d   1      -0.379   0.173  -0.815  0.00  0.00    -0.016 A 
ATOM      7  C6  BZF d   1      -1.441   0.014   0.051  0.00  0.00     0.022 A 
ATOM      8  C7  BZF d   1      -1.248  -0.326   1.348  0.00  0.00     0.029 A 
ATOM      9  C7A BZF d   1       0.052  -0.483   1.766  0.00  0.00     0.058 A 
ENDROOT
TORSDOF 0
ENDMDL
