MODEL 1
REMARK minimizedAffinity -1.90422201
REMARK minimizedRMSD -1
REMARK  0 active torsions:
REMARK  status: ('A' for Active; 'I' for Inactive)
ROOT
ATOM      1  O1  BZF d   1       0.670  -0.518  -0.516  0.00  0.00    -0.204 OA
ATOM      2  C2  BZF d   1      -0.314   0.145  -1.224  0.00  0.00     0.174 A 
ATOM      3  C3  BZF d   1      -1.447   0.237  -0.497  0.00  0.00    -0.012 A 
ATOM      4  C3A BZF d   1      -1.123  -0.327   0.778  0.00  0.00    -0.107 A 
ATOM      5  C4  BZF d   1      -1.830  -0.506   1.932  0.00  0.00     0.055 A 
ATOM      6  C5  BZF d   1      -1.243  -1.156   2.972  0.00  0.00    -0.016 A 
ATOM      7  C6  BZF d   1       0.045  -1.642   2.890  0.00  0.00     0.022 A 
ATOM      8  C7  BZF d   1       0.788  -1.483   1.768  0.00  0.00     0.029 A 
ATOM      9  C7A BZF d   1       0.209  -0.799   0.727  0.00  0.00     0.058 A 
ENDROOT
TORSDOF 0
ENDMDL
