MODEL 1
REMARK minimizedAffinity 5.06459045
REMARK minimizedRMSD -1
REMARK  0 active torsions:
REMARK  status: ('A' for Active; 'I' for Inactive)
ROOT
ATOM      1  C   UNL d   1       3.618  -5.348   1.037  0.00  0.00     0.023 A 
ATOM      2  C1  UNL d   1       2.418  -4.820   1.512  0.00  0.00     0.003 A 
ATOM      3  C2  UNL d   1       1.946  -3.602   1.019  0.00  0.00     0.048 A 
ATOM      4  C3  UNL d   1       2.679  -2.918   0.050  0.00  0.00     0.023 A 
ATOM      5  C4  UNL d   1       3.881  -3.443  -0.428  0.00  0.00     0.048 A 
ATOM      6  C5  UNL d   1       4.349  -4.660   0.069  0.00  0.00     0.003 A 
ATOM      7  I   UNL d   1       1.979  -1.104  -0.686  0.00  0.00    -0.146 I 
ENDROOT
TORSDOF 0
ENDMDL
