MODEL 1
REMARK minimizedAffinity 1.40834379
REMARK minimizedRMSD -1
REMARK  0 active torsions:
REMARK  status: ('A' for Active; 'I' for Inactive)
ROOT
ATOM      1  C   UNL d   1      -2.361  -0.784   2.520  0.00  0.00     0.023 A 
ATOM      2  C1  UNL d   1      -2.406  -0.070   1.323  0.00  0.00     0.003 A 
ATOM      3  C2  UNL d   1      -1.327  -0.117   0.438  0.00  0.00     0.048 A 
ATOM      4  C3  UNL d   1      -0.206  -0.883   0.756  0.00  0.00     0.023 A 
ATOM      5  C4  UNL d   1      -0.156  -1.600   1.953  0.00  0.00     0.048 A 
ATOM      6  C5  UNL d   1      -1.237  -1.548   2.835  0.00  0.00     0.003 A 
ATOM      7  I   UNL d   1       1.402  -0.956  -0.559  0.00  0.00    -0.146 I 
ENDROOT
TORSDOF 0
ENDMDL
