MODEL 1
REMARK minimizedAffinity 2.85477567
REMARK minimizedRMSD -1
REMARK  0 active torsions:
REMARK  status: ('A' for Active; 'I' for Inactive)
ROOT
ATOM      1  C   UNL d   1      -1.102  -2.138   2.978  0.00  0.00     0.023 A 
ATOM      2  C1  UNL d   1      -2.050  -2.402   1.990  0.00  0.00     0.003 A 
ATOM      3  C2  UNL d   1      -2.278  -1.472   0.973  0.00  0.00     0.048 A 
ATOM      4  C3  UNL d   1      -1.553  -0.281   0.950  0.00  0.00     0.023 A 
ATOM      5  C4  UNL d   1      -0.602  -0.014   1.936  0.00  0.00     0.048 A 
ATOM      6  C5  UNL d   1      -0.378  -0.946   2.951  0.00  0.00     0.003 A 
ATOM      7  I   UNL d   1      -1.890   1.104  -0.562  0.00  0.00    -0.146 I 
ENDROOT
TORSDOF 0
ENDMDL
