MODEL 1
REMARK minimizedAffinity 2.83774328
REMARK minimizedRMSD -1
REMARK  0 active torsions:
REMARK  status: ('A' for Active; 'I' for Inactive)
ROOT
ATOM      1  C   UNL d   1       4.670  -1.788  -0.841  0.00  0.00     0.023 A 
ATOM      2  C1  UNL d   1       3.334  -1.409  -0.707  0.00  0.00     0.003 A 
ATOM      3  C2  UNL d   1       2.442  -2.227  -0.010  0.00  0.00     0.048 A 
ATOM      4  C3  UNL d   1       2.893  -3.421   0.552  0.00  0.00     0.023 A 
ATOM      5  C4  UNL d   1       4.229  -3.803   0.421  0.00  0.00     0.048 A 
ATOM      6  C5  UNL d   1       5.117  -2.983  -0.278  0.00  0.00     0.003 A 
ATOM      7  I   UNL d   1       1.568  -4.639   1.590  0.00  0.00    -0.146 I 
ENDROOT
TORSDOF 0
ENDMDL
