MODEL 1
REMARK minimizedAffinity 3.50282383
REMARK minimizedRMSD -1
REMARK  0 active torsions:
REMARK  status: ('A' for Active; 'I' for Inactive)
ROOT
ATOM      1  C   UNL d   1      -1.144  -0.174   2.061  0.00  0.00     0.023 A 
ATOM      2  C1  UNL d   1      -0.552  -1.057   2.964  0.00  0.00     0.003 A 
ATOM      3  C2  UNL d   1       0.447  -1.933   2.533  0.00  0.00     0.048 A 
ATOM      4  C3  UNL d   1       0.849  -1.920   1.198  0.00  0.00     0.023 A 
ATOM      5  C4  UNL d   1       0.259  -1.037   0.291  0.00  0.00     0.048 A 
ATOM      6  C5  UNL d   1      -0.739  -0.164   0.727  0.00  0.00     0.003 A 
ATOM      7  I   UNL d   1       2.335  -3.222   0.554  0.00  0.00    -0.146 I 
ENDROOT
TORSDOF 0
ENDMDL
