MODEL 1
REMARK minimizedAffinity 6.83163881
REMARK minimizedRMSD -1
REMARK  0 active torsions:
REMARK  status: ('A' for Active; 'I' for Inactive)
ROOT
ATOM      1  C   UNL d   1       0.106  -0.804   0.207  0.00  0.00     0.023 A 
ATOM      2  C1  UNL d   1      -0.823  -0.460  -0.776  0.00  0.00     0.003 A 
ATOM      3  C2  UNL d   1      -2.152  -0.215  -0.427  0.00  0.00     0.048 A 
ATOM      4  C3  UNL d   1      -2.547  -0.315   0.907  0.00  0.00     0.023 A 
ATOM      5  C4  UNL d   1      -1.621  -0.658   1.894  0.00  0.00     0.048 A 
ATOM      6  C5  UNL d   1      -0.293  -0.903   1.540  0.00  0.00     0.003 A 
ATOM      7  I   UNL d   1      -4.525   0.050   1.429  0.00  0.00    -0.146 I 
ENDROOT
TORSDOF 0
ENDMDL
