MODEL 1
REMARK minimizedAffinity -4.65610838
REMARK minimizedRMSD -1
REMARK  0 active torsions:
REMARK  status: ('A' for Active; 'I' for Inactive)
ROOT
ATOM      1  C   UNL d   1      -0.700  -0.389   1.608  0.00  0.00     0.023 A 
ATOM      2  C1  UNL d   1      -0.275  -0.572   0.292  0.00  0.00     0.003 A 
ATOM      3  C2  UNL d   1       0.806  -1.411   0.017  0.00  0.00     0.048 A 
ATOM      4  C3  UNL d   1       1.456  -2.067   1.062  0.00  0.00     0.023 A 
ATOM      5  C4  UNL d   1       1.034  -1.888   2.380  0.00  0.00     0.048 A 
ATOM      6  C5  UNL d   1      -0.047  -1.047   2.651  0.00  0.00     0.003 A 
ATOM      7  I   UNL d   1       3.066  -3.318   0.654  0.00  0.00    -0.146 I 
ENDROOT
TORSDOF 0
ENDMDL
