MODEL 1
REMARK minimizedAffinity 0.7579512
REMARK minimizedRMSD -1
REMARK  0 active torsions:
REMARK  status: ('A' for Active; 'I' for Inactive)
ROOT
ATOM      1  C   UNL d   1      -1.031  -0.616   1.574  0.00  0.00     0.023 A 
ATOM      2  C1  UNL d   1      -0.316  -0.581   0.376  0.00  0.00     0.003 A 
ATOM      3  C2  UNL d   1       0.710  -1.500   0.147  0.00  0.00     0.048 A 
ATOM      4  C3  UNL d   1       1.016  -2.452   1.119  0.00  0.00     0.023 A 
ATOM      5  C4  UNL d   1       0.303  -2.491   2.318  0.00  0.00     0.048 A 
ATOM      6  C5  UNL d   1      -0.722  -1.570   2.544  0.00  0.00     0.003 A 
ATOM      7  I   UNL d   1       2.542  -3.821   0.780  0.00  0.00    -0.146 I 
ENDROOT
TORSDOF 0
ENDMDL
