MODEL 1
REMARK minimizedAffinity 5.03681755
REMARK minimizedRMSD -1
REMARK  0 active torsions:
REMARK  status: ('A' for Active; 'I' for Inactive)
ROOT
ATOM      1  C   UNL d   1      -3.328   0.054   1.743  0.00  0.00     0.023 A 
ATOM      2  C1  UNL d   1      -3.207  -0.517   0.476  0.00  0.00     0.003 A 
ATOM      3  C2  UNL d   1      -1.943  -0.810  -0.041  0.00  0.00     0.048 A 
ATOM      4  C3  UNL d   1      -0.805  -0.532   0.716  0.00  0.00     0.023 A 
ATOM      5  C4  UNL d   1      -0.922   0.038   1.985  0.00  0.00     0.048 A 
ATOM      6  C5  UNL d   1      -2.188   0.331   2.496  0.00  0.00     0.003 A 
ATOM      7  I   UNL d   1       1.077  -0.969  -0.050  0.00  0.00    -0.146 I 
ENDROOT
TORSDOF 0
ENDMDL
