MODEL 1
REMARK minimizedAffinity 4.14727592
REMARK minimizedRMSD -1
REMARK  0 active torsions:
REMARK  status: ('A' for Active; 'I' for Inactive)
ROOT
ATOM      1  C   UNL d   1      -2.531  -3.806   4.188  0.00  0.00     0.023 A 
ATOM      2  C1  UNL d   1      -3.027  -2.621   4.731  0.00  0.00     0.003 A 
ATOM      3  C2  UNL d   1      -2.795  -1.405   4.085  0.00  0.00     0.048 A 
ATOM      4  C3  UNL d   1      -2.067  -1.382   2.895  0.00  0.00     0.023 A 
ATOM      5  C4  UNL d   1      -1.571  -2.566   2.348  0.00  0.00     0.048 A 
ATOM      6  C5  UNL d   1      -1.805  -3.779   2.998  0.00  0.00     0.003 A 
ATOM      7  I   UNL d   1      -1.721   0.426   1.931  0.00  0.00    -0.146 I 
ENDROOT
TORSDOF 0
ENDMDL
