MODEL 1
REMARK minimizedAffinity 5.04013681
REMARK minimizedRMSD -1
REMARK  0 active torsions:
REMARK  status: ('A' for Active; 'I' for Inactive)
ROOT
ATOM      1  C   UNL d   1       4.371   4.359  -4.539  0.00  0.00     0.023 A 
ATOM      2  C1  UNL d   1       4.277   5.535  -5.284  0.00  0.00     0.003 A 
ATOM      3  C2  UNL d   1       3.029   5.999  -5.704  0.00  0.00     0.048 A 
ATOM      4  C3  UNL d   1       1.879   5.283  -5.375  0.00  0.00     0.023 A 
ATOM      5  C4  UNL d   1       1.967   4.106  -4.630  0.00  0.00     0.048 A 
ATOM      6  C5  UNL d   1       3.217   3.645  -4.213  0.00  0.00     0.003 A 
ATOM      7  I   UNL d   1       0.020   5.972  -6.000  0.00  0.00    -0.146 I 
ENDROOT
TORSDOF 0
ENDMDL
