MODEL 1
REMARK minimizedAffinity 3.72047639
REMARK minimizedRMSD -1
REMARK  0 active torsions:
REMARK  status: ('A' for Active; 'I' for Inactive)
ROOT
ATOM      1  C   UNL d   1      -1.738   6.000  -2.172  0.00  0.00     0.023 A 
ATOM      2  C1  UNL d   1      -2.197   5.997  -3.489  0.00  0.00     0.003 A 
ATOM      3  C2  UNL d   1      -1.286   5.995  -4.547  0.00  0.00     0.048 A 
ATOM      4  C3  UNL d   1       0.083   5.995  -4.281  0.00  0.00     0.023 A 
ATOM      5  C4  UNL d   1       0.547   5.997  -2.965  0.00  0.00     0.048 A 
ATOM      6  C5  UNL d   1      -0.368   6.000  -1.910  0.00  0.00     0.003 A 
ATOM      7  I   UNL d   1       1.440   5.992  -5.855  0.00  0.00    -0.146 I 
ENDROOT
TORSDOF 0
ENDMDL
