MODEL 1
REMARK minimizedAffinity -1.84563518
REMARK minimizedRMSD -1
REMARK  0 active torsions:
REMARK  status: ('A' for Active; 'I' for Inactive)
ROOT
ATOM      1  C   UNL d   1      -3.117   5.987  -2.275  0.00  0.00     0.023 A 
ATOM      2  C1  UNL d   1      -3.279   5.998  -3.661  0.00  0.00     0.003 A 
ATOM      3  C2  UNL d   1      -2.160   6.000  -4.496  0.00  0.00     0.048 A 
ATOM      4  C3  UNL d   1      -0.881   5.990  -3.938  0.00  0.00     0.023 A 
ATOM      5  C4  UNL d   1      -0.715   5.979  -2.553  0.00  0.00     0.048 A 
ATOM      6  C5  UNL d   1      -1.837   5.978  -1.722  0.00  0.00     0.003 A 
ATOM      7  I   UNL d   1       0.786   5.993  -5.179  0.00  0.00    -0.146 I 
ENDROOT
TORSDOF 0
ENDMDL
