MODEL 1
REMARK minimizedAffinity 2.30700064
REMARK minimizedRMSD -1
REMARK  0 active torsions:
REMARK  status: ('A' for Active; 'I' for Inactive)
ROOT
ATOM      1  C   UNL d   1      -3.023   5.915  -2.748  0.00  0.00     0.023 A 
ATOM      2  C1  UNL d   1      -1.697   5.880  -2.316  0.00  0.00     0.003 A 
ATOM      3  C2  UNL d   1      -0.658   5.903  -3.248  0.00  0.00     0.048 A 
ATOM      4  C3  UNL d   1      -0.951   5.963  -4.610  0.00  0.00     0.023 A 
ATOM      5  C4  UNL d   1      -2.276   5.999  -5.046  0.00  0.00     0.048 A 
ATOM      6  C5  UNL d   1      -3.312   5.975  -4.111  0.00  0.00     0.003 A 
ATOM      7  I   UNL d   1       0.596   5.998  -5.998  0.00  0.00    -0.146 I 
ENDROOT
TORSDOF 0
ENDMDL
