MODEL 1
REMARK minimizedAffinity 0.503564775
REMARK minimizedRMSD -1
REMARK  0 active torsions:
REMARK  status: ('A' for Active; 'I' for Inactive)
ROOT
ATOM      1  C   UNL d   1      -2.867   5.999  -1.753  0.00  0.00     0.023 A 
ATOM      2  C1  UNL d   1      -1.493   5.997  -1.512  0.00  0.00     0.003 A 
ATOM      3  C2  UNL d   1      -0.596   5.995  -2.582  0.00  0.00     0.048 A 
ATOM      4  C3  UNL d   1      -1.079   5.996  -3.890  0.00  0.00     0.023 A 
ATOM      5  C4  UNL d   1      -2.453   5.999  -4.136  0.00  0.00     0.048 A 
ATOM      6  C5  UNL d   1      -3.346   6.000  -3.063  0.00  0.00     0.003 A 
ATOM      7  I   UNL d   1       0.255   5.994  -5.484  0.00  0.00    -0.146 I 
ENDROOT
TORSDOF 0
ENDMDL
