MODEL 1
REMARK minimizedAffinity 6.07319927
REMARK minimizedRMSD -1
REMARK  0 active torsions:
REMARK  status: ('A' for Active; 'I' for Inactive)
ROOT
ATOM      1  C   UNL d   1      -4.824  -3.030  -0.426  0.00  0.00     0.023 A 
ATOM      2  C1  UNL d   1      -4.835  -3.880  -1.532  0.00  0.00     0.003 A 
ATOM      3  C2  UNL d   1      -4.118  -3.541  -2.681  0.00  0.00     0.048 A 
ATOM      4  C3  UNL d   1      -3.391  -2.352  -2.717  0.00  0.00     0.023 A 
ATOM      5  C4  UNL d   1      -3.377  -1.499  -1.612  0.00  0.00     0.048 A 
ATOM      6  C5  UNL d   1      -4.096  -1.841  -0.466  0.00  0.00     0.003 A 
ATOM      7  I   UNL d   1      -2.323  -1.846  -4.427  0.00  0.00    -0.146 I 
ENDROOT
TORSDOF 0
ENDMDL
