MODEL 1
REMARK minimizedAffinity 2.0113132
REMARK minimizedRMSD -1
REMARK  0 active torsions:
REMARK  status: ('A' for Active; 'I' for Inactive)
ROOT
ATOM      1  C   UNL d   1       5.967   5.886  -4.794  0.00  0.00     0.023 A 
ATOM      2  C1  UNL d   1       5.270   5.967  -6.000  0.00  0.00     0.003 A 
ATOM      3  C2  UNL d   1       3.874   5.999  -6.000  0.00  0.00     0.048 A 
ATOM      4  C3  UNL d   1       3.181   5.950  -4.790  0.00  0.00     0.023 A 
ATOM      5  C4  UNL d   1       3.874   5.870  -3.582  0.00  0.00     0.048 A 
ATOM      6  C5  UNL d   1       5.270   5.838  -3.587  0.00  0.00     0.003 A 
ATOM      7  I   UNL d   1       1.103   5.998  -4.788  0.00  0.00    -0.146 I 
ENDROOT
TORSDOF 0
ENDMDL
