MODEL 1
REMARK minimizedAffinity -1.23989952
REMARK minimizedRMSD -1
REMARK  0 active torsions:
REMARK  status: ('A' for Active; 'I' for Inactive)
ROOT
ATOM      1  C   UNL d   1      -3.702   5.998  -2.543  0.00  0.00     0.023 A 
ATOM      2  C1  UNL d   1      -3.750   5.999  -3.937  0.00  0.00     0.003 A 
ATOM      3  C2  UNL d   1      -2.567   6.000  -4.678  0.00  0.00     0.048 A 
ATOM      4  C3  UNL d   1      -1.338   5.998  -4.019  0.00  0.00     0.023 A 
ATOM      5  C4  UNL d   1      -1.285   5.996  -2.624  0.00  0.00     0.048 A 
ATOM      6  C5  UNL d   1      -2.471   5.997  -1.887  0.00  0.00     0.003 A 
ATOM      7  I   UNL d   1       0.425   5.999  -5.120  0.00  0.00    -0.146 I 
ENDROOT
TORSDOF 0
ENDMDL
