MODEL 1
REMARK minimizedAffinity 2.59251118
REMARK minimizedRMSD -1
REMARK  0 active torsions:
REMARK  status: ('A' for Active; 'I' for Inactive)
ROOT
ATOM      1  C   UNL d   1      -2.648   5.996  -1.954  0.00  0.00     0.023 A 
ATOM      2  C1  UNL d   1      -2.818   5.998  -3.339  0.00  0.00     0.003 A 
ATOM      3  C2  UNL d   1      -1.704   6.000  -4.180  0.00  0.00     0.048 A 
ATOM      4  C3  UNL d   1      -0.422   5.998  -3.631  0.00  0.00     0.023 A 
ATOM      5  C4  UNL d   1      -0.247   5.995  -2.246  0.00  0.00     0.048 A 
ATOM      6  C5  UNL d   1      -1.364   5.994  -1.409  0.00  0.00     0.003 A 
ATOM      7  I   UNL d   1       1.238   6.000  -4.881  0.00  0.00    -0.146 I 
ENDROOT
TORSDOF 0
ENDMDL
