MODEL 1
REMARK minimizedAffinity -2.26358986
REMARK minimizedRMSD -1
REMARK  0 active torsions:
REMARK  status: ('A' for Active; 'I' for Inactive)
ROOT
ATOM      1  C   UNL d   1      -1.045   1.187   1.121  0.00  0.00     0.023 A 
ATOM      2  C1  UNL d   1      -0.070   1.437   0.155  0.00  0.00     0.003 A 
ATOM      3  C2  UNL d   1       1.283   1.365   0.492  0.00  0.00     0.048 A 
ATOM      4  C3  UNL d   1       1.655   1.042   1.796  0.00  0.00     0.023 A 
ATOM      5  C4  UNL d   1       0.683   0.790   2.766  0.00  0.00     0.048 A 
ATOM      6  C5  UNL d   1      -0.669   0.864   2.425  0.00  0.00     0.003 A 
ATOM      7  I   UNL d   1       3.668   0.934   2.300  0.00  0.00    -0.146 I 
ENDROOT
TORSDOF 0
ENDMDL
