MODEL 1
REMARK minimizedAffinity -0.523984611
REMARK minimizedRMSD -1
REMARK  0 active torsions:
REMARK  status: ('A' for Active; 'I' for Inactive)
ROOT
ATOM      1  C   UNL d   1      -2.975   5.978  -2.650  0.00  0.00     0.023 A 
ATOM      2  C1  UNL d   1      -3.236   5.962  -4.020  0.00  0.00     0.003 A 
ATOM      3  C2  UNL d   1      -2.180   5.965  -4.934  0.00  0.00     0.048 A 
ATOM      4  C3  UNL d   1      -0.865   5.983  -4.470  0.00  0.00     0.023 A 
ATOM      5  C4  UNL d   1      -0.599   5.998  -3.100  0.00  0.00     0.048 A 
ATOM      6  C5  UNL d   1      -1.658   5.995  -2.190  0.00  0.00     0.003 A 
ATOM      7  I   UNL d   1       0.708   5.987  -5.828  0.00  0.00    -0.146 I 
ENDROOT
TORSDOF 0
ENDMDL
