MODEL 1
REMARK minimizedAffinity 1.36655247
REMARK minimizedRMSD -1
REMARK  0 active torsions:
REMARK  status: ('A' for Active; 'I' for Inactive)
ROOT
ATOM      1  C   UNL d   1       0.915   5.786  -4.720  0.00  0.00     0.023 A 
ATOM      2  C1  UNL d   1       1.569   5.890  -5.948  0.00  0.00     0.003 A 
ATOM      3  C2  UNL d   1       2.964   5.951  -5.995  0.00  0.00     0.048 A 
ATOM      4  C3  UNL d   1       3.698   5.907  -4.810  0.00  0.00     0.023 A 
ATOM      5  C4  UNL d   1       3.048   5.803  -3.579  0.00  0.00     0.048 A 
ATOM      6  C5  UNL d   1       1.654   5.743  -3.537  0.00  0.00     0.003 A 
ATOM      7  I   UNL d   1       5.773   5.998  -4.878  0.00  0.00    -0.146 I 
ENDROOT
TORSDOF 0
ENDMDL
