MODEL 1
REMARK minimizedAffinity -2.19940591
REMARK minimizedRMSD -1
REMARK  0 active torsions:
REMARK  status: ('A' for Active; 'I' for Inactive)
ROOT
ATOM      1  C   UNL d   1       1.219   5.735  -5.242  0.00  0.00     0.023 A 
ATOM      2  C1  UNL d   1       0.044   5.625  -5.987  0.00  0.00     0.003 A 
ATOM      3  C2  UNL d   1      -1.197   5.700  -5.352  0.00  0.00     0.048 A 
ATOM      4  C3  UNL d   1      -1.257   5.887  -3.971  0.00  0.00     0.023 A 
ATOM      5  C4  UNL d   1      -0.084   5.999  -3.222  0.00  0.00     0.048 A 
ATOM      6  C5  UNL d   1       1.154   5.922  -3.861  0.00  0.00     0.003 A 
ATOM      7  I   UNL d   1      -3.103   5.999  -3.023  0.00  0.00    -0.146 I 
ENDROOT
TORSDOF 0
ENDMDL
