MODEL 1
REMARK minimizedAffinity 6.91406345
REMARK minimizedRMSD -1
REMARK  0 active torsions:
REMARK  status: ('A' for Active; 'I' for Inactive)
ROOT
ATOM      1  C   UNL d   1      -0.091   5.995  -4.547  0.00  0.00     0.023 A 
ATOM      2  C1  UNL d   1      -1.445   6.000  -4.883  0.00  0.00     0.003 A 
ATOM      3  C2  UNL d   1      -2.415   5.982  -3.878  0.00  0.00     0.048 A 
ATOM      4  C3  UNL d   1      -2.024   5.961  -2.540  0.00  0.00     0.023 A 
ATOM      5  C4  UNL d   1      -0.671   5.958  -2.199  0.00  0.00     0.048 A 
ATOM      6  C5  UNL d   1       0.296   5.974  -3.207  0.00  0.00     0.003 A 
ATOM      7  I   UNL d   1      -3.466   5.935  -1.043  0.00  0.00    -0.146 I 
ENDROOT
TORSDOF 0
ENDMDL
