MODEL 1
REMARK minimizedAffinity -1.80696142
REMARK minimizedRMSD -1
REMARK  0 active torsions:
REMARK  status: ('A' for Active; 'I' for Inactive)
ROOT
ATOM      1  C   UNL d   1       0.379   6.000  -4.746  0.00  0.00     0.023 A 
ATOM      2  C1  UNL d   1       1.101   6.000  -3.552  0.00  0.00     0.003 A 
ATOM      3  C2  UNL d   1       2.497   5.999  -3.578  0.00  0.00     0.048 A 
ATOM      4  C3  UNL d   1       3.165   5.999  -4.802  0.00  0.00     0.023 A 
ATOM      5  C4  UNL d   1       2.447   6.000  -5.999  0.00  0.00     0.048 A 
ATOM      6  C5  UNL d   1       1.052   6.000  -5.968  0.00  0.00     0.003 A 
ATOM      7  I   UNL d   1       5.243   5.998  -4.844  0.00  0.00    -0.146 I 
ENDROOT
TORSDOF 0
ENDMDL
