MODEL 1
REMARK minimizedAffinity 5.20663548
REMARK minimizedRMSD -1
REMARK  0 active torsions:
REMARK  status: ('A' for Active; 'I' for Inactive)
ROOT
ATOM      1  C   UNL d   1      -4.413  -2.000  -0.923  0.00  0.00     0.023 A 
ATOM      2  C1  UNL d   1      -4.746  -2.617  -2.129  0.00  0.00     0.003 A 
ATOM      3  C2  UNL d   1      -3.971  -2.392  -3.268  0.00  0.00     0.048 A 
ATOM      4  C3  UNL d   1      -2.862  -1.549  -3.194  0.00  0.00     0.023 A 
ATOM      5  C4  UNL d   1      -2.524  -0.931  -1.989  0.00  0.00     0.048 A 
ATOM      6  C5  UNL d   1      -3.303  -1.158  -0.853  0.00  0.00     0.003 A 
ATOM      7  I   UNL d   1      -1.706  -1.213  -4.888  0.00  0.00    -0.146 I 
ENDROOT
TORSDOF 0
ENDMDL
