MODEL 1
REMARK minimizedAffinity -3.18691039
REMARK minimizedRMSD -1
REMARK  0 active torsions:
REMARK  status: ('A' for Active; 'I' for Inactive)
ROOT
ATOM      1  C   UNL d   1      -2.451   5.993  -3.426  0.00  0.00     0.023 A 
ATOM      2  C1  UNL d   1      -1.280   5.992  -2.667  0.00  0.00     0.003 A 
ATOM      3  C2  UNL d   1      -0.036   5.986  -3.302  0.00  0.00     0.048 A 
ATOM      4  C3  UNL d   1       0.030   5.982  -4.694  0.00  0.00     0.023 A 
ATOM      5  C4  UNL d   1      -1.139   5.983  -5.457  0.00  0.00     0.048 A 
ATOM      6  C5  UNL d   1      -2.380   5.988  -4.819  0.00  0.00     0.003 A 
ATOM      7  I   UNL d   1       1.881   5.973  -5.641  0.00  0.00    -0.146 I 
ENDROOT
TORSDOF 0
ENDMDL
