MODEL 1
REMARK minimizedAffinity 1.28328657
REMARK minimizedRMSD -1
REMARK  0 active torsions:
REMARK  status: ('A' for Active; 'I' for Inactive)
ROOT
ATOM      1  C   UNL d   1      -3.566   5.965  -3.127  0.00  0.00     0.023 A 
ATOM      2  C1  UNL d   1      -2.336   5.988  -2.468  0.00  0.00     0.003 A 
ATOM      3  C2  UNL d   1      -1.149   5.996  -3.203  0.00  0.00     0.048 A 
ATOM      4  C3  UNL d   1      -1.199   5.982  -4.597  0.00  0.00     0.023 A 
ATOM      5  C4  UNL d   1      -2.427   5.960  -5.260  0.00  0.00     0.048 A 
ATOM      6  C5  UNL d   1      -3.611   5.951  -4.521  0.00  0.00     0.003 A 
ATOM      7  I   UNL d   1       0.567   5.995  -5.694  0.00  0.00    -0.146 I 
ENDROOT
TORSDOF 0
ENDMDL
