MODEL 1
REMARK minimizedAffinity -5.6330924
REMARK minimizedRMSD -1
REMARK  0 active torsions:
REMARK  status: ('A' for Active; 'I' for Inactive)
ROOT
ATOM      1  C2' OXE d   1       0.293   0.723   1.628  0.00  0.00     0.078 C 
ATOM      2  C1' OXE d   1      -0.040   1.852  -0.921  0.00  0.00     0.078 C 
ATOM      3  C1  OXE d   1      -0.679   2.557   0.250  0.00  0.00    -0.078 A 
ATOM      4  C2  OXE d   1      -0.550   1.972   1.487  0.00  0.00    -0.078 A 
ATOM      5  C3  OXE d   1      -1.073   2.609   2.609  0.00  0.00     0.003 A 
ATOM      6  C4  OXE d   1      -1.860   3.759   2.469  0.00  0.00    -0.002 A 
ATOM      7  C5  OXE d   1      -2.037   4.349   1.213  0.00  0.00    -0.002 A 
ATOM      8  C6  OXE d   1      -1.419   3.786   0.102  0.00  0.00     0.003 A 
ENDROOT
TORSDOF 0
ENDMDL
