MODEL 1
REMARK minimizedAffinity 1.1020484
REMARK minimizedRMSD -1
REMARK  0 active torsions:
REMARK  status: ('A' for Active; 'I' for Inactive)
ROOT
ATOM      1  C2' OXE d   1       2.452  -0.606  -0.659  0.00  0.00     0.078 C 
ATOM      2  C1' OXE d   1       0.032  -0.425  -2.070  0.00  0.00     0.078 C 
ATOM      3  C1  OXE d   1       0.195   0.433  -0.841  0.00  0.00    -0.078 A 
ATOM      4  C2  OXE d   1       1.364   0.303  -0.130  0.00  0.00    -0.078 A 
ATOM      5  C3  OXE d   1       1.588   1.111   0.981  0.00  0.00     0.003 A 
ATOM      6  C4  OXE d   1       0.573   1.942   1.470  0.00  0.00    -0.002 A 
ATOM      7  C5  OXE d   1      -0.640   2.059   0.784  0.00  0.00    -0.002 A 
ATOM      8  C6  OXE d   1      -0.829   1.345  -0.394  0.00  0.00     0.003 A 
ENDROOT
TORSDOF 0
ENDMDL
