MODEL 1
REMARK minimizedAffinity 5.49227095
REMARK minimizedRMSD -1
REMARK  0 active torsions:
REMARK  status: ('A' for Active; 'I' for Inactive)
ROOT
ATOM      1  C2' OXE d   1      -2.478   5.019   0.323  0.00  0.00     0.078 C 
ATOM      2  C1' OXE d   1      -0.719   3.608  -1.349  0.00  0.00     0.078 C 
ATOM      3  C1  OXE d   1      -0.856   3.145   0.080  0.00  0.00    -0.078 A 
ATOM      4  C2  OXE d   1      -1.684   3.869   0.903  0.00  0.00    -0.078 A 
ATOM      5  C3  OXE d   1      -1.888   3.452   2.215  0.00  0.00     0.003 A 
ATOM      6  C4  OXE d   1      -1.142   2.393   2.747  0.00  0.00    -0.002 A 
ATOM      7  C5  OXE d   1      -0.264   1.667   1.936  0.00  0.00    -0.002 A 
ATOM      8  C6  OXE d   1      -0.141   2.002   0.592  0.00  0.00     0.003 A 
ENDROOT
TORSDOF 0
ENDMDL
