MODEL 1
REMARK minimizedAffinity 2.86583424
REMARK minimizedRMSD -1
REMARK  0 active torsions:
REMARK  status: ('A' for Active; 'I' for Inactive)
ROOT
ATOM      1  C2' OXE d   1       0.919   0.044  -0.254  0.00  0.00     0.078 C 
ATOM      2  C1' OXE d   1       0.987   0.091   2.552  0.00  0.00     0.078 C 
ATOM      3  C1  OXE d   1       0.260   1.209   1.847  0.00  0.00    -0.078 A 
ATOM      4  C2  OXE d   1       0.272   1.203   0.473  0.00  0.00    -0.078 A 
ATOM      5  C3  OXE d   1      -0.429   2.181  -0.227  0.00  0.00     0.003 A 
ATOM      6  C4  OXE d   1      -1.016   3.255   0.452  0.00  0.00    -0.002 A 
ATOM      7  C5  OXE d   1      -1.005   3.302   1.850  0.00  0.00    -0.002 A 
ATOM      8  C6  OXE d   1      -0.410   2.267   2.562  0.00  0.00     0.003 A 
ENDROOT
TORSDOF 0
ENDMDL
