MODEL 1
REMARK minimizedAffinity 4.83790588
REMARK minimizedRMSD -1
REMARK  0 active torsions:
REMARK  status: ('A' for Active; 'I' for Inactive)
ROOT
ATOM      1  C2' OXE d   1       1.026   0.806   0.507  0.00  0.00     0.078 C 
ATOM      2  C1' OXE d   1      -0.826   1.512   2.495  0.00  0.00     0.078 C 
ATOM      3  C1  OXE d   1      -0.796   2.340   1.235  0.00  0.00    -0.078 A 
ATOM      4  C2  OXE d   1       0.145   2.016   0.288  0.00  0.00    -0.078 A 
ATOM      5  C3  OXE d   1       0.179   2.714  -0.917  0.00  0.00     0.003 A 
ATOM      6  C4  OXE d   1      -0.633   3.838  -1.108  0.00  0.00    -0.002 A 
ATOM      7  C5  OXE d   1      -1.571   4.210  -0.139  0.00  0.00    -0.002 A 
ATOM      8  C6  OXE d   1      -1.695   3.447   1.017  0.00  0.00     0.003 A 
ENDROOT
TORSDOF 0
ENDMDL
