MODEL 1
REMARK minimizedAffinity -0.761142373
REMARK minimizedRMSD -1
REMARK  0 active torsions:
REMARK  status: ('A' for Active; 'I' for Inactive)
ROOT
ATOM      1  C2' OXE d   1      -1.334   2.558   2.335  0.00  0.00     0.078 C 
ATOM      2  C1' OXE d   1      -0.954   2.488  -0.446  0.00  0.00     0.078 C 
ATOM      3  C1  OXE d   1      -1.537   3.743   0.153  0.00  0.00    -0.078 A 
ATOM      4  C2  OXE d   1      -1.763   3.751   1.509  0.00  0.00    -0.078 A 
ATOM      5  C3  OXE d   1      -2.248   4.904   2.120  0.00  0.00     0.003 A 
ATOM      6  C4  OXE d   1      -2.651   6.000   1.347  0.00  0.00    -0.002 A 
ATOM      7  C5  OXE d   1      -2.466   5.997  -0.039  0.00  0.00    -0.002 A 
ATOM      8  C6  OXE d   1      -1.872   4.896  -0.646  0.00  0.00     0.003 A 
ENDROOT
TORSDOF 0
ENDMDL
