MODEL 1
REMARK minimizedAffinity 3.96142507
REMARK minimizedRMSD -1
REMARK  0 active torsions:
REMARK  status: ('A' for Active; 'I' for Inactive)
ROOT
ATOM      1  C2' OXE d   1       3.357  -2.816  -2.635  0.00  0.00     0.078 C 
ATOM      2  C1' OXE d   1       5.498  -4.478  -3.368  0.00  0.00     0.078 C 
ATOM      3  C1  OXE d   1       4.812  -4.753  -2.053  0.00  0.00    -0.078 A 
ATOM      4  C2  OXE d   1       3.797  -3.906  -1.680  0.00  0.00    -0.078 A 
ATOM      5  C3  OXE d   1       3.095  -4.147  -0.503  0.00  0.00     0.003 A 
ATOM      6  C4  OXE d   1       3.514  -5.151   0.379  0.00  0.00    -0.002 A 
ATOM      7  C5  OXE d   1       4.572  -6.000   0.037  0.00  0.00    -0.002 A 
ATOM      8  C6  OXE d   1       5.203  -5.842  -1.192  0.00  0.00     0.003 A 
ENDROOT
TORSDOF 0
ENDMDL
