MODEL 1
REMARK minimizedAffinity 5.21186018
REMARK minimizedRMSD -1
REMARK  0 active torsions:
REMARK  status: ('A' for Active; 'I' for Inactive)
ROOT
ATOM      1  C2' OXE d   1       1.990  -1.257   0.167  0.00  0.00     0.078 C 
ATOM      2  C1' OXE d   1       2.301  -1.406   2.953  0.00  0.00     0.078 C 
ATOM      3  C1  OXE d   1       1.271  -0.446   2.410  0.00  0.00    -0.078 A 
ATOM      4  C2  OXE d   1       1.159  -0.346   1.044  0.00  0.00    -0.078 A 
ATOM      5  C3  OXE d   1       0.187   0.484   0.492  0.00  0.00     0.003 A 
ATOM      6  C4  OXE d   1      -0.571   1.330   1.310  0.00  0.00    -0.002 A 
ATOM      7  C5  OXE d   1      -0.444   1.273   2.702  0.00  0.00    -0.002 A 
ATOM      8  C6  OXE d   1       0.440   0.361   3.268  0.00  0.00     0.003 A 
ENDROOT
TORSDOF 0
ENDMDL
