MODEL 1
REMARK minimizedAffinity 1.78017294
REMARK minimizedRMSD -1
REMARK  1 active torsions:
REMARK  status: ('A' for Active; 'I' for Inactive)
REMARK    1  A    between atoms: C3_4  and  O_7 
ROOT
ATOM      1  C   UNL d   1       4.919  -0.676  -0.020  0.00  0.00    -0.033 A 
ATOM      2  C1  UNL d   1       3.679  -0.280  -0.524  0.00  0.00     0.039 A 
ATOM      3  C2  UNL d   1       3.516   1.000  -1.058  0.00  0.00    -0.080 A 
ATOM      4  C3  UNL d   1       4.600   1.873  -1.082  0.00  0.00     0.150 A 
ATOM      5  C4  UNL d   1       5.839   1.484  -0.585  0.00  0.00    -0.007 A 
ATOM      6  C5  UNL d   1       6.000   0.206  -0.051  0.00  0.00     0.039 A 
ENDROOT
BRANCH   4   7
ATOM      7  O   UNL d   1       4.488   3.134  -1.589  0.00  0.00    -0.526 OA
ATOM      8  H5  UNL d   1       3.568   3.272  -1.869  0.00  0.00     0.418 HD
ENDBRANCH   4   7
TORSDOF 1
ENDMDL
