MODEL 1
REMARK minimizedAffinity 3.11877704
REMARK minimizedRMSD -1
REMARK  1 active torsions:
REMARK  status: ('A' for Active; 'I' for Inactive)
REMARK    1  A    between atoms: C3_4  and  O_7 
ROOT
ATOM      1  C   UNL d   1       1.038   3.367   2.444  0.00  0.00    -0.033 A 
ATOM      2  C1  UNL d   1       1.164   1.977   2.396  0.00  0.00     0.039 A 
ATOM      3  C2  UNL d   1       0.190   1.208   1.757  0.00  0.00    -0.080 A 
ATOM      4  C3  UNL d   1      -0.903   1.839   1.171  0.00  0.00     0.150 A 
ATOM      5  C4  UNL d   1      -1.034   3.223   1.212  0.00  0.00    -0.007 A 
ATOM      6  C5  UNL d   1      -0.061   3.990   1.851  0.00  0.00     0.039 A 
ENDROOT
BRANCH   4   7
ATOM      7  O   UNL d   1      -1.882   1.129   0.540  0.00  0.00    -0.526 OA
ATOM      8  H5  UNL d   1      -1.673   0.183   0.616  0.00  0.00     0.418 HD
ENDBRANCH   4   7
TORSDOF 1
ENDMDL
