MODEL 1
REMARK minimizedAffinity 10.9659605
REMARK minimizedRMSD -1
REMARK  1 active torsions:
REMARK  status: ('A' for Active; 'I' for Inactive)
REMARK    1  A    between atoms: C3_4  and  O_7 
ROOT
ATOM      1  C   UNL d   1      -0.181   2.235   2.146  0.00  0.00    -0.033 A 
ATOM      2  C1  UNL d   1      -1.128   2.701   1.231  0.00  0.00     0.039 A 
ATOM      3  C2  UNL d   1      -1.192   2.151  -0.051  0.00  0.00    -0.080 A 
ATOM      4  C3  UNL d   1      -0.307   1.137  -0.405  0.00  0.00     0.150 A 
ATOM      5  C4  UNL d   1       0.637   0.666   0.502  0.00  0.00    -0.007 A 
ATOM      6  C5  UNL d   1       0.700   1.216   1.782  0.00  0.00     0.039 A 
ENDROOT
BRANCH   4   7
ATOM      7  O   UNL d   1      -0.329   0.573  -1.646  0.00  0.00    -0.526 OA
ATOM      8  H5  UNL d   1      -1.012   1.018  -2.174  0.00  0.00     0.418 HD
ENDBRANCH   4   7
TORSDOF 1
ENDMDL
