MODEL 1
REMARK minimizedAffinity 1.7870636
REMARK minimizedRMSD -1
REMARK  1 active torsions:
REMARK  status: ('A' for Active; 'I' for Inactive)
REMARK    1  A    between atoms: C3_4  and  O_7 
ROOT
ATOM      1  C   UNL d   1       5.295   1.693  -0.821  0.00  0.00    -0.033 A 
ATOM      2  C1  UNL d   1       3.899   1.686  -0.806  0.00  0.00     0.039 A 
ATOM      3  C2  UNL d   1       3.204   0.474  -0.802  0.00  0.00    -0.080 A 
ATOM      4  C3  UNL d   1       3.917  -0.721  -0.812  0.00  0.00     0.150 A 
ATOM      5  C4  UNL d   1       5.308  -0.722  -0.822  0.00  0.00    -0.007 A 
ATOM      6  C5  UNL d   1       5.999   0.489  -0.827  0.00  0.00     0.039 A 
ENDROOT
BRANCH   4   7
ATOM      7  O   UNL d   1       3.284  -1.929  -0.813  0.00  0.00    -0.526 OA
ATOM      8  H5  UNL d   1       2.325  -1.773  -0.834  0.00  0.00     0.418 HD
ENDBRANCH   4   7
TORSDOF 1
ENDMDL
