MODEL 1
REMARK minimizedAffinity 6.38402843
REMARK minimizedRMSD -1
REMARK  1 active torsions:
REMARK  status: ('A' for Active; 'I' for Inactive)
REMARK    1  A    between atoms: C3_4  and  O_7 
ROOT
ATOM      1  C   UNL d   1      -2.631  -0.121  -4.882  0.00  0.00    -0.033 A 
ATOM      2  C1  UNL d   1      -3.069   0.126  -3.579  0.00  0.00     0.039 A 
ATOM      3  C2  UNL d   1      -3.852   1.248  -3.305  0.00  0.00    -0.080 A 
ATOM      4  C3  UNL d   1      -4.192   2.114  -4.341  0.00  0.00     0.150 A 
ATOM      5  C4  UNL d   1      -3.763   1.872  -5.641  0.00  0.00    -0.007 A 
ATOM      6  C5  UNL d   1      -2.979   0.751  -5.913  0.00  0.00     0.039 A 
ENDROOT
BRANCH   4   7
ATOM      7  O   UNL d   1      -4.951   3.225  -4.121  0.00  0.00    -0.526 OA
ATOM      8  H5  UNL d   1      -5.150   3.279  -3.171  0.00  0.00     0.418 HD
ENDBRANCH   4   7
TORSDOF 1
ENDMDL
