MODEL 1
REMARK minimizedAffinity 12.5871191
REMARK minimizedRMSD -1
REMARK  1 active torsions:
REMARK  status: ('A' for Active; 'I' for Inactive)
REMARK    1  A    between atoms: C3_4  and  O_7 
ROOT
ATOM      1  C   UNL d   1       1.736  -3.534  -1.304  0.00  0.00    -0.033 A 
ATOM      2  C1  UNL d   1       1.174  -4.399  -0.362  0.00  0.00     0.039 A 
ATOM      3  C2  UNL d   1      -0.058  -5.004  -0.615  0.00  0.00    -0.080 A 
ATOM      4  C3  UNL d   1      -0.717  -4.738  -1.812  0.00  0.00     0.150 A 
ATOM      5  C4  UNL d   1      -0.162  -3.881  -2.756  0.00  0.00    -0.007 A 
ATOM      6  C5  UNL d   1       1.068  -3.276  -2.501  0.00  0.00     0.039 A 
ENDROOT
BRANCH   4   7
ATOM      7  O   UNL d   1      -1.925  -5.302  -2.101  0.00  0.00    -0.526 OA
ATOM      8  H5  UNL d   1      -2.198  -5.848  -1.345  0.00  0.00     0.418 HD
ENDBRANCH   4   7
TORSDOF 1
ENDMDL
