MODEL 1
REMARK minimizedAffinity 6.72459459
REMARK minimizedRMSD -1
REMARK  1 active torsions:
REMARK  status: ('A' for Active; 'I' for Inactive)
REMARK    1  A    between atoms: C3_4  and  O_7 
ROOT
ATOM      1  C   UNL d   1       3.349  -0.637   0.174  0.00  0.00    -0.033 A 
ATOM      2  C1  UNL d   1       4.619  -0.355   0.681  0.00  0.00     0.039 A 
ATOM      3  C2  UNL d   1       5.388   0.664   0.117  0.00  0.00    -0.080 A 
ATOM      4  C3  UNL d   1       4.875   1.395  -0.952  0.00  0.00     0.150 A 
ATOM      5  C4  UNL d   1       3.609   1.123  -1.459  0.00  0.00    -0.007 A 
ATOM      6  C5  UNL d   1       2.843   0.104  -0.895  0.00  0.00     0.039 A 
ENDROOT
BRANCH   4   7
ATOM      7  O   UNL d   1       5.590   2.397  -1.538  0.00  0.00    -0.526 OA
ATOM      8  H5  UNL d   1       6.457   2.452  -1.102  0.00  0.00     0.418 HD
ENDBRANCH   4   7
TORSDOF 1
ENDMDL
