MODEL 1
REMARK minimizedAffinity 6.0954051
REMARK minimizedRMSD -1
REMARK  1 active torsions:
REMARK  status: ('A' for Active; 'I' for Inactive)
REMARK    1  A    between atoms: C3_4  and  O_7 
ROOT
ATOM      1  C   UNL d   1       4.610   1.066  -1.273  0.00  0.00    -0.033 A 
ATOM      2  C1  UNL d   1       5.154   2.316  -1.575  0.00  0.00     0.039 A 
ATOM      3  C2  UNL d   1       5.626   3.139  -0.551  0.00  0.00    -0.080 A 
ATOM      4  C3  UNL d   1       5.549   2.702   0.769  0.00  0.00     0.150 A 
ATOM      5  C4  UNL d   1       5.011   1.456   1.076  0.00  0.00    -0.007 A 
ATOM      6  C5  UNL d   1       4.540   0.636   0.052  0.00  0.00     0.039 A 
ENDROOT
BRANCH   4   7
ATOM      7  O   UNL d   1       5.992   3.472   1.802  0.00  0.00    -0.526 OA
ATOM      8  H5  UNL d   1       6.311   4.316   1.442  0.00  0.00     0.418 HD
ENDBRANCH   4   7
TORSDOF 1
ENDMDL
