MODEL 1
REMARK minimizedAffinity 2.05013728
REMARK minimizedRMSD -1
REMARK  1 active torsions:
REMARK  status: ('A' for Active; 'I' for Inactive)
REMARK    1  A    between atoms: C3_4  and  O_7 
ROOT
ATOM      1  C   UNL d   1       3.452  -0.196  -0.124  0.00  0.00    -0.033 A 
ATOM      2  C1  UNL d   1       3.850   0.405  -1.320  0.00  0.00     0.039 A 
ATOM      3  C2  UNL d   1       4.709   1.506  -1.299  0.00  0.00    -0.080 A 
ATOM      4  C3  UNL d   1       5.162   1.995  -0.077  0.00  0.00     0.150 A 
ATOM      5  C4  UNL d   1       4.773   1.399   1.119  0.00  0.00    -0.007 A 
ATOM      6  C5  UNL d   1       3.914   0.301   1.095  0.00  0.00     0.039 A 
ENDROOT
BRANCH   4   7
ATOM      7  O   UNL d   1       5.997   3.070  -0.005  0.00  0.00    -0.526 OA
ATOM      8  H5  UNL d   1       6.158   3.395  -0.907  0.00  0.00     0.418 HD
ENDBRANCH   4   7
TORSDOF 1
ENDMDL
