MODEL 1
REMARK minimizedAffinity -3.07900429
REMARK minimizedRMSD -1
REMARK  1 active torsions:
REMARK  status: ('A' for Active; 'I' for Inactive)
REMARK    1  A    between atoms: C3_4  and  O_7 
ROOT
ATOM      1  C   UNL d   1      -2.926   0.502  -5.119  0.00  0.00    -0.033 A 
ATOM      2  C1  UNL d   1      -4.125   0.935  -5.688  0.00  0.00     0.039 A 
ATOM      3  C2  UNL d   1      -5.095   1.548  -4.893  0.00  0.00    -0.080 A 
ATOM      4  C3  UNL d   1      -4.854   1.724  -3.534  0.00  0.00     0.150 A 
ATOM      5  C4  UNL d   1      -3.660   1.298  -2.961  0.00  0.00    -0.007 A 
ATOM      6  C5  UNL d   1      -2.692   0.685  -3.756  0.00  0.00     0.039 A 
ENDROOT
BRANCH   4   7
ATOM      7  O   UNL d   1      -5.773   2.313  -2.717  0.00  0.00    -0.526 OA
ATOM      8  H5  UNL d   1      -6.560   2.529  -3.245  0.00  0.00     0.418 HD
ENDBRANCH   4   7
TORSDOF 1
ENDMDL
