MODEL 1
REMARK minimizedAffinity -4.52245235
REMARK minimizedRMSD -1
REMARK  0 active torsions:
REMARK  status: ('A' for Active; 'I' for Inactive)
ROOT
ATOM      1  O1  BZF d   1       0.773   1.202  -0.879  0.00  0.00    -0.204 OA
ATOM      2  C2  BZF d   1      -0.293   0.939  -1.718  0.00  0.00     0.174 A 
ATOM      3  C3  BZF d   1      -1.104   0.003  -1.184  0.00  0.00    -0.012 A 
ATOM      4  C3A BZF d   1      -0.557  -0.274   0.109  0.00  0.00    -0.107 A 
ATOM      5  C4  BZF d   1      -0.928  -1.106   1.126  0.00  0.00     0.055 A 
ATOM      6  C5  BZF d   1      -0.138  -1.195   2.228  0.00  0.00    -0.016 A 
ATOM      7  C6  BZF d   1       1.031  -0.472   2.344  0.00  0.00     0.022 A 
ATOM      8  C7  BZF d   1       1.438   0.370   1.363  0.00  0.00     0.029 A 
ATOM      9  C7A BZF d   1       0.624   0.488   0.263  0.00  0.00     0.058 A 
ENDROOT
TORSDOF 0
ENDMDL
