MODEL 1
REMARK minimizedAffinity -4.42743874
REMARK minimizedRMSD -1
REMARK  0 active torsions:
REMARK  status: ('A' for Active; 'I' for Inactive)
ROOT
ATOM      1  O1  BZF d   1       0.424  -0.783  -0.932  0.00  0.00    -0.204 OA
ATOM      2  C2  BZF d   1      -0.673  -0.129  -0.407  0.00  0.00     0.174 A 
ATOM      3  C3  BZF d   1      -0.794  -0.382   0.912  0.00  0.00    -0.012 A 
ATOM      4  C3A BZF d   1       0.348  -1.175   1.250  0.00  0.00    -0.107 A 
ATOM      5  C4  BZF d   1       0.796  -1.727   2.416  0.00  0.00     0.055 A 
ATOM      6  C5  BZF d   1       1.908  -2.507   2.392  0.00  0.00    -0.016 A 
ATOM      7  C6  BZF d   1       2.593  -2.761   1.222  0.00  0.00     0.022 A 
ATOM      8  C7  BZF d   1       2.189  -2.232   0.041  0.00  0.00     0.029 A 
ATOM      9  C7A BZF d   1       1.084  -1.416   0.067  0.00  0.00     0.058 A 
ENDROOT
TORSDOF 0
ENDMDL
