MODEL 1
REMARK minimizedAffinity -2.85392928
REMARK minimizedRMSD -1
REMARK  0 active torsions:
REMARK  status: ('A' for Active; 'I' for Inactive)
ROOT
ATOM      1  O1  BZF d   1       1.189  -0.516   2.636  0.00  0.00    -0.204 OA
ATOM      2  C2  BZF d   1       2.315   0.112   2.140  0.00  0.00     0.174 A 
ATOM      3  C3  BZF d   1       2.167   0.393   0.829  0.00  0.00    -0.012 A 
ATOM      4  C3A BZF d   1       0.832  -0.007   0.507  0.00  0.00    -0.107 A 
ATOM      5  C4  BZF d   1       0.091   0.033  -0.640  0.00  0.00     0.055 A 
ATOM      6  C5  BZF d   1      -1.157  -0.505  -0.639  0.00  0.00    -0.016 A 
ATOM      7  C6  BZF d   1      -1.692  -1.095   0.488  0.00  0.00     0.022 A 
ATOM      8  C7  BZF d   1      -0.997  -1.154   1.649  0.00  0.00     0.029 A 
ATOM      9  C7A BZF d   1       0.251  -0.582   1.661  0.00  0.00     0.058 A 
ENDROOT
TORSDOF 0
ENDMDL
