MODEL 1
REMARK minimizedAffinity -4.45217562
REMARK minimizedRMSD -1
REMARK  0 active torsions:
REMARK  status: ('A' for Active; 'I' for Inactive)
ROOT
ATOM      1  O1  BZF d   1       2.009  -0.968   1.353  0.00  0.00    -0.204 OA
ATOM      2  C2  BZF d   1       1.662  -1.194   2.672  0.00  0.00     0.174 A 
ATOM      3  C3  BZF d   1       0.378  -0.846   2.894  0.00  0.00    -0.012 A 
ATOM      4  C3A BZF d   1      -0.135  -0.460   1.615  0.00  0.00    -0.107 A 
ATOM      5  C4  BZF d   1      -1.357  -0.029   1.185  0.00  0.00     0.055 A 
ATOM      6  C5  BZF d   1      -1.508   0.336  -0.115  0.00  0.00    -0.016 A 
ATOM      7  C6  BZF d   1      -0.459   0.287  -1.010  0.00  0.00     0.022 A 
ATOM      8  C7  BZF d   1       0.770  -0.139  -0.631  0.00  0.00     0.029 A 
ATOM      9  C7A BZF d   1       0.918  -0.540   0.675  0.00  0.00     0.058 A 
ENDROOT
TORSDOF 0
ENDMDL
