MODEL 1
REMARK minimizedAffinity -3.57836127
REMARK minimizedRMSD -1
REMARK  0 active torsions:
REMARK  status: ('A' for Active; 'I' for Inactive)
ROOT
ATOM      1  O1  BZF d   1       1.131   0.670  -0.590  0.00  0.00    -0.204 OA
ATOM      2  C2  BZF d   1       0.030   0.683  -1.425  0.00  0.00     0.174 A 
ATOM      3  C3  BZF d   1      -0.977  -0.043  -0.899  0.00  0.00    -0.012 A 
ATOM      4  C3A BZF d   1      -0.507  -0.465   0.385  0.00  0.00    -0.107 A 
ATOM      5  C4  BZF d   1      -1.061  -1.204   1.391  0.00  0.00     0.055 A 
ATOM      6  C5  BZF d   1      -0.310  -1.497   2.485  0.00  0.00    -0.016 A 
ATOM      7  C6  BZF d   1       0.997  -1.074   2.603  0.00  0.00     0.022 A 
ATOM      8  C7  BZF d   1       1.589  -0.335   1.633  0.00  0.00     0.029 A 
ATOM      9  C7A BZF d   1       0.822  -0.009   0.541  0.00  0.00     0.058 A 
ENDROOT
TORSDOF 0
ENDMDL
