MODEL 1
REMARK minimizedAffinity -5.56668901
REMARK minimizedRMSD -1
REMARK  0 active torsions:
REMARK  status: ('A' for Active; 'I' for Inactive)
ROOT
ATOM      1  O1  BZF d   1       0.402   1.121  -0.351  0.00  0.00    -0.204 OA
ATOM      2  C2  BZF d   1      -0.527   0.388  -1.064  0.00  0.00     0.174 A 
ATOM      3  C3  BZF d   1      -0.852  -0.743  -0.404  0.00  0.00    -0.012 A 
ATOM      4  C3A BZF d   1      -0.148  -0.669   0.839  0.00  0.00    -0.107 A 
ATOM      5  C4  BZF d   1      -0.079  -1.489   1.929  0.00  0.00     0.055 A 
ATOM      6  C5  BZF d   1       0.759  -1.163   2.948  0.00  0.00    -0.016 A 
ATOM      7  C6  BZF d   1       1.544  -0.030   2.909  0.00  0.00     0.022 A 
ATOM      8  C7  BZF d   1       1.506   0.817   1.851  0.00  0.00     0.029 A 
ATOM      9  C7A BZF d   1       0.636   0.508   0.834  0.00  0.00     0.058 A 
ENDROOT
TORSDOF 0
ENDMDL
