MODEL 1
REMARK minimizedAffinity -2.87154651
REMARK minimizedRMSD -1
REMARK  0 active torsions:
REMARK  status: ('A' for Active; 'I' for Inactive)
ROOT
ATOM      1  C1  BNZ d   1       2.095  -1.744  -0.604  0.00  0.00     0.000 A 
ATOM      2  C2  BNZ d   1       0.784  -1.373  -0.749  0.00  0.00     0.000 A 
ATOM      3  C3  BNZ d   1       0.155  -0.636   0.215  0.00  0.00     0.000 A 
ATOM      4  C4  BNZ d   1       0.824  -0.305   1.339  0.00  0.00     0.000 A 
ATOM      5  C5  BNZ d   1       2.142  -0.679   1.504  0.00  0.00     0.000 A 
ATOM      6  C6  BNZ d   1       2.784  -1.388   0.514  0.00  0.00     0.000 A 
ENDROOT
TORSDOF 0
ENDMDL
