MODEL 1
REMARK minimizedAffinity -3.32116723
REMARK minimizedRMSD -1
REMARK  0 active torsions:
REMARK  status: ('A' for Active; 'I' for Inactive)
ROOT
ATOM      1  C1  BNZ d   1       1.554  -1.997  -0.237  0.00  0.00     0.000 A 
ATOM      2  C2  BNZ d   1       0.360  -1.334  -0.131  0.00  0.00     0.000 A 
ATOM      3  C3  BNZ d   1       0.316   0.032  -0.121  0.00  0.00     0.000 A 
ATOM      4  C4  BNZ d   1       1.468   0.732  -0.176  0.00  0.00     0.000 A 
ATOM      5  C5  BNZ d   1       2.680   0.079  -0.273  0.00  0.00     0.000 A 
ATOM      6  C6  BNZ d   1       2.717  -1.296  -0.322  0.00  0.00     0.000 A 
ENDROOT
TORSDOF 0
ENDMDL
