MODEL 1
REMARK minimizedAffinity -4.80854702
REMARK minimizedRMSD -1
REMARK  0 active torsions:
REMARK  status: ('A' for Active; 'I' for Inactive)
ROOT
ATOM      1  C1  BNZ d   1       1.140  -1.184   0.386  0.00  0.00     0.000 A 
ATOM      2  C2  BNZ d   1       2.357  -1.806   0.308  0.00  0.00     0.000 A 
ATOM      3  C3  BNZ d   1       3.516  -1.083   0.340  0.00  0.00     0.000 A 
ATOM      4  C4  BNZ d   1       3.456   0.263   0.407  0.00  0.00     0.000 A 
ATOM      5  C5  BNZ d   1       2.236   0.906   0.477  0.00  0.00     0.000 A 
ATOM      6  C6  BNZ d   1       1.072   0.171   0.484  0.00  0.00     0.000 A 
ENDROOT
TORSDOF 0
ENDMDL
