MODEL 1
REMARK minimizedAffinity -4.57350063
REMARK minimizedRMSD -1
REMARK  0 active torsions:
REMARK  status: ('A' for Active; 'I' for Inactive)
ROOT
ATOM      1  C1  BNZ d   1       2.152  -1.473   0.654  0.00  0.00     0.000 A 
ATOM      2  C2  BNZ d   1       3.362  -0.842   0.767  0.00  0.00     0.000 A 
ATOM      3  C3  BNZ d   1       3.508   0.465   0.393  0.00  0.00     0.000 A 
ATOM      4  C4  BNZ d   1       2.455   1.126  -0.130  0.00  0.00     0.000 A 
ATOM      5  C5  BNZ d   1       1.231   0.500  -0.259  0.00  0.00     0.000 A 
ATOM      6  C6  BNZ d   1       1.078  -0.803   0.155  0.00  0.00     0.000 A 
ENDROOT
TORSDOF 0
ENDMDL
