MODEL 1
REMARK minimizedAffinity -1.92093575
REMARK minimizedRMSD -1
REMARK  0 active torsions:
REMARK  status: ('A' for Active; 'I' for Inactive)
ROOT
ATOM      1  C1  BNZ d   1      -0.145   0.452  -0.576  0.00  0.00     0.000 A 
ATOM      2  C2  BNZ d   1       0.208  -0.865  -0.702  0.00  0.00     0.000 A 
ATOM      3  C3  BNZ d   1       1.521  -1.243  -0.670  0.00  0.00     0.000 A 
ATOM      4  C4  BNZ d   1       2.480  -0.302  -0.552  0.00  0.00     0.000 A 
ATOM      5  C5  BNZ d   1       2.140   1.031  -0.432  0.00  0.00     0.000 A 
ATOM      6  C6  BNZ d   1       0.815   1.404  -0.426  0.00  0.00     0.000 A 
ENDROOT
TORSDOF 0
ENDMDL
