MODEL 1
REMARK minimizedAffinity -4.15477037
REMARK minimizedRMSD -1
REMARK  0 active torsions:
REMARK  status: ('A' for Active; 'I' for Inactive)
ROOT
ATOM      1  C1  BNZ d   1       2.168  -1.547  -0.399  0.00  0.00     0.000 A 
ATOM      2  C2  BNZ d   1       2.807  -1.457   0.809  0.00  0.00     0.000 A 
ATOM      3  C3  BNZ d   1       2.281  -0.709   1.825  0.00  0.00     0.000 A 
ATOM      4  C4  BNZ d   1       1.139  -0.021   1.620  0.00  0.00     0.000 A 
ATOM      5  C5  BNZ d   1       0.487  -0.095   0.405  0.00  0.00     0.000 A 
ATOM      6  C6  BNZ d   1       0.999  -0.879  -0.603  0.00  0.00     0.000 A 
ENDROOT
TORSDOF 0
ENDMDL
