MODEL 1
REMARK minimizedAffinity -3.14561391
REMARK minimizedRMSD -1
REMARK  0 active torsions:
REMARK  status: ('A' for Active; 'I' for Inactive)
ROOT
ATOM      1  C1  BNZ d   1       2.306  -1.911  -0.387  0.00  0.00     0.000 A 
ATOM      2  C2  BNZ d   1       1.360  -1.022  -0.825  0.00  0.00     0.000 A 
ATOM      3  C3  BNZ d   1       0.440  -0.497   0.039  0.00  0.00     0.000 A 
ATOM      4  C4  BNZ d   1       0.442  -0.890   1.329  0.00  0.00     0.000 A 
ATOM      5  C5  BNZ d   1       1.383  -1.792   1.784  0.00  0.00     0.000 A 
ATOM      6  C6  BNZ d   1       2.332  -2.289   0.920  0.00  0.00     0.000 A 
ENDROOT
TORSDOF 0
ENDMDL
