MODEL 1
REMARK minimizedAffinity -5.21810246
REMARK minimizedRMSD -1
REMARK  0 active torsions:
REMARK  status: ('A' for Active; 'I' for Inactive)
ROOT
ATOM      1  C1  BNZ d   1       0.055  -0.093  -0.284  0.00  0.00     0.000 A 
ATOM      2  C2  BNZ d   1       0.727   1.043   0.080  0.00  0.00     0.000 A 
ATOM      3  C3  BNZ d   1       1.976   0.970   0.632  0.00  0.00     0.000 A 
ATOM      4  C4  BNZ d   1       2.533  -0.238   0.854  0.00  0.00     0.000 A 
ATOM      5  C5  BNZ d   1       1.864  -1.392   0.501  0.00  0.00     0.000 A 
ATOM      6  C6  BNZ d   1       0.623  -1.314  -0.090  0.00  0.00     0.000 A 
ENDROOT
TORSDOF 0
ENDMDL
