MODEL 1
REMARK minimizedAffinity -2.08287048
REMARK minimizedRMSD -1
REMARK  0 active torsions:
REMARK  status: ('A' for Active; 'I' for Inactive)
ROOT
ATOM      1  C   UNL d   1       0.485  -1.132  -1.072  0.00  0.00     0.078 C 
ATOM      2  C1  UNL d   1       0.168   0.094  -0.270  0.00  0.00    -0.077 A 
ATOM      3  C2  UNL d   1       0.240   0.080   1.128  0.00  0.00    -0.001 A 
ATOM      4  C3  UNL d   1      -0.067   1.226   1.863  0.00  0.00     0.003 A 
ATOM      5  C4  UNL d   1      -0.450   2.395   1.208  0.00  0.00    -0.005 A 
ATOM      6  C5  UNL d   1      -0.527   2.418  -0.183  0.00  0.00     0.003 A 
ATOM      7  C6  UNL d   1      -0.220   1.273  -0.919  0.00  0.00    -0.001 A 
ENDROOT
TORSDOF 0
ENDMDL
