MODEL 1
REMARK minimizedAffinity -6.01932955
REMARK minimizedRMSD -1
REMARK  0 active torsions:
REMARK  status: ('A' for Active; 'I' for Inactive)
ROOT
ATOM      1  C   UNL d   1      -0.438   3.474  -1.427  0.00  0.00     0.078 C 
ATOM      2  C1  UNL d   1      -0.537   2.605  -0.208  0.00  0.00    -0.077 A 
ATOM      3  C2  UNL d   1      -1.026   3.113   1.002  0.00  0.00    -0.001 A 
ATOM      4  C3  UNL d   1      -1.103   2.296   2.130  0.00  0.00     0.003 A 
ATOM      5  C4  UNL d   1      -0.693   0.966   2.061  0.00  0.00    -0.005 A 
ATOM      6  C5  UNL d   1      -0.203   0.452   0.862  0.00  0.00     0.003 A 
ATOM      7  C6  UNL d   1      -0.125   1.268  -0.268  0.00  0.00    -0.001 A 
ENDROOT
TORSDOF 0
ENDMDL
