MODEL 1
REMARK minimizedAffinity -3.33864164
REMARK minimizedRMSD -1
REMARK  0 active torsions:
REMARK  status: ('A' for Active; 'I' for Inactive)
ROOT
ATOM      1  C   UNL d   1      -0.917   2.070   2.163  0.00  0.00     0.078 C 
ATOM      2  C1  UNL d   1      -0.235   1.127   1.218  0.00  0.00    -0.077 A 
ATOM      3  C2  UNL d   1       0.752   0.242   1.670  0.00  0.00    -0.001 A 
ATOM      4  C3  UNL d   1       1.386  -0.624   0.778  0.00  0.00     0.003 A 
ATOM      5  C4  UNL d   1       1.041  -0.613  -0.572  0.00  0.00    -0.005 A 
ATOM      6  C5  UNL d   1       0.062   0.265  -1.032  0.00  0.00     0.003 A 
ATOM      7  C6  UNL d   1      -0.573   1.132  -0.141  0.00  0.00    -0.001 A 
ENDROOT
TORSDOF 0
ENDMDL
