MODEL 1
REMARK minimizedAffinity -5.09973907
REMARK minimizedRMSD -1
REMARK  0 active torsions:
REMARK  status: ('A' for Active; 'I' for Inactive)
ROOT
ATOM      1  O1  BZF d   1       2.842  -0.239  -0.169  0.00  0.00    -0.204 OA
ATOM      2  C2  BZF d   1       3.758   0.531   0.522  0.00  0.00     0.174 A 
ATOM      3  C3  BZF d   1       3.132   1.402   1.339  0.00  0.00    -0.012 A 
ATOM      4  C3A BZF d   1       1.739   1.099   1.215  0.00  0.00    -0.107 A 
ATOM      5  C4  BZF d   1       0.612   1.611   1.791  0.00  0.00     0.055 A 
ATOM      6  C5  BZF d   1      -0.602   1.142   1.400  0.00  0.00    -0.016 A 
ATOM      7  C6  BZF d   1      -0.726   0.165   0.433  0.00  0.00     0.022 A 
ATOM      8  C7  BZF d   1       0.364  -0.377  -0.163  0.00  0.00     0.029 A 
ATOM      9  C7A BZF d   1       1.593   0.072   0.254  0.00  0.00     0.058 A 
ENDROOT
TORSDOF 0
ENDMDL
