MODEL 1
REMARK minimizedAffinity -3.12452626
REMARK minimizedRMSD -1
REMARK  0 active torsions:
REMARK  status: ('A' for Active; 'I' for Inactive)
ROOT
ATOM      1  O1  BZF d   1      -2.762  -0.031  -2.184  0.00  0.00    -0.204 OA
ATOM      2  C2  BZF d   1      -2.695  -1.322  -2.671  0.00  0.00     0.174 A 
ATOM      3  C3  BZF d   1      -1.722  -2.018  -2.048  0.00  0.00    -0.012 A 
ATOM      4  C3A BZF d   1      -1.206  -1.133  -1.049  0.00  0.00    -0.107 A 
ATOM      5  C4  BZF d   1      -0.234  -1.254  -0.098  0.00  0.00     0.055 A 
ATOM      6  C5  BZF d   1       0.076  -0.178   0.671  0.00  0.00    -0.016 A 
ATOM      7  C6  BZF d   1      -0.562   1.035   0.514  0.00  0.00     0.022 A 
ATOM      8  C7  BZF d   1      -1.537   1.203  -0.413  0.00  0.00     0.029 A 
ATOM      9  C7A BZF d   1      -1.875   0.108  -1.170  0.00  0.00     0.058 A 
ENDROOT
TORSDOF 0
ENDMDL
