MODEL 1
REMARK minimizedAffinity -2.75010419
REMARK minimizedRMSD -1
REMARK  0 active torsions:
REMARK  status: ('A' for Active; 'I' for Inactive)
ROOT
ATOM      1  O1  BZF d   1      -1.600  -0.186  -2.061  0.00  0.00    -0.204 OA
ATOM      2  C2  BZF d   1      -1.643  -1.561  -1.935  0.00  0.00     0.174 A 
ATOM      3  C3  BZF d   1      -1.073  -1.953  -0.777  0.00  0.00    -0.012 A 
ATOM      4  C3A BZF d   1      -0.730  -0.742  -0.097  0.00  0.00    -0.107 A 
ATOM      5  C4  BZF d   1      -0.149  -0.475   1.109  0.00  0.00     0.055 A 
ATOM      6  C5  BZF d   1       0.114   0.815   1.445  0.00  0.00    -0.016 A 
ATOM      7  C6  BZF d   1      -0.187   1.861   0.597  0.00  0.00     0.022 A 
ATOM      8  C7  BZF d   1      -0.769   1.646  -0.607  0.00  0.00     0.029 A 
ATOM      9  C7A BZF d   1      -1.066   0.346  -0.935  0.00  0.00     0.058 A 
ENDROOT
TORSDOF 0
ENDMDL
