MODEL 1
REMARK minimizedAffinity -2.79511142
REMARK minimizedRMSD -1
REMARK  0 active torsions:
REMARK  status: ('A' for Active; 'I' for Inactive)
ROOT
ATOM      1  O1  BZF d   1       0.920  -1.555  -2.092  0.00  0.00    -0.204 OA
ATOM      2  C2  BZF d   1       1.017  -1.639  -0.717  0.00  0.00     0.174 A 
ATOM      3  C3  BZF d   1      -0.206  -1.731  -0.156  0.00  0.00    -0.012 A 
ATOM      4  C3A BZF d   1      -1.120  -1.797  -1.254  0.00  0.00    -0.107 A 
ATOM      5  C4  BZF d   1      -2.478  -1.913  -1.340  0.00  0.00     0.055 A 
ATOM      6  C5  BZF d   1      -3.068  -1.875  -2.564  0.00  0.00    -0.016 A 
ATOM      7  C6  BZF d   1      -2.333  -1.716  -3.720  0.00  0.00     0.022 A 
ATOM      8  C7  BZF d   1      -0.983  -1.601  -3.686  0.00  0.00     0.029 A 
ATOM      9  C7A BZF d   1      -0.381  -1.673  -2.453  0.00  0.00     0.058 A 
ENDROOT
TORSDOF 0
ENDMDL
