MODEL 1
REMARK minimizedAffinity -0.126784444
REMARK minimizedRMSD -1
REMARK  0 active torsions:
REMARK  status: ('A' for Active; 'I' for Inactive)
ROOT
ATOM      1  O1  BZF d   1      -2.799  -0.517  -2.311  0.00  0.00    -0.204 OA
ATOM      2  C2  BZF d   1      -2.792  -1.734  -2.966  0.00  0.00     0.174 A 
ATOM      3  C3  BZF d   1      -1.769  -2.501  -2.538  0.00  0.00    -0.012 A 
ATOM      4  C3A BZF d   1      -1.148  -1.751  -1.490  0.00  0.00    -0.107 A 
ATOM      5  C4  BZF d   1      -0.087  -1.992  -0.665  0.00  0.00     0.055 A 
ATOM      6  C5  BZF d   1       0.308  -1.023   0.203  0.00  0.00    -0.016 A 
ATOM      7  C6  BZF d   1      -0.331   0.198   0.268  0.00  0.00     0.022 A 
ATOM      8  C7  BZF d   1      -1.392   0.481  -0.527  0.00  0.00     0.029 A 
ATOM      9  C7A BZF d   1      -1.814  -0.508  -1.381  0.00  0.00     0.058 A 
ENDROOT
TORSDOF 0
ENDMDL
