MODEL 1
REMARK minimizedAffinity -0.878315747
REMARK minimizedRMSD -1
REMARK  0 active torsions:
REMARK  status: ('A' for Active; 'I' for Inactive)
ROOT
ATOM      1  O1  BZF d   1       2.341   0.629   0.332  0.00  0.00    -0.204 OA
ATOM      2  C2  BZF d   1       3.045   1.342   1.284  0.00  0.00     0.174 A 
ATOM      3  C3  BZF d   1       2.204   2.005   2.103  0.00  0.00    -0.012 A 
ATOM      4  C3A BZF d   1       0.891   1.613   1.692  0.00  0.00    -0.107 A 
ATOM      5  C4  BZF d   1      -0.364   1.924   2.134  0.00  0.00     0.055 A 
ATOM      6  C5  BZF d   1      -1.440   1.430   1.468  0.00  0.00    -0.016 A 
ATOM      7  C6  BZF d   1      -1.299   0.627   0.355  0.00  0.00     0.022 A 
ATOM      8  C7  BZF d   1      -0.075   0.287  -0.117  0.00  0.00     0.029 A 
ATOM      9  C7A BZF d   1       1.014   0.758   0.573  0.00  0.00     0.058 A 
ENDROOT
TORSDOF 0
ENDMDL
