MODEL 1
REMARK minimizedAffinity -1.30745804
REMARK minimizedRMSD -1
REMARK  0 active torsions:
REMARK  status: ('A' for Active; 'I' for Inactive)
ROOT
ATOM      1  O1  BZF d   1       0.909   0.838   1.217  0.00  0.00    -0.204 OA
ATOM      2  C2  BZF d   1      -0.048   1.539   1.925  0.00  0.00     0.174 A 
ATOM      3  C3  BZF d   1      -1.288   1.191   1.526  0.00  0.00    -0.012 A 
ATOM      4  C3A BZF d   1      -1.096   0.145   0.570  0.00  0.00    -0.107 A 
ATOM      5  C4  BZF d   1      -1.953  -0.619  -0.170  0.00  0.00     0.055 A 
ATOM      6  C5  BZF d   1      -1.442  -1.504  -1.066  0.00  0.00    -0.016 A 
ATOM      7  C6  BZF d   1      -0.083  -1.648  -1.251  0.00  0.00     0.022 A 
ATOM      8  C7  BZF d   1       0.806  -0.916  -0.536  0.00  0.00     0.029 A 
ATOM      9  C7A BZF d   1       0.294  -0.044   0.393  0.00  0.00     0.058 A 
ENDROOT
TORSDOF 0
ENDMDL
