MODEL 1
REMARK minimizedAffinity -0.525597095
REMARK minimizedRMSD -1
REMARK  0 active torsions:
REMARK  status: ('A' for Active; 'I' for Inactive)
ROOT
ATOM      1  O1  BZF d   1       0.281   0.064  -1.261  0.00  0.00    -0.204 OA
ATOM      2  C2  BZF d   1       0.371  -0.215   0.089  0.00  0.00     0.174 A 
ATOM      3  C3  BZF d   1      -0.678  -0.958   0.495  0.00  0.00    -0.012 A 
ATOM      4  C3A BZF d   1      -1.427  -1.234  -0.692  0.00  0.00    -0.107 A 
ATOM      5  C4  BZF d   1      -2.568  -1.941  -0.940  0.00  0.00     0.055 A 
ATOM      6  C5  BZF d   1      -3.077  -1.954  -2.200  0.00  0.00    -0.016 A 
ATOM      7  C6  BZF d   1      -2.474  -1.269  -3.234  0.00  0.00     0.022 A 
ATOM      8  C7  BZF d   1      -1.337  -0.557  -3.038  0.00  0.00     0.029 A 
ATOM      9  C7A BZF d   1      -0.802  -0.569  -1.773  0.00  0.00     0.058 A 
ENDROOT
TORSDOF 0
ENDMDL
