MODEL 1
REMARK minimizedAffinity -1.17319584
REMARK minimizedRMSD -1
REMARK  0 active torsions:
REMARK  status: ('A' for Active; 'I' for Inactive)
ROOT
ATOM      1  O1  BZF d   1       1.173  -1.088  -0.686  0.00  0.00    -0.204 OA
ATOM      2  C2  BZF d   1      -0.012  -1.591  -1.189  0.00  0.00     0.174 A 
ATOM      3  C3  BZF d   1      -1.071  -1.026  -0.574  0.00  0.00    -0.012 A 
ATOM      4  C3A BZF d   1      -0.515  -0.046   0.308  0.00  0.00    -0.107 A 
ATOM      5  C4  BZF d   1      -1.063   0.853   1.178  0.00  0.00     0.055 A 
ATOM      6  C5  BZF d   1      -0.241   1.617   1.943  0.00  0.00    -0.016 A 
ATOM      7  C6  BZF d   1       1.132   1.505   1.869  0.00  0.00     0.022 A 
ATOM      8  C7  BZF d   1       1.722   0.631   1.017  0.00  0.00     0.029 A 
ATOM      9  C7A BZF d   1       0.894  -0.119   0.218  0.00  0.00     0.058 A 
ENDROOT
TORSDOF 0
ENDMDL
