MODEL 1
REMARK minimizedAffinity -0.763139963
REMARK minimizedRMSD -1
REMARK  0 active torsions:
REMARK  status: ('A' for Active; 'I' for Inactive)
ROOT
ATOM      1  O1  BZF d   1       3.154   0.184  -0.123  0.00  0.00    -0.204 OA
ATOM      2  C2  BZF d   1       4.172   0.724   0.640  0.00  0.00     0.174 A 
ATOM      3  C3  BZF d   1       3.672   1.481   1.638  0.00  0.00    -0.012 A 
ATOM      4  C3A BZF d   1       2.252   1.335   1.546  0.00  0.00    -0.107 A 
ATOM      5  C4  BZF d   1       1.208   1.833   2.272  0.00  0.00     0.055 A 
ATOM      6  C5  BZF d   1      -0.063   1.558   1.876  0.00  0.00    -0.016 A 
ATOM      7  C6  BZF d   1      -0.326   0.795   0.757  0.00  0.00     0.022 A 
ATOM      8  C7  BZF d   1       0.677   0.276   0.008  0.00  0.00     0.029 A 
ATOM      9  C7A BZF d   1       1.962   0.524   0.424  0.00  0.00     0.058 A 
ENDROOT
TORSDOF 0
ENDMDL
