MODEL 1
REMARK minimizedAffinity -3.32864928
REMARK minimizedRMSD -1
REMARK  0 active torsions:
REMARK  status: ('A' for Active; 'I' for Inactive)
ROOT
ATOM      1  O1  BZF d   1      -1.769  -0.673   0.587  0.00  0.00    -0.204 OA
ATOM      2  C2  BZF d   1      -0.404  -0.459   0.606  0.00  0.00     0.174 A 
ATOM      3  C3  BZF d   1       0.160  -0.865  -0.550  0.00  0.00    -0.012 A 
ATOM      4  C3A BZF d   1      -0.932  -1.279  -1.376  0.00  0.00    -0.107 A 
ATOM      5  C4  BZF d   1      -1.014  -1.767  -2.649  0.00  0.00     0.055 A 
ATOM      6  C5  BZF d   1      -2.225  -2.144  -3.135  0.00  0.00    -0.016 A 
ATOM      7  C6  BZF d   1      -3.373  -2.050  -2.376  0.00  0.00     0.022 A 
ATOM      8  C7  BZF d   1      -3.343  -1.567  -1.111  0.00  0.00     0.029 A 
ATOM      9  C7A BZF d   1      -2.125  -1.155  -0.628  0.00  0.00     0.058 A 
ENDROOT
TORSDOF 0
ENDMDL
