MODEL 1
REMARK minimizedAffinity 0.254151702
REMARK minimizedRMSD -1
REMARK  0 active torsions:
REMARK  status: ('A' for Active; 'I' for Inactive)
ROOT
ATOM      1  O1  BZF d   1       1.199  -0.398  -5.461  0.00  0.00    -0.204 OA
ATOM      2  C2  BZF d   1       0.516   0.302  -4.484  0.00  0.00     0.174 A 
ATOM      3  C3  BZF d   1       1.377   0.886  -3.625  0.00  0.00    -0.012 A 
ATOM      4  C3A BZF d   1       2.679   0.607  -4.148  0.00  0.00    -0.107 A 
ATOM      5  C4  BZF d   1       3.942   0.934  -3.745  0.00  0.00     0.055 A 
ATOM      6  C5  BZF d   1       5.004   0.441  -4.437  0.00  0.00    -0.016 A 
ATOM      7  C6  BZF d   1       4.839  -0.383  -5.530  0.00  0.00     0.022 A 
ATOM      8  C7  BZF d   1       3.605  -0.732  -5.970  0.00  0.00     0.029 A 
ATOM      9  C7A BZF d   1       2.530  -0.209  -5.293  0.00  0.00     0.058 A 
ENDROOT
TORSDOF 0
ENDMDL
