MODEL 1
REMARK minimizedAffinity -4.14540815
REMARK minimizedRMSD -1
REMARK  0 active torsions:
REMARK  status: ('A' for Active; 'I' for Inactive)
ROOT
ATOM      1  O1  BZF d   1       3.104   0.152   0.073  0.00  0.00    -0.204 OA
ATOM      2  C2  BZF d   1       2.829  -0.823  -0.866  0.00  0.00     0.174 A 
ATOM      3  C3  BZF d   1       1.517  -1.135  -0.861  0.00  0.00    -0.012 A 
ATOM      4  C3A BZF d   1       0.920  -0.236   0.079  0.00  0.00    -0.107 A 
ATOM      5  C4  BZF d   1      -0.361  -0.045   0.511  0.00  0.00     0.055 A 
ATOM      6  C5  BZF d   1      -0.598   0.865   1.492  0.00  0.00    -0.016 A 
ATOM      7  C6  BZF d   1       0.422   1.596   2.067  0.00  0.00     0.022 A 
ATOM      8  C7  BZF d   1       1.708   1.444   1.667  0.00  0.00     0.029 A 
ATOM      9  C7A BZF d   1       1.946   0.549   0.653  0.00  0.00     0.058 A 
ENDROOT
TORSDOF 0
ENDMDL
