MODEL 1
REMARK minimizedAffinity -4.78986359
REMARK minimizedRMSD -1
REMARK  0 active torsions:
REMARK  status: ('A' for Active; 'I' for Inactive)
ROOT
ATOM      1  O1  BZF d   1      -1.551  -2.348  -1.646  0.00  0.00    -0.204 OA
ATOM      2  C2  BZF d   1      -2.189  -1.948  -2.804  0.00  0.00     0.174 A 
ATOM      3  C3  BZF d   1      -2.382  -0.613  -2.807  0.00  0.00    -0.012 A 
ATOM      4  C3A BZF d   1      -1.747  -0.139  -1.616  0.00  0.00    -0.107 A 
ATOM      5  C4  BZF d   1      -1.586   1.102  -1.069  0.00  0.00     0.055 A 
ATOM      6  C5  BZF d   1      -0.981   1.216   0.143  0.00  0.00    -0.016 A 
ATOM      7  C6  BZF d   1      -0.531   0.112   0.837  0.00  0.00     0.022 A 
ATOM      8  C7  BZF d   1      -0.665  -1.139   0.333  0.00  0.00     0.029 A 
ATOM      9  C7A BZF d   1      -1.246  -1.255  -0.907  0.00  0.00     0.058 A 
ENDROOT
TORSDOF 0
ENDMDL
