MODEL 1
REMARK minimizedAffinity 0.6658898
REMARK minimizedRMSD -1
REMARK  0 active torsions:
REMARK  status: ('A' for Active; 'I' for Inactive)
ROOT
ATOM      1  O1  BZF d   1       0.380  -1.241  -0.300  0.00  0.00    -0.204 OA
ATOM      2  C2  BZF d   1      -0.305  -0.882   0.845  0.00  0.00     0.174 A 
ATOM      3  C3  BZF d   1      -1.634  -0.852   0.617  0.00  0.00    -0.012 A 
ATOM      4  C3A BZF d   1      -1.795  -1.305  -0.730  0.00  0.00    -0.107 A 
ATOM      5  C4  BZF d   1      -2.884  -1.508  -1.528  0.00  0.00     0.055 A 
ATOM      6  C5  BZF d   1      -2.695  -1.886  -2.820  0.00  0.00    -0.016 A 
ATOM      7  C6  BZF d   1      -1.433  -2.064  -3.347  0.00  0.00     0.022 A 
ATOM      8  C7  BZF d   1      -0.322  -1.880  -2.593  0.00  0.00     0.029 A 
ATOM      9  C7A BZF d   1      -0.511  -1.530  -1.278  0.00  0.00     0.058 A 
ENDROOT
TORSDOF 0
ENDMDL
