MODEL 1
REMARK minimizedAffinity 4.29683542
REMARK minimizedRMSD -1
REMARK  0 active torsions:
REMARK  status: ('A' for Active; 'I' for Inactive)
ROOT
ATOM      1  O1  BZF d   1      -2.381  -1.888  -0.195  0.00  0.00    -0.204 OA
ATOM      2  C2  BZF d   1      -3.452  -2.072  -1.047  0.00  0.00     0.174 A 
ATOM      3  C3  BZF d   1      -3.065  -1.957  -2.334  0.00  0.00    -0.012 A 
ATOM      4  C3A BZF d   1      -1.646  -1.776  -2.285  0.00  0.00    -0.107 A 
ATOM      5  C4  BZF d   1      -0.686  -1.618  -3.243  0.00  0.00     0.055 A 
ATOM      6  C5  BZF d   1       0.598  -1.390  -2.861  0.00  0.00    -0.016 A 
ATOM      7  C6  BZF d   1       0.956  -1.309  -1.531  0.00  0.00     0.022 A 
ATOM      8  C7  BZF d   1       0.039  -1.464  -0.545  0.00  0.00     0.029 A 
ATOM      9  C7A BZF d   1      -1.253  -1.727  -0.928  0.00  0.00     0.058 A 
ENDROOT
TORSDOF 0
ENDMDL
