MODEL 1
REMARK minimizedAffinity 2.04043031
REMARK minimizedRMSD -1
REMARK  1 active torsions:
REMARK  status: ('A' for Active; 'I' for Inactive)
REMARK    1  A    between atoms: C1_2  and  C2_3 
ROOT
ATOM      1  C2  UNL d   1       1.811  -0.624   1.732  0.00  0.00    -0.077 A 
ATOM      2  C3  UNL d   1       1.756  -1.175   0.444  0.00  0.00     0.002 A 
ATOM      3  C4  UNL d   1       0.527  -1.364  -0.191  0.00  0.00     0.002 A 
ATOM      4  C5  UNL d   1      -0.655  -1.000   0.451  0.00  0.00    -0.004 A 
ATOM      5  C6  UNL d   1      -0.610  -0.453   1.733  0.00  0.00     0.002 A 
ATOM      6  C7  UNL d   1       0.617  -0.265   2.370  0.00  0.00     0.002 A 
ENDROOT
BRANCH   1   7
ATOM      7  C1  UNL d   1       3.138  -0.374   2.399  0.00  0.00     0.055 C 
ATOM      8  C   UNL d   1       4.239  -1.220   1.775  0.00  0.00     0.019 C 
ENDBRANCH   1   7
TORSDOF 1
ENDMDL
