MODEL 1
REMARK minimizedAffinity -0.501017928
REMARK minimizedRMSD -1
REMARK  1 active torsions:
REMARK  status: ('A' for Active; 'I' for Inactive)
REMARK    1  A    between atoms: C1_2  and  C2_3 
ROOT
ATOM      1  C2  UNL d   1       1.319  -1.241   0.376  0.00  0.00    -0.077 A 
ATOM      2  C3  UNL d   1       0.024  -0.865   0.757  0.00  0.00     0.002 A 
ATOM      3  C4  UNL d   1      -1.030  -1.777   0.675  0.00  0.00     0.002 A 
ATOM      4  C5  UNL d   1      -0.798  -3.072   0.217  0.00  0.00    -0.004 A 
ATOM      5  C6  UNL d   1       0.486  -3.456  -0.167  0.00  0.00     0.002 A 
ATOM      6  C7  UNL d   1       1.540  -2.545  -0.087  0.00  0.00     0.002 A 
ENDROOT
BRANCH   1   7
ATOM      7  C1  UNL d   1       2.466  -0.274   0.510  0.00  0.00     0.055 C 
ATOM      8  C   UNL d   1       2.555   0.287   1.922  0.00  0.00     0.019 C 
ENDBRANCH   1   7
TORSDOF 1
ENDMDL
