MODEL 1
REMARK minimizedAffinity -2.25743437
REMARK minimizedRMSD -1
REMARK  1 active torsions:
REMARK  status: ('A' for Active; 'I' for Inactive)
REMARK    1  A    between atoms: C1_2  and  C2_3 
ROOT
ATOM      1  C2  UNL d   1       4.583   5.027  -0.471  0.00  0.00    -0.077 A 
ATOM      2  C3  UNL d   1       5.784   5.591  -0.018  0.00  0.00     0.002 A 
ATOM      3  C4  UNL d   1       5.915   5.999   1.311  0.00  0.00     0.002 A 
ATOM      4  C5  UNL d   1       4.851   5.845   2.197  0.00  0.00    -0.004 A 
ATOM      5  C6  UNL d   1       3.652   5.288   1.755  0.00  0.00     0.002 A 
ATOM      6  C7  UNL d   1       3.519   4.880   0.427  0.00  0.00     0.002 A 
ENDROOT
BRANCH   1   7
ATOM      7  C1  UNL d   1       4.457   4.541  -1.892  0.00  0.00     0.055 C 
ATOM      8  C   UNL d   1       4.486   3.021  -1.961  0.00  0.00     0.019 C 
ENDBRANCH   1   7
TORSDOF 1
ENDMDL
