MODEL 1
REMARK minimizedAffinity -0.640969455
REMARK minimizedRMSD -1
REMARK  1 active torsions:
REMARK  status: ('A' for Active; 'I' for Inactive)
REMARK    1  A    between atoms: C1_2  and  C2_3 
ROOT
ATOM      1  C2  UNL d   1       4.832   3.793  -0.530  0.00  0.00    -0.077 A 
ATOM      2  C3  UNL d   1       5.665   4.920  -0.536  0.00  0.00     0.002 A 
ATOM      3  C4  UNL d   1       5.513   5.917   0.431  0.00  0.00     0.002 A 
ATOM      4  C5  UNL d   1       4.530   5.793   1.411  0.00  0.00    -0.004 A 
ATOM      5  C6  UNL d   1       3.695   4.677   1.424  0.00  0.00     0.002 A 
ATOM      6  C7  UNL d   1       3.846   3.681   0.458  0.00  0.00     0.002 A 
ENDROOT
BRANCH   1   7
ATOM      7  C1  UNL d   1       5.027   2.694  -1.542  0.00  0.00     0.055 C 
ATOM      8  C   UNL d   1       3.700   2.245  -2.135  0.00  0.00     0.019 C 
ENDBRANCH   1   7
TORSDOF 1
ENDMDL
