MODEL 1
REMARK minimizedAffinity -2.47821188
REMARK minimizedRMSD -1
REMARK  1 active torsions:
REMARK  status: ('A' for Active; 'I' for Inactive)
REMARK    1  A    between atoms: C1_2  and  C2_3 
ROOT
ATOM      1  C2  UNL d   1       5.031   5.251  -0.757  0.00  0.00    -0.077 A 
ATOM      2  C3  UNL d   1       3.716   5.628  -1.061  0.00  0.00     0.002 A 
ATOM      3  C4  UNL d   1       2.833   5.997  -0.044  0.00  0.00     0.002 A 
ATOM      4  C5  UNL d   1       3.257   5.996   1.283  0.00  0.00    -0.004 A 
ATOM      5  C6  UNL d   1       4.563   5.621   1.596  0.00  0.00     0.002 A 
ATOM      6  C7  UNL d   1       5.447   5.251   0.581  0.00  0.00     0.002 A 
ENDROOT
BRANCH   1   7
ATOM      7  C1  UNL d   1       5.999   4.901  -1.857  0.00  0.00     0.055 C 
ATOM      8  C   UNL d   1       5.896   3.431  -2.237  0.00  0.00     0.019 C 
ENDBRANCH   1   7
TORSDOF 1
ENDMDL
