MODEL 1
REMARK minimizedAffinity 0.693092585
REMARK minimizedRMSD -1
REMARK  1 active torsions:
REMARK  status: ('A' for Active; 'I' for Inactive)
REMARK    1  A    between atoms: C1_2  and  C2_3 
ROOT
ATOM      1  C2  UNL d   1       2.247  -0.331   1.520  0.00  0.00    -0.077 A 
ATOM      2  C3  UNL d   1       0.951  -0.216   2.042  0.00  0.00     0.002 A 
ATOM      3  C4  UNL d   1      -0.107  -0.922   1.466  0.00  0.00     0.002 A 
ATOM      4  C5  UNL d   1       0.121  -1.751   0.370  0.00  0.00    -0.004 A 
ATOM      5  C6  UNL d   1       1.406  -1.871  -0.157  0.00  0.00     0.002 A 
ATOM      6  C7  UNL d   1       2.464  -1.164   0.416  0.00  0.00     0.002 A 
ENDROOT
BRANCH   1   7
ATOM      7  C1  UNL d   1       3.398   0.392   2.169  0.00  0.00     0.055 C 
ATOM      8  C   UNL d   1       3.135   1.888   2.256  0.00  0.00     0.019 C 
ENDBRANCH   1   7
TORSDOF 1
ENDMDL
