MODEL 1
REMARK minimizedAffinity 3.24180269
REMARK minimizedRMSD -1
REMARK  1 active torsions:
REMARK  status: ('A' for Active; 'I' for Inactive)
REMARK    1  A    between atoms: C1_2  and  C2_3 
ROOT
ATOM      1  C2  UNL d   1       3.783   3.151  -1.903  0.00  0.00    -0.077 A 
ATOM      2  C3  UNL d   1       2.964   3.797  -2.841  0.00  0.00     0.002 A 
ATOM      3  C4  UNL d   1       2.342   3.068  -3.855  0.00  0.00     0.002 A 
ATOM      4  C5  UNL d   1       2.527   1.689  -3.940  0.00  0.00    -0.004 A 
ATOM      5  C6  UNL d   1       3.341   1.038  -3.013  0.00  0.00     0.002 A 
ATOM      6  C7  UNL d   1       3.965   1.766  -1.999  0.00  0.00     0.002 A 
ENDROOT
BRANCH   1   7
ATOM      7  C1  UNL d   1       4.415   3.928  -0.778  0.00  0.00     0.055 C 
ATOM      8  C   UNL d   1       3.780   5.303  -0.629  0.00  0.00     0.019 C 
ENDBRANCH   1   7
TORSDOF 1
ENDMDL
