MODEL 1
REMARK minimizedAffinity -1.05472946
REMARK minimizedRMSD -1
REMARK  1 active torsions:
REMARK  status: ('A' for Active; 'I' for Inactive)
REMARK    1  A    between atoms: C1_2  and  C2_3 
ROOT
ATOM      1  C2  UNL d   1       4.530   4.013  -0.101  0.00  0.00    -0.077 A 
ATOM      2  C3  UNL d   1       5.513   4.994   0.090  0.00  0.00     0.002 A 
ATOM      3  C4  UNL d   1       5.343   5.984   1.060  0.00  0.00     0.002 A 
ATOM      4  C5  UNL d   1       4.194   5.999   1.849  0.00  0.00    -0.004 A 
ATOM      5  C6  UNL d   1       3.210   5.029   1.664  0.00  0.00     0.002 A 
ATOM      6  C7  UNL d   1       3.378   4.039   0.694  0.00  0.00     0.002 A 
ENDROOT
BRANCH   1   7
ATOM      7  C1  UNL d   1       4.734   2.916  -1.114  0.00  0.00     0.055 C 
ATOM      8  C   UNL d   1       3.410   2.287  -1.522  0.00  0.00     0.019 C 
ENDBRANCH   1   7
TORSDOF 1
ENDMDL
