MODEL 1
REMARK minimizedAffinity 3.68294215
REMARK minimizedRMSD -1
REMARK  1 active torsions:
REMARK  status: ('A' for Active; 'I' for Inactive)
REMARK    1  A    between atoms: C1_2  and  C2_3 
ROOT
ATOM      1  C2  UNL d   1       0.896  -2.809   0.636  0.00  0.00    -0.077 A 
ATOM      2  C3  UNL d   1      -0.328  -2.445   1.216  0.00  0.00     0.002 A 
ATOM      3  C4  UNL d   1      -0.569  -1.119   1.581  0.00  0.00     0.002 A 
ATOM      4  C5  UNL d   1       0.406  -0.147   1.366  0.00  0.00    -0.004 A 
ATOM      5  C6  UNL d   1       1.626  -0.500   0.792  0.00  0.00     0.002 A 
ATOM      6  C7  UNL d   1       1.870  -1.825   0.427  0.00  0.00     0.002 A 
ENDROOT
BRANCH   1   7
ATOM      7  C1  UNL d   1       1.139  -4.229   0.196  0.00  0.00     0.055 C 
ATOM      8  C   UNL d   1       2.626  -4.552   0.164  0.00  0.00     0.019 C 
ENDBRANCH   1   7
TORSDOF 1
ENDMDL
