MODEL 1
REMARK minimizedAffinity 0.882060349
REMARK minimizedRMSD -1
REMARK  1 active torsions:
REMARK  status: ('A' for Active; 'I' for Inactive)
REMARK    1  A    between atoms: C1_2  and  C2_3 
ROOT
ATOM      1  C2  UNL d   1      -0.281  -0.563   1.026  0.00  0.00    -0.077 A 
ATOM      2  C3  UNL d   1       0.738   0.125   1.701  0.00  0.00     0.002 A 
ATOM      3  C4  UNL d   1       2.078  -0.195   1.472  0.00  0.00     0.002 A 
ATOM      4  C5  UNL d   1       2.411  -1.199   0.565  0.00  0.00    -0.004 A 
ATOM      5  C6  UNL d   1       1.405  -1.890  -0.109  0.00  0.00     0.002 A 
ATOM      6  C7  UNL d   1       0.065  -1.573   0.120  0.00  0.00     0.002 A 
ENDROOT
BRANCH   1   7
ATOM      7  C1  UNL d   1      -1.724  -0.186   1.235  0.00  0.00     0.055 C 
ATOM      8  C   UNL d   1      -1.850   1.169   1.917  0.00  0.00     0.019 C 
ENDBRANCH   1   7
TORSDOF 1
ENDMDL
