MODEL 1
REMARK minimizedAffinity -5.38830757
REMARK minimizedRMSD -1
REMARK  1 active torsions:
REMARK  status: ('A' for Active; 'I' for Inactive)
REMARK    1  A    between atoms: C1_2  and  C2_3 
ROOT
ATOM      1  C2  UNL d   1      -0.252   0.591   1.291  0.00  0.00    -0.077 A 
ATOM      2  C3  UNL d   1       1.043   0.175   1.632  0.00  0.00     0.002 A 
ATOM      3  C4  UNL d   1       1.471   0.216   2.960  0.00  0.00     0.002 A 
ATOM      4  C5  UNL d   1       0.610   0.669   3.957  0.00  0.00    -0.004 A 
ATOM      5  C6  UNL d   1      -0.678   1.087   3.628  0.00  0.00     0.002 A 
ATOM      6  C7  UNL d   1      -1.108   1.047   2.301  0.00  0.00     0.002 A 
ENDROOT
BRANCH   1   7
ATOM      7  C1  UNL d   1      -0.733   0.500  -0.134  0.00  0.00     0.055 C 
ATOM      8  C   UNL d   1       0.148  -0.429  -0.957  0.00  0.00     0.019 C 
ENDBRANCH   1   7
TORSDOF 1
ENDMDL
