MODEL 1
REMARK minimizedAffinity -3.99721766
REMARK minimizedRMSD -1
REMARK  1 active torsions:
REMARK  status: ('A' for Active; 'I' for Inactive)
REMARK    1  A    between atoms: C1_2  and  C2_3 
ROOT
ATOM      1  C2  UNL d   1      -0.264   0.013  -4.346  0.00  0.00    -0.077 A 
ATOM      2  C3  UNL d   1       0.907   0.727  -4.639  0.00  0.00     0.002 A 
ATOM      3  C4  UNL d   1       2.002   0.671  -3.776  0.00  0.00     0.002 A 
ATOM      4  C5  UNL d   1       1.940  -0.100  -2.617  0.00  0.00    -0.004 A 
ATOM      5  C6  UNL d   1       0.780  -0.812  -2.316  0.00  0.00     0.002 A 
ATOM      6  C7  UNL d   1      -0.317  -0.757  -3.177  0.00  0.00     0.002 A 
ENDROOT
BRANCH   1   7
ATOM      7  C1  UNL d   1      -1.429   0.032  -5.301  0.00  0.00     0.055 C 
ATOM      8  C   UNL d   1      -1.595  -1.309  -6.000  0.00  0.00     0.019 C 
ENDBRANCH   1   7
TORSDOF 1
ENDMDL
