MODEL 1
REMARK minimizedAffinity -5.94786882
REMARK minimizedRMSD -1
REMARK  1 active torsions:
REMARK  status: ('A' for Active; 'I' for Inactive)
REMARK    1  A    between atoms: C1_2  and  C2_3 
ROOT
ATOM      1  C2  UNL d   1       0.122  -0.181   0.151  0.00  0.00    -0.077 A 
ATOM      2  C3  UNL d   1      -1.273  -0.054   0.126  0.00  0.00     0.002 A 
ATOM      3  C4  UNL d   1      -1.936   0.659   1.127  0.00  0.00     0.002 A 
ATOM      4  C5  UNL d   1      -1.211   1.252   2.158  0.00  0.00    -0.004 A 
ATOM      5  C6  UNL d   1       0.177   1.130   2.193  0.00  0.00     0.002 A 
ATOM      6  C7  UNL d   1       0.841   0.417   1.194  0.00  0.00     0.002 A 
ENDROOT
BRANCH   1   7
ATOM      7  C1  UNL d   1       0.843  -0.907  -0.955  0.00  0.00     0.055 C 
ATOM      8  C   UNL d   1       0.570  -0.266  -2.308  0.00  0.00     0.019 C 
ENDBRANCH   1   7
TORSDOF 1
ENDMDL
