MODEL 1
REMARK minimizedAffinity 5.83040285
REMARK minimizedRMSD -1
REMARK  0 active torsions:
REMARK  status: ('A' for Active; 'I' for Inactive)
ROOT
ATOM      1  C1  DEN d   1       2.596   3.041   3.620  0.00  0.00     0.130 A 
ATOM      2  C2  DEN d   1       2.056   2.453   4.843  0.00  0.00    -0.031 A 
ATOM      3  C3  DEN d   1       2.637   3.177   5.992  0.00  0.00     0.027 A 
ATOM      4  C4  DEN d   1       4.306   5.143   5.996  0.00  0.00     0.027 A 
ATOM      5  C5  DEN d   1       5.058   5.978   5.200  0.00  0.00    -0.003 A 
ATOM      6  C6  DEN d   1       5.068   5.872   3.834  0.00  0.00     0.001 A 
ATOM      7  C7  DEN d   1       4.276   4.938   3.220  0.00  0.00     0.017 A 
ATOM      8  C8  DEN d   1       3.521   4.087   4.016  0.00  0.00    -0.094 A 
ATOM      9  C9  DEN d   1       3.515   4.218   5.395  0.00  0.00    -0.072 A 
ENDROOT
TORSDOF 0
ENDMDL
