MODEL 1
REMARK minimizedAffinity 13.4459858
REMARK minimizedRMSD -1
REMARK  0 active torsions:
REMARK  status: ('A' for Active; 'I' for Inactive)
ROOT
ATOM      1  C1  DEN d   1       3.560  -0.943  -0.395  0.00  0.00     0.130 A 
ATOM      2  C2  DEN d   1       2.169  -0.828   0.032  0.00  0.00    -0.031 A 
ATOM      3  C3  DEN d   1       1.959   0.543   0.539  0.00  0.00     0.027 A 
ATOM      4  C4  DEN d   1       3.644   2.490   0.698  0.00  0.00     0.027 A 
ATOM      5  C5  DEN d   1       4.949   2.867   0.467  0.00  0.00    -0.003 A 
ATOM      6  C6  DEN d   1       5.883   1.998  -0.031  0.00  0.00     0.001 A 
ATOM      7  C7  DEN d   1       5.514   0.720  -0.358  0.00  0.00     0.017 A 
ATOM      8  C8  DEN d   1       4.203   0.330  -0.121  0.00  0.00    -0.094 A 
ATOM      9  C9  DEN d   1       3.270   1.227   0.372  0.00  0.00    -0.072 A 
ENDROOT
TORSDOF 0
ENDMDL
