MODEL 1
REMARK minimizedAffinity 21.3841877
REMARK minimizedRMSD -1
REMARK  0 active torsions:
REMARK  status: ('A' for Active; 'I' for Inactive)
ROOT
ATOM      1  C1  DEN d   1      -5.997   4.906   5.544  0.00  0.00     0.130 A 
ATOM      2  C2  DEN d   1      -5.994   3.515   5.987  0.00  0.00    -0.031 A 
ATOM      3  C3  DEN d   1      -5.833   2.657   4.796  0.00  0.00     0.027 A 
ATOM      4  C4  DEN d   1      -5.585   3.345   2.323  0.00  0.00     0.027 A 
ATOM      5  C5  DEN d   1      -5.541   4.412   1.453  0.00  0.00    -0.003 A 
ATOM      6  C6  DEN d   1      -5.679   5.707   1.879  0.00  0.00     0.001 A 
ATOM      7  C7  DEN d   1      -5.822   5.970   3.216  0.00  0.00     0.017 A 
ATOM      8  C8  DEN d   1      -5.875   4.898   4.097  0.00  0.00    -0.094 A 
ATOM      9  C9  DEN d   1      -5.721   3.598   3.649  0.00  0.00    -0.072 A 
ENDROOT
TORSDOF 0
ENDMDL
