MODEL 1
REMARK minimizedAffinity 8.24119663
REMARK minimizedRMSD -1
REMARK  0 active torsions:
REMARK  status: ('A' for Active; 'I' for Inactive)
ROOT
ATOM      1  C1  DEN d   1       3.268   0.580   0.269  0.00  0.00     0.130 A 
ATOM      2  C2  DEN d   1       4.343   1.243  -0.464  0.00  0.00    -0.031 A 
ATOM      3  C3  DEN d   1       4.832   0.311  -1.500  0.00  0.00     0.027 A 
ATOM      4  C4  DEN d   1       4.029  -2.079  -2.042  0.00  0.00     0.027 A 
ATOM      5  C5  DEN d   1       3.148  -3.075  -1.684  0.00  0.00    -0.003 A 
ATOM      6  C6  DEN d   1       2.276  -2.938  -0.637  0.00  0.00     0.001 A 
ATOM      7  C7  DEN d   1       2.234  -1.759   0.061  0.00  0.00     0.017 A 
ATOM      8  C8  DEN d   1       3.124  -0.753  -0.290  0.00  0.00    -0.094 A 
ATOM      9  C9  DEN d   1       3.990  -0.907  -1.359  0.00  0.00    -0.072 A 
ENDROOT
TORSDOF 0
ENDMDL
