MODEL 1
REMARK minimizedAffinity -4.22787666
REMARK minimizedRMSD -1
REMARK  0 active torsions:
REMARK  status: ('A' for Active; 'I' for Inactive)
ROOT
ATOM      1  C1  DEN d   1       0.276   1.201   0.412  0.00  0.00     0.130 A 
ATOM      2  C2  DEN d   1       0.228   0.080  -0.522  0.00  0.00    -0.031 A 
ATOM      3  C3  DEN d   1      -0.844  -0.836  -0.082  0.00  0.00     0.027 A 
ATOM      4  C4  DEN d   1      -2.428  -0.625   1.942  0.00  0.00     0.027 A 
ATOM      5  C5  DEN d   1      -2.760   0.149   3.032  0.00  0.00    -0.003 A 
ATOM      6  C6  DEN d   1      -2.086   1.300   3.342  0.00  0.00     0.001 A 
ATOM      7  C7  DEN d   1      -1.074   1.735   2.527  0.00  0.00     0.017 A 
ATOM      8  C8  DEN d   1      -0.729   0.956   1.431  0.00  0.00    -0.094 A 
ATOM      9  C9  DEN d   1      -1.431  -0.198   1.127  0.00  0.00    -0.072 A 
ENDROOT
TORSDOF 0
ENDMDL
