MODEL 1
REMARK minimizedAffinity 0.546813607
REMARK minimizedRMSD -1
REMARK  0 active torsions:
REMARK  status: ('A' for Active; 'I' for Inactive)
ROOT
ATOM      1  C1  DEN d   1       1.898   0.267  -1.531  0.00  0.00     0.130 A 
ATOM      2  C2  DEN d   1       2.241  -0.998  -2.174  0.00  0.00    -0.031 A 
ATOM      3  C3  DEN d   1       1.145  -1.954  -1.916  0.00  0.00     0.027 A 
ATOM      4  C4  DEN d   1      -1.040  -1.597  -0.593  0.00  0.00     0.027 A 
ATOM      5  C5  DEN d   1      -1.770  -0.693   0.147  0.00  0.00    -0.003 A 
ATOM      6  C6  DEN d   1      -1.316   0.574   0.405  0.00  0.00     0.001 A 
ATOM      7  C7  DEN d   1      -0.119   0.986  -0.118  0.00  0.00     0.017 A 
ATOM      8  C8  DEN d   1       0.626   0.078  -0.858  0.00  0.00    -0.094 A 
ATOM      9  C9  DEN d   1       0.145  -1.194  -1.119  0.00  0.00    -0.072 A 
ENDROOT
TORSDOF 0
ENDMDL
