MODEL 1
REMARK minimizedAffinity 1.79907882
REMARK minimizedRMSD -1
REMARK  0 active torsions:
REMARK  status: ('A' for Active; 'I' for Inactive)
ROOT
ATOM      1  C1  DEN d   1       6.000   3.645   5.155  0.00  0.00     0.130 A 
ATOM      2  C2  DEN d   1       5.318   4.292   4.037  0.00  0.00    -0.031 A 
ATOM      3  C3  DEN d   1       4.489   3.276   3.358  0.00  0.00     0.027 A 
ATOM      4  C4  DEN d   1       4.193   0.778   3.928  0.00  0.00     0.027 A 
ATOM      5  C5  DEN d   1       4.578  -0.232   4.782  0.00  0.00    -0.003 A 
ATOM      6  C6  DEN d   1       5.482  -0.030   5.791  0.00  0.00     0.001 A 
ATOM      7  C7  DEN d   1       5.998   1.222   5.999  0.00  0.00     0.017 A 
ATOM      8  C8  DEN d   1       5.621   2.244   5.138  0.00  0.00    -0.094 A 
ATOM      9  C9  DEN d   1       4.696   2.022   4.131  0.00  0.00    -0.072 A 
ENDROOT
TORSDOF 0
ENDMDL
