MODEL 1
REMARK minimizedAffinity 0.430311471
REMARK minimizedRMSD -1
REMARK  0 active torsions:
REMARK  status: ('A' for Active; 'I' for Inactive)
ROOT
ATOM      1  C1  DEN d   1       1.426   1.232  -3.841  0.00  0.00     0.130 A 
ATOM      2  C2  DEN d   1       1.269  -0.001  -4.609  0.00  0.00    -0.031 A 
ATOM      3  C3  DEN d   1       0.837  -1.065  -3.681  0.00  0.00     0.027 A 
ATOM      4  C4  DEN d   1       0.392  -0.923  -1.144  0.00  0.00     0.027 A 
ATOM      5  C5  DEN d   1       0.402  -0.089  -0.047  0.00  0.00    -0.003 A 
ATOM      6  C6  DEN d   1       0.784   1.223  -0.131  0.00  0.00     0.001 A 
ATOM      7  C7  DEN d   1       1.128   1.754  -1.347  0.00  0.00     0.017 A 
ATOM      8  C8  DEN d   1       1.128   0.917  -2.456  0.00  0.00    -0.094 A 
ATOM      9  C9  DEN d   1       0.727  -0.404  -2.352  0.00  0.00    -0.072 A 
ENDROOT
TORSDOF 0
ENDMDL
