MODEL 1
REMARK minimizedAffinity -3.10719037
REMARK minimizedRMSD -1
REMARK  0 active torsions:
REMARK  status: ('A' for Active; 'I' for Inactive)
ROOT
ATOM      1  C1  DEN d   1       0.400   1.550  -1.718  0.00  0.00     0.130 A 
ATOM      2  C2  DEN d   1      -0.895   1.903  -1.143  0.00  0.00    -0.031 A 
ATOM      3  C3  DEN d   1      -1.383   0.743  -0.370  0.00  0.00     0.027 A 
ATOM      4  C4  DEN d   1      -0.264  -1.552  -0.008  0.00  0.00     0.027 A 
ATOM      5  C5  DEN d   1       0.836  -2.324  -0.308  0.00  0.00    -0.003 A 
ATOM      6  C6  DEN d   1       1.844  -1.875  -1.120  0.00  0.00     0.001 A 
ATOM      7  C7  DEN d   1       1.794  -0.603  -1.624  0.00  0.00     0.017 A 
ATOM      8  C8  DEN d   1       0.684   0.179  -1.332  0.00  0.00    -0.094 A 
ATOM      9  C9  DEN d   1      -0.319  -0.288  -0.499  0.00  0.00    -0.072 A 
ENDROOT
TORSDOF 0
ENDMDL
