MODEL 1
REMARK minimizedAffinity -3.29584026
REMARK minimizedRMSD -1
REMARK  0 active torsions:
REMARK  status: ('A' for Active; 'I' for Inactive)
ROOT
ATOM      1  C1  DEN d   1      -0.294  -0.614   0.497  0.00  0.00     0.130 A 
ATOM      2  C2  DEN d   1      -1.116   0.417  -0.131  0.00  0.00    -0.031 A 
ATOM      3  C3  DEN d   1      -0.333   1.019  -1.229  0.00  0.00     0.027 A 
ATOM      4  C4  DEN d   1       2.057   0.454  -2.018  0.00  0.00     0.027 A 
ATOM      5  C5  DEN d   1       3.156  -0.342  -1.786  0.00  0.00    -0.003 A 
ATOM      6  C6  DEN d   1       3.196  -1.254  -0.764  0.00  0.00     0.001 A 
ATOM      7  C7  DEN d   1       2.097  -1.423   0.037  0.00  0.00     0.017 A 
ATOM      8  C8  DEN d   1       0.987  -0.619  -0.186  0.00  0.00    -0.094 A 
ATOM      9  C9  DEN d   1       0.963   0.288  -1.232  0.00  0.00    -0.072 A 
ENDROOT
TORSDOF 0
ENDMDL
