MODEL 1
REMARK minimizedAffinity -2.92400622
REMARK minimizedRMSD -1
REMARK  0 active torsions:
REMARK  status: ('A' for Active; 'I' for Inactive)
ROOT
ATOM      1  C1  DEN d   1       0.756   1.746  -1.359  0.00  0.00     0.130 A 
ATOM      2  C2  DEN d   1      -0.670   1.691  -1.052  0.00  0.00    -0.031 A 
ATOM      3  C3  DEN d   1      -0.973   0.344  -0.528  0.00  0.00     0.027 A 
ATOM      4  C4  DEN d   1       0.621  -1.650  -0.159  0.00  0.00     0.027 A 
ATOM      5  C5  DEN d   1       1.922  -2.084  -0.283  0.00  0.00    -0.003 A 
ATOM      6  C6  DEN d   1       2.911  -1.291  -0.802  0.00  0.00     0.001 A 
ATOM      7  C7  DEN d   1       2.623  -0.005  -1.174  0.00  0.00     0.017 A 
ATOM      8  C8  DEN d   1       1.312   0.439  -1.059  0.00  0.00    -0.094 A 
ATOM      9  C9  DEN d   1       0.329  -0.375  -0.521  0.00  0.00    -0.072 A 
ENDROOT
TORSDOF 0
ENDMDL
