MODEL 1
REMARK minimizedAffinity -2.63061571
REMARK minimizedRMSD -1
REMARK  0 active torsions:
REMARK  status: ('A' for Active; 'I' for Inactive)
ROOT
ATOM      1  C1  DEN d   1      -2.023  -1.844   1.852  0.00  0.00     0.130 A 
ATOM      2  C2  DEN d   1      -3.046  -1.981   2.884  0.00  0.00    -0.031 A 
ATOM      3  C3  DEN d   1      -3.401  -0.629   3.359  0.00  0.00     0.027 A 
ATOM      4  C4  DEN d   1      -2.472   1.654   2.597  0.00  0.00     0.027 A 
ATOM      5  C5  DEN d   1      -1.578   2.277   1.754  0.00  0.00    -0.003 A 
ATOM      6  C6  DEN d   1      -0.753   1.575   0.916  0.00  0.00     0.001 A 
ATOM      7  C7  DEN d   1      -0.836   0.208   0.870  0.00  0.00     0.017 A 
ATOM      8  C8  DEN d   1      -1.729  -0.428   1.722  0.00  0.00    -0.094 A 
ATOM      9  C9  DEN d   1      -2.564   0.300   2.553  0.00  0.00    -0.072 A 
ENDROOT
TORSDOF 0
ENDMDL
