MODEL 1
REMARK minimizedAffinity 8.30424213
REMARK minimizedRMSD -1
REMARK  0 active torsions:
REMARK  status: ('A' for Active; 'I' for Inactive)
ROOT
ATOM      1  C1  DEN d   1      -1.124   2.555   2.721  0.00  0.00     0.130 A 
ATOM      2  C2  DEN d   1      -0.979   2.898   4.134  0.00  0.00    -0.031 A 
ATOM      3  C3  DEN d   1      -1.232   1.678   4.927  0.00  0.00     0.027 A 
ATOM      4  C4  DEN d   1      -1.827  -0.695   4.110  0.00  0.00     0.027 A 
ATOM      5  C5  DEN d   1      -2.073  -1.471   2.999  0.00  0.00    -0.003 A 
ATOM      6  C6  DEN d   1      -2.053  -0.956   1.730  0.00  0.00     0.001 A 
ATOM      7  C7  DEN d   1      -1.738   0.363   1.538  0.00  0.00     0.017 A 
ATOM      8  C8  DEN d   1      -1.496   1.154   2.654  0.00  0.00    -0.094 A 
ATOM      9  C9  DEN d   1      -1.508   0.612   3.928  0.00  0.00    -0.072 A 
ENDROOT
TORSDOF 0
ENDMDL
