MODEL 1
REMARK minimizedAffinity -6.59370518
REMARK minimizedRMSD -1
REMARK  0 active torsions:
REMARK  status: ('A' for Active; 'I' for Inactive)
ROOT
ATOM      1  C1  DEN d   1      -4.616  -0.418   4.415  0.00  0.00     0.130 A 
ATOM      2  C2  DEN d   1      -4.521  -1.870   4.295  0.00  0.00    -0.031 A 
ATOM      3  C3  DEN d   1      -3.473  -2.178   3.301  0.00  0.00     0.027 A 
ATOM      4  C4  DEN d   1      -1.994  -0.556   1.947  0.00  0.00     0.027 A 
ATOM      5  C5  DEN d   1      -1.719   0.771   1.699  0.00  0.00    -0.003 A 
ATOM      6  C6  DEN d   1      -2.407   1.786   2.309  0.00  0.00     0.001 A 
ATOM      7  C7  DEN d   1      -3.376   1.491   3.231  0.00  0.00     0.017 A 
ATOM      8  C8  DEN d   1      -3.664   0.155   3.481  0.00  0.00    -0.094 A 
ATOM      9  C9  DEN d   1      -2.949  -0.856   2.863  0.00  0.00    -0.072 A 
ENDROOT
TORSDOF 0
ENDMDL
