MODEL 1
REMARK minimizedAffinity -6.45686769
REMARK minimizedRMSD -1
REMARK  0 active torsions:
REMARK  status: ('A' for Active; 'I' for Inactive)
ROOT
ATOM      1  C1  DEN d   1       1.038  -1.259  -0.351  0.00  0.00     0.130 A 
ATOM      2  C2  DEN d   1      -0.235  -0.548  -0.272  0.00  0.00    -0.031 A 
ATOM      3  C3  DEN d   1      -0.098   0.719  -1.018  0.00  0.00     0.027 A 
ATOM      4  C4  DEN d   1       1.950   1.642  -2.285  0.00  0.00     0.027 A 
ATOM      5  C5  DEN d   1       3.263   1.401  -2.623  0.00  0.00    -0.003 A 
ATOM      6  C6  DEN d   1       3.931   0.281  -2.203  0.00  0.00     0.001 A 
ATOM      7  C7  DEN d   1       3.275  -0.661  -1.457  0.00  0.00     0.017 A 
ATOM      8  C8  DEN d   1       1.953  -0.422  -1.106  0.00  0.00    -0.094 A 
ATOM      9  C9  DEN d   1       1.291   0.710  -1.551  0.00  0.00    -0.072 A 
ENDROOT
TORSDOF 0
ENDMDL
