MODEL 1
REMARK minimizedAffinity -5.78123665
REMARK minimizedRMSD -1
REMARK  0 active torsions:
REMARK  status: ('A' for Active; 'I' for Inactive)
ROOT
ATOM      1  C1  DEN d   1       0.313  -1.602   0.172  0.00  0.00     0.130 A 
ATOM      2  C2  DEN d   1      -0.686  -0.702   0.742  0.00  0.00    -0.031 A 
ATOM      3  C3  DEN d   1      -0.431   0.654   0.214  0.00  0.00     0.027 A 
ATOM      4  C4  DEN d   1       1.399   1.441  -1.423  0.00  0.00     0.027 A 
ATOM      5  C5  DEN d   1       2.486   1.040  -2.169  0.00  0.00    -0.003 A 
ATOM      6  C6  DEN d   1       2.942  -0.251  -2.160  0.00  0.00     0.001 A 
ATOM      7  C7  DEN d   1       2.280  -1.199  -1.425  0.00  0.00     0.017 A 
ATOM      8  C8  DEN d   1       1.188  -0.802  -0.665  0.00  0.00    -0.094 A 
ATOM      9  C9  DEN d   1       0.735   0.507  -0.697  0.00  0.00    -0.072 A 
ENDROOT
TORSDOF 0
ENDMDL
