MODEL 1
REMARK minimizedAffinity 1.66509616
REMARK minimizedRMSD -1
REMARK  0 active torsions:
REMARK  status: ('A' for Active; 'I' for Inactive)
ROOT
ATOM      1  C1  DEN d   1      -0.366   1.606  -1.890  0.00  0.00     0.130 A 
ATOM      2  C2  DEN d   1       0.423   1.887  -3.087  0.00  0.00    -0.031 A 
ATOM      3  C3  DEN d   1       1.298   0.725  -3.340  0.00  0.00     0.027 A 
ATOM      4  C4  DEN d   1       1.505  -1.472  -2.005  0.00  0.00     0.027 A 
ATOM      5  C5  DEN d   1       1.049  -2.165  -0.906  0.00  0.00    -0.003 A 
ATOM      6  C6  DEN d   1       0.121  -1.640  -0.045  0.00  0.00     0.001 A 
ATOM      7  C7  DEN d   1      -0.414  -0.404  -0.296  0.00  0.00     0.017 A 
ATOM      8  C8  DEN d   1       0.047   0.304  -1.398  0.00  0.00    -0.094 A 
ATOM      9  C9  DEN d   1       0.977  -0.249  -2.263  0.00  0.00    -0.072 A 
ENDROOT
TORSDOF 0
ENDMDL
