MODEL 1
REMARK minimizedAffinity -4.13016939
REMARK minimizedRMSD -1
REMARK  0 active torsions:
REMARK  status: ('A' for Active; 'I' for Inactive)
ROOT
ATOM      1  C4' PXY d   1       2.130   0.394   0.418  0.00  0.00     0.077 C 
ATOM      2  C1' PXY d   1      -3.180  -1.496  -0.864  0.00  0.00     0.077 C 
ATOM      3  C1  PXY d   1      -1.788  -1.006  -0.516  0.00  0.00    -0.082 A 
ATOM      4  C2  PXY d   1      -1.278   0.028  -1.166  0.00  0.00     0.003 A 
ATOM      5  C3  PXY d   1      -0.008   0.464  -0.886  0.00  0.00     0.003 A 
ATOM      6  C4  PXY d   1       0.726  -0.129   0.106  0.00  0.00    -0.082 A 
ATOM      7  C5  PXY d   1       0.207  -1.178   0.781  0.00  0.00     0.003 A 
ATOM      8  C6  PXY d   1      -1.067  -1.632   0.453  0.00  0.00     0.003 A 
ENDROOT
TORSDOF 0
ENDMDL
