MODEL 1
REMARK minimizedAffinity -3.77016354
REMARK minimizedRMSD -1
REMARK  0 active torsions:
REMARK  status: ('A' for Active; 'I' for Inactive)
ROOT
ATOM      1  C4' PXY d   1      -2.609  -0.806  -0.675  0.00  0.00     0.077 C 
ATOM      2  C1' PXY d   1       2.640   1.257   0.595  0.00  0.00     0.077 C 
ATOM      3  C1  PXY d   1       1.262   0.726   0.253  0.00  0.00    -0.082 A 
ATOM      4  C2  PXY d   1       0.596   0.013   1.147  0.00  0.00     0.003 A 
ATOM      5  C3  PXY d   1      -0.638  -0.502   0.842  0.00  0.00     0.003 A 
ATOM      6  C4  PXY d   1      -1.218  -0.241  -0.370  0.00  0.00    -0.082 A 
ATOM      7  C5  PXY d   1      -0.549   0.494  -1.283  0.00  0.00     0.003 A 
ATOM      8  C6  PXY d   1       0.719   0.974  -0.970  0.00  0.00     0.003 A 
ENDROOT
TORSDOF 0
ENDMDL
