MODEL 1
REMARK minimizedAffinity -4.63024187
REMARK minimizedRMSD -1
REMARK  0 active torsions:
REMARK  status: ('A' for Active; 'I' for Inactive)
ROOT
ATOM      1  C4' PXY d   1       2.221   0.766   0.521  0.00  0.00     0.077 C 
ATOM      2  C1' PXY d   1      -3.137  -1.006  -0.728  0.00  0.00     0.077 C 
ATOM      3  C1  PXY d   1      -1.730  -0.540  -0.413  0.00  0.00    -0.082 A 
ATOM      4  C2  PXY d   1      -1.171  -0.878   0.737  0.00  0.00     0.003 A 
ATOM      5  C3  PXY d   1       0.090  -0.439   1.052  0.00  0.00     0.003 A 
ATOM      6  C4  PXY d   1       0.805   0.310   0.157  0.00  0.00    -0.082 A 
ATOM      7  C5  PXY d   1       0.246   0.651  -1.023  0.00  0.00     0.003 A 
ATOM      8  C6  PXY d   1      -1.050   0.229  -1.306  0.00  0.00     0.003 A 
ENDROOT
TORSDOF 0
ENDMDL
