MODEL 1
REMARK minimizedAffinity -4.55623245
REMARK minimizedRMSD -1
REMARK  0 active torsions:
REMARK  status: ('A' for Active; 'I' for Inactive)
ROOT
ATOM      1  C4' PXY d   1      -2.985  -1.128  -0.700  0.00  0.00     0.077 C 
ATOM      2  C1' PXY d   1       2.251   1.026   0.469  0.00  0.00     0.077 C 
ATOM      3  C1  PXY d   1       0.879   0.452   0.172  0.00  0.00    -0.082 A 
ATOM      4  C2  PXY d   1       0.371   0.567  -1.044  0.00  0.00     0.003 A 
ATOM      5  C3  PXY d   1      -0.881   0.083  -1.321  0.00  0.00     0.003 A 
ATOM      6  C4  PXY d   1      -1.600  -0.573  -0.357  0.00  0.00    -0.082 A 
ATOM      7  C5  PXY d   1      -1.084  -0.704   0.883  0.00  0.00     0.003 A 
ATOM      8  C6  PXY d   1       0.172  -0.169   1.155  0.00  0.00     0.003 A 
ENDROOT
TORSDOF 0
ENDMDL
