MODEL 1
REMARK minimizedAffinity -5.18126583
REMARK minimizedRMSD -1
REMARK  0 active torsions:
REMARK  status: ('A' for Active; 'I' for Inactive)
ROOT
ATOM      1  C4' PXY d   1       2.200   0.467   0.204  0.00  0.00     0.077 C 
ATOM      2  C1' PXY d   1      -3.404  -0.895  -0.198  0.00  0.00     0.077 C 
ATOM      3  C1  PXY d   1      -1.933  -0.540  -0.105  0.00  0.00    -0.082 A 
ATOM      4  C2  PXY d   1      -1.290  -0.706   1.040  0.00  0.00     0.003 A 
ATOM      5  C3  PXY d   1       0.032  -0.359   1.150  0.00  0.00     0.003 A 
ATOM      6  C4  PXY d   1       0.717   0.112   0.062  0.00  0.00    -0.082 A 
ATOM      7  C5  PXY d   1       0.071   0.275  -1.112  0.00  0.00     0.003 A 
ATOM      8  C6  PXY d   1      -1.281  -0.044  -1.192  0.00  0.00     0.003 A 
ENDROOT
TORSDOF 0
ENDMDL
