MODEL 1
REMARK minimizedAffinity -5.36216021
REMARK minimizedRMSD -1
REMARK  0 active torsions:
REMARK  status: ('A' for Active; 'I' for Inactive)
ROOT
ATOM      1  C4' PXY d   1       2.178   1.030   0.321  0.00  0.00     0.077 C 
ATOM      2  C1' PXY d   1      -3.278  -0.595  -0.683  0.00  0.00     0.077 C 
ATOM      3  C1  PXY d   1      -1.845  -0.168  -0.432  0.00  0.00    -0.082 A 
ATOM      4  C2  PXY d   1      -1.266  -0.465   0.720  0.00  0.00     0.003 A 
ATOM      5  C3  PXY d   1       0.018  -0.059   0.975  0.00  0.00     0.003 A 
ATOM      6  C4  PXY d   1       0.736   0.612   0.021  0.00  0.00    -0.082 A 
ATOM      7  C5  PXY d   1       0.156   0.909  -1.161  0.00  0.00     0.003 A 
ATOM      8  C6  PXY d   1      -1.163   0.524  -1.385  0.00  0.00     0.003 A 
ENDROOT
TORSDOF 0
ENDMDL
