MODEL 1
REMARK minimizedAffinity -4.13935661
REMARK minimizedRMSD -1
REMARK  0 active torsions:
REMARK  status: ('A' for Active; 'I' for Inactive)
ROOT
ATOM      1  C4' PXY d   1      -0.757  -2.151   1.564  0.00  0.00     0.077 C 
ATOM      2  C1' PXY d   1      -0.673   1.444  -2.962  0.00  0.00     0.077 C 
ATOM      3  C1  PXY d   1      -0.682   0.501  -1.775  0.00  0.00    -0.082 A 
ATOM      4  C2  PXY d   1      -1.748  -0.247  -1.542  0.00  0.00     0.003 A 
ATOM      5  C3  PXY d   1      -1.785  -1.082  -0.455  0.00  0.00     0.003 A 
ATOM      6  C4  PXY d   1      -0.700  -1.191   0.372  0.00  0.00    -0.082 A 
ATOM      7  C5  PXY d   1       0.396  -0.439   0.135  0.00  0.00     0.003 A 
ATOM      8  C6  PXY d   1       0.398   0.432  -0.950  0.00  0.00     0.003 A 
ENDROOT
TORSDOF 0
ENDMDL
