MODEL 1
REMARK minimizedAffinity -4.2261529
REMARK minimizedRMSD -1
REMARK  0 active torsions:
REMARK  status: ('A' for Active; 'I' for Inactive)
ROOT
ATOM      1  C4' PXY d   1       1.848   1.401   0.467  0.00  0.00     0.077 C 
ATOM      2  C1' PXY d   1      -3.261  -1.240  -0.113  0.00  0.00     0.077 C 
ATOM      3  C1  PXY d   1      -1.922  -0.550   0.052  0.00  0.00    -0.082 A 
ATOM      4  C2  PXY d   1      -1.539   0.355  -0.834  0.00  0.00     0.003 A 
ATOM      5  C3  PXY d   1      -0.317   0.966  -0.717  0.00  0.00     0.003 A 
ATOM      6  C4  PXY d   1       0.499   0.685   0.346  0.00  0.00    -0.082 A 
ATOM      7  C5  PXY d   1       0.111  -0.229   1.259  0.00  0.00     0.003 A 
ATOM      8  C6  PXY d   1      -1.115  -0.868   1.101  0.00  0.00     0.003 A 
ENDROOT
TORSDOF 0
ENDMDL
