MODEL 1
REMARK minimizedAffinity -5.75124931
REMARK minimizedRMSD -1
REMARK  0 active torsions:
REMARK  status: ('A' for Active; 'I' for Inactive)
ROOT
ATOM      1  C4' PXY d   1       1.121   0.684   0.442  0.00  0.00     0.077 C 
ATOM      2  C1' PXY d   1      -3.889  -2.188   0.191  0.00  0.00     0.077 C 
ATOM      3  C1  PXY d   1      -2.578  -1.429   0.246  0.00  0.00    -0.082 A 
ATOM      4  C2  PXY d   1      -1.569  -1.916   0.950  0.00  0.00     0.003 A 
ATOM      5  C3  PXY d   1      -0.387  -1.226   1.036  0.00  0.00     0.003 A 
ATOM      6  C4  PXY d   1      -0.218  -0.053   0.351  0.00  0.00    -0.082 A 
ATOM      7  C5  PXY d   1      -1.239   0.444  -0.379  0.00  0.00     0.003 A 
ATOM      8  C6  PXY d   1      -2.444  -0.250  -0.420  0.00  0.00     0.003 A 
ENDROOT
TORSDOF 0
ENDMDL
