MODEL 1
REMARK minimizedAffinity -1.21787655
REMARK minimizedRMSD -1
REMARK  0 active torsions:
REMARK  status: ('A' for Active; 'I' for Inactive)
ROOT
ATOM      1  C4' PXY d   1       1.958   0.655  -0.095  0.00  0.00     0.077 C 
ATOM      2  C1' PXY d   1      -3.563  -1.055  -0.162  0.00  0.00     0.077 C 
ATOM      3  C1  PXY d   1      -2.115  -0.607  -0.158  0.00  0.00    -0.082 A 
ATOM      4  C2  PXY d   1      -1.369  -0.815   0.915  0.00  0.00     0.003 A 
ATOM      5  C3  PXY d   1      -0.067  -0.388   0.948  0.00  0.00     0.003 A 
ATOM      6  C4  PXY d   1       0.494   0.211  -0.148  0.00  0.00    -0.082 A 
ATOM      7  C5  PXY d   1      -0.257   0.418  -1.250  0.00  0.00     0.003 A 
ATOM      8  C6  PXY d   1      -1.589   0.013  -1.249  0.00  0.00     0.003 A 
ENDROOT
TORSDOF 0
ENDMDL
