MODEL 1
REMARK minimizedAffinity -2.36523557
REMARK minimizedRMSD -1
REMARK  0 active torsions:
REMARK  status: ('A' for Active; 'I' for Inactive)
ROOT
ATOM      1  C4' PXY d   1       2.561   1.341   0.166  0.00  0.00     0.077 C 
ATOM      2  C1' PXY d   1      -2.546  -1.146  -0.905  0.00  0.00     0.077 C 
ATOM      3  C1  PXY d   1      -1.209  -0.495  -0.611  0.00  0.00    -0.082 A 
ATOM      4  C2  PXY d   1      -0.675   0.331  -1.496  0.00  0.00     0.003 A 
ATOM      5  C3  PXY d   1       0.548   0.904  -1.261  0.00  0.00     0.003 A 
ATOM      6  C4  PXY d   1       1.208   0.669  -0.084  0.00  0.00    -0.082 A 
ATOM      7  C5  PXY d   1       0.666  -0.165   0.828  0.00  0.00     0.003 A 
ATOM      8  C6  PXY d   1      -0.558  -0.768   0.552  0.00  0.00     0.003 A 
ENDROOT
TORSDOF 0
ENDMDL
