MODEL 1
REMARK minimizedAffinity -3.79017329
REMARK minimizedRMSD -1
REMARK  0 active torsions:
REMARK  status: ('A' for Active; 'I' for Inactive)
ROOT
ATOM      1  C4' PXY d   1       1.994   0.848   0.171  0.00  0.00     0.077 C 
ATOM      2  C1' PXY d   1      -3.379  -1.251  -0.201  0.00  0.00     0.077 C 
ATOM      3  C1  PXY d   1      -1.971  -0.700  -0.091  0.00  0.00    -0.082 A 
ATOM      4  C2  PXY d   1      -1.447  -0.034  -1.107  0.00  0.00     0.003 A 
ATOM      5  C3  PXY d   1      -0.164   0.443  -1.036  0.00  0.00     0.003 A 
ATOM      6  C4  PXY d   1       0.572   0.283   0.108  0.00  0.00    -0.082 A 
ATOM      7  C5  PXY d   1       0.041  -0.386   1.153  0.00  0.00     0.003 A 
ATOM      8  C6  PXY d   1      -1.248  -0.899   1.045  0.00  0.00     0.003 A 
ENDROOT
TORSDOF 0
ENDMDL
