MODEL 1
REMARK minimizedAffinity -4.6340704
REMARK minimizedRMSD -1
REMARK  0 active torsions:
REMARK  status: ('A' for Active; 'I' for Inactive)
ROOT
ATOM      1  C4' PXY d   1       1.984   0.736   0.424  0.00  0.00     0.077 C 
ATOM      2  C1' PXY d   1      -3.445  -1.162  -0.154  0.00  0.00     0.077 C 
ATOM      3  C1  PXY d   1      -2.020  -0.663  -0.015  0.00  0.00    -0.082 A 
ATOM      4  C2  PXY d   1      -1.328  -0.954   1.075  0.00  0.00     0.003 A 
ATOM      5  C3  PXY d   1      -0.049  -0.485   1.230  0.00  0.00     0.003 A 
ATOM      6  C4  PXY d   1       0.546   0.246   0.237  0.00  0.00    -0.082 A 
ATOM      7  C5  PXY d   1      -0.150   0.538  -0.882  0.00  0.00     0.003 A 
ATOM      8  C6  PXY d   1      -1.461   0.087  -1.003  0.00  0.00     0.003 A 
ENDROOT
TORSDOF 0
ENDMDL
