MODEL 1
REMARK minimizedAffinity -5.03210068
REMARK minimizedRMSD -1
REMARK  0 active torsions:
REMARK  status: ('A' for Active; 'I' for Inactive)
ROOT
ATOM      1  C4' PXY d   1      -4.339  -1.676   0.022  0.00  0.00     0.077 C 
ATOM      2  C1' PXY d   1       0.998   0.483  -0.504  0.00  0.00     0.077 C 
ATOM      3  C1  PXY d   1      -0.404  -0.079  -0.378  0.00  0.00    -0.082 A 
ATOM      4  C2  PXY d   1      -0.950  -0.214   0.820  0.00  0.00     0.003 A 
ATOM      5  C3  PXY d   1      -2.205  -0.751   0.954  0.00  0.00     0.003 A 
ATOM      6  C4  PXY d   1      -2.929  -1.104  -0.153  0.00  0.00    -0.082 A 
ATOM      7  C5  PXY d   1      -2.383  -0.960  -1.379  0.00  0.00     0.003 A 
ATOM      8  C6  PXY d   1      -1.093  -0.451  -1.491  0.00  0.00     0.003 A 
ENDROOT
TORSDOF 0
ENDMDL
