MODEL 1
REMARK minimizedAffinity -4.47457504
REMARK minimizedRMSD -1
REMARK  0 active torsions:
REMARK  status: ('A' for Active; 'I' for Inactive)
ROOT
ATOM      1  C4' PXY d   1       2.237   0.792  -0.060  0.00  0.00     0.077 C 
ATOM      2  C1' PXY d   1      -3.304  -0.853  -0.049  0.00  0.00     0.077 C 
ATOM      3  C1  PXY d   1      -1.850  -0.425  -0.065  0.00  0.00    -0.082 A 
ATOM      4  C2  PXY d   1      -1.163  -0.402   1.066  0.00  0.00     0.003 A 
ATOM      5  C3  PXY d   1       0.144   0.013   1.075  0.00  0.00     0.003 A 
ATOM      6  C4  PXY d   1       0.769   0.358  -0.093  0.00  0.00    -0.082 A 
ATOM      7  C5  PXY d   1       0.078   0.327  -1.252  0.00  0.00     0.003 A 
ATOM      8  C6  PXY d   1      -1.259  -0.058  -1.234  0.00  0.00     0.003 A 
ENDROOT
TORSDOF 0
ENDMDL
