MODEL 1
REMARK minimizedAffinity -4.36355543
REMARK minimizedRMSD -1
REMARK  0 active torsions:
REMARK  status: ('A' for Active; 'I' for Inactive)
ROOT
ATOM      1  C4' PXY d   1       1.934   0.683   0.527  0.00  0.00     0.077 C 
ATOM      2  C1' PXY d   1      -3.190  -1.697  -0.699  0.00  0.00     0.077 C 
ATOM      3  C1  PXY d   1      -1.847  -1.076  -0.365  0.00  0.00    -0.082 A 
ATOM      4  C2  PXY d   1      -1.369  -0.105  -1.125  0.00  0.00     0.003 A 
ATOM      5  C3  PXY d   1      -0.142   0.446  -0.856  0.00  0.00     0.003 A 
ATOM      6  C4  PXY d   1       0.578   0.034   0.233  0.00  0.00    -0.082 A 
ATOM      7  C5  PXY d   1       0.092  -0.950   1.020  0.00  0.00     0.003 A 
ATOM      8  C6  PXY d   1      -1.137  -1.524   0.706  0.00  0.00     0.003 A 
ENDROOT
TORSDOF 0
ENDMDL
