MODEL 1
REMARK minimizedAffinity -0.337752372
REMARK minimizedRMSD -1
REMARK  0 active torsions:
REMARK  status: ('A' for Active; 'I' for Inactive)
ROOT
ATOM      1  C4' PXY d   1       2.070   0.906   0.889  0.00  0.00     0.077 C 
ATOM      2  C1' PXY d   1      -2.998  -1.117  -1.017  0.00  0.00     0.077 C 
ATOM      3  C1  PXY d   1      -1.672  -0.591  -0.505  0.00  0.00    -0.082 A 
ATOM      4  C2  PXY d   1      -1.065   0.392  -1.151  0.00  0.00     0.003 A 
ATOM      5  C3  PXY d   1       0.150   0.858  -0.720  0.00  0.00     0.003 A 
ATOM      6  C4  PXY d   1       0.725   0.350   0.414  0.00  0.00    -0.082 A 
ATOM      7  C5  PXY d   1       0.107  -0.646   1.084  0.00  0.00     0.003 A 
ATOM      8  C6  PXY d   1      -1.106  -1.133   0.607  0.00  0.00     0.003 A 
ENDROOT
TORSDOF 0
ENDMDL
