MODEL 1
REMARK minimizedAffinity -4.55050755
REMARK minimizedRMSD -1
REMARK  0 active torsions:
REMARK  status: ('A' for Active; 'I' for Inactive)
ROOT
ATOM      1  C4' PXY d   1       1.964   0.976  -0.291  0.00  0.00     0.077 C 
ATOM      2  C1' PXY d   1      -3.519  -0.836  -0.041  0.00  0.00     0.077 C 
ATOM      3  C1  PXY d   1      -2.082  -0.361  -0.120  0.00  0.00    -0.082 A 
ATOM      4  C2  PXY d   1      -1.256  -0.607   0.884  0.00  0.00     0.003 A 
ATOM      5  C3  PXY d   1       0.039  -0.157   0.843  0.00  0.00     0.003 A 
ATOM      6  C4  PXY d   1       0.507   0.507  -0.259  0.00  0.00    -0.082 A 
ATOM      7  C5  PXY d   1      -0.327   0.753  -1.292  0.00  0.00     0.003 A 
ATOM      8  C6  PXY d   1      -1.648   0.323  -1.213  0.00  0.00     0.003 A 
ENDROOT
TORSDOF 0
ENDMDL
