MODEL 1
REMARK minimizedAffinity -4.80497932
REMARK minimizedRMSD -1
REMARK  0 active torsions:
REMARK  status: ('A' for Active; 'I' for Inactive)
ROOT
ATOM      1  C4' PXY d   1      -4.165  -1.149   0.112  0.00  0.00     0.077 C 
ATOM      2  C1' PXY d   1       1.403   0.287  -0.484  0.00  0.00     0.077 C 
ATOM      3  C1  PXY d   1      -0.061  -0.082  -0.338  0.00  0.00    -0.082 A 
ATOM      4  C2  PXY d   1      -0.516  -0.502   0.832  0.00  0.00     0.003 A 
ATOM      5  C3  PXY d   1      -1.829  -0.870   0.973  0.00  0.00     0.003 A 
ATOM      6  C4  PXY d   1      -2.697  -0.757  -0.079  0.00  0.00    -0.082 A 
ATOM      7  C5  PXY d   1      -2.243  -0.319  -1.273  0.00  0.00     0.003 A 
ATOM      8  C6  PXY d   1      -0.898   0.010  -1.407  0.00  0.00     0.003 A 
ENDROOT
TORSDOF 0
ENDMDL
