MODEL 1
REMARK minimizedAffinity -0.596188784
REMARK minimizedRMSD -1
REMARK  0 active torsions:
REMARK  status: ('A' for Active; 'I' for Inactive)
ROOT
ATOM      1  C   UNL d   1       3.514  -4.533   5.878  0.00  0.00     0.172 C 
ATOM      2  N   UNL d   1       4.501  -3.613   5.362  0.00  0.00    -0.070 N 
ATOM      3  C1  UNL d   1       4.957  -2.491   6.000  0.00  0.00    -0.004 A 
ATOM      4  C2  UNL d   1       5.888  -1.889   5.181  0.00  0.00    -0.047 A 
ATOM      5  C3  UNL d   1       5.995  -2.676   4.011  0.00  0.00    -0.047 A 
ATOM      6  C4  UNL d   1       5.126  -3.738   4.149  0.00  0.00    -0.004 A 
ENDROOT
TORSDOF 0
ENDMDL
