MODEL 1
REMARK minimizedAffinity 0.650044024
REMARK minimizedRMSD -1
REMARK  0 active torsions:
REMARK  status: ('A' for Active; 'I' for Inactive)
ROOT
ATOM      1  C   UNL d   1      -0.665  -0.730  -1.146  0.00  0.00     0.172 C 
ATOM      2  N   UNL d   1      -1.428  -1.344  -0.084  0.00  0.00    -0.070 N 
ATOM      3  C1  UNL d   1      -1.770  -0.749   1.100  0.00  0.00    -0.004 A 
ATOM      4  C2  UNL d   1      -2.493  -1.661   1.838  0.00  0.00    -0.047 A 
ATOM      5  C3  UNL d   1      -2.588  -2.846   1.071  0.00  0.00    -0.047 A 
ATOM      6  C4  UNL d   1      -1.920  -2.622  -0.115  0.00  0.00    -0.004 A 
ENDROOT
TORSDOF 0
ENDMDL
