MODEL 1
REMARK minimizedAffinity -4.16199732
REMARK minimizedRMSD -1
REMARK  0 active torsions:
REMARK  status: ('A' for Active; 'I' for Inactive)
ROOT
ATOM      1  C   UNL d   1      -1.697  -0.288   1.662  0.00  0.00     0.172 C 
ATOM      2  N   UNL d   1      -1.099  -1.440   1.030  0.00  0.00    -0.070 N 
ATOM      3  C1  UNL d   1      -1.570  -2.724   1.101  0.00  0.00    -0.004 A 
ATOM      4  C2  UNL d   1      -0.723  -3.526   0.367  0.00  0.00    -0.047 A 
ATOM      5  C3  UNL d   1       0.293  -2.695  -0.163  0.00  0.00    -0.047 A 
ATOM      6  C4  UNL d   1       0.036  -1.409   0.263  0.00  0.00    -0.004 A 
ENDROOT
TORSDOF 0
ENDMDL
