MODEL 1
REMARK minimizedAffinity -2.54332781
REMARK minimizedRMSD -1
REMARK  0 active torsions:
REMARK  status: ('A' for Active; 'I' for Inactive)
ROOT
ATOM      1  C   UNL d   1       0.338   0.467  -1.465  0.00  0.00     0.172 C 
ATOM      2  N   UNL d   1       0.367  -0.665  -0.570  0.00  0.00    -0.070 N 
ATOM      3  C1  UNL d   1      -0.620  -1.008   0.315  0.00  0.00    -0.004 A 
ATOM      4  C2  UNL d   1      -0.214  -2.145   0.981  0.00  0.00    -0.047 A 
ATOM      5  C3  UNL d   1       1.062  -2.496   0.479  0.00  0.00    -0.047 A 
ATOM      6  C4  UNL d   1       1.397  -1.563  -0.479  0.00  0.00    -0.004 A 
ENDROOT
TORSDOF 0
ENDMDL
