MODEL 1
REMARK minimizedAffinity -3.28926301
REMARK minimizedRMSD -1
REMARK  0 active torsions:
REMARK  status: ('A' for Active; 'I' for Inactive)
ROOT
ATOM      1  C   UNL d   1       0.249   0.721   0.268  0.00  0.00     0.172 C 
ATOM      2  N   UNL d   1      -0.174  -0.645   0.466  0.00  0.00    -0.070 N 
ATOM      3  C1  UNL d   1      -1.414  -1.044   0.890  0.00  0.00    -0.004 A 
ATOM      4  C2  UNL d   1      -1.417  -2.421   0.949  0.00  0.00    -0.047 A 
ATOM      5  C3  UNL d   1      -0.135  -2.865   0.548  0.00  0.00    -0.047 A 
ATOM      6  C4  UNL d   1       0.614  -1.745   0.254  0.00  0.00    -0.004 A 
ENDROOT
TORSDOF 0
ENDMDL
