MODEL 1
REMARK minimizedAffinity -4.29749918
REMARK minimizedRMSD -1
REMARK  0 active torsions:
REMARK  status: ('A' for Active; 'I' for Inactive)
ROOT
ATOM      1  C   UNL d   1       0.230   0.790  -0.600  0.00  0.00     0.172 C 
ATOM      2  N   UNL d   1      -0.024  -0.537  -0.090  0.00  0.00    -0.070 N 
ATOM      3  C1  UNL d   1      -0.723  -0.835   1.049  0.00  0.00    -0.004 A 
ATOM      4  C2  UNL d   1      -0.742  -2.206   1.187  0.00  0.00    -0.047 A 
ATOM      5  C3  UNL d   1      -0.030  -2.751   0.092  0.00  0.00    -0.047 A 
ATOM      6  C4  UNL d   1       0.404  -1.696  -0.682  0.00  0.00    -0.004 A 
ENDROOT
TORSDOF 0
ENDMDL
