MODEL 1
REMARK minimizedAffinity -3.07070398
REMARK minimizedRMSD -1
REMARK  0 active torsions:
REMARK  status: ('A' for Active; 'I' for Inactive)
ROOT
ATOM      1  C   UNL d   1      -1.480  -0.000   1.234  0.00  0.00     0.172 C 
ATOM      2  N   UNL d   1      -0.872  -1.183   0.672  0.00  0.00    -0.070 N 
ATOM      3  C1  UNL d   1      -1.342  -2.462   0.804  0.00  0.00    -0.004 A 
ATOM      4  C2  UNL d   1      -0.484  -3.300   0.124  0.00  0.00    -0.047 A 
ATOM      5  C3  UNL d   1       0.537  -2.496  -0.436  0.00  0.00    -0.047 A 
ATOM      6  C4  UNL d   1       0.272  -1.190  -0.081  0.00  0.00    -0.004 A 
ENDROOT
TORSDOF 0
ENDMDL
