MODEL 1
REMARK minimizedAffinity -2.92848921
REMARK minimizedRMSD -1
REMARK  0 active torsions:
REMARK  status: ('A' for Active; 'I' for Inactive)
ROOT
ATOM      1  C   UNL d   1       0.270  -0.579  -2.406  0.00  0.00     0.172 C 
ATOM      2  N   UNL d   1      -0.202  -0.717  -1.048  0.00  0.00    -0.070 N 
ATOM      3  C1  UNL d   1      -0.861  -1.803  -0.539  0.00  0.00    -0.004 A 
ATOM      4  C2  UNL d   1      -1.138  -1.545   0.786  0.00  0.00    -0.047 A 
ATOM      5  C3  UNL d   1      -0.628  -0.259   1.083  0.00  0.00    -0.047 A 
ATOM      6  C4  UNL d   1      -0.053   0.231  -0.071  0.00  0.00    -0.004 A 
ENDROOT
TORSDOF 0
ENDMDL
