MODEL 1
REMARK minimizedAffinity -3.86225605
REMARK minimizedRMSD -1
REMARK  0 active torsions:
REMARK  status: ('A' for Active; 'I' for Inactive)
ROOT
ATOM      1  C   UNL d   1       0.327   0.863   0.743  0.00  0.00     0.172 C 
ATOM      2  N   UNL d   1       0.054  -0.544   0.571  0.00  0.00    -0.070 N 
ATOM      3  C1  UNL d   1      -1.166  -1.146   0.731  0.00  0.00    -0.004 A 
ATOM      4  C2  UNL d   1      -1.009  -2.492   0.478  0.00  0.00    -0.047 A 
ATOM      5  C3  UNL d   1       0.352  -2.706   0.154  0.00  0.00    -0.047 A 
ATOM      6  C4  UNL d   1       0.987  -1.484   0.220  0.00  0.00    -0.004 A 
ENDROOT
TORSDOF 0
ENDMDL
