MODEL 1
REMARK minimizedAffinity -3.96859002
REMARK minimizedRMSD -1
REMARK  0 active torsions:
REMARK  status: ('A' for Active; 'I' for Inactive)
ROOT
ATOM      1  C   UNL d   1      -0.211   0.139  -0.051  0.00  0.00     0.172 C 
ATOM      2  N   UNL d   1      -0.262  -1.220   0.435  0.00  0.00    -0.070 N 
ATOM      3  C1  UNL d   1       0.366  -2.295  -0.134  0.00  0.00    -0.004 A 
ATOM      4  C2  UNL d   1       0.072  -3.406   0.627  0.00  0.00    -0.047 A 
ATOM      5  C3  UNL d   1      -0.762  -2.984   1.689  0.00  0.00    -0.047 A 
ATOM      6  C4  UNL d   1      -0.953  -1.626   1.546  0.00  0.00    -0.004 A 
ENDROOT
TORSDOF 0
ENDMDL
