MODEL 1
REMARK minimizedAffinity -3.5403266
REMARK minimizedRMSD -1
REMARK  0 active torsions:
REMARK  status: ('A' for Active; 'I' for Inactive)
ROOT
ATOM      1  C   UNL d   1       0.028   0.791   0.226  0.00  0.00     0.172 C 
ATOM      2  N   UNL d   1      -0.024  -0.632   0.465  0.00  0.00    -0.070 N 
ATOM      3  C1  UNL d   1       0.927  -1.541   0.083  0.00  0.00    -0.004 A 
ATOM      4  C2  UNL d   1       0.509  -2.788   0.496  0.00  0.00    -0.047 A 
ATOM      5  C3  UNL d   1      -0.736  -2.623   1.148  0.00  0.00    -0.047 A 
ATOM      6  C4  UNL d   1      -1.042  -1.278   1.114  0.00  0.00    -0.004 A 
ENDROOT
TORSDOF 0
ENDMDL
