MODEL 1
REMARK minimizedAffinity -3.90963125
REMARK minimizedRMSD -1
REMARK  0 active torsions:
REMARK  status: ('A' for Active; 'I' for Inactive)
ROOT
ATOM      1  C   UNL d   1       0.304   0.849   0.242  0.00  0.00     0.172 C 
ATOM      2  N   UNL d   1      -0.157  -0.492   0.513  0.00  0.00    -0.070 N 
ATOM      3  C1  UNL d   1      -1.430  -0.840   0.879  0.00  0.00    -0.004 A 
ATOM      4  C2  UNL d   1      -1.463  -2.208   1.042  0.00  0.00    -0.047 A 
ATOM      5  C3  UNL d   1      -0.165  -2.699   0.765  0.00  0.00    -0.047 A 
ATOM      6  C4  UNL d   1       0.623  -1.616   0.440  0.00  0.00    -0.004 A 
ENDROOT
TORSDOF 0
ENDMDL
