MODEL 1
REMARK minimizedAffinity -3.15853834
REMARK minimizedRMSD -1
REMARK  0 active torsions:
REMARK  status: ('A' for Active; 'I' for Inactive)
ROOT
ATOM      1  C   UNL d   1      -0.107   0.437  -0.507  0.00  0.00     0.172 C 
ATOM      2  N   UNL d   1      -0.290  -0.824   0.172  0.00  0.00    -0.070 N 
ATOM      3  C1  UNL d   1      -1.347  -1.150   0.980  0.00  0.00    -0.004 A 
ATOM      4  C2  UNL d   1      -1.151  -2.437   1.432  0.00  0.00    -0.047 A 
ATOM      5  C3  UNL d   1       0.067  -2.900   0.878  0.00  0.00    -0.047 A 
ATOM      6  C4  UNL d   1       0.578  -1.882   0.102  0.00  0.00    -0.004 A 
ENDROOT
TORSDOF 0
ENDMDL
