MODEL 1
REMARK minimizedAffinity -4.20357943
REMARK minimizedRMSD -1
REMARK  0 active torsions:
REMARK  status: ('A' for Active; 'I' for Inactive)
ROOT
ATOM      1  C   UNL d   1       0.058   0.565  -0.377  0.00  0.00     0.172 C 
ATOM      2  N   UNL d   1      -0.198  -0.809  -0.013  0.00  0.00    -0.070 N 
ATOM      3  C1  UNL d   1      -0.839  -1.228   1.122  0.00  0.00    -0.004 A 
ATOM      4  C2  UNL d   1      -0.883  -2.605   1.099  0.00  0.00    -0.047 A 
ATOM      5  C3  UNL d   1      -0.245  -3.029  -0.091  0.00  0.00    -0.047 A 
ATOM      6  C4  UNL d   1       0.170  -1.897  -0.761  0.00  0.00    -0.004 A 
ENDROOT
TORSDOF 0
ENDMDL
