MODEL 1
REMARK minimizedAffinity -3.48190737
REMARK minimizedRMSD -1
REMARK  0 active torsions:
REMARK  status: ('A' for Active; 'I' for Inactive)
ROOT
ATOM      1  C   UNL d   1       2.515   2.672  -0.320  0.00  0.00     0.172 C 
ATOM      2  N   UNL d   1       1.587   3.041   0.724  0.00  0.00    -0.070 N 
ATOM      3  C1  UNL d   1       1.926   3.428   1.993  0.00  0.00    -0.004 A 
ATOM      4  C2  UNL d   1       0.761   3.694   2.678  0.00  0.00    -0.047 A 
ATOM      5  C3  UNL d   1      -0.316   3.458   1.791  0.00  0.00    -0.047 A 
ATOM      6  C4  UNL d   1       0.224   3.055   0.588  0.00  0.00    -0.004 A 
ENDROOT
TORSDOF 0
ENDMDL
