MODEL 1
REMARK minimizedAffinity -3.40631723
REMARK minimizedRMSD -1
REMARK  0 active torsions:
REMARK  status: ('A' for Active; 'I' for Inactive)
ROOT
ATOM      1  C   UNL d   1       0.014   4.099   1.982  0.00  0.00     0.172 C 
ATOM      2  N   UNL d   1       0.634   3.275   0.971  0.00  0.00    -0.070 N 
ATOM      3  C1  UNL d   1       0.037   2.232   0.315  0.00  0.00    -0.004 A 
ATOM      4  C2  UNL d   1       0.956   1.706  -0.567  0.00  0.00    -0.047 A 
ATOM      5  C3  UNL d   1       2.148   2.458  -0.434  0.00  0.00    -0.047 A 
ATOM      6  C4  UNL d   1       1.921   3.422   0.525  0.00  0.00    -0.004 A 
ENDROOT
TORSDOF 0
ENDMDL
