MODEL 1
REMARK minimizedAffinity -3.78139305
REMARK minimizedRMSD -1
REMARK  0 active torsions:
REMARK  status: ('A' for Active; 'I' for Inactive)
ROOT
ATOM      1  C   UNL d   1      -0.004   0.217  -0.087  0.00  0.00     0.172 C 
ATOM      2  N   UNL d   1      -0.009  -1.227  -0.080  0.00  0.00    -0.070 N 
ATOM      3  C1  UNL d   1      -0.120  -2.020   1.031  0.00  0.00    -0.004 A 
ATOM      4  C2  UNL d   1      -0.084  -3.334   0.617  0.00  0.00    -0.047 A 
ATOM      5  C3  UNL d   1       0.053  -3.331  -0.791  0.00  0.00    -0.047 A 
ATOM      6  C4  UNL d   1       0.097  -2.013  -1.197  0.00  0.00    -0.004 A 
ENDROOT
TORSDOF 0
ENDMDL
