MODEL 1
REMARK minimizedAffinity -6.06215715
REMARK minimizedRMSD -1
REMARK  0 active torsions:
REMARK  status: ('A' for Active; 'I' for Inactive)
ROOT
ATOM      1  C2' OXE d   1       0.734  -0.086  -0.614  0.00  0.00     0.078 C 
ATOM      2  C1' OXE d   1      -0.561  -0.540   1.835  0.00  0.00     0.078 C 
ATOM      3  C1  OXE d   1      -0.806   0.778   1.143  0.00  0.00    -0.078 A 
ATOM      4  C2  OXE d   1      -0.132   1.010  -0.032  0.00  0.00    -0.078 A 
ATOM      5  C3  OXE d   1      -0.364   2.186  -0.739  0.00  0.00     0.003 A 
ATOM      6  C4  OXE d   1      -1.159   3.199  -0.188  0.00  0.00    -0.002 A 
ATOM      7  C5  OXE d   1      -1.823   2.999   1.026  0.00  0.00    -0.002 A 
ATOM      8  C6  OXE d   1      -1.691   1.780   1.682  0.00  0.00     0.003 A 
ENDROOT
TORSDOF 0
ENDMDL
