MODEL 1
REMARK minimizedAffinity -3.69301653
REMARK minimizedRMSD -1
REMARK  0 active torsions:
REMARK  status: ('A' for Active; 'I' for Inactive)
ROOT
ATOM      1  C2' OXE d   1       1.431  -0.706  -0.653  0.00  0.00     0.078 C 
ATOM      2  C1' OXE d   1       0.328   1.859  -0.940  0.00  0.00     0.078 C 
ATOM      3  C1  OXE d   1      -0.202   0.985   0.169  0.00  0.00    -0.078 A 
ATOM      4  C2  OXE d   1       0.311  -0.286   0.273  0.00  0.00    -0.078 A 
ATOM      5  C3  OXE d   1      -0.103  -1.114   1.312  0.00  0.00     0.003 A 
ATOM      6  C4  OXE d   1      -1.147  -0.721   2.159  0.00  0.00    -0.002 A 
ATOM      7  C5  OXE d   1      -1.711   0.555   2.045  0.00  0.00    -0.002 A 
ATOM      8  C6  OXE d   1      -1.222   1.433   1.085  0.00  0.00     0.003 A 
ENDROOT
TORSDOF 0
ENDMDL
