MODEL 1
REMARK minimizedAffinity -4.71654177
REMARK minimizedRMSD -1
REMARK  0 active torsions:
REMARK  status: ('A' for Active; 'I' for Inactive)
ROOT
ATOM      1  C2' OXE d   1       0.910  -0.349   1.500  0.00  0.00     0.078 C 
ATOM      2  C1' OXE d   1       0.478  -0.578  -1.264  0.00  0.00     0.078 C 
ATOM      3  C1  OXE d   1      -0.513   0.228  -0.461  0.00  0.00    -0.078 A 
ATOM      4  C2  OXE d   1      -0.320   0.296   0.898  0.00  0.00    -0.078 A 
ATOM      5  C3  OXE d   1      -1.173   1.071   1.677  0.00  0.00     0.003 A 
ATOM      6  C4  OXE d   1      -2.313   1.656   1.113  0.00  0.00    -0.002 A 
ATOM      7  C5  OXE d   1      -2.551   1.565  -0.262  0.00  0.00    -0.002 A 
ATOM      8  C6  OXE d   1      -1.640   0.892  -1.068  0.00  0.00     0.003 A 
ENDROOT
TORSDOF 0
ENDMDL
