MODEL 1
REMARK minimizedAffinity -4.20415258
REMARK minimizedRMSD -1
REMARK  0 active torsions:
REMARK  status: ('A' for Active; 'I' for Inactive)
ROOT
ATOM      1  C2' OXE d   1      -0.152  -1.146   2.186  0.00  0.00     0.078 C 
ATOM      2  C1' OXE d   1       0.772  -0.585  -0.405  0.00  0.00     0.078 C 
ATOM      3  C1  OXE d   1      -0.287   0.318   0.175  0.00  0.00    -0.078 A 
ATOM      4  C2  OXE d   1      -0.767   0.009   1.425  0.00  0.00    -0.078 A 
ATOM      5  C3  OXE d   1      -1.705   0.841   2.029  0.00  0.00     0.003 A 
ATOM      6  C4  OXE d   1      -2.276   1.901   1.315  0.00  0.00    -0.002 A 
ATOM      7  C5  OXE d   1      -1.831   2.210   0.025  0.00  0.00    -0.002 A 
ATOM      8  C6  OXE d   1      -0.809   1.456  -0.542  0.00  0.00     0.003 A 
ENDROOT
TORSDOF 0
ENDMDL
