MODEL 1
REMARK minimizedAffinity -2.5132153
REMARK minimizedRMSD -1
REMARK  0 active torsions:
REMARK  status: ('A' for Active; 'I' for Inactive)
ROOT
ATOM      1  C2' OXE d   1      -0.565  -2.202  -3.337  0.00  0.00     0.078 C 
ATOM      2  C1' OXE d   1       0.939  -1.014  -1.286  0.00  0.00     0.078 C 
ATOM      3  C1  OXE d   1       0.912  -2.520  -1.357  0.00  0.00    -0.078 A 
ATOM      4  C2  OXE d   1       0.136  -3.094  -2.335  0.00  0.00    -0.078 A 
ATOM      5  C3  OXE d   1       0.120  -4.478  -2.480  0.00  0.00     0.003 A 
ATOM      6  C4  OXE d   1       0.763  -5.296  -1.543  0.00  0.00    -0.002 A 
ATOM      7  C5  OXE d   1       1.527  -4.733  -0.515  0.00  0.00    -0.002 A 
ATOM      8  C6  OXE d   1       1.646  -3.350  -0.433  0.00  0.00     0.003 A 
ENDROOT
TORSDOF 0
ENDMDL
