MODEL 1
REMARK minimizedAffinity -3.48472381
REMARK minimizedRMSD -1
REMARK  0 active torsions:
REMARK  status: ('A' for Active; 'I' for Inactive)
ROOT
ATOM      1  C2' OXE d   1      -2.139   1.681   1.228  0.00  0.00     0.078 C 
ATOM      2  C1' OXE d   1      -1.208  -0.933   1.658  0.00  0.00     0.078 C 
ATOM      3  C1  OXE d   1      -0.556  -0.124   0.565  0.00  0.00    -0.078 A 
ATOM      4  C2  OXE d   1      -1.049   1.137   0.330  0.00  0.00    -0.078 A 
ATOM      5  C3  OXE d   1      -0.447   1.945  -0.630  0.00  0.00     0.003 A 
ATOM      6  C4  OXE d   1       0.554   1.431  -1.463  0.00  0.00    -0.002 A 
ATOM      7  C5  OXE d   1       1.044   0.135  -1.268  0.00  0.00    -0.002 A 
ATOM      8  C6  OXE d   1       0.530  -0.639  -0.233  0.00  0.00     0.003 A 
ENDROOT
TORSDOF 0
ENDMDL
