MODEL 1
REMARK minimizedAffinity -1.39519525
REMARK minimizedRMSD -1
REMARK  0 active torsions:
REMARK  status: ('A' for Active; 'I' for Inactive)
ROOT
ATOM      1  C2' OXE d   1      -0.061  -0.804   2.074  0.00  0.00     0.078 C 
ATOM      2  C1' OXE d   1      -1.378   1.655   1.755  0.00  0.00     0.078 C 
ATOM      3  C1  OXE d   1      -0.537   1.153   0.607  0.00  0.00    -0.078 A 
ATOM      4  C2  OXE d   1       0.141  -0.028   0.790  0.00  0.00    -0.078 A 
ATOM      5  C3  OXE d   1       0.887  -0.564  -0.256  0.00  0.00     0.003 A 
ATOM      6  C4  OXE d   1       1.077   0.165  -1.437  0.00  0.00    -0.002 A 
ATOM      7  C5  OXE d   1       0.427   1.389  -1.628  0.00  0.00    -0.002 A 
ATOM      8  C6  OXE d   1      -0.415   1.875  -0.635  0.00  0.00     0.003 A 
ENDROOT
TORSDOF 0
ENDMDL
