MODEL 1
REMARK minimizedAffinity -0.608244896
REMARK minimizedRMSD -1
REMARK  0 active torsions:
REMARK  status: ('A' for Active; 'I' for Inactive)
ROOT
ATOM      1  C2' OXE d   1       0.316   1.240  -1.175  0.00  0.00     0.078 C 
ATOM      2  C1' OXE d   1       0.763  -0.375   1.077  0.00  0.00     0.078 C 
ATOM      3  C1  OXE d   1       0.814  -1.031  -0.281  0.00  0.00    -0.078 A 
ATOM      4  C2  OXE d   1       0.548  -0.243  -1.374  0.00  0.00    -0.078 A 
ATOM      5  C3  OXE d   1       0.636  -0.785  -2.653  0.00  0.00     0.003 A 
ATOM      6  C4  OXE d   1       0.842  -2.159  -2.827  0.00  0.00    -0.002 A 
ATOM      7  C5  OXE d   1       1.075  -2.988  -1.725  0.00  0.00    -0.002 A 
ATOM      8  C6  OXE d   1       1.107  -2.433  -0.450  0.00  0.00     0.003 A 
ENDROOT
TORSDOF 0
ENDMDL
