MODEL 1
REMARK minimizedAffinity -3.14312482
REMARK minimizedRMSD -1
REMARK  0 active torsions:
REMARK  status: ('A' for Active; 'I' for Inactive)
ROOT
ATOM      1  C2' OXE d   1       0.331  -1.207   1.996  0.00  0.00     0.078 C 
ATOM      2  C1' OXE d   1       0.695  -0.917  -0.772  0.00  0.00     0.078 C 
ATOM      3  C1  OXE d   1      -0.209   0.069  -0.074  0.00  0.00    -0.078 A 
ATOM      4  C2  OXE d   1      -0.418  -0.110   1.272  0.00  0.00    -0.078 A 
ATOM      5  C3  OXE d   1      -1.200   0.803   1.975  0.00  0.00     0.003 A 
ATOM      6  C4  OXE d   1      -1.897   1.810   1.296  0.00  0.00    -0.002 A 
ATOM      7  C5  OXE d   1      -1.729   1.984  -0.082  0.00  0.00    -0.002 A 
ATOM      8  C6  OXE d   1      -0.858   1.150  -0.773  0.00  0.00     0.003 A 
ENDROOT
TORSDOF 0
ENDMDL
