MODEL 1
REMARK minimizedAffinity -4.81465197
REMARK minimizedRMSD -1
REMARK  0 active torsions:
REMARK  status: ('A' for Active; 'I' for Inactive)
ROOT
ATOM      1  C2' OXE d   1      -0.000  -0.981   1.811  0.00  0.00     0.078 C 
ATOM      2  C1' OXE d   1       1.013  -0.299  -0.716  0.00  0.00     0.078 C 
ATOM      3  C1  OXE d   1       0.000   0.627  -0.091  0.00  0.00    -0.078 A 
ATOM      4  C2  OXE d   1      -0.525   0.262   1.125  0.00  0.00    -0.078 A 
ATOM      5  C3  OXE d   1      -1.422   1.107   1.771  0.00  0.00     0.003 A 
ATOM      6  C4  OXE d   1      -1.910   2.250   1.125  0.00  0.00    -0.002 A 
ATOM      7  C5  OXE d   1      -1.418   2.620  -0.131  0.00  0.00    -0.002 A 
ATOM      8  C6  OXE d   1      -0.433   1.844  -0.733  0.00  0.00     0.003 A 
ENDROOT
TORSDOF 0
ENDMDL
