MODEL 1
REMARK minimizedAffinity -4.03162956
REMARK minimizedRMSD -1
REMARK  0 active torsions:
REMARK  status: ('A' for Active; 'I' for Inactive)
ROOT
ATOM      1  C2' OXE d   1      -2.341   1.703   1.201  0.00  0.00     0.078 C 
ATOM      2  C1' OXE d   1      -0.753   2.303  -1.034  0.00  0.00     0.078 C 
ATOM      3  C1  OXE d   1      -0.393   1.084  -0.223  0.00  0.00    -0.078 A 
ATOM      4  C2  OXE d   1      -1.147   0.825   0.896  0.00  0.00    -0.078 A 
ATOM      5  C3  OXE d   1      -0.892  -0.318   1.650  0.00  0.00     0.003 A 
ATOM      6  C4  OXE d   1       0.220  -1.120   1.367  0.00  0.00    -0.002 A 
ATOM      7  C5  OXE d   1       1.025  -0.851   0.255  0.00  0.00    -0.002 A 
ATOM      8  C6  OXE d   1       0.707   0.221  -0.573  0.00  0.00     0.003 A 
ENDROOT
TORSDOF 0
ENDMDL
