MODEL 1
REMARK minimizedAffinity -6.23284483
REMARK minimizedRMSD -1
REMARK  0 active torsions:
REMARK  status: ('A' for Active; 'I' for Inactive)
ROOT
ATOM      1  C2' OXE d   1       0.208  -0.972   2.344  0.00  0.00     0.078 C 
ATOM      2  C1' OXE d   1       0.474  -1.053  -0.449  0.00  0.00     0.078 C 
ATOM      3  C1  OXE d   1      -0.194   0.155   0.159  0.00  0.00    -0.078 A 
ATOM      4  C2  OXE d   1      -0.362   0.165   1.523  0.00  0.00    -0.078 A 
ATOM      5  C3  OXE d   1      -0.922   1.279   2.140  0.00  0.00     0.003 A 
ATOM      6  C4  OXE d   1      -1.455   2.322   1.373  0.00  0.00    -0.002 A 
ATOM      7  C5  OXE d   1      -1.330   2.313  -0.020  0.00  0.00    -0.002 A 
ATOM      8  C6  OXE d   1      -0.666   1.260  -0.639  0.00  0.00     0.003 A 
ENDROOT
TORSDOF 0
ENDMDL
