MODEL 1
REMARK minimizedAffinity -4.60370636
REMARK minimizedRMSD -1
REMARK  0 active torsions:
REMARK  status: ('A' for Active; 'I' for Inactive)
ROOT
ATOM      1  C2' OXE d   1       1.415   0.068  -0.751  0.00  0.00     0.078 C 
ATOM      2  C1' OXE d   1       0.094   2.483  -1.300  0.00  0.00     0.078 C 
ATOM      3  C1  OXE d   1      -0.426   1.639  -0.163  0.00  0.00    -0.078 A 
ATOM      4  C2  OXE d   1       0.197   0.436   0.069  0.00  0.00    -0.078 A 
ATOM      5  C3  OXE d   1      -0.208  -0.355   1.139  0.00  0.00     0.003 A 
ATOM      6  C4  OXE d   1      -1.342  -0.012   1.886  0.00  0.00    -0.002 A 
ATOM      7  C5  OXE d   1      -2.016   1.189   1.641  0.00  0.00    -0.002 A 
ATOM      8  C6  OXE d   1      -1.546   2.044   0.650  0.00  0.00     0.003 A 
ENDROOT
TORSDOF 0
ENDMDL
