MODEL 1
REMARK minimizedAffinity -6.16011477
REMARK minimizedRMSD -1
REMARK  0 active torsions:
REMARK  status: ('A' for Active; 'I' for Inactive)
ROOT
ATOM      1  C2' OXE d   1       1.282   0.530  -0.639  0.00  0.00     0.078 C 
ATOM      2  C1' OXE d   1       0.709   3.199  -1.295  0.00  0.00     0.078 C 
ATOM      3  C1  OXE d   1      -0.209   2.501  -0.323  0.00  0.00    -0.078 A 
ATOM      4  C2  OXE d   1       0.052   1.181  -0.044  0.00  0.00    -0.078 A 
ATOM      5  C3  OXE d   1      -0.732   0.505   0.888  0.00  0.00     0.003 A 
ATOM      6  C4  OXE d   1      -1.873   1.111   1.426  0.00  0.00    -0.002 A 
ATOM      7  C5  OXE d   1      -2.180   2.442   1.125  0.00  0.00    -0.002 A 
ATOM      8  C6  OXE d   1      -1.336   3.163   0.287  0.00  0.00     0.003 A 
ENDROOT
TORSDOF 0
ENDMDL
