MODEL 1
REMARK minimizedAffinity -4.9368639
REMARK minimizedRMSD -1
REMARK  0 active torsions:
REMARK  status: ('A' for Active; 'I' for Inactive)
ROOT
ATOM      1  C2' OXE d   1       0.743  -1.096  -0.722  0.00  0.00     0.078 C 
ATOM      2  C1' OXE d   1       0.350  -1.322   2.048  0.00  0.00     0.078 C 
ATOM      3  C1  OXE d   1      -0.244  -0.125   1.349  0.00  0.00    -0.078 A 
ATOM      4  C2  OXE d   1      -0.007   0.002   0.001  0.00  0.00    -0.078 A 
ATOM      5  C3  OXE d   1      -0.578   1.058  -0.703  0.00  0.00     0.003 A 
ATOM      6  C4  OXE d   1      -1.261   2.075  -0.025  0.00  0.00    -0.002 A 
ATOM      7  C5  OXE d   1      -1.480   1.986   1.354  0.00  0.00    -0.002 A 
ATOM      8  C6  OXE d   1      -1.016   0.873   2.047  0.00  0.00     0.003 A 
ENDROOT
TORSDOF 0
ENDMDL
