MODEL 1
REMARK minimizedAffinity -5.41915655
REMARK minimizedRMSD -1
REMARK  0 active torsions:
REMARK  status: ('A' for Active; 'I' for Inactive)
ROOT
ATOM      1  C2' OXE d   1      -1.050  -0.864   2.338  0.00  0.00     0.078 C 
ATOM      2  C1' OXE d   1      -2.117   1.648   1.680  0.00  0.00     0.078 C 
ATOM      3  C1  OXE d   1      -1.071   1.066   0.763  0.00  0.00    -0.078 A 
ATOM      4  C2  OXE d   1      -0.521  -0.142   1.117  0.00  0.00    -0.078 A 
ATOM      5  C3  OXE d   1       0.409  -0.749   0.278  0.00  0.00     0.003 A 
ATOM      6  C4  OXE d   1       0.901  -0.071  -0.844  0.00  0.00    -0.002 A 
ATOM      7  C5  OXE d   1       0.382   1.179  -1.201  0.00  0.00    -0.002 A 
ATOM      8  C6  OXE d   1      -0.632   1.741  -0.434  0.00  0.00     0.003 A 
ENDROOT
TORSDOF 0
ENDMDL
