MODEL 1
REMARK minimizedAffinity -5.64118481
REMARK minimizedRMSD -1
REMARK  0 active torsions:
REMARK  status: ('A' for Active; 'I' for Inactive)
ROOT
ATOM      1  C2' OXE d   1       1.458   0.979  -1.757  0.00  0.00     0.078 C 
ATOM      2  C1' OXE d   1      -1.177   0.081  -1.391  0.00  0.00     0.078 C 
ATOM      3  C1  OXE d   1      -0.953   1.566  -1.534  0.00  0.00    -0.078 A 
ATOM      4  C2  OXE d   1       0.344   2.000  -1.666  0.00  0.00    -0.078 A 
ATOM      5  C3  OXE d   1       0.602   3.355  -1.857  0.00  0.00     0.003 A 
ATOM      6  C4  OXE d   1      -0.433   4.293  -1.761  0.00  0.00    -0.002 A 
ATOM      7  C5  OXE d   1      -1.757   3.875  -1.587  0.00  0.00    -0.002 A 
ATOM      8  C6  OXE d   1      -2.038   2.516  -1.515  0.00  0.00     0.003 A 
ENDROOT
TORSDOF 0
ENDMDL
