MODEL 1
REMARK minimizedAffinity 4.37880802
REMARK minimizedRMSD -1
REMARK  1 active torsions:
REMARK  status: ('A' for Active; 'I' for Inactive)
REMARK    1  A    between atoms: C1_2  and  C2_3 
ROOT
ATOM      1  C2  UNL d   1      -2.929   0.266  -1.343  0.00  0.00    -0.077 A 
ATOM      2  C3  UNL d   1      -3.205  -1.009  -1.856  0.00  0.00     0.002 A 
ATOM      3  C4  UNL d   1      -2.173  -1.811  -2.347  0.00  0.00     0.002 A 
ATOM      4  C5  UNL d   1      -0.859  -1.348  -2.326  0.00  0.00    -0.004 A 
ATOM      5  C6  UNL d   1      -0.575  -0.081  -1.820  0.00  0.00     0.002 A 
ATOM      6  C7  UNL d   1      -1.605   0.723  -1.330  0.00  0.00     0.002 A 
ENDROOT
BRANCH   1   7
ATOM      7  C1  UNL d   1      -4.035   1.113  -0.768  0.00  0.00     0.055 C 
ATOM      8  C   UNL d   1      -4.543   2.125  -1.784  0.00  0.00     0.019 C 
ENDBRANCH   1   7
TORSDOF 1
ENDMDL
