MODEL 1
REMARK minimizedAffinity 3.92931867
REMARK minimizedRMSD -1
REMARK  1 active torsions:
REMARK  status: ('A' for Active; 'I' for Inactive)
REMARK    1  A    between atoms: C1_2  and  C2_3 
ROOT
ATOM      1  C2  UNL d   1      -0.504   3.286   0.495  0.00  0.00    -0.077 A 
ATOM      2  C3  UNL d   1       0.672   2.970   1.189  0.00  0.00     0.002 A 
ATOM      3  C4  UNL d   1       0.611   2.360   2.443  0.00  0.00     0.002 A 
ATOM      4  C5  UNL d   1      -0.624   2.057   3.012  0.00  0.00    -0.004 A 
ATOM      5  C6  UNL d   1      -1.800   2.370   2.332  0.00  0.00     0.002 A 
ATOM      6  C7  UNL d   1      -1.741   2.981   1.078  0.00  0.00     0.002 A 
ENDROOT
BRANCH   1   7
ATOM      7  C1  UNL d   1      -0.439   3.900  -0.879  0.00  0.00     0.055 C 
ATOM      8  C   UNL d   1      -0.709   5.397  -0.831  0.00  0.00     0.019 C 
ENDBRANCH   1   7
TORSDOF 1
ENDMDL
