MODEL 1
REMARK minimizedAffinity 8.77432537
REMARK minimizedRMSD -1
REMARK  1 active torsions:
REMARK  status: ('A' for Active; 'I' for Inactive)
REMARK    1  A    between atoms: C1_2  and  C2_3 
ROOT
ATOM      1  C2  UNL d   1      -1.896  -0.983  -2.112  0.00  0.00    -0.077 A 
ATOM      2  C3  UNL d   1      -2.120  -1.468  -3.408  0.00  0.00     0.002 A 
ATOM      3  C4  UNL d   1      -1.044  -1.818  -4.227  0.00  0.00     0.002 A 
ATOM      4  C5  UNL d   1       0.261  -1.690  -3.757  0.00  0.00    -0.004 A 
ATOM      5  C6  UNL d   1       0.494  -1.206  -2.470  0.00  0.00     0.002 A 
ATOM      6  C7  UNL d   1      -0.579  -0.855  -1.651  0.00  0.00     0.002 A 
ENDROOT
BRANCH   1   7
ATOM      7  C1  UNL d   1      -3.056  -0.652  -1.210  0.00  0.00     0.055 C 
ATOM      8  C   UNL d   1      -3.608   0.736  -1.504  0.00  0.00     0.019 C 
ENDBRANCH   1   7
TORSDOF 1
ENDMDL
