MODEL 1
REMARK minimizedAffinity -2.02929544
REMARK minimizedRMSD -1
REMARK  1 active torsions:
REMARK  status: ('A' for Active; 'I' for Inactive)
REMARK    1  A    between atoms: C1_2  and  C2_3 
ROOT
ATOM      1  C2  UNL d   1      -1.074   1.250  -1.119  0.00  0.00    -0.077 A 
ATOM      2  C3  UNL d   1      -0.145   0.204  -1.220  0.00  0.00     0.002 A 
ATOM      3  C4  UNL d   1      -0.577  -1.122  -1.265  0.00  0.00     0.002 A 
ATOM      4  C5  UNL d   1      -1.938  -1.416  -1.215  0.00  0.00    -0.004 A 
ATOM      5  C6  UNL d   1      -2.870  -0.383  -1.113  0.00  0.00     0.002 A 
ATOM      6  C7  UNL d   1      -2.439   0.944  -1.066  0.00  0.00     0.002 A 
ENDROOT
BRANCH   1   7
ATOM      7  C1  UNL d   1      -0.612   2.684  -1.120  0.00  0.00     0.055 C 
ATOM      8  C   UNL d   1       0.101   3.036   0.177  0.00  0.00     0.019 C 
ENDBRANCH   1   7
TORSDOF 1
ENDMDL
