MODEL 1
REMARK minimizedAffinity 7.88044786
REMARK minimizedRMSD -1
REMARK  0 active torsions:
REMARK  status: ('A' for Active; 'I' for Inactive)
ROOT
ATOM      1  C4' PXY d   1       3.881  -0.570  -4.191  0.00  0.00     0.077 C 
ATOM      2  C1' PXY d   1      -1.128  -3.451  -4.015  0.00  0.00     0.077 C 
ATOM      3  C1  PXY d   1       0.181  -2.687  -4.052  0.00  0.00    -0.082 A 
ATOM      4  C2  PXY d   1       0.943  -2.746  -5.133  0.00  0.00     0.003 A 
ATOM      5  C3  PXY d   1       2.145  -2.087  -5.171  0.00  0.00     0.003 A 
ATOM      6  C4  PXY d   1       2.547  -1.317  -4.113  0.00  0.00    -0.082 A 
ATOM      7  C5  PXY d   1       1.770  -1.243  -3.011  0.00  0.00     0.003 A 
ATOM      8  C6  PXY d   1       0.573  -1.952  -2.976  0.00  0.00     0.003 A 
ENDROOT
TORSDOF 0
ENDMDL
