MODEL 1
REMARK minimizedAffinity 7.36242294
REMARK minimizedRMSD -1
REMARK  0 active torsions:
REMARK  status: ('A' for Active; 'I' for Inactive)
ROOT
ATOM      1  C4' PXY d   1      -3.499  -2.024  -1.535  0.00  0.00     0.077 C 
ATOM      2  C1' PXY d   1       0.069  -2.905  -5.997  0.00  0.00     0.077 C 
ATOM      3  C1  PXY d   1      -0.875  -2.682  -4.832  0.00  0.00    -0.082 A 
ATOM      4  C2  PXY d   1      -0.755  -1.592  -4.092  0.00  0.00     0.003 A 
ATOM      5  C3  PXY d   1      -1.580  -1.389  -3.016  0.00  0.00     0.003 A 
ATOM      6  C4  PXY d   1      -2.573  -2.286  -2.726  0.00  0.00    -0.082 A 
ATOM      7  C5  PXY d   1      -2.710  -3.396  -3.483  0.00  0.00     0.003 A 
ATOM      8  C6  PXY d   1      -1.835  -3.603  -4.546  0.00  0.00     0.003 A 
ENDROOT
TORSDOF 0
ENDMDL
