MODEL 1
REMARK minimizedAffinity 0.213553876
REMARK minimizedRMSD -1
REMARK  0 active torsions:
REMARK  status: ('A' for Active; 'I' for Inactive)
ROOT
ATOM      1  C4' PXY d   1      -0.545  -5.963   0.738  0.00  0.00     0.077 C 
ATOM      2  C1' PXY d   1       1.875  -5.995   5.988  0.00  0.00     0.077 C 
ATOM      3  C1  PXY d   1       1.251  -5.981   4.606  0.00  0.00    -0.082 A 
ATOM      4  C2  PXY d   1      -0.066  -5.979   4.483  0.00  0.00     0.003 A 
ATOM      5  C3  PXY d   1      -0.647  -5.999   3.241  0.00  0.00     0.003 A 
ATOM      6  C4  PXY d   1       0.128  -5.967   2.113  0.00  0.00    -0.082 A 
ATOM      7  C5  PXY d   1       1.473  -5.958   2.230  0.00  0.00     0.003 A 
ATOM      8  C6  PXY d   1       2.043  -5.980   3.500  0.00  0.00     0.003 A 
ENDROOT
TORSDOF 0
ENDMDL
