MODEL 1
REMARK minimizedAffinity 6.33590508
REMARK minimizedRMSD -1
REMARK  0 active torsions:
REMARK  status: ('A' for Active; 'I' for Inactive)
ROOT
ATOM      1  C4' PXY d   1      -0.992   0.918  -1.673  0.00  0.00     0.077 C 
ATOM      2  C1' PXY d   1      -2.583  -3.831  -4.558  0.00  0.00     0.077 C 
ATOM      3  C1  PXY d   1      -2.178  -2.584  -3.797  0.00  0.00    -0.082 A 
ATOM      4  C2  PXY d   1      -1.117  -1.896  -4.187  0.00  0.00     0.003 A 
ATOM      5  C3  PXY d   1      -0.718  -0.784  -3.491  0.00  0.00     0.003 A 
ATOM      6  C4  PXY d   1      -1.443  -0.341  -2.417  0.00  0.00    -0.082 A 
ATOM      7  C5  PXY d   1      -2.533  -1.032  -2.020  0.00  0.00     0.003 A 
ATOM      8  C6  PXY d   1      -2.898  -2.182  -2.715  0.00  0.00     0.003 A 
ENDROOT
TORSDOF 0
ENDMDL
