MODEL 1
REMARK minimizedAffinity 1.93953919
REMARK minimizedRMSD -1
REMARK  0 active torsions:
REMARK  status: ('A' for Active; 'I' for Inactive)
ROOT
ATOM      1  C4' PXY d   1       1.864  -5.306   5.973  0.00  0.00     0.077 C 
ATOM      2  C1' PXY d   1      -0.524  -6.000   0.755  0.00  0.00     0.077 C 
ATOM      3  C1  PXY d   1       0.114  -5.820   2.118  0.00  0.00    -0.082 A 
ATOM      4  C2  PXY d   1      -0.613  -5.999   3.209  0.00  0.00     0.003 A 
ATOM      5  C3  PXY d   1      -0.061  -5.809   4.450  0.00  0.00     0.003 A 
ATOM      6  C4  PXY d   1       1.264  -5.486   4.576  0.00  0.00    -0.082 A 
ATOM      7  C5  PXY d   1       2.015  -5.313   3.468  0.00  0.00     0.003 A 
ATOM      8  C6  PXY d   1       1.425  -5.469   2.217  0.00  0.00     0.003 A 
ENDROOT
TORSDOF 0
ENDMDL
