MODEL 1
REMARK minimizedAffinity 5.71485519
REMARK minimizedRMSD -1
REMARK  0 active torsions:
REMARK  status: ('A' for Active; 'I' for Inactive)
ROOT
ATOM      1  C4' PXY d   1      -2.869  -0.721  -2.490  0.00  0.00     0.077 C 
ATOM      2  C1' PXY d   1       0.623   0.795   1.860  0.00  0.00     0.077 C 
ATOM      3  C1  PXY d   1      -0.293   0.385   0.724  0.00  0.00    -0.082 A 
ATOM      4  C2  PXY d   1      -0.293   1.083  -0.400  0.00  0.00     0.003 A 
ATOM      5  C3  PXY d   1      -1.138   0.745  -1.426  0.00  0.00     0.003 A 
ATOM      6  C4  PXY d   1      -1.954  -0.349  -1.320  0.00  0.00    -0.082 A 
ATOM      7  C5  PXY d   1      -1.952  -1.072  -0.180  0.00  0.00     0.003 A 
ATOM      8  C6  PXY d   1      -1.117  -0.688   0.865  0.00  0.00     0.003 A 
ENDROOT
TORSDOF 0
ENDMDL
