MODEL 1
REMARK minimizedAffinity 3.28575373
REMARK minimizedRMSD -1
REMARK  0 active torsions:
REMARK  status: ('A' for Active; 'I' for Inactive)
ROOT
ATOM      1  C4' PXY d   1      -1.347  -5.996  -0.044  0.00  0.00     0.077 C 
ATOM      2  C1' PXY d   1       0.796  -5.982   5.325  0.00  0.00     0.077 C 
ATOM      3  C1  PXY d   1       0.223  -5.991   3.922  0.00  0.00    -0.082 A 
ATOM      4  C2  PXY d   1       1.041  -5.999   2.881  0.00  0.00     0.003 A 
ATOM      5  C3  PXY d   1       0.539  -5.974   1.605  0.00  0.00     0.003 A 
ATOM      6  C4  PXY d   1      -0.813  -5.997   1.391  0.00  0.00    -0.082 A 
ATOM      7  C5  PXY d   1      -1.653  -6.000   2.448  0.00  0.00     0.003 A 
ATOM      8  C6  PXY d   1      -1.125  -5.983   3.735  0.00  0.00     0.003 A 
ENDROOT
TORSDOF 0
ENDMDL
