MODEL 1
REMARK minimizedAffinity 3.81399846
REMARK minimizedRMSD -1
REMARK  0 active torsions:
REMARK  status: ('A' for Active; 'I' for Inactive)
ROOT
ATOM      1  C4' PXY d   1       1.261  -6.000   1.531  0.00  0.00     0.077 C 
ATOM      2  C1' PXY d   1      -3.427  -2.642   1.934  0.00  0.00     0.077 C 
ATOM      3  C1  PXY d   1      -2.202  -3.529   1.839  0.00  0.00    -0.082 A 
ATOM      4  C2  PXY d   1      -1.097  -3.062   1.280  0.00  0.00     0.003 A 
ATOM      5  C3  PXY d   1       0.009  -3.862   1.156  0.00  0.00     0.003 A 
ATOM      6  C4  PXY d   1       0.003  -5.136   1.658  0.00  0.00    -0.082 A 
ATOM      7  C5  PXY d   1      -1.116  -5.616   2.239  0.00  0.00     0.003 A 
ATOM      8  C6  PXY d   1      -2.243  -4.802   2.318  0.00  0.00     0.003 A 
ENDROOT
TORSDOF 0
ENDMDL
