MODEL 1
REMARK minimizedAffinity 6.16858959
REMARK minimizedRMSD -1
REMARK  0 active torsions:
REMARK  status: ('A' for Active; 'I' for Inactive)
ROOT
ATOM      1  C4' PXY d   1       1.496   1.662  -0.282  0.00  0.00     0.077 C 
ATOM      2  C1' PXY d   1      -1.341  -1.818   3.360  0.00  0.00     0.077 C 
ATOM      3  C1  PXY d   1      -0.602  -0.895   2.410  0.00  0.00    -0.082 A 
ATOM      4  C2  PXY d   1      -0.181  -1.357   1.245  0.00  0.00     0.003 A 
ATOM      5  C3  PXY d   1       0.517  -0.545   0.388  0.00  0.00     0.003 A 
ATOM      6  C4  PXY d   1       0.738   0.768   0.704  0.00  0.00    -0.082 A 
ATOM      7  C5  PXY d   1       0.302   1.251   1.887  0.00  0.00     0.003 A 
ATOM      8  C6  PXY d   1      -0.368   0.399   2.761  0.00  0.00     0.003 A 
ENDROOT
TORSDOF 0
ENDMDL
