MODEL 1
REMARK minimizedAffinity 4.87135696
REMARK minimizedRMSD -1
REMARK  0 active torsions:
REMARK  status: ('A' for Active; 'I' for Inactive)
ROOT
ATOM      1  C4' PXY d   1       4.580   1.093   2.840  0.00  0.00     0.077 C 
ATOM      2  C1' PXY d   1      -0.674  -0.502   1.033  0.00  0.00     0.077 C 
ATOM      3  C1  PXY d   1       0.707  -0.096   1.509  0.00  0.00    -0.082 A 
ATOM      4  C2  PXY d   1       0.909   1.131   1.961  0.00  0.00     0.003 A 
ATOM      5  C3  PXY d   1       2.158   1.524   2.366  0.00  0.00     0.003 A 
ATOM      6  C4  PXY d   1       3.201   0.637   2.357  0.00  0.00    -0.082 A 
ATOM      7  C5  PXY d   1       3.001  -0.620   1.908  0.00  0.00     0.003 A 
ATOM      8  C6  PXY d   1       1.734  -0.988   1.463  0.00  0.00     0.003 A 
ENDROOT
TORSDOF 0
ENDMDL
