MODEL 1
REMARK minimizedAffinity 5.35020351
REMARK minimizedRMSD -1
REMARK  0 active torsions:
REMARK  status: ('A' for Active; 'I' for Inactive)
ROOT
ATOM      1  C4' PXY d   1      -1.150  -5.992   3.257  0.00  0.00     0.077 C 
ATOM      2  C1' PXY d   1       4.630  -5.986   3.340  0.00  0.00     0.077 C 
ATOM      3  C1  PXY d   1       3.114  -5.993   3.330  0.00  0.00    -0.082 A 
ATOM      4  C2  PXY d   1       2.467  -6.000   2.176  0.00  0.00     0.003 A 
ATOM      5  C3  PXY d   1       1.097  -5.974   2.149  0.00  0.00     0.003 A 
ATOM      6  C4  PXY d   1       0.380  -5.994   3.315  0.00  0.00    -0.082 A 
ATOM      7  C5  PXY d   1       1.032  -5.998   4.497  0.00  0.00     0.003 A 
ATOM      8  C6  PXY d   1       2.424  -5.983   4.503  0.00  0.00     0.003 A 
ENDROOT
TORSDOF 0
ENDMDL
