MODEL 1
REMARK minimizedAffinity 4.97217321
REMARK minimizedRMSD -1
REMARK  0 active torsions:
REMARK  status: ('A' for Active; 'I' for Inactive)
ROOT
ATOM      1  C4' PXY d   1      -5.286  -1.254   3.235  0.00  0.00     0.077 C 
ATOM      2  C1' PXY d   1      -5.248   3.825   5.996  0.00  0.00     0.077 C 
ATOM      3  C1  PXY d   1      -5.253   2.487   5.282  0.00  0.00    -0.082 A 
ATOM      4  C2  PXY d   1      -5.250   2.451   3.960  0.00  0.00     0.003 A 
ATOM      5  C3  PXY d   1      -5.286   1.251   3.298  0.00  0.00     0.003 A 
ATOM      6  C4  PXY d   1      -5.272   0.074   3.998  0.00  0.00    -0.082 A 
ATOM      7  C5  PXY d   1      -5.265   0.102   5.347  0.00  0.00     0.003 A 
ATOM      8  C6  PXY d   1      -5.269   1.331   6.000  0.00  0.00     0.003 A 
ENDROOT
TORSDOF 0
ENDMDL
