MODEL 1
REMARK minimizedAffinity 5.03190613
REMARK minimizedRMSD -1
REMARK  0 active torsions:
REMARK  status: ('A' for Active; 'I' for Inactive)
ROOT
ATOM      1  C4' PXY d   1      -5.880  -3.356  -1.359  0.00  0.00     0.077 C 
ATOM      2  C1' PXY d   1      -5.925  -5.963   3.800  0.00  0.00     0.077 C 
ATOM      3  C1  PXY d   1      -5.919  -5.269   2.452  0.00  0.00    -0.082 A 
ATOM      4  C2  PXY d   1      -5.836  -5.990   1.346  0.00  0.00     0.003 A 
ATOM      5  C3  PXY d   1      -5.798  -5.377   0.120  0.00  0.00     0.003 A 
ATOM      6  C4  PXY d   1      -5.898  -4.015   0.023  0.00  0.00    -0.082 A 
ATOM      7  C5  PXY d   1      -5.993  -3.273   1.147  0.00  0.00     0.003 A 
ATOM      8  C6  PXY d   1      -5.989  -3.912   2.383  0.00  0.00     0.003 A 
ENDROOT
TORSDOF 0
ENDMDL
