MODEL 1
REMARK minimizedAffinity -0.559560478
REMARK minimizedRMSD -1
REMARK  0 active torsions:
REMARK  status: ('A' for Active; 'I' for Inactive)
ROOT
ATOM      1  C4' PXY d   1      -4.938   0.188   4.617  0.00  0.00     0.077 C 
ATOM      2  C1' PXY d   1      -1.650  -3.526   1.648  0.00  0.00     0.077 C 
ATOM      3  C1  PXY d   1      -2.522  -2.553   2.417  0.00  0.00    -0.082 A 
ATOM      4  C2  PXY d   1      -1.960  -1.680   3.238  0.00  0.00     0.003 A 
ATOM      5  C3  PXY d   1      -2.736  -0.815   3.966  0.00  0.00     0.003 A 
ATOM      6  C4  PXY d   1      -4.096  -0.807   3.812  0.00  0.00    -0.082 A 
ATOM      7  C5  PXY d   1      -4.676  -1.687   2.969  0.00  0.00     0.003 A 
ATOM      8  C6  PXY d   1      -3.874  -2.585   2.270  0.00  0.00     0.003 A 
ENDROOT
TORSDOF 0
ENDMDL
