MODEL 1
REMARK minimizedAffinity -1.28736734
REMARK minimizedRMSD -1
REMARK  0 active torsions:
REMARK  status: ('A' for Active; 'I' for Inactive)
ROOT
ATOM      1  C4' PXY d   1       0.776   0.338   1.867  0.00  0.00     0.077 C 
ATOM      2  C1' PXY d   1      -4.660   0.470   3.829  0.00  0.00     0.077 C 
ATOM      3  C1  PXY d   1      -3.233   0.423   3.320  0.00  0.00    -0.082 A 
ATOM      4  C2  PXY d   1      -2.603   1.552   3.034  0.00  0.00     0.003 A 
ATOM      5  C3  PXY d   1      -1.323   1.526   2.543  0.00  0.00     0.003 A 
ATOM      6  C4  PXY d   1      -0.662   0.337   2.392  0.00  0.00    -0.082 A 
ATOM      7  C5  PXY d   1      -1.294  -0.818   2.691  0.00  0.00     0.003 A 
ATOM      8  C6  PXY d   1      -2.607  -0.773   3.150  0.00  0.00     0.003 A 
ENDROOT
TORSDOF 0
ENDMDL
