MODEL 1
REMARK minimizedAffinity 0.25284338
REMARK minimizedRMSD -1
REMARK  0 active torsions:
REMARK  status: ('A' for Active; 'I' for Inactive)
ROOT
ATOM      1  C4' PXY d   1      -4.615  -1.111   3.637  0.00  0.00     0.077 C 
ATOM      2  C1' PXY d   1      -5.949   3.995   5.996  0.00  0.00     0.077 C 
ATOM      3  C1  PXY d   1      -5.600   2.650   5.389  0.00  0.00    -0.082 A 
ATOM      4  C2  PXY d   1      -4.913   2.600   4.259  0.00  0.00     0.003 A 
ATOM      5  C3  PXY d   1      -4.616   1.394   3.680  0.00  0.00     0.003 A 
ATOM      6  C4  PXY d   1      -4.981   0.224   4.291  0.00  0.00    -0.082 A 
ATOM      7  C5  PXY d   1      -5.673   0.266   5.449  0.00  0.00     0.003 A 
ATOM      8  C6  PXY d   1      -6.000   1.501   5.999  0.00  0.00     0.003 A 
ENDROOT
TORSDOF 0
ENDMDL
