MODEL 1
REMARK minimizedAffinity 1.44428968
REMARK minimizedRMSD -1
REMARK  0 active torsions:
REMARK  status: ('A' for Active; 'I' for Inactive)
ROOT
ATOM      1  C4' PXY d   1      -2.778  -3.279   1.528  0.00  0.00     0.077 C 
ATOM      2  C1' PXY d   1       1.093  -5.999   4.848  0.00  0.00     0.077 C 
ATOM      3  C1  PXY d   1       0.075  -5.297   3.972  0.00  0.00    -0.082 A 
ATOM      4  C2  PXY d   1       0.197  -4.001   3.738  0.00  0.00     0.003 A 
ATOM      5  C3  PXY d   1      -0.733  -3.344   2.973  0.00  0.00     0.003 A 
ATOM      6  C4  PXY d   1      -1.769  -4.031   2.399  0.00  0.00    -0.082 A 
ATOM      7  C5  PXY d   1      -1.893  -5.356   2.624  0.00  0.00     0.003 A 
ATOM      8  C6  PXY d   1      -0.962  -5.997   3.437  0.00  0.00     0.003 A 
ENDROOT
TORSDOF 0
ENDMDL
