MODEL 1
REMARK minimizedAffinity 2.64992428
REMARK minimizedRMSD -1
REMARK  0 active torsions:
REMARK  status: ('A' for Active; 'I' for Inactive)
ROOT
ATOM      1  C4' PXY d   1       0.180   1.732   2.812  0.00  0.00     0.077 C 
ATOM      2  C1' PXY d   1      -5.015  -0.182   4.472  0.00  0.00     0.077 C 
ATOM      3  C1  PXY d   1      -3.647   0.312   4.046  0.00  0.00    -0.082 A 
ATOM      4  C2  PXY d   1      -3.538   1.470   3.414  0.00  0.00     0.003 A 
ATOM      5  C3  PXY d   1      -2.312   1.917   2.993  0.00  0.00     0.003 A 
ATOM      6  C4  PXY d   1      -1.180   1.198   3.269  0.00  0.00    -0.082 A 
ATOM      7  C5  PXY d   1      -1.282   0.021   3.923  0.00  0.00     0.003 A 
ATOM      8  C6  PXY d   1      -2.540  -0.435   4.305  0.00  0.00     0.003 A 
ENDROOT
TORSDOF 0
ENDMDL
