MODEL 1
REMARK minimizedAffinity 6.46417761
REMARK minimizedRMSD -1
REMARK  0 active torsions:
REMARK  status: ('A' for Active; 'I' for Inactive)
ROOT
ATOM      1  C4' PXY d   1       0.980  -2.630  -4.863  0.00  0.00     0.077 C 
ATOM      2  C1' PXY d   1      -3.937  -1.074  -2.254  0.00  0.00     0.077 C 
ATOM      3  C1  PXY d   1      -2.651  -1.495  -2.937  0.00  0.00    -0.082 A 
ATOM      4  C2  PXY d   1      -1.608  -0.681  -2.925  0.00  0.00     0.003 A 
ATOM      5  C3  PXY d   1      -0.447  -1.032  -3.565  0.00  0.00     0.003 A 
ATOM      6  C4  PXY d   1      -0.335  -2.251  -4.178  0.00  0.00    -0.082 A 
ATOM      7  C5  PXY d   1      -1.392  -3.091  -4.185  0.00  0.00     0.003 A 
ATOM      8  C6  PXY d   1      -2.574  -2.699  -3.565  0.00  0.00     0.003 A 
ENDROOT
TORSDOF 0
ENDMDL
