MODEL 1
REMARK minimizedAffinity -5.16348982
REMARK minimizedRMSD -1
REMARK  0 active torsions:
REMARK  status: ('A' for Active; 'I' for Inactive)
ROOT
ATOM      1  C   UNL d   1       1.357  -1.090   2.952  0.00  0.00    -0.002 A 
ATOM      2  C1  UNL d   1       1.940  -1.865   1.960  0.00  0.00     0.010 A 
ATOM      3  C2  UNL d   1       1.752  -1.553   0.612  0.00  0.00     0.041 A 
ATOM      4  C3  UNL d   1       0.961  -0.437   0.275  0.00  0.00    -0.075 A 
ATOM      5  S   UNL d   1       0.592   0.135  -1.309  0.00  0.00     0.015 SA
ATOM      6  C4  UNL d   1      -0.347   1.423  -0.706  0.00  0.00     0.022 A 
ATOM      7  C5  UNL d   1      -0.389   1.431   0.668  0.00  0.00     0.026 A 
ATOM      8  C6  UNL d   1       0.364   0.359   1.256  0.00  0.00    -0.082 A 
ATOM      9  C7  UNL d   1       0.573   0.016   2.614  0.00  0.00     0.045 A 
ENDROOT
TORSDOF 0
ENDMDL
