MODEL 1
REMARK minimizedAffinity -1.55658555
REMARK minimizedRMSD -1
REMARK  0 active torsions:
REMARK  status: ('A' for Active; 'I' for Inactive)
ROOT
ATOM      1  C   UNL d   1       0.921  -1.979   2.946  0.00  0.00    -0.002 A 
ATOM      2  C1  UNL d   1       1.916  -2.544   2.160  0.00  0.00     0.010 A 
ATOM      3  C2  UNL d   1       1.982  -2.271   0.793  0.00  0.00     0.041 A 
ATOM      4  C3  UNL d   1       1.023  -1.411   0.222  0.00  0.00    -0.075 A 
ATOM      5  S   UNL d   1       0.908  -0.932  -1.430  0.00  0.00     0.015 SA
ATOM      6  C4  UNL d   1      -0.464   0.034  -1.132  0.00  0.00     0.022 A 
ATOM      7  C5  UNL d   1      -0.839   0.003   0.190  0.00  0.00     0.026 A 
ATOM      8  C6  UNL d   1       0.012  -0.829   0.993  0.00  0.00    -0.082 A 
ATOM      9  C7  UNL d   1      -0.029  -1.127   2.376  0.00  0.00     0.045 A 
ENDROOT
TORSDOF 0
ENDMDL
