MODEL 1
REMARK minimizedAffinity -3.55758357
REMARK minimizedRMSD -1
REMARK  0 active torsions:
REMARK  status: ('A' for Active; 'I' for Inactive)
ROOT
ATOM      1  C   UNL d   1      -0.051   3.920  -1.490  0.00  0.00    -0.002 A 
ATOM      2  C1  UNL d   1      -0.483   3.277  -2.641  0.00  0.00     0.010 A 
ATOM      3  C2  UNL d   1      -0.830   1.925  -2.611  0.00  0.00     0.041 A 
ATOM      4  C3  UNL d   1      -0.738   1.224  -1.392  0.00  0.00    -0.075 A 
ATOM      5  S   UNL d   1      -1.111  -0.436  -1.117  0.00  0.00     0.015 SA
ATOM      6  C4  UNL d   1      -0.707  -0.330   0.536  0.00  0.00     0.022 A 
ATOM      7  C5  UNL d   1      -0.295   0.934   0.885  0.00  0.00     0.026 A 
ATOM      8  C6  UNL d   1      -0.306   1.851  -0.220  0.00  0.00    -0.082 A 
ATOM      9  C7  UNL d   1       0.040   3.222  -0.283  0.00  0.00     0.045 A 
ENDROOT
TORSDOF 0
ENDMDL
