MODEL 1
REMARK minimizedAffinity -0.13291581
REMARK minimizedRMSD -1
REMARK  0 active torsions:
REMARK  status: ('A' for Active; 'I' for Inactive)
ROOT
ATOM      1  C   UNL d   1       0.081   2.435  -2.460  0.00  0.00    -0.002 A 
ATOM      2  C1  UNL d   1      -1.071   1.807  -2.910  0.00  0.00     0.010 A 
ATOM      3  C2  UNL d   1      -1.708   0.843  -2.126  0.00  0.00     0.041 A 
ATOM      4  C3  UNL d   1      -1.163   0.519  -0.868  0.00  0.00    -0.075 A 
ATOM      5  S   UNL d   1      -1.772  -0.629   0.264  0.00  0.00     0.015 SA
ATOM      6  C4  UNL d   1      -0.518  -0.313   1.373  0.00  0.00     0.022 A 
ATOM      7  C5  UNL d   1       0.354   0.643   0.907  0.00  0.00     0.026 A 
ATOM      8  C6  UNL d   1      -0.004   1.139  -0.392  0.00  0.00    -0.082 A 
ATOM      9  C7  UNL d   1       0.619   2.111  -1.211  0.00  0.00     0.045 A 
ENDROOT
TORSDOF 0
ENDMDL
