MODEL 1
REMARK minimizedAffinity -3.88286376
REMARK minimizedRMSD -1
REMARK  0 active torsions:
REMARK  status: ('A' for Active; 'I' for Inactive)
ROOT
ATOM      1  C   UNL d   1       2.428  -1.575   2.883  0.00  0.00    -0.002 A 
ATOM      2  C1  UNL d   1       2.903  -2.277   1.784  0.00  0.00     0.010 A 
ATOM      3  C2  UNL d   1       2.368  -2.054   0.514  0.00  0.00     0.041 A 
ATOM      4  C3  UNL d   1       1.340  -1.103   0.365  0.00  0.00    -0.075 A 
ATOM      5  S   UNL d   1       0.534  -0.663  -1.095  0.00  0.00     0.015 SA
ATOM      6  C4  UNL d   1      -0.458   0.468  -0.294  0.00  0.00     0.022 A 
ATOM      7  C5  UNL d   1      -0.195   0.521   1.054  0.00  0.00     0.026 A 
ATOM      8  C6  UNL d   1       0.846  -0.383   1.456  0.00  0.00    -0.082 A 
ATOM      9  C7  UNL d   1       1.408  -0.633   2.731  0.00  0.00     0.045 A 
ENDROOT
TORSDOF 0
ENDMDL
