MODEL 1
REMARK minimizedAffinity -5.17865896
REMARK minimizedRMSD -1
REMARK  0 active torsions:
REMARK  status: ('A' for Active; 'I' for Inactive)
ROOT
ATOM      1  C   UNL d   1      -0.013  -0.753   2.856  0.00  0.00    -0.002 A 
ATOM      2  C1  UNL d   1      -0.821  -0.216   1.864  0.00  0.00     0.010 A 
ATOM      3  C2  UNL d   1      -0.501  -0.389   0.516  0.00  0.00     0.041 A 
ATOM      4  C3  UNL d   1       0.655  -1.120   0.178  0.00  0.00    -0.075 A 
ATOM      5  S   UNL d   1       1.244  -1.460  -1.406  0.00  0.00     0.015 SA
ATOM      6  C4  UNL d   1       2.582  -2.327  -0.803  0.00  0.00     0.022 A 
ATOM      7  C5  UNL d   1       2.595  -2.365   0.571  0.00  0.00     0.026 A 
ATOM      8  C6  UNL d   1       1.484  -1.671   1.159  0.00  0.00    -0.082 A 
ATOM      9  C7  UNL d   1       1.133  -1.477   2.517  0.00  0.00     0.045 A 
ENDROOT
TORSDOF 0
ENDMDL
