MODEL 1
REMARK minimizedAffinity -3.05824304
REMARK minimizedRMSD -1
REMARK  0 active torsions:
REMARK  status: ('A' for Active; 'I' for Inactive)
ROOT
ATOM      1  C   UNL d   1       1.217  -1.040   2.792  0.00  0.00    -0.002 A 
ATOM      2  C1  UNL d   1       2.205  -0.443   2.022  0.00  0.00     0.010 A 
ATOM      3  C2  UNL d   1       1.911   0.053   0.750  0.00  0.00     0.041 A 
ATOM      4  C3  UNL d   1       0.595  -0.061   0.261  0.00  0.00    -0.075 A 
ATOM      5  S   UNL d   1       0.004   0.475  -1.267  0.00  0.00     0.015 SA
ATOM      6  C4  UNL d   1      -1.574  -0.075  -0.934  0.00  0.00     0.022 A 
ATOM      7  C5  UNL d   1      -1.666  -0.657   0.309  0.00  0.00     0.026 A 
ATOM      8  C6  UNL d   1      -0.417  -0.658   1.018  0.00  0.00    -0.082 A 
ATOM      9  C7  UNL d   1      -0.088  -1.151   2.303  0.00  0.00     0.045 A 
ENDROOT
TORSDOF 0
ENDMDL
