MODEL 1
REMARK minimizedAffinity 6.83063936
REMARK minimizedRMSD -1
REMARK  0 active torsions:
REMARK  status: ('A' for Active; 'I' for Inactive)
ROOT
ATOM      1  C1  DEN d   1      -1.028   1.171  -0.230  0.00  0.00     0.130 A 
ATOM      2  C2  DEN d   1      -0.695   2.457  -0.835  0.00  0.00    -0.031 A 
ATOM      3  C3  DEN d   1       0.652   2.846  -0.371  0.00  0.00     0.027 A 
ATOM      4  C4  DEN d   1       2.249   1.584   1.213  0.00  0.00     0.027 A 
ATOM      5  C5  DEN d   1       2.402   0.456   1.988  0.00  0.00    -0.003 A 
ATOM      6  C6  DEN d   1       1.417  -0.489   2.104  0.00  0.00     0.001 A 
ATOM      7  C7  DEN d   1       0.251  -0.345   1.399  0.00  0.00     0.017 A 
ATOM      8  C8  DEN d   1       0.087   0.794   0.621  0.00  0.00    -0.094 A 
ATOM      9  C9  DEN d   1       1.099   1.731   0.507  0.00  0.00    -0.072 A 
ENDROOT
TORSDOF 0
ENDMDL
