MODEL 1
REMARK minimizedAffinity -3.16913819
REMARK minimizedRMSD -1
REMARK  0 active torsions:
REMARK  status: ('A' for Active; 'I' for Inactive)
ROOT
ATOM      1  C1  DEN d   1       0.796   2.092  -0.446  0.00  0.00     0.130 A 
ATOM      2  C2  DEN d   1       2.143   1.796   0.035  0.00  0.00    -0.031 A 
ATOM      3  C3  DEN d   1       2.125   0.452   0.645  0.00  0.00     0.027 A 
ATOM      4  C4  DEN d   1       0.153  -1.194   0.888  0.00  0.00     0.027 A 
ATOM      5  C5  DEN d   1      -1.189  -1.382   0.642  0.00  0.00    -0.003 A 
ATOM      6  C6  DEN d   1      -1.965  -0.420   0.052  0.00  0.00     0.001 A 
ATOM      7  C7  DEN d   1      -1.394   0.758  -0.353  0.00  0.00     0.017 A 
ATOM      8  C8  DEN d   1      -0.043   0.958  -0.102  0.00  0.00    -0.094 A 
ATOM      9  C9  DEN d   1       0.727  -0.032   0.484  0.00  0.00    -0.072 A 
ENDROOT
TORSDOF 0
ENDMDL
