MODEL 1
REMARK minimizedAffinity -4.80178499
REMARK minimizedRMSD -1
REMARK  0 active torsions:
REMARK  status: ('A' for Active; 'I' for Inactive)
ROOT
ATOM      1  C1  DEN d   1      -0.027  -0.963   0.167  0.00  0.00     0.130 A 
ATOM      2  C2  DEN d   1      -0.370   0.422  -0.142  0.00  0.00    -0.031 A 
ATOM      3  C3  DEN d   1       0.656   1.292   0.467  0.00  0.00     0.027 A 
ATOM      4  C4  DEN d   1       2.733   0.632   1.847  0.00  0.00     0.027 A 
ATOM      5  C5  DEN d   1       3.436  -0.425   2.381  0.00  0.00    -0.003 A 
ATOM      6  C6  DEN d   1       3.019  -1.723   2.245  0.00  0.00     0.001 A 
ATOM      7  C7  DEN d   1       1.891  -2.000   1.519  0.00  0.00     0.017 A 
ATOM      8  C8  DEN d   1       1.173  -0.939   0.984  0.00  0.00    -0.094 A 
ATOM      9  C9  DEN d   1       1.617   0.365   1.122  0.00  0.00    -0.072 A 
ENDROOT
TORSDOF 0
ENDMDL
