MODEL 1
REMARK minimizedAffinity -6.66751337
REMARK minimizedRMSD -1
REMARK  0 active torsions:
REMARK  status: ('A' for Active; 'I' for Inactive)
ROOT
ATOM      1  C1  DEN d   1       2.943  -0.323   0.806  0.00  0.00     0.130 A 
ATOM      2  C2  DEN d   1       3.417  -1.493   1.540  0.00  0.00    -0.031 A 
ATOM      3  C3  DEN d   1       2.238  -2.230   2.036  0.00  0.00     0.027 A 
ATOM      4  C4  DEN d   1      -0.264  -1.679   1.737  0.00  0.00     0.027 A 
ATOM      5  C5  DEN d   1      -1.159  -0.781   1.199  0.00  0.00    -0.003 A 
ATOM      6  C6  DEN d   1      -0.753   0.341   0.527  0.00  0.00     0.001 A 
ATOM      7  C7  DEN d   1       0.584   0.571   0.336  0.00  0.00     0.017 A 
ATOM      8  C8  DEN d   1       1.493  -0.326   0.882  0.00  0.00    -0.094 A 
ATOM      9  C9  DEN d   1       1.062  -1.461   1.548  0.00  0.00    -0.072 A 
ENDROOT
TORSDOF 0
ENDMDL
