MODEL 1
REMARK minimizedAffinity -3.88972664
REMARK minimizedRMSD -1
REMARK  0 active torsions:
REMARK  status: ('A' for Active; 'I' for Inactive)
ROOT
ATOM      1  C1  DEN d   1       2.182  -1.228   2.360  0.00  0.00     0.130 A 
ATOM      2  C2  DEN d   1       1.182  -2.276   2.543  0.00  0.00    -0.031 A 
ATOM      3  C3  DEN d   1       0.025  -1.960   1.682  0.00  0.00     0.027 A 
ATOM      4  C4  DEN d   1      -0.311   0.039   0.087  0.00  0.00     0.027 A 
ATOM      5  C5  DEN d   1       0.256   1.197  -0.397  0.00  0.00    -0.003 A 
ATOM      6  C6  DEN d   1       1.481   1.642   0.026  0.00  0.00     0.001 A 
ATOM      7  C7  DEN d   1       2.198   0.901   0.927  0.00  0.00     0.017 A 
ATOM      8  C8  DEN d   1       1.629  -0.264   1.425  0.00  0.00    -0.094 A 
ATOM      9  C9  DEN d   1       0.396  -0.703   0.976  0.00  0.00    -0.072 A 
ENDROOT
TORSDOF 0
ENDMDL
