MODEL 1
REMARK minimizedAffinity -2.49984717
REMARK minimizedRMSD -1
REMARK  0 active torsions:
REMARK  status: ('A' for Active; 'I' for Inactive)
ROOT
ATOM      1  C1  DEN d   1       0.206  -0.672  -0.729  0.00  0.00     0.130 A 
ATOM      2  C2  DEN d   1       0.383   0.342   0.307  0.00  0.00    -0.031 A 
ATOM      3  C3  DEN d   1      -0.717   1.319   0.181  0.00  0.00     0.027 A 
ATOM      4  C4  DEN d   1      -2.669   1.357  -1.504  0.00  0.00     0.027 A 
ATOM      5  C5  DEN d   1      -3.235   0.712  -2.581  0.00  0.00    -0.003 A 
ATOM      6  C6  DEN d   1      -2.679  -0.412  -3.133  0.00  0.00     0.001 A 
ATOM      7  C7  DEN d   1      -1.547  -0.951  -2.581  0.00  0.00     0.017 A 
ATOM      8  C8  DEN d   1      -0.967  -0.301  -1.500  0.00  0.00    -0.094 A 
ATOM      9  C9  DEN d   1      -1.550   0.827  -0.948  0.00  0.00    -0.072 A 
ENDROOT
TORSDOF 0
ENDMDL
