MODEL 1
REMARK minimizedAffinity -6.58574581
REMARK minimizedRMSD -1
REMARK  0 active torsions:
REMARK  status: ('A' for Active; 'I' for Inactive)
ROOT
ATOM      1  C1  DEN d   1       2.676  -0.771   0.253  0.00  0.00     0.130 A 
ATOM      2  C2  DEN d   1       2.828  -1.535   1.488  0.00  0.00    -0.031 A 
ATOM      3  C3  DEN d   1       1.479  -1.809   2.024  0.00  0.00     0.027 A 
ATOM      4  C4  DEN d   1      -0.817  -1.132   1.064  0.00  0.00     0.027 A 
ATOM      5  C5  DEN d   1      -1.453  -0.465   0.041  0.00  0.00    -0.003 A 
ATOM      6  C6  DEN d   1      -0.763   0.170  -0.957  0.00  0.00     0.001 A 
ATOM      7  C7  DEN d   1       0.605   0.114  -0.978  0.00  0.00     0.017 A 
ATOM      8  C8  DEN d   1       1.254  -0.550   0.055  0.00  0.00    -0.094 A 
ATOM      9  C9  DEN d   1       0.538  -1.197   1.048  0.00  0.00    -0.072 A 
ENDROOT
TORSDOF 0
ENDMDL
