MODEL 1
REMARK minimizedAffinity 12.0267353
REMARK minimizedRMSD -1
REMARK  3 active torsions:
REMARK  status: ('A' for Active; 'I' for Inactive)
REMARK    1  A    between atoms: C3'_2  and  C2'_3 
REMARK    2  A    between atoms: C2'_3  and  C1'_4 
REMARK    3  A    between atoms: C1'_4  and  C1_5 
ROOT
ATOM      1  C1  N4B d   1       4.573   5.395  -2.651  0.00  0.00    -0.075 A 
ATOM      2  C2  N4B d   1       3.450   5.192  -3.483  0.00  0.00     0.002 A 
ATOM      3  C3  N4B d   1       2.205   5.025  -2.927  0.00  0.00     0.002 A 
ATOM      4  C4  N4B d   1       2.062   5.038  -1.548  0.00  0.00    -0.004 A 
ATOM      5  C5  N4B d   1       3.148   5.260  -0.752  0.00  0.00     0.002 A 
ATOM      6  C6  N4B d   1       4.404   5.434  -1.297  0.00  0.00     0.002 A 
ENDROOT
BRANCH   1   7
ATOM      7  C1' N4B d   1       5.966   5.498  -3.208  0.00  0.00     0.057 C 
BRANCH   7   8
ATOM      8  C2' N4B d   1       5.894   5.991  -4.650  0.00  0.00     0.009 C 
BRANCH   8   9
ATOM      9  C3' N4B d   1       5.160   5.011  -5.550  0.00  0.00     0.004 C 
ATOM     10  C4' N4B d   1       5.999   3.825  -5.923  0.00  0.00     0.003 C 
ENDBRANCH   8   9
ENDBRANCH   7   8
ENDBRANCH   1   7
TORSDOF 3
ENDMDL
