MODEL 1
REMARK minimizedAffinity 4.9041357
REMARK minimizedRMSD -1
REMARK  3 active torsions:
REMARK  status: ('A' for Active; 'I' for Inactive)
REMARK    1  A    between atoms: C3'_2  and  C2'_3 
REMARK    2  A    between atoms: C2'_3  and  C1'_4 
REMARK    3  A    between atoms: C1'_4  and  C1_5 
ROOT
ATOM      1  C1  N4B d   1      -0.271  -0.013   0.664  0.00  0.00    -0.075 A 
ATOM      2  C2  N4B d   1       1.141   0.026   0.683  0.00  0.00     0.002 A 
ATOM      3  C3  N4B d   1       1.860  -1.143   0.729  0.00  0.00     0.002 A 
ATOM      4  C4  N4B d   1       1.191  -2.357   0.777  0.00  0.00    -0.004 A 
ATOM      5  C5  N4B d   1      -0.172  -2.387   0.733  0.00  0.00     0.002 A 
ATOM      6  C6  N4B d   1      -0.907  -1.220   0.682  0.00  0.00     0.002 A 
ENDROOT
BRANCH   1   7
ATOM      7  C1' N4B d   1      -1.101   1.241   0.700  0.00  0.00     0.057 C 
BRANCH   7   8
ATOM      8  C2' N4B d   1      -0.356   2.312   1.492  0.00  0.00     0.009 C 
BRANCH   8   9
ATOM      9  C3' N4B d   1      -1.302   3.349   2.073  0.00  0.00     0.004 C 
ATOM     10  C4' N4B d   1      -1.015   4.736   1.580  0.00  0.00     0.003 C 
ENDBRANCH   8   9
ENDBRANCH   7   8
ENDBRANCH   1   7
TORSDOF 3
ENDMDL
