MODEL 1
REMARK minimizedAffinity 4.01205969
REMARK minimizedRMSD -1
REMARK  3 active torsions:
REMARK  status: ('A' for Active; 'I' for Inactive)
REMARK    1  A    between atoms: C3'_2  and  C2'_3 
REMARK    2  A    between atoms: C2'_3  and  C1'_4 
REMARK    3  A    between atoms: C1'_4  and  C1_5 
ROOT
ATOM      1  C1  N4B d   1      -5.131  -3.511  -3.519  0.00  0.00    -0.075 A 
ATOM      2  C2  N4B d   1      -4.899  -4.894  -3.685  0.00  0.00     0.002 A 
ATOM      3  C3  N4B d   1      -5.047  -5.471  -4.923  0.00  0.00     0.002 A 
ATOM      4  C4  N4B d   1      -5.443  -4.692  -6.000  0.00  0.00    -0.004 A 
ATOM      5  C5  N4B d   1      -5.641  -3.352  -5.836  0.00  0.00     0.002 A 
ATOM      6  C6  N4B d   1      -5.492  -2.758  -4.599  0.00  0.00     0.002 A 
ENDROOT
BRANCH   1   7
ATOM      7  C1' N4B d   1      -5.066  -2.851  -2.169  0.00  0.00     0.057 C 
BRANCH   7   8
ATOM      8  C2' N4B d   1      -5.163  -3.920  -1.084  0.00  0.00     0.009 C 
BRANCH   8   9
ATOM      9  C3' N4B d   1      -3.801  -4.489  -0.723  0.00  0.00     0.004 C 
ATOM     10  C4' N4B d   1      -3.778  -5.988  -0.730  0.00  0.00     0.003 C 
ENDBRANCH   8   9
ENDBRANCH   7   8
ENDBRANCH   1   7
TORSDOF 3
ENDMDL
