MODEL 1
REMARK minimizedAffinity 7.20922089
REMARK minimizedRMSD -1
REMARK  3 active torsions:
REMARK  status: ('A' for Active; 'I' for Inactive)
REMARK    1  A    between atoms: C3'_2  and  C2'_3 
REMARK    2  A    between atoms: C2'_3  and  C1'_4 
REMARK    3  A    between atoms: C1'_4  and  C1_5 
ROOT
ATOM      1  C1  N4B d   1       0.848  -1.690   0.489  0.00  0.00    -0.075 A 
ATOM      2  C2  N4B d   1      -0.526  -1.622   0.807  0.00  0.00     0.002 A 
ATOM      3  C3  N4B d   1      -1.468  -1.905  -0.153  0.00  0.00     0.002 A 
ATOM      4  C4  N4B d   1      -1.061  -2.238  -1.436  0.00  0.00    -0.004 A 
ATOM      5  C5  N4B d   1       0.269  -2.327  -1.728  0.00  0.00     0.002 A 
ATOM      6  C6  N4B d   1       1.226  -2.049  -0.773  0.00  0.00     0.002 A 
ENDROOT
BRANCH   1   7
ATOM      7  C1' N4B d   1       1.912  -1.307   1.480  0.00  0.00     0.057 C 
BRANCH   7   8
ATOM      8  C2' N4B d   1       2.076   0.210   1.477  0.00  0.00     0.009 C 
BRANCH   8   9
ATOM      9  C3' N4B d   1       3.377   0.640   0.823  0.00  0.00     0.004 C 
ATOM     10  C4' N4B d   1       3.275   1.975   0.148  0.00  0.00     0.003 C 
ENDBRANCH   8   9
ENDBRANCH   7   8
ENDBRANCH   1   7
TORSDOF 3
ENDMDL
