MODEL 1
REMARK minimizedAffinity 3.36387682
REMARK minimizedRMSD -1
REMARK  3 active torsions:
REMARK  status: ('A' for Active; 'I' for Inactive)
REMARK    1  A    between atoms: C3'_2  and  C2'_3 
REMARK    2  A    between atoms: C2'_3  and  C1'_4 
REMARK    3  A    between atoms: C1'_4  and  C1_5 
ROOT
ATOM      1  C1  N4B d   1       0.690   0.521   1.504  0.00  0.00    -0.075 A 
ATOM      2  C2  N4B d   1      -0.388   1.345   1.114  0.00  0.00     0.002 A 
ATOM      3  C3  N4B d   1      -0.145   2.559   0.521  0.00  0.00     0.002 A 
ATOM      4  C4  N4B d   1       1.163   2.977   0.326  0.00  0.00    -0.004 A 
ATOM      5  C5  N4B d   1       2.199   2.164   0.681  0.00  0.00     0.002 A 
ATOM      6  C6  N4B d   1       1.969   0.939   1.275  0.00  0.00     0.002 A 
ENDROOT
BRANCH   1   7
ATOM      7  C1' N4B d   1       0.475  -0.777   2.233  0.00  0.00     0.057 C 
BRANCH   7   8
ATOM      8  C2' N4B d   1       1.732  -1.119   3.029  0.00  0.00     0.009 C 
BRANCH   8   9
ATOM      9  C3' N4B d   1       1.452  -2.134   4.124  0.00  0.00     0.004 C 
ATOM     10  C4' N4B d   1       1.092  -1.495   5.431  0.00  0.00     0.003 C 
ENDBRANCH   8   9
ENDBRANCH   7   8
ENDBRANCH   1   7
TORSDOF 3
ENDMDL
