MODEL 1
REMARK minimizedAffinity 13.5731974
REMARK minimizedRMSD -1
REMARK  0 active torsions:
REMARK  status: ('A' for Active; 'I' for Inactive)
ROOT
ATOM      1  C   UNL d   1       1.390   2.844  -1.142  0.00  0.00    -0.002 A 
ATOM      2  C1  UNL d   1       0.599   1.982  -0.398  0.00  0.00     0.010 A 
ATOM      3  C2  UNL d   1      -0.784   1.946  -0.586  0.00  0.00     0.041 A 
ATOM      4  C3  UNL d   1      -1.364   2.799  -1.547  0.00  0.00    -0.075 A 
ATOM      5  S   UNL d   1      -3.035   2.927  -1.950  0.00  0.00     0.015 SA
ATOM      6  C4  UNL d   1      -2.737   4.129  -3.120  0.00  0.00     0.022 A 
ATOM      7  C5  UNL d   1      -1.401   4.438  -3.214  0.00  0.00     0.026 A 
ATOM      8  C6  UNL d   1      -0.587   3.676  -2.309  0.00  0.00    -0.082 A 
ATOM      9  C7  UNL d   1       0.812   3.689  -2.094  0.00  0.00     0.045 A 
ENDROOT
TORSDOF 0
ENDMDL
