MODEL 1
REMARK minimizedAffinity 8.31887054
REMARK minimizedRMSD -1
REMARK  0 active torsions:
REMARK  status: ('A' for Active; 'I' for Inactive)
ROOT
ATOM      1  C   UNL d   1       1.293  -0.289   3.024  0.00  0.00    -0.002 A 
ATOM      2  C1  UNL d   1       1.426  -1.245   2.027  0.00  0.00     0.010 A 
ATOM      3  C2  UNL d   1       0.562  -2.341   1.975  0.00  0.00     0.041 A 
ATOM      4  C3  UNL d   1      -0.449  -2.460   2.949  0.00  0.00    -0.075 A 
ATOM      5  S   UNL d   1      -1.622  -3.716   3.082  0.00  0.00     0.015 SA
ATOM      6  C4  UNL d   1      -2.328  -3.012   4.465  0.00  0.00     0.022 A 
ATOM      7  C5  UNL d   1      -1.696  -1.847   4.829  0.00  0.00     0.026 A 
ATOM      8  C6  UNL d   1      -0.603  -1.509   3.962  0.00  0.00    -0.082 A 
ATOM      9  C7  UNL d   1       0.289  -0.410   3.988  0.00  0.00     0.045 A 
ENDROOT
TORSDOF 0
ENDMDL
