MODEL 1
REMARK minimizedAffinity 18.8201332
REMARK minimizedRMSD -1
REMARK  0 active torsions:
REMARK  status: ('A' for Active; 'I' for Inactive)
ROOT
ATOM      1  C   UNL d   1      -0.845  -2.533   1.423  0.00  0.00    -0.002 A 
ATOM      2  C1  UNL d   1      -2.045  -2.743   2.087  0.00  0.00     0.010 A 
ATOM      3  C2  UNL d   1      -2.257  -2.208   3.359  0.00  0.00     0.041 A 
ATOM      4  C3  UNL d   1      -1.232  -1.449   3.958  0.00  0.00    -0.075 A 
ATOM      5  S   UNL d   1      -1.268  -0.695   5.508  0.00  0.00     0.015 SA
ATOM      6  C4  UNL d   1       0.309  -0.075   5.326  0.00  0.00     0.022 A 
ATOM      7  C5  UNL d   1       0.864  -0.426   4.117  0.00  0.00     0.026 A 
ATOM      8  C6  UNL d   1      -0.015  -1.222   3.309  0.00  0.00    -0.082 A 
ATOM      9  C7  UNL d   1       0.169  -1.779   2.021  0.00  0.00     0.045 A 
ENDROOT
TORSDOF 0
ENDMDL
