MODEL 1
REMARK minimizedAffinity 16.3712044
REMARK minimizedRMSD -1
REMARK  0 active torsions:
REMARK  status: ('A' for Active; 'I' for Inactive)
ROOT
ATOM      1  C   UNL d   1      -1.191  -2.712   1.460  0.00  0.00    -0.002 A 
ATOM      2  C1  UNL d   1      -2.175  -2.971   2.403  0.00  0.00     0.010 A 
ATOM      3  C2  UNL d   1      -2.074  -2.453   3.696  0.00  0.00     0.041 A 
ATOM      4  C3  UNL d   1      -0.957  -1.661   4.027  0.00  0.00    -0.075 A 
ATOM      5  S   UNL d   1      -0.622  -0.921   5.548  0.00  0.00     0.015 SA
ATOM      6  C4  UNL d   1       0.835  -0.242   4.981  0.00  0.00     0.022 A 
ATOM      7  C5  UNL d   1       1.075  -0.562   3.666  0.00  0.00     0.026 A 
ATOM      8  C6  UNL d   1       0.047  -1.385   3.094  0.00  0.00    -0.082 A 
ATOM      9  C7  UNL d   1      -0.084  -1.925   1.792  0.00  0.00     0.045 A 
ENDROOT
TORSDOF 0
ENDMDL
