MODEL 1
REMARK minimizedAffinity 8.65996075
REMARK minimizedRMSD -1
REMARK  0 active torsions:
REMARK  status: ('A' for Active; 'I' for Inactive)
ROOT
ATOM      1  C   UNL d   1      -0.013   1.508  -1.359  0.00  0.00    -0.002 A 
ATOM      2  C1  UNL d   1      -0.638   2.091  -2.452  0.00  0.00     0.010 A 
ATOM      3  C2  UNL d   1      -0.650   3.479  -2.607  0.00  0.00     0.041 A 
ATOM      4  C3  UNL d   1      -0.014   4.278  -1.637  0.00  0.00    -0.075 A 
ATOM      5  S   UNL d   1       0.100   5.998  -1.619  0.00  0.00     0.015 SA
ATOM      6  C4  UNL d   1       0.982   6.000  -0.161  0.00  0.00     0.022 A 
ATOM      7  C5  UNL d   1       1.194   4.728   0.315  0.00  0.00     0.026 A 
ATOM      8  C6  UNL d   1       0.623   3.714  -0.528  0.00  0.00    -0.082 A 
ATOM      9  C7  UNL d   1       0.617   2.304  -0.398  0.00  0.00     0.045 A 
ENDROOT
TORSDOF 0
ENDMDL
