MODEL 1
REMARK minimizedAffinity 13.4211416
REMARK minimizedRMSD -1
REMARK  0 active torsions:
REMARK  status: ('A' for Active; 'I' for Inactive)
ROOT
ATOM      1  C   UNL d   1       1.600  -4.866  -5.089  0.00  0.00    -0.002 A 
ATOM      2  C1  UNL d   1       2.207  -5.997  -5.618  0.00  0.00     0.010 A 
ATOM      3  C2  UNL d   1       3.568  -5.995  -5.926  0.00  0.00     0.041 A 
ATOM      4  C3  UNL d   1       4.318  -4.826  -5.691  0.00  0.00    -0.075 A 
ATOM      5  S   UNL d   1       6.000  -4.592  -5.990  0.00  0.00     0.015 SA
ATOM      6  C4  UNL d   1       5.954  -2.985  -5.423  0.00  0.00     0.022 A 
ATOM      7  C5  UNL d   1       4.694  -2.620  -5.011  0.00  0.00     0.026 A 
ATOM      8  C6  UNL d   1       3.731  -3.675  -5.158  0.00  0.00    -0.082 A 
ATOM      9  C7  UNL d   1       2.348  -3.709  -4.857  0.00  0.00     0.045 A 
ENDROOT
TORSDOF 0
ENDMDL
