MODEL 1
REMARK minimizedAffinity 8.31292343
REMARK minimizedRMSD -1
REMARK  0 active torsions:
REMARK  status: ('A' for Active; 'I' for Inactive)
ROOT
ATOM      1  C   UNL d   1       0.884   2.566  -0.725  0.00  0.00    -0.002 A 
ATOM      2  C1  UNL d   1       1.256   3.903  -0.725  0.00  0.00     0.010 A 
ATOM      3  C2  UNL d   1       0.690   4.798  -1.635  0.00  0.00     0.041 A 
ATOM      4  C3  UNL d   1      -0.266   4.323  -2.553  0.00  0.00    -0.075 A 
ATOM      5  S   UNL d   1      -1.093   5.237  -3.759  0.00  0.00     0.015 SA
ATOM      6  C4  UNL d   1      -1.961   3.874  -4.303  0.00  0.00     0.022 A 
ATOM      7  C5  UNL d   1      -1.640   2.742  -3.593  0.00  0.00     0.026 A 
ATOM      8  C6  UNL d   1      -0.658   2.982  -2.573  0.00  0.00    -0.082 A 
ATOM      9  C7  UNL d   1      -0.066   2.099  -1.638  0.00  0.00     0.045 A 
ENDROOT
TORSDOF 0
ENDMDL
