MODEL 1
REMARK minimizedAffinity 19.4130955
REMARK minimizedRMSD -1
REMARK  0 active torsions:
REMARK  status: ('A' for Active; 'I' for Inactive)
ROOT
ATOM      1  C   UNL d   1      -3.284   2.280  -3.078  0.00  0.00    -0.002 A 
ATOM      2  C1  UNL d   1      -2.833   3.377  -3.799  0.00  0.00     0.010 A 
ATOM      3  C2  UNL d   1      -1.634   4.006  -3.460  0.00  0.00     0.041 A 
ATOM      4  C3  UNL d   1      -0.887   3.509  -2.374  0.00  0.00    -0.075 A 
ATOM      5  S   UNL d   1       0.611   4.119  -1.777  0.00  0.00     0.015 SA
ATOM      6  C4  UNL d   1       0.689   2.938  -0.550  0.00  0.00     0.022 A 
ATOM      7  C5  UNL d   1      -0.394   2.091  -0.581  0.00  0.00     0.026 A 
ATOM      8  C6  UNL d   1      -1.320   2.406  -1.632  0.00  0.00    -0.082 A 
ATOM      9  C7  UNL d   1      -2.540   1.791  -2.001  0.00  0.00     0.045 A 
ENDROOT
TORSDOF 0
ENDMDL
