MODEL 1
REMARK minimizedAffinity 7.66861343
REMARK minimizedRMSD -1
REMARK  0 active torsions:
REMARK  status: ('A' for Active; 'I' for Inactive)
ROOT
ATOM      1  C   UNL d   1       0.491  -2.658   1.438  0.00  0.00    -0.002 A 
ATOM      2  C1  UNL d   1      -0.497  -3.536   1.859  0.00  0.00     0.010 A 
ATOM      3  C2  UNL d   1      -1.228  -3.279   3.021  0.00  0.00     0.041 A 
ATOM      4  C3  UNL d   1      -0.946  -2.112   3.759  0.00  0.00    -0.075 A 
ATOM      5  S   UNL d   1      -1.713  -1.591   5.212  0.00  0.00     0.015 SA
ATOM      6  C4  UNL d   1      -0.747  -0.190   5.308  0.00  0.00     0.022 A 
ATOM      7  C5  UNL d   1       0.144  -0.106   4.264  0.00  0.00     0.026 A 
ATOM      8  C6  UNL d   1       0.044  -1.212   3.354  0.00  0.00    -0.082 A 
ATOM      9  C7  UNL d   1       0.767  -1.502   2.172  0.00  0.00     0.045 A 
ENDROOT
TORSDOF 0
ENDMDL
