MODEL 1
REMARK minimizedAffinity 19.2797718
REMARK minimizedRMSD -1
REMARK  0 active torsions:
REMARK  status: ('A' for Active; 'I' for Inactive)
ROOT
ATOM      1  C   UNL d   1       3.190  -0.228   2.693  0.00  0.00    -0.002 A 
ATOM      2  C1  UNL d   1       2.745  -1.227   1.838  0.00  0.00     0.010 A 
ATOM      3  C2  UNL d   1       1.526  -1.867   2.068  0.00  0.00     0.041 A 
ATOM      4  C3  UNL d   1       0.753  -1.482   3.181  0.00  0.00    -0.075 A 
ATOM      5  S   UNL d   1      -0.773  -2.126   3.659  0.00  0.00     0.015 SA
ATOM      6  C4  UNL d   1      -0.871  -1.090   5.009  0.00  0.00     0.022 A 
ATOM      7  C5  UNL d   1       0.225  -0.266   5.108  0.00  0.00     0.026 A 
ATOM      8  C6  UNL d   1       1.179  -0.478   4.055  0.00  0.00    -0.082 A 
ATOM      9  C7  UNL d   1       2.420   0.151   3.796  0.00  0.00     0.045 A 
ENDROOT
TORSDOF 0
ENDMDL
