MODEL 1
REMARK minimizedAffinity 14.0858879
REMARK minimizedRMSD -1
REMARK  0 active torsions:
REMARK  status: ('A' for Active; 'I' for Inactive)
ROOT
ATOM      1  C   UNL d   1       0.693  -2.343   2.553  0.00  0.00    -0.002 A 
ATOM      2  C1  UNL d   1       0.099  -3.553   2.884  0.00  0.00     0.010 A 
ATOM      3  C2  UNL d   1      -0.856  -3.621   3.900  0.00  0.00     0.041 A 
ATOM      4  C3  UNL d   1      -1.209  -2.441   4.584  0.00  0.00    -0.075 A 
ATOM      5  S   UNL d   1      -2.354  -2.284   5.862  0.00  0.00     0.015 SA
ATOM      6  C4  UNL d   1      -2.083  -0.607   5.999  0.00  0.00     0.022 A 
ATOM      7  C5  UNL d   1      -1.145  -0.161   5.099  0.00  0.00     0.026 A 
ATOM      8  C6  UNL d   1      -0.625  -1.211   4.268  0.00  0.00    -0.082 A 
ATOM      9  C7  UNL d   1       0.340  -1.174   3.234  0.00  0.00     0.045 A 
ENDROOT
TORSDOF 0
ENDMDL
