MODEL 1
REMARK minimizedAffinity 11.2525949
REMARK minimizedRMSD -1
REMARK  0 active torsions:
REMARK  status: ('A' for Active; 'I' for Inactive)
ROOT
ATOM      1  C   UNL d   1       2.004  -0.684   1.079  0.00  0.00    -0.002 A 
ATOM      2  C1  UNL d   1       1.861   0.549   0.460  0.00  0.00     0.010 A 
ATOM      3  C2  UNL d   1       2.780   0.971  -0.503  0.00  0.00     0.041 A 
ATOM      4  C3  UNL d   1       3.854   0.123  -0.837  0.00  0.00    -0.075 A 
ATOM      5  S   UNL d   1       5.101   0.429  -1.988  0.00  0.00     0.015 SA
ATOM      6  C4  UNL d   1       5.852  -1.070  -1.685  0.00  0.00     0.022 A 
ATOM      7  C5  UNL d   1       5.181  -1.799  -0.732  0.00  0.00     0.026 A 
ATOM      8  C6  UNL d   1       4.018  -1.124  -0.228  0.00  0.00    -0.082 A 
ATOM      9  C7  UNL d   1       3.070  -1.522   0.745  0.00  0.00     0.045 A 
ENDROOT
TORSDOF 0
ENDMDL
