MODEL 1
REMARK minimizedAffinity 13.8897219
REMARK minimizedRMSD -1
REMARK  0 active torsions:
REMARK  status: ('A' for Active; 'I' for Inactive)
ROOT
ATOM      1  C   UNL d   1      -5.090   3.349  -0.352  0.00  0.00    -0.002 A 
ATOM      2  C1  UNL d   1      -4.921   4.704  -0.601  0.00  0.00     0.010 A 
ATOM      3  C2  UNL d   1      -3.901   5.150  -1.443  0.00  0.00     0.041 A 
ATOM      4  C3  UNL d   1      -3.045   4.202  -2.038  0.00  0.00    -0.075 A 
ATOM      5  S   UNL d   1      -1.727   4.516  -3.104  0.00  0.00     0.015 SA
ATOM      6  C4  UNL d   1      -1.358   2.859  -3.256  0.00  0.00     0.022 A 
ATOM      7  C5  UNL d   1      -2.208   2.072  -2.517  0.00  0.00     0.026 A 
ATOM      8  C6  UNL d   1      -3.195   2.832  -1.803  0.00  0.00    -0.082 A 
ATOM      9  C7  UNL d   1      -4.239   2.412  -0.944  0.00  0.00     0.045 A 
ENDROOT
TORSDOF 0
ENDMDL
