MODEL 1
REMARK minimizedAffinity 14.8442612
REMARK minimizedRMSD -1
REMARK  0 active torsions:
REMARK  status: ('A' for Active; 'I' for Inactive)
ROOT
ATOM      1  C   UNL d   1      -4.347  -2.630   2.643  0.00  0.00    -0.002 A 
ATOM      2  C1  UNL d   1      -3.065  -3.160   2.698  0.00  0.00     0.010 A 
ATOM      3  C2  UNL d   1      -2.693  -4.208   1.854  0.00  0.00     0.041 A 
ATOM      4  C3  UNL d   1      -3.639  -4.719   0.944  0.00  0.00    -0.075 A 
ATOM      5  S   UNL d   1      -3.407  -5.999  -0.187  0.00  0.00     0.015 SA
ATOM      6  C4  UNL d   1      -5.003  -5.873  -0.771  0.00  0.00     0.022 A 
ATOM      7  C5  UNL d   1      -5.710  -4.884  -0.129  0.00  0.00     0.026 A 
ATOM      8  C6  UNL d   1      -4.935  -4.202   0.869  0.00  0.00    -0.082 A 
ATOM      9  C7  UNL d   1      -5.282  -3.140   1.739  0.00  0.00     0.045 A 
ENDROOT
TORSDOF 0
ENDMDL
