MODEL 1
REMARK minimizedAffinity 30.7313385
REMARK minimizedRMSD -1
REMARK  0 active torsions:
REMARK  status: ('A' for Active; 'I' for Inactive)
ROOT
ATOM      1  C   UNL d   1       0.530  -2.016   1.727  0.00  0.00    -0.002 A 
ATOM      2  C1  UNL d   1       1.885  -1.969   2.023  0.00  0.00     0.010 A 
ATOM      3  C2  UNL d   1       2.629  -0.817   1.763  0.00  0.00     0.041 A 
ATOM      4  C3  UNL d   1       1.983   0.299   1.196  0.00  0.00    -0.075 A 
ATOM      5  S   UNL d   1       2.692   1.817   0.792  0.00  0.00     0.015 SA
ATOM      6  C4  UNL d   1       1.214   2.440   0.218  0.00  0.00     0.022 A 
ATOM      7  C5  UNL d   1       0.193   1.525   0.324  0.00  0.00     0.026 A 
ATOM      8  C6  UNL d   1       0.619   0.276   0.890  0.00  0.00    -0.082 A 
ATOM      9  C7  UNL d   1      -0.108  -0.907   1.165  0.00  0.00     0.045 A 
ENDROOT
TORSDOF 0
ENDMDL
