MODEL 1
REMARK minimizedAffinity 13.5681934
REMARK minimizedRMSD -1
REMARK  1 active torsions:
REMARK  status: ('A' for Active; 'I' for Inactive)
REMARK    1  A    between atoms: C1_2  and  C2_3 
ROOT
ATOM      1  C2  UNL d   1       3.104  -4.116   1.393  0.00  0.00    -0.076 A 
ATOM      2  C3  UNL d   1       3.361  -4.544   0.079  0.00  0.00     0.004 A 
ATOM      3  C4  UNL d   1       4.666  -4.733  -0.371  0.00  0.00    -0.003 A 
ATOM      4  C5  UNL d   1       5.736  -4.498   0.486  0.00  0.00     0.000 A 
ATOM      5  C6  UNL d   1       5.499  -4.090   1.798  0.00  0.00     0.000 A 
ATOM      6  C7  UNL d   1       4.188  -3.911   2.273  0.00  0.00    -0.073 A 
ATOM      7  C8  UNL d   1       3.991  -3.464   3.696  0.00  0.00     0.078 C 
ENDROOT
BRANCH   1   8
ATOM      8  C1  UNL d   1       1.668  -3.902   1.818  0.00  0.00     0.053 C 
ATOM      9  C   UNL d   1       1.311  -2.429   1.942  0.00  0.00     0.018 C 
ENDBRANCH   1   8
TORSDOF 1
ENDMDL
