MODEL 1
REMARK minimizedAffinity 6.90337563
REMARK minimizedRMSD -1
REMARK  1 active torsions:
REMARK  status: ('A' for Active; 'I' for Inactive)
REMARK    1  A    between atoms: C1_2  and  C2_3 
ROOT
ATOM      1  C2  UNL d   1      -3.427  -0.909  -1.765  0.00  0.00    -0.076 A 
ATOM      2  C3  UNL d   1      -3.407  -1.839  -2.819  0.00  0.00     0.004 A 
ATOM      3  C4  UNL d   1      -4.306  -1.741  -3.880  0.00  0.00    -0.003 A 
ATOM      4  C5  UNL d   1      -5.239  -0.710  -3.904  0.00  0.00     0.000 A 
ATOM      5  C6  UNL d   1      -5.262   0.231  -2.876  0.00  0.00     0.000 A 
ATOM      6  C7  UNL d   1      -4.352   0.156  -1.807  0.00  0.00    -0.073 A 
ATOM      7  C8  UNL d   1      -4.426   1.195  -0.722  0.00  0.00     0.078 C 
ENDROOT
BRANCH   1   8
ATOM      8  C1  UNL d   1      -2.446  -1.082  -0.628  0.00  0.00     0.053 C 
ATOM      9  C   UNL d   1      -1.047  -0.606  -0.988  0.00  0.00     0.018 C 
ENDBRANCH   1   8
TORSDOF 1
ENDMDL
