MODEL 1
REMARK minimizedAffinity 12.8963146
REMARK minimizedRMSD -1
REMARK  1 active torsions:
REMARK  status: ('A' for Active; 'I' for Inactive)
REMARK    1  A    between atoms: C1_2  and  C2_3 
ROOT
ATOM      1  C2  UNL d   1      -1.492  -0.597   3.270  0.00  0.00    -0.076 A 
ATOM      2  C3  UNL d   1      -0.255   0.054   3.418  0.00  0.00     0.004 A 
ATOM      3  C4  UNL d   1       0.917  -0.510   2.917  0.00  0.00    -0.003 A 
ATOM      4  C5  UNL d   1       0.871  -1.735   2.260  0.00  0.00     0.000 A 
ATOM      5  C6  UNL d   1      -0.350  -2.386   2.089  0.00  0.00     0.000 A 
ATOM      6  C7  UNL d   1      -1.543  -1.823   2.573  0.00  0.00    -0.073 A 
ATOM      7  C8  UNL d   1      -2.831  -2.572   2.366  0.00  0.00     0.078 C 
ENDROOT
BRANCH   1   8
ATOM      8  C1  UNL d   1      -2.726   0.050   3.857  0.00  0.00     0.053 C 
ATOM      9  C   UNL d   1      -3.566   0.762   2.808  0.00  0.00     0.018 C 
ENDBRANCH   1   8
TORSDOF 1
ENDMDL
