MODEL 1
REMARK minimizedAffinity 0.659656286
REMARK minimizedRMSD -1
REMARK  0 active torsions:
REMARK  status: ('A' for Active; 'I' for Inactive)
ROOT
ATOM      1  C   UNL d   1      -0.188  -0.950   1.034  0.00  0.00     0.124 A 
ATOM      2  C1  UNL d   1       1.155  -0.651   0.847  0.00  0.00     0.062 A 
ATOM      3  C2  UNL d   1       2.037  -1.636   0.414  0.00  0.00     0.162 A 
ATOM      4  C3  UNL d   1       1.580  -2.930   0.164  0.00  0.00    -0.034 A 
ATOM      5  C4  UNL d   1       0.229  -3.223   0.355  0.00  0.00     0.162 A 
ATOM      6  C5  UNL d   1      -0.649  -2.235   0.788  0.00  0.00     0.062 A 
ATOM      7  F   UNL d   1      -1.946  -2.526   0.968  0.00  0.00    -0.097 F 
ATOM      8  F1  UNL d   1      -0.244  -4.457   0.124  0.00  0.00    -0.096 F 
ATOM      9  I   UNL d   1       2.897  -4.406  -0.484  0.00  0.00    -0.060 I 
ATOM     10  F2  UNL d   1       3.329  -1.319   0.242  0.00  0.00    -0.096 F 
ATOM     11  F3  UNL d   1       1.603   0.590   1.085  0.00  0.00    -0.097 F 
ATOM     12  F4  UNL d   1      -1.035   0.000   1.451  0.00  0.00    -0.092 F 
ENDROOT
TORSDOF 0
ENDMDL
