MODEL 1
REMARK minimizedAffinity 7.22022629
REMARK minimizedRMSD -1
REMARK  0 active torsions:
REMARK  status: ('A' for Active; 'I' for Inactive)
ROOT
ATOM      1  C   UNL d   1       1.470  -2.553  -0.236  0.00  0.00     0.124 A 
ATOM      2  C1  UNL d   1       1.130  -1.208  -0.256  0.00  0.00     0.062 A 
ATOM      3  C2  UNL d   1       0.478  -0.635   0.832  0.00  0.00     0.162 A 
ATOM      4  C3  UNL d   1       0.163  -1.407   1.950  0.00  0.00    -0.034 A 
ATOM      5  C4  UNL d   1       0.508  -2.759   1.963  0.00  0.00     0.162 A 
ATOM      6  C5  UNL d   1       1.159  -3.327   0.873  0.00  0.00     0.062 A 
ATOM      7  F   UNL d   1       1.488  -4.627   0.894  0.00  0.00    -0.097 F 
ATOM      8  F1  UNL d   1       0.220  -3.530   3.022  0.00  0.00    -0.096 F 
ATOM      9  I   UNL d   1      -0.812  -0.553   3.579  0.00  0.00    -0.060 I 
ATOM     10  F2  UNL d   1       0.160   0.668   0.785  0.00  0.00    -0.096 F 
ATOM     11  F3  UNL d   1       1.428  -0.458  -1.327  0.00  0.00    -0.097 F 
ATOM     12  F4  UNL d   1       2.097  -3.102  -1.285  0.00  0.00    -0.092 F 
ENDROOT
TORSDOF 0
ENDMDL
