MODEL 1
REMARK minimizedAffinity -1.80847549
REMARK minimizedRMSD -1
REMARK  0 active torsions:
REMARK  status: ('A' for Active; 'I' for Inactive)
ROOT
ATOM      1  C   UNL d   1       1.474  -3.064   0.349  0.00  0.00     0.124 A 
ATOM      2  C1  UNL d   1       0.094  -3.192   0.426  0.00  0.00     0.062 A 
ATOM      3  C2  UNL d   1      -0.693  -2.093   0.761  0.00  0.00     0.162 A 
ATOM      4  C3  UNL d   1      -0.102  -0.857   1.021  0.00  0.00    -0.034 A 
ATOM      5  C4  UNL d   1       1.287  -0.737   0.943  0.00  0.00     0.162 A 
ATOM      6  C5  UNL d   1       2.069  -1.837   0.608  0.00  0.00     0.062 A 
ATOM      7  F   UNL d   1       3.402  -1.712   0.534  0.00  0.00    -0.097 F 
ATOM      8  F1  UNL d   1       1.888   0.437   1.187  0.00  0.00    -0.096 F 
ATOM      9  I   UNL d   1      -1.275   0.787   1.523  0.00  0.00    -0.060 I 
ATOM     10  F2  UNL d   1      -2.024  -2.246   0.828  0.00  0.00    -0.096 F 
ATOM     11  F3  UNL d   1      -0.484  -4.376   0.178  0.00  0.00    -0.097 F 
ATOM     12  F4  UNL d   1       2.228  -4.123   0.027  0.00  0.00    -0.092 F 
ENDROOT
TORSDOF 0
ENDMDL
