MODEL 1
REMARK minimizedAffinity 4.3969574
REMARK minimizedRMSD -1
REMARK  0 active torsions:
REMARK  status: ('A' for Active; 'I' for Inactive)
ROOT
ATOM      1  C   UNL d   1       0.755  -1.053   0.934  0.00  0.00     0.124 A 
ATOM      2  C1  UNL d   1       2.130  -0.879   0.859  0.00  0.00     0.062 A 
ATOM      3  C2  UNL d   1       2.954  -1.950   0.525  0.00  0.00     0.162 A 
ATOM      4  C3  UNL d   1       2.405  -3.206   0.263  0.00  0.00    -0.034 A 
ATOM      5  C4  UNL d   1       1.021  -3.373   0.342  0.00  0.00     0.162 A 
ATOM      6  C5  UNL d   1       0.202  -2.300   0.676  0.00  0.00     0.062 A 
ATOM      7  F   UNL d   1      -1.126  -2.470   0.749  0.00  0.00    -0.097 F 
ATOM      8  F1  UNL d   1       0.460  -4.567   0.096  0.00  0.00    -0.096 F 
ATOM      9  I   UNL d   1       3.633  -4.810  -0.236  0.00  0.00    -0.060 I 
ATOM     10  F2  UNL d   1       4.279  -1.753   0.459  0.00  0.00    -0.096 F 
ATOM     11  F3  UNL d   1       2.667   0.324   1.108  0.00  0.00    -0.097 F 
ATOM     12  F4  UNL d   1      -0.035  -0.021   1.256  0.00  0.00    -0.092 F 
ENDROOT
TORSDOF 0
ENDMDL
