MODEL 1
REMARK minimizedAffinity -2.87647557
REMARK minimizedRMSD -1
REMARK  0 active torsions:
REMARK  status: ('A' for Active; 'I' for Inactive)
ROOT
ATOM      1  C   UNL d   1       0.784  -0.526   0.838  0.00  0.00     0.124 A 
ATOM      2  C1  UNL d   1       2.147  -0.403   0.605  0.00  0.00     0.062 A 
ATOM      3  C2  UNL d   1       2.928  -1.538   0.407  0.00  0.00     0.162 A 
ATOM      4  C3  UNL d   1       2.348  -2.806   0.439  0.00  0.00    -0.034 A 
ATOM      5  C4  UNL d   1       0.977  -2.921   0.674  0.00  0.00     0.162 A 
ATOM      6  C5  UNL d   1       0.201  -1.784   0.872  0.00  0.00     0.062 A 
ATOM      7  F   UNL d   1      -1.116  -1.905   1.096  0.00  0.00    -0.097 F 
ATOM      8  F1  UNL d   1       0.387  -4.125   0.711  0.00  0.00    -0.096 F 
ATOM      9  I   UNL d   1       3.513  -4.505   0.143  0.00  0.00    -0.060 I 
ATOM     10  F2  UNL d   1       4.243  -1.390   0.185  0.00  0.00    -0.096 F 
ATOM     11  F3  UNL d   1       2.714   0.812   0.573  0.00  0.00    -0.097 F 
ATOM     12  F4  UNL d   1       0.035   0.568   1.029  0.00  0.00    -0.092 F 
ENDROOT
TORSDOF 0
ENDMDL
