MODEL 1
REMARK minimizedAffinity 2.50961351
REMARK minimizedRMSD -1
REMARK  0 active torsions:
REMARK  status: ('A' for Active; 'I' for Inactive)
ROOT
ATOM      1  C   UNL d   1       1.003  -1.061   0.984  0.00  0.00     0.124 A 
ATOM      2  C1  UNL d   1       2.381  -0.897   0.944  0.00  0.00     0.062 A 
ATOM      3  C2  UNL d   1       3.201  -1.953   0.557  0.00  0.00     0.162 A 
ATOM      4  C3  UNL d   1       2.645  -3.183   0.206  0.00  0.00    -0.034 A 
ATOM      5  C4  UNL d   1       1.259  -3.341   0.250  0.00  0.00     0.162 A 
ATOM      6  C5  UNL d   1       0.443  -2.283   0.638  0.00  0.00     0.062 A 
ATOM      7  F   UNL d   1      -0.887  -2.444   0.676  0.00  0.00    -0.097 F 
ATOM      8  F1  UNL d   1       0.691  -4.511  -0.081  0.00  0.00    -0.096 F 
ATOM      9  I   UNL d   1       3.868  -4.765  -0.373  0.00  0.00    -0.060 I 
ATOM     10  F2  UNL d   1       4.528  -1.765   0.527  0.00  0.00    -0.096 F 
ATOM     11  F3  UNL d   1       2.924   0.282   1.280  0.00  0.00    -0.097 F 
ATOM     12  F4  UNL d   1       0.216  -0.044   1.358  0.00  0.00    -0.092 F 
ENDROOT
TORSDOF 0
ENDMDL
