MODEL 1
REMARK minimizedAffinity 1.72589481
REMARK minimizedRMSD -1
REMARK  0 active torsions:
REMARK  status: ('A' for Active; 'I' for Inactive)
ROOT
ATOM      1  C   UNL d   1       0.425  -0.780   0.886  0.00  0.00     0.124 A 
ATOM      2  C1  UNL d   1       1.800  -0.594   0.914  0.00  0.00     0.062 A 
ATOM      3  C2  UNL d   1       2.655  -1.652   0.621  0.00  0.00     0.162 A 
ATOM      4  C3  UNL d   1       2.138  -2.906   0.296  0.00  0.00    -0.034 A 
ATOM      5  C4  UNL d   1       0.753  -3.085   0.271  0.00  0.00     0.162 A 
ATOM      6  C5  UNL d   1      -0.097  -2.025   0.565  0.00  0.00     0.062 A 
ATOM      7  F   UNL d   1      -1.426  -2.206   0.537  0.00  0.00    -0.097 F 
ATOM      8  F1  UNL d   1       0.222  -4.278  -0.037  0.00  0.00    -0.096 F 
ATOM      9  I   UNL d   1       3.413  -4.491  -0.143  0.00  0.00    -0.060 I 
ATOM     10  F2  UNL d   1       3.980  -1.444   0.655  0.00  0.00    -0.096 F 
ATOM     11  F3  UNL d   1       2.306   0.608   1.225  0.00  0.00    -0.097 F 
ATOM     12  F4  UNL d   1      -0.396   0.240   1.169  0.00  0.00    -0.092 F 
ENDROOT
TORSDOF 0
ENDMDL
