MODEL 1
REMARK minimizedAffinity -0.465829343
REMARK minimizedRMSD -1
REMARK  0 active torsions:
REMARK  status: ('A' for Active; 'I' for Inactive)
ROOT
ATOM      1  C   UNL d   1       0.736  -0.970   0.761  0.00  0.00     0.124 A 
ATOM      2  C1  UNL d   1       2.107  -0.757   0.730  0.00  0.00     0.062 A 
ATOM      3  C2  UNL d   1       2.973  -1.810   0.454  0.00  0.00     0.162 A 
ATOM      4  C3  UNL d   1       2.471  -3.088   0.206  0.00  0.00    -0.034 A 
ATOM      5  C4  UNL d   1       1.091  -3.295   0.240  0.00  0.00     0.162 A 
ATOM      6  C5  UNL d   1       0.229  -2.239   0.516  0.00  0.00     0.062 A 
ATOM      7  F   UNL d   1      -1.095  -2.448   0.546  0.00  0.00    -0.097 F 
ATOM      8  F1  UNL d   1       0.575  -4.511   0.006  0.00  0.00    -0.096 F 
ATOM      9  I   UNL d   1       3.764  -4.666  -0.207  0.00  0.00    -0.060 I 
ATOM     10  F2  UNL d   1       4.294  -1.575   0.431  0.00  0.00    -0.096 F 
ATOM     11  F3  UNL d   1       2.598   0.468   0.968  0.00  0.00    -0.097 F 
ATOM     12  F4  UNL d   1      -0.096   0.045   1.028  0.00  0.00    -0.092 F 
ENDROOT
TORSDOF 0
ENDMDL
