MODEL 1
REMARK minimizedAffinity 7.58496714
REMARK minimizedRMSD -1
REMARK  0 active torsions:
REMARK  status: ('A' for Active; 'I' for Inactive)
ROOT
ATOM      1  C   UNL d   1       0.884  -1.246   0.536  0.00  0.00     0.124 A 
ATOM      2  C1  UNL d   1       2.252  -1.107   0.726  0.00  0.00     0.062 A 
ATOM      3  C2  UNL d   1       3.100  -2.193   0.532  0.00  0.00     0.162 A 
ATOM      4  C3  UNL d   1       2.582  -3.429   0.144  0.00  0.00    -0.034 A 
ATOM      5  C4  UNL d   1       1.206  -3.562  -0.044  0.00  0.00     0.162 A 
ATOM      6  C5  UNL d   1       0.362  -2.473   0.151  0.00  0.00     0.062 A 
ATOM      7  F   UNL d   1      -0.959  -2.609  -0.034  0.00  0.00    -0.097 F 
ATOM      8  F1  UNL d   1       0.675  -4.736  -0.417  0.00  0.00    -0.096 F 
ATOM      9  I   UNL d   1       3.847  -5.056  -0.147  0.00  0.00    -0.060 I 
ATOM     10  F2  UNL d   1       4.417  -2.030   0.723  0.00  0.00    -0.096 F 
ATOM     11  F3  UNL d   1       2.758   0.078   1.099  0.00  0.00    -0.097 F 
ATOM     12  F4  UNL d   1       0.070  -0.199   0.724  0.00  0.00    -0.092 F 
ENDROOT
TORSDOF 0
ENDMDL
