MODEL 1
REMARK minimizedAffinity 6.99183035
REMARK minimizedRMSD -1
REMARK  0 active torsions:
REMARK  status: ('A' for Active; 'I' for Inactive)
ROOT
ATOM      1  C   UNL d   1       0.342  -1.017   0.973  0.00  0.00     0.124 A 
ATOM      2  C1  UNL d   1       1.724  -0.893   1.000  0.00  0.00     0.062 A 
ATOM      3  C2  UNL d   1       2.530  -1.973   0.651  0.00  0.00     0.162 A 
ATOM      4  C3  UNL d   1       1.956  -3.186   0.271  0.00  0.00    -0.034 A 
ATOM      5  C4  UNL d   1       0.566  -3.303   0.248  0.00  0.00     0.162 A 
ATOM      6  C5  UNL d   1      -0.236  -2.221   0.597  0.00  0.00     0.062 A 
ATOM      7  F   UNL d   1      -1.571  -2.343   0.571  0.00  0.00    -0.097 F 
ATOM      8  F1  UNL d   1      -0.019  -4.455  -0.113  0.00  0.00    -0.096 F 
ATOM      9  I   UNL d   1       3.159  -4.802  -0.252  0.00  0.00    -0.060 I 
ATOM     10  F2  UNL d   1       3.863  -1.824   0.686  0.00  0.00    -0.096 F 
ATOM     11  F3  UNL d   1       2.285   0.269   1.364  0.00  0.00    -0.097 F 
ATOM     12  F4  UNL d   1      -0.432   0.023   1.311  0.00  0.00    -0.092 F 
ENDROOT
TORSDOF 0
ENDMDL
