MODEL 1
REMARK minimizedAffinity -1.29515517
REMARK minimizedRMSD -1
REMARK  0 active torsions:
REMARK  status: ('A' for Active; 'I' for Inactive)
ROOT
ATOM      1  C   UNL d   1       0.326  -0.918   0.744  0.00  0.00     0.124 A 
ATOM      2  C1  UNL d   1       1.689  -0.656   0.748  0.00  0.00     0.062 A 
ATOM      3  C2  UNL d   1       2.597  -1.667   0.447  0.00  0.00     0.162 A 
ATOM      4  C3  UNL d   1       2.145  -2.950   0.138  0.00  0.00    -0.034 A 
ATOM      5  C4  UNL d   1       0.773  -3.206   0.137  0.00  0.00     0.162 A 
ATOM      6  C5  UNL d   1      -0.131  -2.193   0.439  0.00  0.00     0.062 A 
ATOM      7  F   UNL d   1      -1.447  -2.448   0.435  0.00  0.00    -0.097 F 
ATOM      8  F1  UNL d   1       0.304  -4.429  -0.155  0.00  0.00    -0.096 F 
ATOM      9  I   UNL d   1       3.499  -4.465  -0.313  0.00  0.00    -0.060 I 
ATOM     10  F2  UNL d   1       3.908  -1.385   0.458  0.00  0.00    -0.096 F 
ATOM     11  F3  UNL d   1       2.133   0.574   1.044  0.00  0.00    -0.097 F 
ATOM     12  F4  UNL d   1      -0.546   0.056   1.036  0.00  0.00    -0.092 F 
ENDROOT
TORSDOF 0
ENDMDL
