MODEL 1
REMARK minimizedAffinity 4.84960651
REMARK minimizedRMSD -1
REMARK  0 active torsions:
REMARK  status: ('A' for Active; 'I' for Inactive)
ROOT
ATOM      1  C   UNL d   1       3.196  -3.272  -0.199  0.00  0.00     0.124 A 
ATOM      2  C1  UNL d   1       1.948  -3.846   0.005  0.00  0.00     0.062 A 
ATOM      3  C2  UNL d   1       0.871  -3.059   0.401  0.00  0.00     0.162 A 
ATOM      4  C3  UNL d   1       1.037  -1.687   0.596  0.00  0.00    -0.034 A 
ATOM      5  C4  UNL d   1       2.294  -1.117   0.390  0.00  0.00     0.162 A 
ATOM      6  C5  UNL d   1       3.367  -1.909  -0.006  0.00  0.00     0.062 A 
ATOM      7  F   UNL d   1       4.572  -1.353  -0.201  0.00  0.00    -0.097 F 
ATOM      8  F1  UNL d   1       2.488   0.198   0.569  0.00  0.00    -0.096 F 
ATOM      9  I   UNL d   1      -0.571  -0.506   1.188  0.00  0.00    -0.060 I 
ATOM     10  F2  UNL d   1      -0.323  -3.640   0.590  0.00  0.00    -0.096 F 
ATOM     11  F3  UNL d   1       1.780  -5.164  -0.180  0.00  0.00    -0.097 F 
ATOM     12  F4  UNL d   1       4.230  -4.033  -0.579  0.00  0.00    -0.092 F 
ENDROOT
TORSDOF 0
ENDMDL
