MODEL 1
REMARK minimizedAffinity 5.2810607
REMARK minimizedRMSD -1
REMARK  0 active torsions:
REMARK  status: ('A' for Active; 'I' for Inactive)
ROOT
ATOM      1  C   UNL d   1       3.322  -3.605   0.231  0.00  0.00     0.124 A 
ATOM      2  C1  UNL d   1       3.445  -2.318   0.736  0.00  0.00     0.062 A 
ATOM      3  C2  UNL d   1       2.309  -1.561   1.006  0.00  0.00     0.162 A 
ATOM      4  C3  UNL d   1       1.039  -2.089   0.774  0.00  0.00    -0.034 A 
ATOM      5  C4  UNL d   1       0.924  -3.384   0.266  0.00  0.00     0.162 A 
ATOM      6  C5  UNL d   1       2.062  -4.137  -0.003  0.00  0.00     0.062 A 
ATOM      7  F   UNL d   1       1.942  -5.380  -0.491  0.00  0.00    -0.097 F 
ATOM      8  F1  UNL d   1      -0.282  -3.923   0.031  0.00  0.00    -0.096 F 
ATOM      9  I   UNL d   1      -0.662  -0.960   1.178  0.00  0.00    -0.060 I 
ATOM     10  F2  UNL d   1       2.458  -0.320   1.493  0.00  0.00    -0.096 F 
ATOM     11  F3  UNL d   1       4.662  -1.802   0.962  0.00  0.00    -0.097 F 
ATOM     12  F4  UNL d   1       4.417  -4.331  -0.029  0.00  0.00    -0.092 F 
ENDROOT
TORSDOF 0
ENDMDL
