MODEL 1
REMARK minimizedAffinity 6.24278116
REMARK minimizedRMSD -1
REMARK  0 active torsions:
REMARK  status: ('A' for Active; 'I' for Inactive)
ROOT
ATOM      1  C   UNL d   1      -0.052  -2.899   0.203  0.00  0.00     0.124 A 
ATOM      2  C1  UNL d   1       1.332  -2.960   0.123  0.00  0.00     0.062 A 
ATOM      3  C2  UNL d   1       2.101  -1.839   0.420  0.00  0.00     0.162 A 
ATOM      4  C3  UNL d   1       1.487  -0.646   0.802  0.00  0.00    -0.034 A 
ATOM      5  C4  UNL d   1       0.094  -0.591   0.879  0.00  0.00     0.162 A 
ATOM      6  C5  UNL d   1      -0.670  -1.715   0.581  0.00  0.00     0.062 A 
ATOM      7  F   UNL d   1      -2.007  -1.653   0.658  0.00  0.00    -0.097 F 
ATOM      8  F1  UNL d   1      -0.528   0.540   1.242  0.00  0.00    -0.096 F 
ATOM      9  I   UNL d   1       2.633   1.033   1.247  0.00  0.00    -0.060 I 
ATOM     10  F2  UNL d   1       3.436  -1.927   0.335  0.00  0.00    -0.096 F 
ATOM     11  F3  UNL d   1       1.931  -4.103  -0.242  0.00  0.00    -0.097 F 
ATOM     12  F4  UNL d   1      -0.790  -3.979  -0.084  0.00  0.00    -0.092 F 
ENDROOT
TORSDOF 0
ENDMDL
