MODEL 1
REMARK minimizedAffinity 9.97893047
REMARK minimizedRMSD -1
REMARK  0 active torsions:
REMARK  status: ('A' for Active; 'I' for Inactive)
ROOT
ATOM      1  C   UNL d   1      -0.540  -1.240   0.799  0.00  0.00     0.124 A 
ATOM      2  C1  UNL d   1       0.038  -0.028   1.150  0.00  0.00     0.062 A 
ATOM      3  C2  UNL d   1       1.423   0.090   1.224  0.00  0.00     0.162 A 
ATOM      4  C3  UNL d   1       2.240  -1.006   0.947  0.00  0.00    -0.034 A 
ATOM      5  C4  UNL d   1       1.650  -2.222   0.595  0.00  0.00     0.162 A 
ATOM      6  C5  UNL d   1       0.266  -2.335   0.522  0.00  0.00     0.062 A 
ATOM      7  F   UNL d   1      -0.292  -3.507   0.183  0.00  0.00    -0.097 F 
ATOM      8  F1  UNL d   1       2.405  -3.296   0.322  0.00  0.00    -0.096 F 
ATOM      9  I   UNL d   1       4.311  -0.833   1.057  0.00  0.00    -0.060 I 
ATOM     10  F2  UNL d   1       1.955   1.274   1.566  0.00  0.00    -0.096 F 
ATOM     11  F3  UNL d   1      -0.738   1.031   1.418  0.00  0.00    -0.097 F 
ATOM     12  F4  UNL d   1      -1.873  -1.352   0.729  0.00  0.00    -0.092 F 
ENDROOT
TORSDOF 0
ENDMDL
