MODEL 1
REMARK minimizedAffinity 3.34336114
REMARK minimizedRMSD -1
REMARK  0 active torsions:
REMARK  status: ('A' for Active; 'I' for Inactive)
ROOT
ATOM      1  C   UNL d   1       0.463  -0.889   1.446  0.00  0.00     0.124 A 
ATOM      2  C1  UNL d   1       1.830  -0.674   1.332  0.00  0.00     0.062 A 
ATOM      3  C2  UNL d   1       2.653  -1.664   0.804  0.00  0.00     0.162 A 
ATOM      4  C3  UNL d   1       2.112  -2.879   0.384  0.00  0.00    -0.034 A 
ATOM      5  C4  UNL d   1       0.737  -3.089   0.502  0.00  0.00     0.162 A 
ATOM      6  C5  UNL d   1      -0.082  -2.096   1.031  0.00  0.00     0.062 A 
ATOM      7  F   UNL d   1      -1.402  -2.307   1.140  0.00  0.00    -0.097 F 
ATOM      8  F1  UNL d   1       0.184  -4.246   0.108  0.00  0.00    -0.096 F 
ATOM      9  I   UNL d   1       3.340  -4.362  -0.406  0.00  0.00    -0.060 I 
ATOM     10  F2  UNL d   1       3.970  -1.428   0.706  0.00  0.00    -0.096 F 
ATOM     11  F3  UNL d   1       2.358   0.492   1.733  0.00  0.00    -0.097 F 
ATOM     12  F4  UNL d   1      -0.327   0.065   1.955  0.00  0.00    -0.092 F 
ENDROOT
TORSDOF 0
ENDMDL
