MODEL 1
REMARK minimizedAffinity 7.07456303
REMARK minimizedRMSD -1
REMARK  0 active torsions:
REMARK  status: ('A' for Active; 'I' for Inactive)
ROOT
ATOM      1  C   UNL d   1       2.486  -4.144  -0.363  0.00  0.00     0.124 A 
ATOM      2  C1  UNL d   1       1.123  -3.949  -0.183  0.00  0.00     0.062 A 
ATOM      3  C2  UNL d   1       0.651  -2.748   0.340  0.00  0.00     0.162 A 
ATOM      4  C3  UNL d   1       1.542  -1.732   0.685  0.00  0.00    -0.034 A 
ATOM      5  C4  UNL d   1       2.911  -1.936   0.502  0.00  0.00     0.162 A 
ATOM      6  C5  UNL d   1       3.378  -3.137  -0.021  0.00  0.00     0.062 A 
ATOM      7  F   UNL d   1       4.694  -3.324  -0.194  0.00  0.00    -0.097 F 
ATOM      8  F1  UNL d   1       3.795  -0.980   0.823  0.00  0.00    -0.096 F 
ATOM      9  I   UNL d   1       0.839   0.064   1.467  0.00  0.00    -0.060 I 
ATOM     10  F2  UNL d   1      -0.671  -2.588   0.503  0.00  0.00    -0.096 F 
ATOM     11  F3  UNL d   1       0.259  -4.920  -0.512  0.00  0.00    -0.097 F 
ATOM     12  F4  UNL d   1       2.938  -5.300  -0.865  0.00  0.00    -0.092 F 
ENDROOT
TORSDOF 0
ENDMDL
