MODEL 1
REMARK minimizedAffinity 9.86052418
REMARK minimizedRMSD -1
REMARK  0 active torsions:
REMARK  status: ('A' for Active; 'I' for Inactive)
ROOT
ATOM      1  C   UNL d   1       0.369  -0.925   1.026  0.00  0.00     0.124 A 
ATOM      2  C1  UNL d   1      -0.220  -2.118   0.629  0.00  0.00     0.062 A 
ATOM      3  C2  UNL d   1       0.572  -3.203   0.267  0.00  0.00     0.162 A 
ATOM      4  C3  UNL d   1       1.962  -3.103   0.300  0.00  0.00    -0.034 A 
ATOM      5  C4  UNL d   1       2.548  -1.900   0.700  0.00  0.00     0.162 A 
ATOM      6  C5  UNL d   1       1.752  -0.818   1.061  0.00  0.00     0.062 A 
ATOM      7  F   UNL d   1       2.324   0.333   1.444  0.00  0.00    -0.097 F 
ATOM      8  F1  UNL d   1       3.882  -1.769   0.743  0.00  0.00    -0.096 F 
ATOM      9  I   UNL d   1       3.150  -4.724  -0.241  0.00  0.00    -0.060 I 
ATOM     10  F2  UNL d   1      -0.025  -4.343  -0.113  0.00  0.00    -0.096 F 
ATOM     11  F3  UNL d   1      -1.556  -2.224   0.594  0.00  0.00    -0.097 F 
ATOM     12  F4  UNL d   1      -0.395   0.118   1.373  0.00  0.00    -0.092 F 
ENDROOT
TORSDOF 0
ENDMDL
