MODEL 1
REMARK minimizedAffinity 1.58164775
REMARK minimizedRMSD -1
REMARK  0 active torsions:
REMARK  status: ('A' for Active; 'I' for Inactive)
ROOT
ATOM      1  C   UNL d   1       0.145  -0.544   0.809  0.00  0.00     0.124 A 
ATOM      2  C1  UNL d   1       1.484  -0.318   0.524  0.00  0.00     0.062 A 
ATOM      3  C2  UNL d   1       2.296  -1.365   0.098  0.00  0.00     0.162 A 
ATOM      4  C3  UNL d   1       1.771  -2.649  -0.045  0.00  0.00    -0.034 A 
ATOM      5  C4  UNL d   1       0.424  -2.870   0.245  0.00  0.00     0.162 A 
ATOM      6  C5  UNL d   1      -0.384  -1.820   0.670  0.00  0.00     0.062 A 
ATOM      7  F   UNL d   1      -1.678  -2.041   0.945  0.00  0.00    -0.097 F 
ATOM      8  F1  UNL d   1      -0.114  -4.092   0.117  0.00  0.00    -0.096 F 
ATOM      9  I   UNL d   1       2.982  -4.218  -0.682  0.00  0.00    -0.060 I 
ATOM     10  F2  UNL d   1       3.587  -1.117  -0.171  0.00  0.00    -0.096 F 
ATOM     11  F3  UNL d   1       1.998   0.914   0.659  0.00  0.00    -0.097 F 
ATOM     12  F4  UNL d   1      -0.634   0.465   1.220  0.00  0.00    -0.092 F 
ENDROOT
TORSDOF 0
ENDMDL
