MODEL 1
REMARK minimizedAffinity -1.28356004
REMARK minimizedRMSD -1
REMARK  1 active torsions:
REMARK  status: ('A' for Active; 'I' for Inactive)
REMARK    1  A    between atoms: C3_4  and  O_7 
ROOT
ATOM      1  C   UNL d   1       2.129  -1.078   0.304  0.00  0.00    -0.033 A 
ATOM      2  C1  UNL d   1       0.887  -1.476   0.800  0.00  0.00     0.039 A 
ATOM      3  C2  UNL d   1      -0.248  -0.702   0.550  0.00  0.00    -0.080 A 
ATOM      4  C3  UNL d   1      -0.127   0.467  -0.196  0.00  0.00     0.150 A 
ATOM      5  C4  UNL d   1       1.107   0.868  -0.697  0.00  0.00    -0.007 A 
ATOM      6  C5  UNL d   1       2.239   0.094  -0.446  0.00  0.00     0.039 A 
ENDROOT
BRANCH   4   7
ATOM      7  O   UNL d   1      -1.205   1.258  -0.462  0.00  0.00    -0.526 OA
ATOM      8  H5  UNL d   1      -1.984   0.871  -0.029  0.00  0.00     0.418 HD
ENDBRANCH   4   7
TORSDOF 1
ENDMDL
