MODEL 1
REMARK minimizedAffinity -2.6337142
REMARK minimizedRMSD -1
REMARK  1 active torsions:
REMARK  status: ('A' for Active; 'I' for Inactive)
REMARK    1  A    between atoms: C3_4  and  O_7 
ROOT
ATOM      1  C   UNL d   1       1.468  -1.714   1.479  0.00  0.00    -0.033 A 
ATOM      2  C1  UNL d   1       2.039  -1.220   0.304  0.00  0.00     0.039 A 
ATOM      3  C2  UNL d   1       1.344  -0.292  -0.475  0.00  0.00    -0.080 A 
ATOM      4  C3  UNL d   1       0.082   0.133  -0.069  0.00  0.00     0.150 A 
ATOM      5  C4  UNL d   1      -0.491  -0.353   1.102  0.00  0.00    -0.007 A 
ATOM      6  C5  UNL d   1       0.204  -1.279   1.878  0.00  0.00     0.039 A 
ENDROOT
BRANCH   4   7
ATOM      7  O   UNL d   1      -0.635   1.033  -0.799  0.00  0.00    -0.526 OA
ATOM      8  H5  UNL d   1      -0.127   1.258  -1.596  0.00  0.00     0.418 HD
ENDBRANCH   4   7
TORSDOF 1
ENDMDL
