MODEL 1
REMARK minimizedAffinity -1.56345403
REMARK minimizedRMSD -1
REMARK  1 active torsions:
REMARK  status: ('A' for Active; 'I' for Inactive)
REMARK    1  A    between atoms: C3_4  and  O_7 
ROOT
ATOM      1  C   UNL d   1      -2.255   2.523  -2.689  0.00  0.00    -0.033 A 
ATOM      2  C1  UNL d   1      -2.554   1.159  -2.665  0.00  0.00     0.039 A 
ATOM      3  C2  UNL d   1      -1.957   0.328  -1.715  0.00  0.00    -0.080 A 
ATOM      4  C3  UNL d   1      -1.065   0.873  -0.795  0.00  0.00     0.150 A 
ATOM      5  C4  UNL d   1      -0.766   2.231  -0.811  0.00  0.00    -0.007 A 
ATOM      6  C5  UNL d   1      -1.362   3.059  -1.761  0.00  0.00     0.039 A 
ENDROOT
BRANCH   4   7
ATOM      7  O   UNL d   1      -0.454   0.101   0.148  0.00  0.00    -0.526 OA
ATOM      8  H5  UNL d   1      -0.734  -0.820   0.021  0.00  0.00     0.418 HD
ENDBRANCH   4   7
TORSDOF 1
ENDMDL
