MODEL 1
REMARK minimizedAffinity -1.63055456
REMARK minimizedRMSD -1
REMARK  1 active torsions:
REMARK  status: ('A' for Active; 'I' for Inactive)
REMARK    1  A    between atoms: C3_4  and  O_7 
ROOT
ATOM      1  C   UNL d   1      -1.405   0.851   0.727  0.00  0.00    -0.033 A 
ATOM      2  C1  UNL d   1      -1.657   0.060   1.849  0.00  0.00     0.039 A 
ATOM      3  C2  UNL d   1      -0.773  -0.963   2.198  0.00  0.00    -0.080 A 
ATOM      4  C3  UNL d   1       0.358  -1.184   1.417  0.00  0.00     0.150 A 
ATOM      5  C4  UNL d   1       0.618  -0.397   0.300  0.00  0.00    -0.007 A 
ATOM      6  C5  UNL d   1      -0.266   0.623  -0.047  0.00  0.00     0.039 A 
ENDROOT
BRANCH   4   7
ATOM      7  O   UNL d   1       1.247  -2.173   1.715  0.00  0.00    -0.526 OA
ATOM      8  H5  UNL d   1       0.924  -2.653   2.495  0.00  0.00     0.418 HD
ENDBRANCH   4   7
TORSDOF 1
ENDMDL
