MODEL 1
REMARK minimizedAffinity -2.87202883
REMARK minimizedRMSD -1
REMARK  1 active torsions:
REMARK  status: ('A' for Active; 'I' for Inactive)
REMARK    1  A    between atoms: C3_4  and  O_7 
ROOT
ATOM      1  C   UNL d   1       0.939   0.317   0.161  0.00  0.00    -0.033 A 
ATOM      2  C1  UNL d   1       0.932  -0.609  -0.884  0.00  0.00     0.039 A 
ATOM      3  C2  UNL d   1       0.007  -0.484  -1.923  0.00  0.00    -0.080 A 
ATOM      4  C3  UNL d   1      -0.902   0.570  -1.905  0.00  0.00     0.150 A 
ATOM      5  C4  UNL d   1      -0.898   1.498  -0.869  0.00  0.00    -0.007 A 
ATOM      6  C5  UNL d   1       0.026   1.371   0.168  0.00  0.00     0.039 A 
ENDROOT
BRANCH   4   7
ATOM      7  O   UNL d   1      -1.827   0.730  -2.894  0.00  0.00    -0.526 OA
ATOM      8  H5  UNL d   1      -1.730  -0.001  -3.527  0.00  0.00     0.418 HD
ENDBRANCH   4   7
TORSDOF 1
ENDMDL
