MODEL 1
REMARK minimizedAffinity -3.61121583
REMARK minimizedRMSD -1
REMARK  1 active torsions:
REMARK  status: ('A' for Active; 'I' for Inactive)
REMARK    1  A    between atoms: C3_4  and  O_7 
ROOT
ATOM      1  C   UNL d   1       1.439  -0.746  -0.703  0.00  0.00    -0.033 A 
ATOM      2  C1  UNL d   1       0.276  -0.099  -0.281  0.00  0.00     0.039 A 
ATOM      3  C2  UNL d   1      -0.282  -0.402   0.962  0.00  0.00    -0.080 A 
ATOM      4  C3  UNL d   1       0.332  -1.352   1.773  0.00  0.00     0.150 A 
ATOM      5  C4  UNL d   1       1.493  -1.998   1.361  0.00  0.00    -0.007 A 
ATOM      6  C5  UNL d   1       2.049  -1.694   0.119  0.00  0.00     0.039 A 
ENDROOT
BRANCH   4   7
ATOM      7  O   UNL d   1      -0.178  -1.685   2.993  0.00  0.00    -0.526 OA
ATOM      8  H5  UNL d   1      -0.997  -1.181   3.132  0.00  0.00     0.418 HD
ENDBRANCH   4   7
TORSDOF 1
ENDMDL
