MODEL 1
REMARK minimizedAffinity -2.28748083
REMARK minimizedRMSD -1
REMARK  1 active torsions:
REMARK  status: ('A' for Active; 'I' for Inactive)
REMARK    1  A    between atoms: C3_4  and  O_7 
ROOT
ATOM      1  C   UNL d   1      -0.890   1.119  -0.030  0.00  0.00    -0.033 A 
ATOM      2  C1  UNL d   1       0.329   1.029  -0.705  0.00  0.00     0.039 A 
ATOM      3  C2  UNL d   1       1.280   0.085  -0.309  0.00  0.00    -0.080 A 
ATOM      4  C3  UNL d   1       0.999  -0.761   0.760  0.00  0.00     0.150 A 
ATOM      5  C4  UNL d   1      -0.215  -0.678   1.435  0.00  0.00    -0.007 A 
ATOM      6  C5  UNL d   1      -1.162   0.265   1.039  0.00  0.00     0.039 A 
ENDROOT
BRANCH   4   7
ATOM      7  O   UNL d   1       1.897  -1.694   1.185  0.00  0.00    -0.526 OA
ATOM      8  H5  UNL d   1       2.701  -1.616   0.645  0.00  0.00     0.418 HD
ENDBRANCH   4   7
TORSDOF 1
ENDMDL
