MODEL 1
REMARK minimizedAffinity -3.26565599
REMARK minimizedRMSD -1
REMARK  1 active torsions:
REMARK  status: ('A' for Active; 'I' for Inactive)
REMARK    1  A    between atoms: C3_4  and  O_7 
ROOT
ATOM      1  C   UNL d   1       1.606  -0.802  -0.083  0.00  0.00    -0.033 A 
ATOM      2  C1  UNL d   1       0.654   0.157  -0.431  0.00  0.00     0.039 A 
ATOM      3  C2  UNL d   1      -0.484   0.334   0.360  0.00  0.00    -0.080 A 
ATOM      4  C3  UNL d   1      -0.656  -0.453   1.495  0.00  0.00     0.150 A 
ATOM      5  C4  UNL d   1       0.291  -1.409   1.850  0.00  0.00    -0.007 A 
ATOM      6  C5  UNL d   1       1.425  -1.584   1.058  0.00  0.00     0.039 A 
ENDROOT
BRANCH   4   7
ATOM      7  O   UNL d   1      -1.752  -0.320   2.295  0.00  0.00    -0.526 OA
ATOM      8  H5  UNL d   1      -2.333   0.358   1.910  0.00  0.00     0.418 HD
ENDBRANCH   4   7
TORSDOF 1
ENDMDL
