MODEL 1
REMARK minimizedAffinity -2.05261898
REMARK minimizedRMSD -1
REMARK  1 active torsions:
REMARK  status: ('A' for Active; 'I' for Inactive)
REMARK    1  A    between atoms: C3_4  and  O_7 
ROOT
ATOM      1  C   UNL d   1      -2.641  -5.632  -3.733  0.00  0.00    -0.033 A 
ATOM      2  C1  UNL d   1      -1.921  -5.255  -2.598  0.00  0.00     0.039 A 
ATOM      3  C2  UNL d   1      -0.525  -5.250  -2.625  0.00  0.00    -0.080 A 
ATOM      4  C3  UNL d   1       0.138  -5.622  -3.791  0.00  0.00     0.150 A 
ATOM      5  C4  UNL d   1      -0.573  -5.994  -4.927  0.00  0.00    -0.007 A 
ATOM      6  C5  UNL d   1      -1.967  -6.000  -4.898  0.00  0.00     0.039 A 
ENDROOT
BRANCH   4   7
ATOM      7  O   UNL d   1       1.499  -5.637  -3.864  0.00  0.00    -0.526 OA
ATOM      8  H5  UNL d   1       1.856  -5.384  -2.996  0.00  0.00     0.418 HD
ENDBRANCH   4   7
TORSDOF 1
ENDMDL
