MODEL 1
REMARK minimizedAffinity -3.13351393
REMARK minimizedRMSD -1
REMARK  1 active torsions:
REMARK  status: ('A' for Active; 'I' for Inactive)
REMARK    1  A    between atoms: C3_4  and  O_7 
ROOT
ATOM      1  C   UNL d   1       2.308  -1.803   0.745  0.00  0.00    -0.033 A 
ATOM      2  C1  UNL d   1       2.503  -1.436  -0.588  0.00  0.00     0.039 A 
ATOM      3  C2  UNL d   1       1.696  -0.457  -1.170  0.00  0.00    -0.080 A 
ATOM      4  C3  UNL d   1       0.699   0.147  -0.409  0.00  0.00     0.150 A 
ATOM      5  C4  UNL d   1       0.501  -0.211   0.921  0.00  0.00    -0.007 A 
ATOM      6  C5  UNL d   1       1.308  -1.189   1.500  0.00  0.00     0.039 A 
ENDROOT
BRANCH   4   7
ATOM      7  O   UNL d   1      -0.117   1.104  -0.934  0.00  0.00    -0.526 OA
ATOM      8  H5  UNL d   1       0.116   1.228  -1.870  0.00  0.00     0.418 HD
ENDBRANCH   4   7
TORSDOF 1
ENDMDL
