MODEL 1
REMARK minimizedAffinity -2.97557354
REMARK minimizedRMSD -1
REMARK  1 active torsions:
REMARK  status: ('A' for Active; 'I' for Inactive)
REMARK    1  A    between atoms: C3_4  and  O_7 
ROOT
ATOM      1  C   UNL d   1       1.579  -1.038   0.085  0.00  0.00    -0.033 A 
ATOM      2  C1  UNL d   1       1.907  -1.835   1.184  0.00  0.00     0.039 A 
ATOM      3  C2  UNL d   1       0.984  -2.019   2.215  0.00  0.00    -0.080 A 
ATOM      4  C3  UNL d   1      -0.262  -1.403   2.135  0.00  0.00     0.150 A 
ATOM      5  C4  UNL d   1      -0.597  -0.612   1.042  0.00  0.00    -0.007 A 
ATOM      6  C5  UNL d   1       0.327  -0.428   0.013  0.00  0.00     0.039 A 
ENDROOT
BRANCH   4   7
ATOM      7  O   UNL d   1      -1.193  -1.550   3.119  0.00  0.00    -0.526 OA
ATOM      8  H5  UNL d   1      -0.813  -2.100   3.824  0.00  0.00     0.418 HD
ENDBRANCH   4   7
TORSDOF 1
ENDMDL
