MODEL 1
REMARK minimizedAffinity -4.02242041
REMARK minimizedRMSD -1
REMARK  1 active torsions:
REMARK  status: ('A' for Active; 'I' for Inactive)
REMARK    1  A    between atoms: C3_4  and  O_7 
ROOT
ATOM      1  C   UNL d   1      -1.503   2.137  -1.031  0.00  0.00    -0.033 A 
ATOM      2  C1  UNL d   1      -2.289   2.562  -2.104  0.00  0.00     0.039 A 
ATOM      3  C2  UNL d   1      -2.550   1.696  -3.167  0.00  0.00    -0.080 A 
ATOM      4  C3  UNL d   1      -2.021   0.408  -3.145  0.00  0.00     0.150 A 
ATOM      5  C4  UNL d   1      -1.241  -0.024  -2.078  0.00  0.00    -0.007 A 
ATOM      6  C5  UNL d   1      -0.981   0.843  -1.017  0.00  0.00     0.039 A 
ENDROOT
BRANCH   4   7
ATOM      7  O   UNL d   1      -2.245  -0.472  -4.162  0.00  0.00    -0.526 OA
ATOM      8  H5  UNL d   1      -2.776  -0.026  -4.843  0.00  0.00     0.418 HD
ENDBRANCH   4   7
TORSDOF 1
ENDMDL
