MODEL 1
REMARK minimizedAffinity -3.80824518
REMARK minimizedRMSD -1
REMARK  1 active torsions:
REMARK  status: ('A' for Active; 'I' for Inactive)
REMARK    1  A    between atoms: C3_4  and  O_7 
ROOT
ATOM      1  C   UNL d   1       2.193  -1.393   1.013  0.00  0.00    -0.033 A 
ATOM      2  C1  UNL d   1       2.380  -1.298  -0.367  0.00  0.00     0.039 A 
ATOM      3  C2  UNL d   1       1.506  -0.531  -1.141  0.00  0.00    -0.080 A 
ATOM      4  C3  UNL d   1       0.451   0.135  -0.523  0.00  0.00     0.150 A 
ATOM      5  C4  UNL d   1       0.261   0.047   0.852  0.00  0.00    -0.007 A 
ATOM      6  C5  UNL d   1       1.134  -0.720   1.623  0.00  0.00     0.039 A 
ENDROOT
BRANCH   4   7
ATOM      7  O   UNL d   1      -0.430   0.891  -1.237  0.00  0.00    -0.526 OA
ATOM      8  H5  UNL d   1      -0.192   0.836  -2.177  0.00  0.00     0.418 HD
ENDBRANCH   4   7
TORSDOF 1
ENDMDL
