MODEL 1
REMARK minimizedAffinity -3.82625318
REMARK minimizedRMSD -1
REMARK  1 active torsions:
REMARK  status: ('A' for Active; 'I' for Inactive)
REMARK    1  A    between atoms: C3_4  and  O_7 
ROOT
ATOM      1  C   UNL d   1       0.650   0.732   0.010  0.00  0.00    -0.033 A 
ATOM      2  C1  UNL d   1       1.822  -0.022  -0.074  0.00  0.00     0.039 A 
ATOM      3  C2  UNL d   1       1.872  -1.301   0.485  0.00  0.00    -0.080 A 
ATOM      4  C3  UNL d   1       0.745  -1.814   1.121  0.00  0.00     0.150 A 
ATOM      5  C4  UNL d   1      -0.427  -1.069   1.204  0.00  0.00    -0.007 A 
ATOM      6  C5  UNL d   1      -0.475   0.208   0.647  0.00  0.00     0.039 A 
ENDROOT
BRANCH   4   7
ATOM      7  O   UNL d   1       0.747  -3.055   1.685  0.00  0.00    -0.526 OA
ATOM      8  H5  UNL d   1       1.633  -3.441   1.576  0.00  0.00     0.418 HD
ENDBRANCH   4   7
TORSDOF 1
ENDMDL
