MODEL 1
REMARK minimizedAffinity -1.97934318
REMARK minimizedRMSD -1
REMARK  1 active torsions:
REMARK  status: ('A' for Active; 'I' for Inactive)
REMARK    1  A    between atoms: C3_4  and  O_7 
ROOT
ATOM      1  C   UNL d   1      -0.021   0.828  -1.195  0.00  0.00    -0.033 A 
ATOM      2  C1  UNL d   1       0.503  -0.083  -0.276  0.00  0.00     0.039 A 
ATOM      3  C2  UNL d   1      -0.199  -0.380   0.894  0.00  0.00    -0.080 A 
ATOM      4  C3  UNL d   1      -1.423   0.238   1.132  0.00  0.00     0.150 A 
ATOM      5  C4  UNL d   1      -1.953   1.144   0.219  0.00  0.00    -0.007 A 
ATOM      6  C5  UNL d   1      -1.250   1.440  -0.948  0.00  0.00     0.039 A 
ENDROOT
BRANCH   4   7
ATOM      7  O   UNL d   1      -2.142  -0.016   2.261  0.00  0.00    -0.526 OA
ATOM      8  H5  UNL d   1      -1.640  -0.639   2.813  0.00  0.00     0.418 HD
ENDBRANCH   4   7
TORSDOF 1
ENDMDL
