MODEL 1
REMARK minimizedAffinity -3.4312911
REMARK minimizedRMSD -1
REMARK  1 active torsions:
REMARK  status: ('A' for Active; 'I' for Inactive)
REMARK    1  A    between atoms: C3_4  and  O_7 
ROOT
ATOM      1  C   UNL d   1      -2.005   1.938  -2.264  0.00  0.00    -0.033 A 
ATOM      2  C1  UNL d   1      -0.780   2.015  -1.598  0.00  0.00     0.039 A 
ATOM      3  C2  UNL d   1      -0.536   1.206  -0.486  0.00  0.00    -0.080 A 
ATOM      4  C3  UNL d   1      -1.523   0.326  -0.052  0.00  0.00     0.150 A 
ATOM      5  C4  UNL d   1      -2.744   0.242  -0.712  0.00  0.00    -0.007 A 
ATOM      6  C5  UNL d   1      -2.986   1.051  -1.822  0.00  0.00     0.039 A 
ENDROOT
BRANCH   4   7
ATOM      7  O   UNL d   1      -1.333  -0.480   1.032  0.00  0.00    -0.526 OA
ATOM      8  H5  UNL d   1      -0.455  -0.292   1.404  0.00  0.00     0.418 HD
ENDBRANCH   4   7
TORSDOF 1
ENDMDL
