MODEL 1
REMARK minimizedAffinity -2.1535573
REMARK minimizedRMSD -1
REMARK  1 active torsions:
REMARK  status: ('A' for Active; 'I' for Inactive)
REMARK    1  A    between atoms: C1_2  and  C2_3 
ROOT
ATOM      1  C2  UNL d   1       0.226  -0.895  -1.109  0.00  0.00    -0.077 A 
ATOM      2  C3  UNL d   1      -1.045  -0.503  -0.667  0.00  0.00     0.002 A 
ATOM      3  C4  UNL d   1      -1.264  -0.203   0.679  0.00  0.00     0.002 A 
ATOM      4  C5  UNL d   1      -0.215  -0.289   1.593  0.00  0.00    -0.004 A 
ATOM      5  C6  UNL d   1       1.052  -0.680   1.163  0.00  0.00     0.002 A 
ATOM      6  C7  UNL d   1       1.272  -0.981  -0.182  0.00  0.00     0.002 A 
ENDROOT
BRANCH   1   7
ATOM      7  C1  UNL d   1       0.475  -1.171  -2.569  0.00  0.00     0.055 C 
ATOM      8  C   UNL d   1       1.113   0.026  -3.258  0.00  0.00     0.019 C 
ENDBRANCH   1   7
TORSDOF 1
ENDMDL
