MODEL 1
REMARK minimizedAffinity 6.00708914
REMARK minimizedRMSD -1
REMARK  1 active torsions:
REMARK  status: ('A' for Active; 'I' for Inactive)
REMARK    1  A    between atoms: C1_2  and  C2_3 
ROOT
ATOM      1  C2  UNL d   1       1.147   1.028   0.581  0.00  0.00    -0.077 A 
ATOM      2  C3  UNL d   1       2.142   0.502  -0.254  0.00  0.00     0.002 A 
ATOM      3  C4  UNL d   1       3.278   1.254  -0.560  0.00  0.00     0.002 A 
ATOM      4  C5  UNL d   1       3.431   2.534  -0.032  0.00  0.00    -0.004 A 
ATOM      5  C6  UNL d   1       2.445   3.068   0.797  0.00  0.00     0.002 A 
ATOM      6  C7  UNL d   1       1.309   2.318   1.103  0.00  0.00     0.002 A 
ENDROOT
BRANCH   1   7
ATOM      7  C1  UNL d   1      -0.055   0.200   0.952  0.00  0.00     0.055 C 
ATOM      8  C   UNL d   1      -1.104   0.221  -0.150  0.00  0.00     0.019 C 
ENDBRANCH   1   7
TORSDOF 1
ENDMDL
