MODEL 1
REMARK minimizedAffinity -2.18874192
REMARK minimizedRMSD -1
REMARK  1 active torsions:
REMARK  status: ('A' for Active; 'I' for Inactive)
REMARK    1  A    between atoms: C1_2  and  C2_3 
ROOT
ATOM      1  C2  UNL d   1      -1.250  -0.663   0.048  0.00  0.00    -0.077 A 
ATOM      2  C3  UNL d   1      -1.604  -0.014   1.239  0.00  0.00     0.002 A 
ATOM      3  C4  UNL d   1      -0.667   0.146   2.262  0.00  0.00     0.002 A 
ATOM      4  C5  UNL d   1       0.630  -0.336   2.103  0.00  0.00    -0.004 A 
ATOM      5  C6  UNL d   1       0.991  -0.985   0.923  0.00  0.00     0.002 A 
ATOM      6  C7  UNL d   1       0.056  -1.147  -0.100  0.00  0.00     0.002 A 
ENDROOT
BRANCH   1   7
ATOM      7  C1  UNL d   1      -2.245  -0.793  -1.076  0.00  0.00     0.055 C 
ATOM      8  C   UNL d   1      -3.648  -1.050  -0.546  0.00  0.00     0.019 C 
ENDBRANCH   1   7
TORSDOF 1
ENDMDL
