MODEL 1
REMARK minimizedAffinity 0.253837943
REMARK minimizedRMSD -1
REMARK  0 active torsions:
REMARK  status: ('A' for Active; 'I' for Inactive)
ROOT
ATOM      1  C   UNL d   1       5.998  -5.948  -2.820  0.00  0.00     0.078 C 
ATOM      2  C1  UNL d   1       5.099  -5.483  -3.926  0.00  0.00    -0.077 A 
ATOM      3  C2  UNL d   1       5.595  -4.706  -4.980  0.00  0.00    -0.001 A 
ATOM      4  C3  UNL d   1       4.744  -4.272  -5.998  0.00  0.00     0.003 A 
ATOM      5  C4  UNL d   1       3.392  -4.609  -5.971  0.00  0.00    -0.005 A 
ATOM      6  C5  UNL d   1       2.889  -5.379  -4.924  0.00  0.00     0.003 A 
ATOM      7  C6  UNL d   1       3.738  -5.814  -3.906  0.00  0.00    -0.001 A 
ENDROOT
TORSDOF 0
ENDMDL
