MODEL 1
REMARK minimizedAffinity 1.59163857
REMARK minimizedRMSD -1
REMARK  0 active torsions:
REMARK  status: ('A' for Active; 'I' for Inactive)
ROOT
ATOM      1  C   UNL d   1      -1.944   1.097  -2.269  0.00  0.00     0.078 C 
ATOM      2  C1  UNL d   1      -0.886   0.785  -1.254  0.00  0.00    -0.077 A 
ATOM      3  C2  UNL d   1      -1.005   1.223   0.070  0.00  0.00    -0.001 A 
ATOM      4  C3  UNL d   1      -0.007   0.933   1.003  0.00  0.00     0.003 A 
ATOM      5  C4  UNL d   1       1.118   0.206   0.620  0.00  0.00    -0.005 A 
ATOM      6  C5  UNL d   1       1.247  -0.232  -0.696  0.00  0.00     0.003 A 
ATOM      7  C6  UNL d   1       0.250   0.056  -1.630  0.00  0.00    -0.001 A 
ENDROOT
TORSDOF 0
ENDMDL
