MODEL 1
REMARK minimizedAffinity -3.74414086
REMARK minimizedRMSD -1
REMARK  0 active torsions:
REMARK  status: ('A' for Active; 'I' for Inactive)
ROOT
ATOM      1  C   UNL d   1       0.755   2.274  -5.998  0.00  0.00     0.078 C 
ATOM      2  C1  UNL d   1      -0.328   3.312  -5.991  0.00  0.00    -0.077 A 
ATOM      3  C2  UNL d   1      -0.018   4.677  -5.961  0.00  0.00    -0.001 A 
ATOM      4  C3  UNL d   1      -1.036   5.632  -5.945  0.00  0.00     0.003 A 
ATOM      5  C4  UNL d   1      -2.371   5.232  -5.956  0.00  0.00    -0.005 A 
ATOM      6  C5  UNL d   1      -2.689   3.875  -5.983  0.00  0.00     0.003 A 
ATOM      7  C6  UNL d   1      -1.672   2.919  -6.000  0.00  0.00    -0.001 A 
ENDROOT
TORSDOF 0
ENDMDL
