MODEL 1
REMARK minimizedAffinity -0.574829698
REMARK minimizedRMSD -1
REMARK  0 active torsions:
REMARK  status: ('A' for Active; 'I' for Inactive)
ROOT
ATOM      1  C   UNL d   1       1.197   3.373  -5.953  0.00  0.00     0.078 C 
ATOM      2  C1  UNL d   1      -0.262   3.716  -5.977  0.00  0.00    -0.077 A 
ATOM      3  C2  UNL d   1      -0.690   5.049  -5.985  0.00  0.00    -0.001 A 
ATOM      4  C3  UNL d   1      -2.052   5.353  -5.998  0.00  0.00     0.003 A 
ATOM      5  C4  UNL d   1      -2.998   4.330  -6.000  0.00  0.00    -0.005 A 
ATOM      6  C5  UNL d   1      -2.582   3.000  -5.989  0.00  0.00     0.003 A 
ATOM      7  C6  UNL d   1      -1.220   2.694  -5.977  0.00  0.00    -0.001 A 
ENDROOT
TORSDOF 0
ENDMDL
