MODEL 1
REMARK minimizedAffinity -2.66306782
REMARK minimizedRMSD -1
REMARK  0 active torsions:
REMARK  status: ('A' for Active; 'I' for Inactive)
ROOT
ATOM      1  C   UNL d   1       0.261   3.722  -5.989  0.00  0.00     0.078 C 
ATOM      2  C1  UNL d   1      -1.166   4.181  -6.000  0.00  0.00    -0.077 A 
ATOM      3  C2  UNL d   1      -1.486   5.544  -5.996  0.00  0.00    -0.001 A 
ATOM      4  C3  UNL d   1      -2.819   5.957  -5.997  0.00  0.00     0.003 A 
ATOM      5  C4  UNL d   1      -3.844   5.012  -5.999  0.00  0.00    -0.005 A 
ATOM      6  C5  UNL d   1      -3.536   3.653  -6.000  0.00  0.00     0.003 A 
ATOM      7  C6  UNL d   1      -2.203   3.239  -6.000  0.00  0.00    -0.001 A 
ENDROOT
TORSDOF 0
ENDMDL
