MODEL 1
REMARK minimizedAffinity -1.32036304
REMARK minimizedRMSD -1
REMARK  0 active torsions:
REMARK  status: ('A' for Active; 'I' for Inactive)
ROOT
ATOM      1  C   UNL d   1      -2.273   2.986  -5.978  0.00  0.00     0.078 C 
ATOM      2  C1  UNL d   1      -1.012   3.798  -5.977  0.00  0.00    -0.077 A 
ATOM      3  C2  UNL d   1      -1.054   5.197  -5.977  0.00  0.00    -0.001 A 
ATOM      4  C3  UNL d   1       0.128   5.940  -5.986  0.00  0.00     0.003 A 
ATOM      5  C4  UNL d   1       1.361   5.291  -5.995  0.00  0.00    -0.005 A 
ATOM      6  C5  UNL d   1       1.414   3.899  -5.997  0.00  0.00     0.003 A 
ATOM      7  C6  UNL d   1       0.233   3.155  -5.989  0.00  0.00    -0.001 A 
ENDROOT
TORSDOF 0
ENDMDL
