MODEL 1
REMARK minimizedAffinity -1.10271251
REMARK minimizedRMSD -1
REMARK  0 active torsions:
REMARK  status: ('A' for Active; 'I' for Inactive)
ROOT
ATOM      1  C   UNL d   1      -0.693   3.714  -5.980  0.00  0.00     0.078 C 
ATOM      2  C1  UNL d   1       0.788   3.947  -5.994  0.00  0.00    -0.077 A 
ATOM      3  C2  UNL d   1       1.687   2.873  -5.992  0.00  0.00    -0.001 A 
ATOM      4  C3  UNL d   1       3.063   3.105  -5.995  0.00  0.00     0.003 A 
ATOM      5  C4  UNL d   1       3.553   4.409  -6.000  0.00  0.00    -0.005 A 
ATOM      6  C5  UNL d   1       2.666   5.484  -6.000  0.00  0.00     0.003 A 
ATOM      7  C6  UNL d   1       1.290   5.254  -5.996  0.00  0.00    -0.001 A 
ENDROOT
TORSDOF 0
ENDMDL
