MODEL 1
REMARK minimizedAffinity -1.80325556
REMARK minimizedRMSD -1
REMARK  0 active torsions:
REMARK  status: ('A' for Active; 'I' for Inactive)
ROOT
ATOM      1  C   UNL d   1       1.640   3.617  -5.985  0.00  0.00     0.078 C 
ATOM      2  C1  UNL d   1       3.131   3.782  -5.993  0.00  0.00    -0.077 A 
ATOM      3  C2  UNL d   1       3.980   2.669  -6.000  0.00  0.00    -0.001 A 
ATOM      4  C3  UNL d   1       5.365   2.838  -5.997  0.00  0.00     0.003 A 
ATOM      5  C4  UNL d   1       5.914   4.118  -5.987  0.00  0.00    -0.005 A 
ATOM      6  C5  UNL d   1       5.077   5.232  -5.977  0.00  0.00     0.003 A 
ATOM      7  C6  UNL d   1       3.691   5.066  -5.980  0.00  0.00    -0.001 A 
ENDROOT
TORSDOF 0
ENDMDL
