MODEL 1
REMARK minimizedAffinity -0.794438183
REMARK minimizedRMSD -1
REMARK  0 active torsions:
REMARK  status: ('A' for Active; 'I' for Inactive)
ROOT
ATOM      1  C   UNL d   1       0.458   3.516  -6.000  0.00  0.00     0.078 C 
ATOM      2  C1  UNL d   1      -0.932   4.077  -5.958  0.00  0.00    -0.077 A 
ATOM      3  C2  UNL d   1      -2.048   3.234  -5.890  0.00  0.00    -0.001 A 
ATOM      4  C3  UNL d   1      -3.337   3.770  -5.861  0.00  0.00     0.003 A 
ATOM      5  C4  UNL d   1      -3.522   5.151  -5.901  0.00  0.00    -0.005 A 
ATOM      6  C5  UNL d   1      -2.417   5.997  -5.970  0.00  0.00     0.003 A 
ATOM      7  C6  UNL d   1      -1.128   5.463  -5.999  0.00  0.00    -0.001 A 
ENDROOT
TORSDOF 0
ENDMDL
