MODEL 1
REMARK minimizedAffinity 3.60108113
REMARK minimizedRMSD -1
REMARK  0 active torsions:
REMARK  status: ('A' for Active; 'I' for Inactive)
ROOT
ATOM      1  C   UNL d   1      -0.012   0.364  -5.985  0.00  0.00     0.078 C 
ATOM      2  C1  UNL d   1       0.366   1.815  -5.994  0.00  0.00    -0.077 A 
ATOM      3  C2  UNL d   1       1.710   2.209  -5.994  0.00  0.00    -0.001 A 
ATOM      4  C3  UNL d   1       2.047   3.564  -5.992  0.00  0.00     0.003 A 
ATOM      5  C4  UNL d   1       1.047   4.534  -5.990  0.00  0.00    -0.005 A 
ATOM      6  C5  UNL d   1      -0.292   4.151  -5.988  0.00  0.00     0.003 A 
ATOM      7  C6  UNL d   1      -0.632   2.797  -5.990  0.00  0.00    -0.001 A 
ENDROOT
TORSDOF 0
ENDMDL
