MODEL 1
REMARK minimizedAffinity 0.318013996
REMARK minimizedRMSD -1
REMARK  0 active torsions:
REMARK  status: ('A' for Active; 'I' for Inactive)
ROOT
ATOM      1  C   UNL d   1      -1.338   1.330   1.321  0.00  0.00     0.078 C 
ATOM      2  C1  UNL d   1      -0.348   1.472   0.204  0.00  0.00    -0.077 A 
ATOM      3  C2  UNL d   1       0.185   0.346  -0.435  0.00  0.00    -0.001 A 
ATOM      4  C3  UNL d   1       1.113   0.493  -1.467  0.00  0.00     0.003 A 
ATOM      5  C4  UNL d   1       1.518   1.765  -1.868  0.00  0.00    -0.005 A 
ATOM      6  C5  UNL d   1       0.995   2.891  -1.236  0.00  0.00     0.003 A 
ATOM      7  C6  UNL d   1       0.067   2.746  -0.204  0.00  0.00    -0.001 A 
ENDROOT
TORSDOF 0
ENDMDL
