MODEL 1
REMARK minimizedAffinity 1.47248971
REMARK minimizedRMSD -1
REMARK  0 active torsions:
REMARK  status: ('A' for Active; 'I' for Inactive)
ROOT
ATOM      1  C   UNL d   1      -0.410  -0.154   1.044  0.00  0.00     0.078 C 
ATOM      2  C1  UNL d   1      -1.592  -0.752   1.747  0.00  0.00    -0.077 A 
ATOM      3  C2  UNL d   1      -2.769  -0.018   1.932  0.00  0.00    -0.001 A 
ATOM      4  C3  UNL d   1      -3.858  -0.585   2.597  0.00  0.00     0.003 A 
ATOM      5  C4  UNL d   1      -3.779  -1.888   3.083  0.00  0.00    -0.005 A 
ATOM      6  C5  UNL d   1      -2.611  -2.626   2.905  0.00  0.00     0.003 A 
ATOM      7  C6  UNL d   1      -1.521  -2.061   2.241  0.00  0.00    -0.001 A 
ENDROOT
TORSDOF 0
ENDMDL
