MODEL 1
REMARK minimizedAffinity 3.13944769
REMARK minimizedRMSD -1
REMARK  0 active torsions:
REMARK  status: ('A' for Active; 'I' for Inactive)
ROOT
ATOM      1  C   UNL d   1       1.915  -0.794  -5.219  0.00  0.00     0.078 C 
ATOM      2  C1  UNL d   1       2.127  -1.045  -3.756  0.00  0.00    -0.077 A 
ATOM      3  C2  UNL d   1       1.617  -0.167  -2.792  0.00  0.00    -0.001 A 
ATOM      4  C3  UNL d   1       1.831  -0.408  -1.433  0.00  0.00     0.003 A 
ATOM      5  C4  UNL d   1       2.556  -1.526  -1.027  0.00  0.00    -0.005 A 
ATOM      6  C5  UNL d   1       3.070  -2.404  -1.979  0.00  0.00     0.003 A 
ATOM      7  C6  UNL d   1       2.857  -2.165  -3.338  0.00  0.00    -0.001 A 
ENDROOT
TORSDOF 0
ENDMDL
