MODEL 1
REMARK minimizedAffinity 4.39744902
REMARK minimizedRMSD -1
REMARK  0 active torsions:
REMARK  status: ('A' for Active; 'I' for Inactive)
ROOT
ATOM      1  C   UNL d   1      -1.474  -2.856   2.867  0.00  0.00     0.078 C 
ATOM      2  C1  UNL d   1      -2.663  -1.951   2.747  0.00  0.00    -0.077 A 
ATOM      3  C2  UNL d   1      -3.850  -2.225   3.438  0.00  0.00    -0.001 A 
ATOM      4  C3  UNL d   1      -4.953  -1.379   3.310  0.00  0.00     0.003 A 
ATOM      5  C4  UNL d   1      -4.881  -0.254   2.491  0.00  0.00    -0.005 A 
ATOM      6  C5  UNL d   1      -3.705   0.025   1.798  0.00  0.00     0.003 A 
ATOM      7  C6  UNL d   1      -2.601  -0.819   1.924  0.00  0.00    -0.001 A 
ENDROOT
TORSDOF 0
ENDMDL
