MODEL 1
REMARK minimizedAffinity 3.48717093
REMARK minimizedRMSD -1
REMARK  1 active torsions:
REMARK  status: ('A' for Active; 'I' for Inactive)
REMARK    1  A    between atoms: C1_2  and  C2_3 
ROOT
ATOM      1  C2  UNL d   1      -3.532   0.258  -5.288  0.00  0.00    -0.077 A 
ATOM      2  C3  UNL d   1      -3.100   1.513  -4.837  0.00  0.00     0.002 A 
ATOM      3  C4  UNL d   1      -3.963   2.611  -4.869  0.00  0.00     0.002 A 
ATOM      4  C5  UNL d   1      -5.263   2.463  -5.347  0.00  0.00    -0.004 A 
ATOM      5  C6  UNL d   1      -5.701   1.219  -5.800  0.00  0.00     0.002 A 
ATOM      6  C7  UNL d   1      -4.840   0.121  -5.770  0.00  0.00     0.002 A 
ENDROOT
BRANCH   1   7
ATOM      7  C1  UNL d   1      -2.619  -0.937  -5.209  0.00  0.00     0.055 C 
ATOM      8  C   UNL d   1      -2.316  -1.308  -3.764  0.00  0.00     0.019 C 
ENDBRANCH   1   7
TORSDOF 1
ENDMDL
