MODEL 1
REMARK minimizedAffinity 1.50077021
REMARK minimizedRMSD -1
REMARK  1 active torsions:
REMARK  status: ('A' for Active; 'I' for Inactive)
REMARK    1  A    between atoms: C1_2  and  C2_3 
ROOT
ATOM      1  C2  UNL d   1       5.088   2.525  -5.327  0.00  0.00    -0.077 A 
ATOM      2  C3  UNL d   1       4.669   2.316  -4.005  0.00  0.00     0.002 A 
ATOM      3  C4  UNL d   1       4.913   1.097  -3.371  0.00  0.00     0.002 A 
ATOM      4  C5  UNL d   1       5.581   0.079  -4.049  0.00  0.00    -0.004 A 
ATOM      5  C6  UNL d   1       6.000   0.276  -5.364  0.00  0.00     0.002 A 
ATOM      6  C7  UNL d   1       5.755   1.494  -6.000  0.00  0.00     0.002 A 
ENDROOT
BRANCH   1   7
ATOM      7  C1  UNL d   1       4.868   3.857  -5.996  0.00  0.00     0.055 C 
ATOM      8  C   UNL d   1       3.451   4.363  -5.769  0.00  0.00     0.019 C 
ENDBRANCH   1   7
TORSDOF 1
ENDMDL
