MODEL 1
REMARK minimizedAffinity -2.40252209
REMARK minimizedRMSD -1
REMARK  1 active torsions:
REMARK  status: ('A' for Active; 'I' for Inactive)
REMARK    1  A    between atoms: C1_2  and  C2_3 
ROOT
ATOM      1  C2  UNL d   1      -3.191  -0.896  -4.629  0.00  0.00    -0.077 A 
ATOM      2  C3  UNL d   1      -3.794  -1.090  -3.378  0.00  0.00     0.002 A 
ATOM      3  C4  UNL d   1      -5.067  -0.578  -3.121  0.00  0.00     0.002 A 
ATOM      4  C5  UNL d   1      -5.749   0.127  -4.110  0.00  0.00    -0.004 A 
ATOM      5  C6  UNL d   1      -5.157   0.328  -5.356  0.00  0.00     0.002 A 
ATOM      6  C7  UNL d   1      -3.884  -0.182  -5.615  0.00  0.00     0.002 A 
ENDROOT
BRANCH   1   7
ATOM      7  C1  UNL d   1      -1.838  -1.489  -4.925  0.00  0.00     0.055 C 
ATOM      8  C   UNL d   1      -1.929  -2.569  -5.993  0.00  0.00     0.019 C 
ENDBRANCH   1   7
TORSDOF 1
ENDMDL
