MODEL 1
REMARK minimizedAffinity 0.515472531
REMARK minimizedRMSD -1
REMARK  1 active torsions:
REMARK  status: ('A' for Active; 'I' for Inactive)
REMARK    1  A    between atoms: C1_2  and  C2_3 
ROOT
ATOM      1  C2  UNL d   1      -3.364  -0.934  -5.296  0.00  0.00    -0.077 A 
ATOM      2  C3  UNL d   1      -3.770  -1.346  -4.019  0.00  0.00     0.002 A 
ATOM      3  C4  UNL d   1      -4.942  -0.840  -3.453  0.00  0.00     0.002 A 
ATOM      4  C5  UNL d   1      -5.719   0.076  -4.159  0.00  0.00    -0.004 A 
ATOM      5  C6  UNL d   1      -5.323   0.493  -5.429  0.00  0.00     0.002 A 
ATOM      6  C7  UNL d   1      -4.151  -0.010  -5.995  0.00  0.00     0.002 A 
ENDROOT
BRANCH   1   7
ATOM      7  C1  UNL d   1      -2.126  -1.515  -5.928  0.00  0.00     0.055 C 
ATOM      8  C   UNL d   1      -2.199  -3.033  -5.994  0.00  0.00     0.019 C 
ENDBRANCH   1   7
TORSDOF 1
ENDMDL
