MODEL 1
REMARK minimizedAffinity 0.656591117
REMARK minimizedRMSD -1
REMARK  1 active torsions:
REMARK  status: ('A' for Active; 'I' for Inactive)
REMARK    1  A    between atoms: C1_2  and  C2_3 
ROOT
ATOM      1  C2  UNL d   1      -4.032  -0.710  -4.112  0.00  0.00    -0.077 A 
ATOM      2  C3  UNL d   1      -3.093  -0.244  -5.043  0.00  0.00     0.002 A 
ATOM      3  C4  UNL d   1      -3.450   0.724  -5.983  0.00  0.00     0.002 A 
ATOM      4  C5  UNL d   1      -4.745   1.237  -6.000  0.00  0.00    -0.004 A 
ATOM      5  C6  UNL d   1      -5.688   0.779  -5.080  0.00  0.00     0.002 A 
ATOM      6  C7  UNL d   1      -5.333  -0.190  -4.140  0.00  0.00     0.002 A 
ENDROOT
BRANCH   1   7
ATOM      7  C1  UNL d   1      -3.635  -1.718  -3.066  0.00  0.00     0.055 C 
ATOM      8  C   UNL d   1      -2.671  -1.115  -2.054  0.00  0.00     0.019 C 
ENDBRANCH   1   7
TORSDOF 1
ENDMDL
