MODEL 1
REMARK minimizedAffinity 1.97651601
REMARK minimizedRMSD -1
REMARK  0 active torsions:
REMARK  status: ('A' for Active; 'I' for Inactive)
ROOT
ATOM      1  C   UNL d   1       1.409   3.785  -0.214  0.00  0.00     0.078 C 
ATOM      2  C1  UNL d   1       1.184   2.304  -0.268  0.00  0.00    -0.077 A 
ATOM      3  C2  UNL d   1       0.636   1.617   0.822  0.00  0.00    -0.001 A 
ATOM      4  C3  UNL d   1       0.442   0.236   0.761  0.00  0.00     0.003 A 
ATOM      5  C4  UNL d   1       0.793  -0.470  -0.387  0.00  0.00    -0.005 A 
ATOM      6  C5  UNL d   1       1.341   0.204  -1.477  0.00  0.00     0.003 A 
ATOM      7  C6  UNL d   1       1.536   1.585  -1.418  0.00  0.00    -0.001 A 
ENDROOT
TORSDOF 0
ENDMDL
