MODEL 1
REMARK minimizedAffinity -0.71653676
REMARK minimizedRMSD -1
REMARK  0 active torsions:
REMARK  status: ('A' for Active; 'I' for Inactive)
ROOT
ATOM      1  C   UNL d   1       0.030   5.983  -4.572  0.00  0.00     0.078 C 
ATOM      2  C1  UNL d   1      -1.249   5.994  -3.790  0.00  0.00    -0.077 A 
ATOM      3  C2  UNL d   1      -1.238   5.999  -2.389  0.00  0.00    -0.001 A 
ATOM      4  C3  UNL d   1      -2.437   6.000  -1.674  0.00  0.00     0.003 A 
ATOM      5  C4  UNL d   1      -3.655   5.994  -2.350  0.00  0.00    -0.005 A 
ATOM      6  C5  UNL d   1      -3.676   5.987  -3.743  0.00  0.00     0.003 A 
ATOM      7  C6  UNL d   1      -2.479   5.986  -4.460  0.00  0.00    -0.001 A 
ENDROOT
TORSDOF 0
ENDMDL
