MODEL 1
REMARK minimizedAffinity -3.57590318
REMARK minimizedRMSD -1
REMARK  0 active torsions:
REMARK  status: ('A' for Active; 'I' for Inactive)
ROOT
ATOM      1  C   UNL d   1      -4.128   5.999  -3.448  0.00  0.00     0.078 C 
ATOM      2  C1  UNL d   1      -2.681   5.991  -3.839  0.00  0.00    -0.077 A 
ATOM      3  C2  UNL d   1      -1.672   5.995  -2.868  0.00  0.00    -0.001 A 
ATOM      4  C3  UNL d   1      -0.328   5.999  -3.245  0.00  0.00     0.003 A 
ATOM      5  C4  UNL d   1       0.019   5.999  -4.595  0.00  0.00    -0.005 A 
ATOM      6  C5  UNL d   1      -0.978   5.997  -5.568  0.00  0.00     0.003 A 
ATOM      7  C6  UNL d   1      -2.322   5.994  -5.193  0.00  0.00    -0.001 A 
ENDROOT
TORSDOF 0
ENDMDL
