MODEL 1
REMARK minimizedAffinity -3.6134069
REMARK minimizedRMSD -1
REMARK  0 active torsions:
REMARK  status: ('A' for Active; 'I' for Inactive)
ROOT
ATOM      1  C   UNL d   1       3.167   5.914  -5.017  0.00  0.00     0.078 C 
ATOM      2  C1  UNL d   1       1.676   5.951  -4.862  0.00  0.00    -0.077 A 
ATOM      3  C2  UNL d   1       1.083   5.967  -3.594  0.00  0.00    -0.001 A 
ATOM      4  C3  UNL d   1      -0.307   5.991  -3.466  0.00  0.00     0.003 A 
ATOM      5  C4  UNL d   1      -1.115   6.000  -4.601  0.00  0.00    -0.005 A 
ATOM      6  C5  UNL d   1      -0.533   5.982  -5.867  0.00  0.00     0.003 A 
ATOM      7  C6  UNL d   1       0.856   5.958  -5.998  0.00  0.00    -0.001 A 
ENDROOT
TORSDOF 0
ENDMDL
