MODEL 1
REMARK minimizedAffinity -2.0558722
REMARK minimizedRMSD -1
REMARK  0 active torsions:
REMARK  status: ('A' for Active; 'I' for Inactive)
ROOT
ATOM      1  C   UNL d   1      -2.618   5.445  -2.925  0.00  0.00     0.078 C 
ATOM      2  C1  UNL d   1      -1.301   5.444  -3.642  0.00  0.00    -0.077 A 
ATOM      3  C2  UNL d   1      -0.159   5.999  -3.053  0.00  0.00    -0.001 A 
ATOM      4  C3  UNL d   1       1.058   6.000  -3.736  0.00  0.00     0.003 A 
ATOM      5  C4  UNL d   1       1.145   5.448  -5.013  0.00  0.00    -0.005 A 
ATOM      6  C5  UNL d   1       0.013   4.895  -5.608  0.00  0.00     0.003 A 
ATOM      7  C6  UNL d   1      -1.205   4.893  -4.927  0.00  0.00    -0.001 A 
ENDROOT
TORSDOF 0
ENDMDL
