MODEL 1
REMARK minimizedAffinity -1.52042115
REMARK minimizedRMSD -1
REMARK  0 active torsions:
REMARK  status: ('A' for Active; 'I' for Inactive)
ROOT
ATOM      1  C   UNL d   1      -2.573   5.941  -5.474  0.00  0.00     0.078 C 
ATOM      2  C1  UNL d   1      -1.140   5.954  -5.030  0.00  0.00    -0.077 A 
ATOM      3  C2  UNL d   1      -0.807   5.961  -3.670  0.00  0.00    -0.001 A 
ATOM      4  C3  UNL d   1       0.530   5.983  -3.271  0.00  0.00     0.003 A 
ATOM      5  C4  UNL d   1       1.545   5.999  -4.226  0.00  0.00    -0.005 A 
ATOM      6  C5  UNL d   1       1.223   5.995  -5.581  0.00  0.00     0.003 A 
ATOM      7  C6  UNL d   1      -0.114   5.973  -5.982  0.00  0.00    -0.001 A 
ENDROOT
TORSDOF 0
ENDMDL
