MODEL 1
REMARK minimizedAffinity 0.380740255
REMARK minimizedRMSD -1
REMARK  0 active torsions:
REMARK  status: ('A' for Active; 'I' for Inactive)
ROOT
ATOM      1  C   UNL d   1       1.911   3.115   0.759  0.00  0.00     0.078 C 
ATOM      2  C1  UNL d   1       1.408   1.808   0.221  0.00  0.00    -0.077 A 
ATOM      3  C2  UNL d   1       1.416   1.543  -1.154  0.00  0.00    -0.001 A 
ATOM      4  C3  UNL d   1       0.936   0.327  -1.641  0.00  0.00     0.003 A 
ATOM      5  C4  UNL d   1       0.442  -0.633  -0.761  0.00  0.00    -0.005 A 
ATOM      6  C5  UNL d   1       0.427  -0.378   0.609  0.00  0.00     0.003 A 
ATOM      7  C6  UNL d   1       0.907   0.838   1.098  0.00  0.00    -0.001 A 
ENDROOT
TORSDOF 0
ENDMDL
