MODEL 1
REMARK minimizedAffinity 1.51093173
REMARK minimizedRMSD -1
REMARK  0 active torsions:
REMARK  status: ('A' for Active; 'I' for Inactive)
ROOT
ATOM      1  C   UNL d   1      -3.587   5.979  -2.895  0.00  0.00     0.078 C 
ATOM      2  C1  UNL d   1      -2.338   5.993  -3.724  0.00  0.00    -0.077 A 
ATOM      3  C2  UNL d   1      -2.401   5.995  -5.123  0.00  0.00    -0.001 A 
ATOM      4  C3  UNL d   1      -1.230   5.999  -5.882  0.00  0.00     0.003 A 
ATOM      5  C4  UNL d   1       0.013   5.999  -5.252  0.00  0.00    -0.005 A 
ATOM      6  C5  UNL d   1       0.085   5.995  -3.861  0.00  0.00     0.003 A 
ATOM      7  C6  UNL d   1      -1.085   5.991  -3.100  0.00  0.00    -0.001 A 
ENDROOT
TORSDOF 0
ENDMDL
