MODEL 1
REMARK minimizedAffinity -2.59657454
REMARK minimizedRMSD -1
REMARK  0 active torsions:
REMARK  status: ('A' for Active; 'I' for Inactive)
ROOT
ATOM      1  C   UNL d   1       4.211   5.959  -4.836  0.00  0.00     0.078 C 
ATOM      2  C1  UNL d   1       2.711   5.972  -4.802  0.00  0.00    -0.077 A 
ATOM      3  C2  UNL d   1       2.017   5.993  -3.586  0.00  0.00    -0.001 A 
ATOM      4  C3  UNL d   1       0.622   5.996  -3.570  0.00  0.00     0.003 A 
ATOM      5  C4  UNL d   1      -0.092   5.976  -4.767  0.00  0.00    -0.005 A 
ATOM      6  C5  UNL d   1       0.590   5.954  -5.982  0.00  0.00     0.003 A 
ATOM      7  C6  UNL d   1       1.986   5.951  -6.000  0.00  0.00    -0.001 A 
ENDROOT
TORSDOF 0
ENDMDL
