MODEL 1
REMARK minimizedAffinity 2.50590587
REMARK minimizedRMSD -1
REMARK  0 active torsions:
REMARK  status: ('A' for Active; 'I' for Inactive)
ROOT
ATOM      1  C   UNL d   1       2.485   2.075  -1.733  0.00  0.00     0.078 C 
ATOM      2  C1  UNL d   1       1.715   1.863  -0.463  0.00  0.00    -0.077 A 
ATOM      3  C2  UNL d   1       1.493   0.575   0.039  0.00  0.00    -0.001 A 
ATOM      4  C3  UNL d   1       0.767   0.392   1.217  0.00  0.00     0.003 A 
ATOM      5  C4  UNL d   1       0.255   1.492   1.901  0.00  0.00    -0.005 A 
ATOM      6  C5  UNL d   1       0.468   2.778   1.408  0.00  0.00     0.003 A 
ATOM      7  C6  UNL d   1       1.195   2.963   0.230  0.00  0.00    -0.001 A 
ENDROOT
TORSDOF 0
ENDMDL
