MODEL 1
REMARK minimizedAffinity -2.74577379
REMARK minimizedRMSD -1
REMARK  0 active torsions:
REMARK  status: ('A' for Active; 'I' for Inactive)
ROOT
ATOM      1  C   UNL d   1      -0.161   5.987  -4.101  0.00  0.00     0.078 C 
ATOM      2  C1  UNL d   1      -1.546   5.984  -3.528  0.00  0.00    -0.077 A 
ATOM      3  C2  UNL d   1      -2.672   5.990  -4.361  0.00  0.00    -0.001 A 
ATOM      4  C3  UNL d   1      -3.956   5.997  -3.813  0.00  0.00     0.003 A 
ATOM      5  C4  UNL d   1      -4.126   6.000  -2.430  0.00  0.00    -0.005 A 
ATOM      6  C5  UNL d   1      -3.012   5.997  -1.593  0.00  0.00     0.003 A 
ATOM      7  C6  UNL d   1      -1.728   5.989  -2.139  0.00  0.00    -0.001 A 
ENDROOT
TORSDOF 0
ENDMDL
