MODEL 1
REMARK minimizedAffinity -2.16661978
REMARK minimizedRMSD -1
REMARK  0 active torsions:
REMARK  status: ('A' for Active; 'I' for Inactive)
ROOT
ATOM      1  C   UNL d   1       0.068   1.489   2.903  0.00  0.00     0.078 C 
ATOM      2  C1  UNL d   1       0.580   1.489   1.494  0.00  0.00    -0.077 A 
ATOM      3  C2  UNL d   1       1.150   2.639   0.933  0.00  0.00    -0.001 A 
ATOM      4  C3  UNL d   1       1.614   2.626  -0.383  0.00  0.00     0.003 A 
ATOM      5  C4  UNL d   1       1.512   1.467  -1.150  0.00  0.00    -0.005 A 
ATOM      6  C5  UNL d   1       0.945   0.319  -0.601  0.00  0.00     0.003 A 
ATOM      7  C6  UNL d   1       0.481   0.329   0.715  0.00  0.00    -0.001 A 
ENDROOT
TORSDOF 0
ENDMDL
