MODEL 1
REMARK minimizedAffinity -1.61166072
REMARK minimizedRMSD -1
REMARK  0 active torsions:
REMARK  status: ('A' for Active; 'I' for Inactive)
ROOT
ATOM      1  C   UNL d   1      -0.613   1.110   3.562  0.00  0.00     0.078 C 
ATOM      2  C1  UNL d   1      -0.007   1.325   2.207  0.00  0.00    -0.077 A 
ATOM      3  C2  UNL d   1       0.435   2.593   1.808  0.00  0.00    -0.001 A 
ATOM      4  C3  UNL d   1       0.989   2.780   0.541  0.00  0.00     0.003 A 
ATOM      5  C4  UNL d   1       1.103   1.705  -0.339  0.00  0.00    -0.005 A 
ATOM      6  C5  UNL d   1       0.664   0.441   0.049  0.00  0.00     0.003 A 
ATOM      7  C6  UNL d   1       0.111   0.252   1.316  0.00  0.00    -0.001 A 
ENDROOT
TORSDOF 0
ENDMDL
