MODEL 1
REMARK minimizedAffinity 6.69652796
REMARK minimizedRMSD -1
REMARK  0 active torsions:
REMARK  status: ('A' for Active; 'I' for Inactive)
ROOT
ATOM      1  C   UNL d   1       0.002   0.454   2.099  0.00  0.00     0.078 C 
ATOM      2  C1  UNL d   1       0.580   1.209   0.939  0.00  0.00    -0.077 A 
ATOM      3  C2  UNL d   1       0.523   0.689  -0.360  0.00  0.00    -0.001 A 
ATOM      4  C3  UNL d   1       1.074   1.398  -1.429  0.00  0.00     0.003 A 
ATOM      5  C4  UNL d   1       1.686   2.630  -1.210  0.00  0.00    -0.005 A 
ATOM      6  C5  UNL d   1       1.749   3.155   0.079  0.00  0.00     0.003 A 
ATOM      7  C6  UNL d   1       1.199   2.447   1.150  0.00  0.00    -0.001 A 
ENDROOT
TORSDOF 0
ENDMDL
