MODEL 1
REMARK minimizedAffinity 2.70845532
REMARK minimizedRMSD -1
REMARK  0 active torsions:
REMARK  status: ('A' for Active; 'I' for Inactive)
ROOT
ATOM      1  C   UNL d   1      -0.040  -1.012   1.031  0.00  0.00     0.078 C 
ATOM      2  C1  UNL d   1       0.456   0.295   0.489  0.00  0.00    -0.077 A 
ATOM      3  C2  UNL d   1       0.757   1.362   1.344  0.00  0.00    -0.001 A 
ATOM      4  C3  UNL d   1       1.208   2.577   0.824  0.00  0.00     0.003 A 
ATOM      5  C4  UNL d   1       1.361   2.736  -0.551  0.00  0.00    -0.005 A 
ATOM      6  C5  UNL d   1       1.062   1.680  -1.410  0.00  0.00     0.003 A 
ATOM      7  C6  UNL d   1       0.611   0.465  -0.893  0.00  0.00    -0.001 A 
ENDROOT
TORSDOF 0
ENDMDL
