MODEL 1
REMARK minimizedAffinity 2.49306512
REMARK minimizedRMSD -1
REMARK  0 active torsions:
REMARK  status: ('A' for Active; 'I' for Inactive)
ROOT
ATOM      1  C   UNL d   1      -0.230   5.999  -4.702  0.00  0.00     0.078 C 
ATOM      2  C1  UNL d   1      -1.391   5.992  -3.753  0.00  0.00    -0.077 A 
ATOM      3  C2  UNL d   1      -2.709   5.995  -4.225  0.00  0.00    -0.001 A 
ATOM      4  C3  UNL d   1      -3.780   5.998  -3.330  0.00  0.00     0.003 A 
ATOM      5  C4  UNL d   1      -3.543   6.000  -1.956  0.00  0.00    -0.005 A 
ATOM      6  C5  UNL d   1      -2.235   5.999  -1.477  0.00  0.00     0.003 A 
ATOM      7  C6  UNL d   1      -1.163   5.996  -2.371  0.00  0.00    -0.001 A 
ENDROOT
TORSDOF 0
ENDMDL
