MODEL 1
REMARK minimizedAffinity 2.77926612
REMARK minimizedRMSD -1
REMARK  0 active torsions:
REMARK  status: ('A' for Active; 'I' for Inactive)
ROOT
ATOM      1  C4' PXY d   1       2.214  -2.674  -0.064  0.00  0.00     0.077 C 
ATOM      2  C1' PXY d   1       3.152   3.014   0.364  0.00  0.00     0.077 C 
ATOM      3  C1  PXY d   1       2.894   1.524   0.255  0.00  0.00    -0.082 A 
ATOM      4  C2  PXY d   1       3.907   0.677   0.331  0.00  0.00     0.003 A 
ATOM      5  C3  PXY d   1       3.696  -0.671   0.203  0.00  0.00     0.003 A 
ATOM      6  C4  PXY d   1       2.427  -1.162   0.050  0.00  0.00    -0.082 A 
ATOM      7  C5  PXY d   1       1.386  -0.305  -0.018  0.00  0.00     0.003 A 
ATOM      8  C6  PXY d   1       1.627   1.063   0.073  0.00  0.00     0.003 A 
ENDROOT
TORSDOF 0
ENDMDL
