MODEL 1
REMARK minimizedAffinity 10.9699602
REMARK minimizedRMSD -1
REMARK  0 active torsions:
REMARK  status: ('A' for Active; 'I' for Inactive)
ROOT
ATOM      1  C4' PXY d   1       3.133  -0.689   0.796  0.00  0.00     0.077 C 
ATOM      2  C1' PXY d   1      -1.727   2.320   1.655  0.00  0.00     0.077 C 
ATOM      3  C1  PXY d   1      -0.452   1.529   1.443  0.00  0.00    -0.082 A 
ATOM      4  C2  PXY d   1       0.252   1.707   0.336  0.00  0.00     0.003 A 
ATOM      5  C3  PXY d   1       1.391   0.977   0.113  0.00  0.00     0.003 A 
ATOM      6  C4  PXY d   1       1.843   0.094   1.057  0.00  0.00    -0.082 A 
ATOM      7  C5  PXY d   1       1.137  -0.085   2.193  0.00  0.00     0.003 A 
ATOM      8  C6  PXY d   1      -0.038   0.636   2.382  0.00  0.00     0.003 A 
ENDROOT
TORSDOF 0
ENDMDL
