MODEL 1
REMARK minimizedAffinity 7.43296909
REMARK minimizedRMSD -1
REMARK  0 active torsions:
REMARK  status: ('A' for Active; 'I' for Inactive)
ROOT
ATOM      1  C4' PXY d   1      -1.125  -3.882  -1.153  0.00  0.00     0.077 C 
ATOM      2  C1' PXY d   1       3.443  -0.606   0.194  0.00  0.00     0.077 C 
ATOM      3  C1  PXY d   1       2.240  -1.455  -0.167  0.00  0.00    -0.082 A 
ATOM      4  C2  PXY d   1       1.849  -2.417   0.653  0.00  0.00     0.003 A 
ATOM      5  C3  PXY d   1       0.783  -3.216   0.328  0.00  0.00     0.003 A 
ATOM      6  C4  PXY d   1       0.078  -2.993  -0.825  0.00  0.00    -0.082 A 
ATOM      7  C5  PXY d   1       0.464  -2.007  -1.661  0.00  0.00     0.003 A 
ATOM      8  C6  PXY d   1       1.574  -1.234  -1.332  0.00  0.00     0.003 A 
ENDROOT
TORSDOF 0
ENDMDL
