MODEL 1
REMARK minimizedAffinity 5.36628103
REMARK minimizedRMSD -1
REMARK  0 active torsions:
REMARK  status: ('A' for Active; 'I' for Inactive)
ROOT
ATOM      1  C4' PXY d   1      -0.531  -4.456  -0.491  0.00  0.00     0.077 C 
ATOM      2  C1' PXY d   1       2.486   0.470  -0.284  0.00  0.00     0.077 C 
ATOM      3  C1  PXY d   1       1.706  -0.828  -0.334  0.00  0.00    -0.082 A 
ATOM      4  C2  PXY d   1       0.638  -0.920  -1.111  0.00  0.00     0.003 A 
ATOM      5  C3  PXY d   1      -0.098  -2.076  -1.144  0.00  0.00     0.003 A 
ATOM      6  C4  PXY d   1       0.293  -3.168  -0.416  0.00  0.00    -0.082 A 
ATOM      7  C5  PXY d   1       1.387  -3.086   0.370  0.00  0.00     0.003 A 
ATOM      8  C6  PXY d   1       2.097  -1.889   0.422  0.00  0.00     0.003 A 
ENDROOT
TORSDOF 0
ENDMDL
