MODEL 1
REMARK minimizedAffinity 4.24553633
REMARK minimizedRMSD -1
REMARK  0 active torsions:
REMARK  status: ('A' for Active; 'I' for Inactive)
ROOT
ATOM      1  C4' PXY d   1      -0.174  -1.199  -2.702  0.00  0.00     0.077 C 
ATOM      2  C1' PXY d   1      -4.959   1.361  -4.693  0.00  0.00     0.077 C 
ATOM      3  C1  PXY d   1      -3.710   0.689  -4.159  0.00  0.00    -0.082 A 
ATOM      4  C2  PXY d   1      -2.553   0.878  -4.772  0.00  0.00     0.003 A 
ATOM      5  C3  PXY d   1      -1.419   0.252  -4.322  0.00  0.00     0.003 A 
ATOM      6  C4  PXY d   1      -1.460  -0.533  -3.200  0.00  0.00    -0.082 A 
ATOM      7  C5  PXY d   1      -2.634  -0.721  -2.563  0.00  0.00     0.003 A 
ATOM      8  C6  PXY d   1      -3.782  -0.110  -3.060  0.00  0.00     0.003 A 
ENDROOT
TORSDOF 0
ENDMDL
