MODEL 1
REMARK minimizedAffinity 7.84214783
REMARK minimizedRMSD -1
REMARK  0 active torsions:
REMARK  status: ('A' for Active; 'I' for Inactive)
ROOT
ATOM      1  C4' PXY d   1       0.160  -1.521  -3.038  0.00  0.00     0.077 C 
ATOM      2  C1' PXY d   1       3.105  -2.269   1.880  0.00  0.00     0.077 C 
ATOM      3  C1  PXY d   1       2.331  -2.086   0.589  0.00  0.00    -0.082 A 
ATOM      4  C2  PXY d   1       2.505  -0.987  -0.127  0.00  0.00     0.003 A 
ATOM      5  C3  PXY d   1       1.790  -0.791  -1.281  0.00  0.00     0.003 A 
ATOM      6  C4  PXY d   1       0.927  -1.753  -1.733  0.00  0.00    -0.082 A 
ATOM      7  C5  PXY d   1       0.752  -2.881  -1.013  0.00  0.00     0.003 A 
ATOM      8  C6  PXY d   1       1.457  -3.043   0.176  0.00  0.00     0.003 A 
ENDROOT
TORSDOF 0
ENDMDL
