MODEL 1
REMARK minimizedAffinity 2.47920918
REMARK minimizedRMSD -1
REMARK  0 active torsions:
REMARK  status: ('A' for Active; 'I' for Inactive)
ROOT
ATOM      1  C4' PXY d   1      -0.340  -4.758   0.101  0.00  0.00     0.077 C 
ATOM      2  C1' PXY d   1       3.651  -0.600   0.539  0.00  0.00     0.077 C 
ATOM      3  C1  PXY d   1       2.596  -1.682   0.419  0.00  0.00    -0.082 A 
ATOM      4  C2  PXY d   1       2.635  -2.726   1.230  0.00  0.00     0.003 A 
ATOM      5  C3  PXY d   1       1.708  -3.730   1.114  0.00  0.00     0.003 A 
ATOM      6  C4  PXY d   1       0.698  -3.637   0.193  0.00  0.00    -0.082 A 
ATOM      7  C5  PXY d   1       0.646  -2.569  -0.631  0.00  0.00     0.003 A 
ATOM      8  C6  PXY d   1       1.621  -1.582  -0.524  0.00  0.00     0.003 A 
ENDROOT
TORSDOF 0
ENDMDL
