MODEL 1
REMARK minimizedAffinity 10.6156969
REMARK minimizedRMSD -1
REMARK  0 active torsions:
REMARK  status: ('A' for Active; 'I' for Inactive)
ROOT
ATOM      1  C4' PXY d   1      -3.257   4.218  -5.816  0.00  0.00     0.077 C 
ATOM      2  C1' PXY d   1      -6.000  -0.870  -5.732  0.00  0.00     0.077 C 
ATOM      3  C1  PXY d   1      -5.292   0.471  -5.757  0.00  0.00    -0.082 A 
ATOM      4  C2  PXY d   1      -3.988   0.518  -5.978  0.00  0.00     0.003 A 
ATOM      5  C3  PXY d   1      -3.327   1.719  -5.972  0.00  0.00     0.003 A 
ATOM      6  C4  PXY d   1      -4.015   2.888  -5.792  0.00  0.00    -0.082 A 
ATOM      7  C5  PXY d   1      -5.347   2.849  -5.577  0.00  0.00     0.003 A 
ATOM      8  C6  PXY d   1      -5.994   1.617  -5.545  0.00  0.00     0.003 A 
ENDROOT
TORSDOF 0
ENDMDL
