MODEL 1
REMARK minimizedAffinity 10.3604021
REMARK minimizedRMSD -1
REMARK  0 active torsions:
REMARK  status: ('A' for Active; 'I' for Inactive)
ROOT
ATOM      1  C4' PXY d   1       0.349  -1.532  -1.878  0.00  0.00     0.077 C 
ATOM      2  C1' PXY d   1       4.598  -1.536   2.042  0.00  0.00     0.077 C 
ATOM      3  C1  PXY d   1       3.480  -1.523   1.018  0.00  0.00    -0.082 A 
ATOM      4  C2  PXY d   1       3.026  -2.667   0.531  0.00  0.00     0.003 A 
ATOM      5  C3  PXY d   1       2.037  -2.672  -0.419  0.00  0.00     0.003 A 
ATOM      6  C4  PXY d   1       1.470  -1.497  -0.836  0.00  0.00    -0.082 A 
ATOM      7  C5  PXY d   1       1.920  -0.327  -0.335  0.00  0.00     0.003 A 
ATOM      8  C6  PXY d   1       2.953  -0.341   0.598  0.00  0.00     0.003 A 
ENDROOT
TORSDOF 0
ENDMDL
