MODEL 1
REMARK minimizedAffinity 6.92668056
REMARK minimizedRMSD -1
REMARK  0 active torsions:
REMARK  status: ('A' for Active; 'I' for Inactive)
ROOT
ATOM      1  C4' PXY d   1      -6.000  -2.276  -4.390  0.00  0.00     0.077 C 
ATOM      2  C1' PXY d   1      -3.026   2.672  -4.683  0.00  0.00     0.077 C 
ATOM      3  C1  PXY d   1      -3.796   1.369  -4.600  0.00  0.00    -0.082 A 
ATOM      4  C2  PXY d   1      -4.735   1.105  -5.494  0.00  0.00     0.003 A 
ATOM      5  C3  PXY d   1      -5.463  -0.054  -5.415  0.00  0.00     0.003 A 
ATOM      6  C4  PXY d   1      -5.191  -0.977  -4.441  0.00  0.00    -0.082 A 
ATOM      7  C5  PXY d   1      -4.227  -0.721  -3.531  0.00  0.00     0.003 A 
ATOM      8  C6  PXY d   1      -3.527   0.480  -3.605  0.00  0.00     0.003 A 
ENDROOT
TORSDOF 0
ENDMDL
