MODEL 1
REMARK minimizedAffinity 7.61947823
REMARK minimizedRMSD -1
REMARK  0 active torsions:
REMARK  status: ('A' for Active; 'I' for Inactive)
ROOT
ATOM      1  C4' PXY d   1       1.894   0.269   0.003  0.00  0.00     0.077 C 
ATOM      2  C1' PXY d   1      -1.446   3.923   2.988  0.00  0.00     0.077 C 
ATOM      3  C1  PXY d   1      -0.570   2.973   2.195  0.00  0.00    -0.082 A 
ATOM      4  C2  PXY d   1      -0.552   1.687   2.506  0.00  0.00     0.003 A 
ATOM      5  C3  PXY d   1       0.259   0.819   1.819  0.00  0.00     0.003 A 
ATOM      6  C4  PXY d   1       1.018   1.263   0.770  0.00  0.00    -0.082 A 
ATOM      7  C5  PXY d   1       0.997   2.572   0.440  0.00  0.00     0.003 A 
ATOM      8  C6  PXY d   1       0.199   3.444   1.176  0.00  0.00     0.003 A 
ENDROOT
TORSDOF 0
ENDMDL
