MODEL 1
REMARK minimizedAffinity 8.9322567
REMARK minimizedRMSD -1
REMARK  0 active torsions:
REMARK  status: ('A' for Active; 'I' for Inactive)
ROOT
ATOM      1  C4' PXY d   1      -0.338   2.189   0.972  0.00  0.00     0.077 C 
ATOM      2  C1' PXY d   1       2.615  -1.515  -2.341  0.00  0.00     0.077 C 
ATOM      3  C1  PXY d   1       1.848  -0.547  -1.462  0.00  0.00    -0.082 A 
ATOM      4  C2  PXY d   1       0.617  -0.196  -1.795  0.00  0.00     0.003 A 
ATOM      5  C3  PXY d   1      -0.079   0.703  -1.029  0.00  0.00     0.003 A 
ATOM      6  C4  PXY d   1       0.471   1.207   0.119  0.00  0.00    -0.082 A 
ATOM      7  C5  PXY d   1       1.723   0.846   0.471  0.00  0.00     0.003 A 
ATOM      8  C6  PXY d   1       2.428  -0.036  -0.342  0.00  0.00     0.003 A 
ENDROOT
TORSDOF 0
ENDMDL
