MODEL 1
REMARK minimizedAffinity 7.34585047
REMARK minimizedRMSD -1
REMARK  0 active torsions:
REMARK  status: ('A' for Active; 'I' for Inactive)
ROOT
ATOM      1  C4' PXY d   1       1.875  -2.812  -0.705  0.00  0.00     0.077 C 
ATOM      2  C1' PXY d   1       2.680   2.627   1.079  0.00  0.00     0.077 C 
ATOM      3  C1  PXY d   1       2.482   1.198   0.612  0.00  0.00    -0.082 A 
ATOM      4  C2  PXY d   1       1.411   0.885  -0.098  0.00  0.00     0.003 A 
ATOM      5  C3  PXY d   1       1.200  -0.408  -0.502  0.00  0.00     0.003 A 
ATOM      6  C4  PXY d   1       2.121  -1.381  -0.220  0.00  0.00    -0.082 A 
ATOM      7  C5  PXY d   1       3.222  -1.067   0.496  0.00  0.00     0.003 A 
ATOM      8  C6  PXY d   1       3.397   0.243   0.931  0.00  0.00     0.003 A 
ENDROOT
TORSDOF 0
ENDMDL
