MODEL 1
REMARK minimizedAffinity 17.0956116
REMARK minimizedRMSD -1
REMARK  0 active torsions:
REMARK  status: ('A' for Active; 'I' for Inactive)
ROOT
ATOM      1  C   UNL d   1       2.304  -0.233  -0.920  0.00  0.00    -0.002 A 
ATOM      2  C1  UNL d   1       2.627   0.035   0.403  0.00  0.00     0.010 A 
ATOM      3  C2  UNL d   1       3.704   0.867   0.716  0.00  0.00     0.041 A 
ATOM      4  C3  UNL d   1       4.456   1.432  -0.332  0.00  0.00    -0.075 A 
ATOM      5  S   UNL d   1       5.816   2.482  -0.187  0.00  0.00     0.015 SA
ATOM      6  C4  UNL d   1       6.000   2.600  -1.877  0.00  0.00     0.022 A 
ATOM      7  C5  UNL d   1       5.055   1.863  -2.551  0.00  0.00     0.026 A 
ATOM      8  C6  UNL d   1       4.150   1.178  -1.672  0.00  0.00    -0.082 A 
ATOM      9  C7  UNL d   1       3.053   0.329  -1.957  0.00  0.00     0.045 A 
ENDROOT
TORSDOF 0
ENDMDL
