MODEL 1
REMARK minimizedAffinity 15.6923943
REMARK minimizedRMSD -1
REMARK  0 active torsions:
REMARK  status: ('A' for Active; 'I' for Inactive)
ROOT
ATOM      1  C   UNL d   1      -0.886  -3.824  -2.060  0.00  0.00    -0.002 A 
ATOM      2  C1  UNL d   1      -0.683  -2.455  -1.952  0.00  0.00     0.010 A 
ATOM      3  C2  UNL d   1      -1.407  -1.565  -2.748  0.00  0.00     0.041 A 
ATOM      4  C3  UNL d   1      -2.349  -2.078  -3.661  0.00  0.00    -0.075 A 
ATOM      5  S   UNL d   1      -3.350  -1.177  -4.737  0.00  0.00     0.015 SA
ATOM      6  C4  UNL d   1      -4.072  -2.588  -5.365  0.00  0.00     0.022 A 
ATOM      7  C5  UNL d   1      -3.572  -3.727  -4.780  0.00  0.00     0.026 A 
ATOM      8  C6  UNL d   1      -2.571  -3.452  -3.788  0.00  0.00    -0.082 A 
ATOM      9  C7  UNL d   1      -1.821  -4.329  -2.968  0.00  0.00     0.045 A 
ENDROOT
TORSDOF 0
ENDMDL
