MODEL 1
REMARK minimizedAffinity 14.4082212
REMARK minimizedRMSD -1
REMARK  0 active torsions:
REMARK  status: ('A' for Active; 'I' for Inactive)
ROOT
ATOM      1  C   UNL d   1       5.998   2.735  -1.720  0.00  0.00    -0.002 A 
ATOM      2  C1  UNL d   1       5.266   2.328  -2.826  0.00  0.00     0.010 A 
ATOM      3  C2  UNL d   1       4.184   1.456  -2.680  0.00  0.00     0.041 A 
ATOM      4  C3  UNL d   1       3.847   0.999  -1.391  0.00  0.00    -0.075 A 
ATOM      5  S   UNL d   1       2.562  -0.072  -0.972  0.00  0.00     0.015 SA
ATOM      6  C4  UNL d   1       2.954  -0.012   0.686  0.00  0.00     0.022 A 
ATOM      7  C5  UNL d   1       4.036   0.800   0.931  0.00  0.00     0.026 A 
ATOM      8  C6  UNL d   1       4.568   1.396  -0.262  0.00  0.00    -0.082 A 
ATOM      9  C7  UNL d   1       5.660   2.280  -0.443  0.00  0.00     0.045 A 
ENDROOT
TORSDOF 0
ENDMDL
