MODEL 1
REMARK minimizedAffinity 19.9873524
REMARK minimizedRMSD -1
REMARK  0 active torsions:
REMARK  status: ('A' for Active; 'I' for Inactive)
ROOT
ATOM      1  C   UNL d   1       5.999   3.194  -1.865  0.00  0.00    -0.002 A 
ATOM      2  C1  UNL d   1       5.092   2.648  -2.762  0.00  0.00     0.010 A 
ATOM      3  C2  UNL d   1       4.018   1.881  -2.307  0.00  0.00     0.041 A 
ATOM      4  C3  UNL d   1       3.869   1.671  -0.922  0.00  0.00    -0.075 A 
ATOM      5  S   UNL d   1       2.630   0.766  -0.136  0.00  0.00     0.015 SA
ATOM      6  C4  UNL d   1       3.275   1.083   1.410  0.00  0.00     0.022 A 
ATOM      7  C5  UNL d   1       4.409   1.859   1.345  0.00  0.00     0.026 A 
ATOM      8  C6  UNL d   1       4.769   2.211   0.001  0.00  0.00    -0.082 A 
ATOM      9  C7  UNL d   1       5.848   2.984  -0.492  0.00  0.00     0.045 A 
ENDROOT
TORSDOF 0
ENDMDL
