MODEL 1
REMARK minimizedAffinity 19.5728264
REMARK minimizedRMSD -1
REMARK  0 active torsions:
REMARK  status: ('A' for Active; 'I' for Inactive)
ROOT
ATOM      1  C   UNL d   1       3.586   0.929   0.846  0.00  0.00    -0.002 A 
ATOM      2  C1  UNL d   1       2.819   0.447  -0.206  0.00  0.00     0.010 A 
ATOM      3  C2  UNL d   1       1.628   1.080  -0.565  0.00  0.00     0.041 A 
ATOM      4  C3  UNL d   1       1.216   2.218   0.157  0.00  0.00    -0.075 A 
ATOM      5  S   UNL d   1      -0.206   3.156  -0.104  0.00  0.00     0.015 SA
ATOM      6  C4  UNL d   1       0.170   4.219   1.174  0.00  0.00     0.022 A 
ATOM      7  C5  UNL d   1       1.349   3.881   1.796  0.00  0.00     0.026 A 
ATOM      8  C6  UNL d   1       1.971   2.722   1.220  0.00  0.00    -0.082 A 
ATOM      9  C7  UNL d   1       3.174   2.057   1.560  0.00  0.00     0.045 A 
ENDROOT
TORSDOF 0
ENDMDL
