MODEL 1
REMARK minimizedAffinity -1.39711511
REMARK minimizedRMSD -1
REMARK  0 active torsions:
REMARK  status: ('A' for Active; 'I' for Inactive)
ROOT
ATOM      1  N1  IND d   1       1.625   0.381   1.015  0.00  0.00    -0.196 N 
ATOM      2  C2  IND d   1       1.268  -0.062   2.258  0.00  0.00     0.054 A 
ATOM      3  C3  IND d   1      -0.078  -0.152   2.356  0.00  0.00    -0.031 A 
ATOM      4  C4  IND d   1      -1.881   0.278   0.570  0.00  0.00     0.051 A 
ATOM      5  C5  IND d   1      -2.044   0.734  -0.708  0.00  0.00    -0.031 A 
ATOM      6  C6  IND d   1      -0.971   1.100  -1.494  0.00  0.00     0.015 A 
ATOM      7  C7  IND d   1       0.313   1.013  -1.033  0.00  0.00    -0.016 A 
ATOM      8  C8  IND d   1       0.481   0.557   0.267  0.00  0.00    -0.047 A 
ATOM      9  C9  IND d   1      -0.607   0.224   1.084  0.00  0.00    -0.096 A 
ATOM     10  HN1 IND d   1       2.429   0.525   0.745  0.00  0.00     0.298 HD
ENDROOT
TORSDOF 0
ENDMDL
