MODEL 1
REMARK minimizedAffinity -4.81286526
REMARK minimizedRMSD -1
REMARK  0 active torsions:
REMARK  status: ('A' for Active; 'I' for Inactive)
ROOT
ATOM      1  N1  IND d   1      -2.361   0.423  -0.449  0.00  0.00    -0.196 N 
ATOM      2  C2  IND d   1      -1.479   0.640  -1.471  0.00  0.00     0.054 A 
ATOM      3  C3  IND d   1      -0.217   0.369  -1.069  0.00  0.00    -0.031 A 
ATOM      4  C4  IND d   1       0.620  -0.541   1.189  0.00  0.00     0.051 A 
ATOM      5  C5  IND d   1       0.192  -0.861   2.447  0.00  0.00    -0.031 A 
ATOM      6  C6  IND d   1      -1.136  -0.771   2.810  0.00  0.00     0.015 A 
ATOM      7  C7  IND d   1      -2.091  -0.366   1.921  0.00  0.00    -0.016 A 
ATOM      8  C8  IND d   1      -1.660  -0.033   0.645  0.00  0.00    -0.047 A 
ATOM      9  C9  IND d   1      -0.307  -0.082   0.283  0.00  0.00    -0.096 A 
ATOM     10  HN1 IND d   1      -3.211   0.549  -0.484  0.00  0.00     0.298 HD
ENDROOT
TORSDOF 0
ENDMDL
