MODEL 1
REMARK minimizedAffinity -3.49505019
REMARK minimizedRMSD -1
REMARK  0 active torsions:
REMARK  status: ('A' for Active; 'I' for Inactive)
ROOT
ATOM      1  N1  IND d   1      -2.770   1.129   0.575  0.00  0.00    -0.196 N 
ATOM      2  C2  IND d   1      -3.358   1.285   1.799  0.00  0.00     0.054 A 
ATOM      3  C3  IND d   1      -2.460   1.062   2.785  0.00  0.00    -0.031 A 
ATOM      4  C4  IND d   1       0.053   0.530   2.617  0.00  0.00     0.051 A 
ATOM      5  C5  IND d   1       1.038   0.253   1.711  0.00  0.00    -0.031 A 
ATOM      6  C6  IND d   1       0.799   0.257   0.352  0.00  0.00     0.015 A 
ATOM      7  C7  IND d   1      -0.436   0.550  -0.154  0.00  0.00    -0.016 A 
ATOM      8  C8  IND d   1      -1.439   0.825   0.764  0.00  0.00    -0.047 A 
ATOM      9  C9  IND d   1      -1.213   0.781   2.146  0.00  0.00    -0.096 A 
ATOM     10  HN1 IND d   1      -3.164   1.208  -0.185  0.00  0.00     0.298 HD
ENDROOT
TORSDOF 0
ENDMDL
