MODEL 1
REMARK minimizedAffinity -4.75475359
REMARK minimizedRMSD -1
REMARK  0 active torsions:
REMARK  status: ('A' for Active; 'I' for Inactive)
ROOT
ATOM      1  N1  IND d   1      -1.263   1.032  -0.371  0.00  0.00    -0.196 N 
ATOM      2  C2  IND d   1       0.050   0.674  -0.499  0.00  0.00     0.054 A 
ATOM      3  C3  IND d   1       0.530   0.218   0.680  0.00  0.00    -0.031 A 
ATOM      4  C4  IND d   1      -0.690  -0.124   2.921  0.00  0.00     0.051 A 
ATOM      5  C5  IND d   1      -1.890   0.094   3.538  0.00  0.00    -0.031 A 
ATOM      6  C6  IND d   1      -2.965   0.643   2.869  0.00  0.00     0.015 A 
ATOM      7  C7  IND d   1      -2.883   0.987   1.549  0.00  0.00    -0.016 A 
ATOM      8  C8  IND d   1      -1.664   0.774   0.922  0.00  0.00    -0.047 A 
ATOM      9  C9  IND d   1      -0.557   0.256   1.606  0.00  0.00    -0.096 A 
ATOM     10  HN1 IND d   1      -1.756   1.362  -0.994  0.00  0.00     0.298 HD
ENDROOT
TORSDOF 0
ENDMDL
