MODEL 1
REMARK minimizedAffinity -0.781239092
REMARK minimizedRMSD -1
REMARK  0 active torsions:
REMARK  status: ('A' for Active; 'I' for Inactive)
ROOT
ATOM      1  N1  IND d   1      -0.629  -0.259  -1.445  0.00  0.00    -0.196 N 
ATOM      2  C2  IND d   1      -0.105   0.735  -0.666  0.00  0.00     0.054 A 
ATOM      3  C3  IND d   1       1.173   0.991  -1.025  0.00  0.00    -0.031 A 
ATOM      4  C4  IND d   1       2.571  -0.029  -2.931  0.00  0.00     0.051 A 
ATOM      5  C5  IND d   1       2.536  -0.999  -3.892  0.00  0.00    -0.031 A 
ATOM      6  C6  IND d   1       1.421  -1.787  -4.093  0.00  0.00     0.015 A 
ATOM      7  C7  IND d   1       0.290  -1.624  -3.344  0.00  0.00    -0.016 A 
ATOM      8  C8  IND d   1       0.325  -0.645  -2.362  0.00  0.00    -0.047 A 
ATOM      9  C9  IND d   1       1.468   0.129  -2.125  0.00  0.00    -0.096 A 
ATOM     10  HN1 IND d   1      -1.420  -0.587  -1.375  0.00  0.00     0.298 HD
ENDROOT
TORSDOF 0
ENDMDL
