MODEL 1
REMARK minimizedAffinity -0.19050537
REMARK minimizedRMSD -1
REMARK  0 active torsions:
REMARK  status: ('A' for Active; 'I' for Inactive)
ROOT
ATOM      1  N1  IND d   1       0.446   0.772   3.011  0.00  0.00    -0.196 N 
ATOM      2  C2  IND d   1      -0.831   0.463   3.389  0.00  0.00     0.054 A 
ATOM      3  C3  IND d   1      -1.552   0.054   2.320  0.00  0.00    -0.031 A 
ATOM      4  C4  IND d   1      -0.810  -0.281  -0.122  0.00  0.00     0.051 A 
ATOM      5  C5  IND d   1       0.254  -0.095  -0.959  0.00  0.00    -0.031 A 
ATOM      6  C6  IND d   1       1.462   0.396  -0.506  0.00  0.00     0.015 A 
ATOM      7  C7  IND d   1       1.654   0.711   0.809  0.00  0.00    -0.016 A 
ATOM      8  C8  IND d   1       0.574   0.530   1.661  0.00  0.00    -0.047 A 
ATOM      9  C9  IND d   1      -0.667   0.072   1.199  0.00  0.00    -0.096 A 
ATOM     10  HN1 IND d   1       1.065   1.067   3.530  0.00  0.00     0.298 HD
ENDROOT
TORSDOF 0
ENDMDL
