MODEL 1
REMARK minimizedAffinity -3.29408956
REMARK minimizedRMSD -1
REMARK  0 active torsions:
REMARK  status: ('A' for Active; 'I' for Inactive)
ROOT
ATOM      1  N1  IND d   1      -2.441   0.777   0.272  0.00  0.00    -0.196 N 
ATOM      2  C2  IND d   1      -2.196   1.023  -1.051  0.00  0.00     0.054 A 
ATOM      3  C3  IND d   1      -0.865   1.065  -1.282  0.00  0.00    -0.031 A 
ATOM      4  C4  IND d   1       1.091   0.658   0.341  0.00  0.00     0.051 A 
ATOM      5  C5  IND d   1       1.367   0.435   1.661  0.00  0.00    -0.031 A 
ATOM      6  C6  IND d   1       0.368   0.310   2.604  0.00  0.00     0.015 A 
ATOM      7  C7  IND d   1      -0.952   0.391   2.258  0.00  0.00    -0.016 A 
ATOM      8  C8  IND d   1      -1.236   0.625   0.920  0.00  0.00    -0.047 A 
ATOM      9  C9  IND d   1      -0.224   0.795  -0.034  0.00  0.00    -0.096 A 
ATOM     10  HN1 IND d   1      -3.218   0.727   0.637  0.00  0.00     0.298 HD
ENDROOT
TORSDOF 0
ENDMDL
