MODEL 1
REMARK minimizedAffinity -4.10739756
REMARK minimizedRMSD -1
REMARK  0 active torsions:
REMARK  status: ('A' for Active; 'I' for Inactive)
ROOT
ATOM      1  N1  IND d   1       1.406   0.770   2.018  0.00  0.00    -0.196 N 
ATOM      2  C2  IND d   1       1.900   0.869   0.747  0.00  0.00     0.054 A 
ATOM      3  C3  IND d   1       1.045   0.305  -0.135  0.00  0.00    -0.031 A 
ATOM      4  C4  IND d   1      -1.269  -0.747   0.273  0.00  0.00     0.051 A 
ATOM      5  C5  IND d   1      -2.130  -1.099   1.274  0.00  0.00    -0.031 A 
ATOM      6  C6  IND d   1      -1.853  -0.839   2.600  0.00  0.00     0.015 A 
ATOM      7  C7  IND d   1      -0.704  -0.203   2.976  0.00  0.00    -0.016 A 
ATOM      8  C8  IND d   1       0.177   0.150   1.963  0.00  0.00    -0.047 A 
ATOM      9  C9  IND d   1      -0.080  -0.150   0.619  0.00  0.00    -0.096 A 
ATOM     10  HN1 IND d   1       1.797   1.049   2.731  0.00  0.00     0.298 HD
ENDROOT
TORSDOF 0
ENDMDL
