MODEL 1
REMARK minimizedAffinity 1.56520975
REMARK minimizedRMSD -1
REMARK  0 active torsions:
REMARK  status: ('A' for Active; 'I' for Inactive)
ROOT
ATOM      1  N1  IND d   1      -0.943   1.209  -1.193  0.00  0.00    -0.196 N 
ATOM      2  C2  IND d   1       0.204   0.850  -1.846  0.00  0.00     0.054 A 
ATOM      3  C3  IND d   1       0.719  -0.277  -1.306  0.00  0.00    -0.031 A 
ATOM      4  C4  IND d   1      -0.207  -1.756   0.586  0.00  0.00     0.051 A 
ATOM      5  C5  IND d   1      -1.210  -1.817   1.513  0.00  0.00    -0.031 A 
ATOM      6  C6  IND d   1      -2.195  -0.854   1.586  0.00  0.00     0.015 A 
ATOM      7  C7  IND d   1      -2.222   0.204   0.722  0.00  0.00    -0.016 A 
ATOM      8  C8  IND d   1      -1.202   0.273  -0.216  0.00  0.00    -0.047 A 
ATOM      9  C9  IND d   1      -0.175  -0.679  -0.267  0.00  0.00    -0.096 A 
ATOM     10  HN1 IND d   1      -1.421   1.903  -1.364  0.00  0.00     0.298 HD
ENDROOT
TORSDOF 0
ENDMDL
