MODEL 1
REMARK minimizedAffinity -1.98351645
REMARK minimizedRMSD -1
REMARK  0 active torsions:
REMARK  status: ('A' for Active; 'I' for Inactive)
ROOT
ATOM      1  N1  IND d   1       1.213   0.079   2.082  0.00  0.00    -0.196 N 
ATOM      2  C2  IND d   1       2.204  -0.095   1.157  0.00  0.00     0.054 A 
ATOM      3  C3  IND d   1       1.698  -0.021  -0.095  0.00  0.00    -0.031 A 
ATOM      4  C4  IND d   1      -0.709   0.479  -0.859  0.00  0.00     0.051 A 
ATOM      5  C5  IND d   1      -1.973   0.673  -0.378  0.00  0.00    -0.031 A 
ATOM      6  C6  IND d   1      -2.245   0.681   0.975  0.00  0.00     0.015 A 
ATOM      7  C7  IND d   1      -1.257   0.507   1.901  0.00  0.00    -0.016 A 
ATOM      8  C8  IND d   1       0.027   0.303   1.417  0.00  0.00    -0.047 A 
ATOM      9  C9  IND d   1       0.303   0.251   0.044  0.00  0.00    -0.096 A 
ATOM     10  HN1 IND d   1       1.313   0.053   2.935  0.00  0.00     0.298 HD
ENDROOT
TORSDOF 0
ENDMDL
