MODEL 1
REMARK minimizedAffinity -2.23386288
REMARK minimizedRMSD -1
REMARK  0 active torsions:
REMARK  status: ('A' for Active; 'I' for Inactive)
ROOT
ATOM      1  N1  IND d   1      -0.713   0.105  -2.082  0.00  0.00    -0.196 N 
ATOM      2  C2  IND d   1       0.566   0.006  -2.554  0.00  0.00     0.054 A 
ATOM      3  C3  IND d   1       1.444  -0.041  -1.526  0.00  0.00    -0.031 A 
ATOM      4  C4  IND d   1       0.994  -0.071   1.009  0.00  0.00     0.051 A 
ATOM      5  C5  IND d   1      -0.014   0.038   1.925  0.00  0.00    -0.031 A 
ATOM      6  C6  IND d   1      -1.334   0.175   1.545  0.00  0.00     0.015 A 
ATOM      7  C7  IND d   1      -1.697   0.197   0.228  0.00  0.00    -0.016 A 
ATOM      8  C8  IND d   1      -0.675   0.094  -0.705  0.00  0.00    -0.047 A 
ATOM      9  C9  IND d   1       0.670  -0.003  -0.326  0.00  0.00    -0.096 A 
ATOM     10  HN1 IND d   1      -1.422   0.165  -2.565  0.00  0.00     0.298 HD
ENDROOT
TORSDOF 0
ENDMDL
