MODEL 1
REMARK minimizedAffinity -1.70508981
REMARK minimizedRMSD -1
REMARK  0 active torsions:
REMARK  status: ('A' for Active; 'I' for Inactive)
ROOT
ATOM      1  N1  IND d   1      -1.367   0.466  -1.038  0.00  0.00    -0.196 N 
ATOM      2  C2  IND d   1      -2.553   0.729  -0.411  0.00  0.00     0.054 A 
ATOM      3  C3  IND d   1      -2.406   0.635   0.930  0.00  0.00    -0.031 A 
ATOM      4  C4  IND d   1      -0.289   0.161   2.315  0.00  0.00     0.051 A 
ATOM      5  C5  IND d   1       1.028  -0.180   2.187  0.00  0.00    -0.031 A 
ATOM      6  C6  IND d   1       1.627  -0.323   0.952  0.00  0.00     0.015 A 
ATOM      7  C7  IND d   1       0.931  -0.119  -0.206  0.00  0.00    -0.016 A 
ATOM      8  C8  IND d   1      -0.409   0.220  -0.079  0.00  0.00    -0.047 A 
ATOM      9  C9  IND d   1      -1.033   0.325   1.171  0.00  0.00    -0.096 A 
ATOM     10  HN1 IND d   1      -1.241   0.455  -1.889  0.00  0.00     0.298 HD
ENDROOT
TORSDOF 0
ENDMDL
