MODEL 1
REMARK minimizedAffinity -2.3391397
REMARK minimizedRMSD -1
REMARK  0 active torsions:
REMARK  status: ('A' for Active; 'I' for Inactive)
ROOT
ATOM      1  N1  IND d   1      -0.680  -0.606  -0.944  0.00  0.00    -0.196 N 
ATOM      2  C2  IND d   1       0.169  -0.343  -1.983  0.00  0.00     0.054 A 
ATOM      3  C3  IND d   1       1.301   0.239  -1.528  0.00  0.00    -0.031 A 
ATOM      4  C4  IND d   1       2.016   0.761   0.889  0.00  0.00     0.051 A 
ATOM      5  C5  IND d   1       1.558   0.736   2.177  0.00  0.00    -0.031 A 
ATOM      6  C6  IND d   1       0.307   0.250   2.497  0.00  0.00     0.015 A 
ATOM      7  C7  IND d   1      -0.532  -0.242   1.538  0.00  0.00    -0.016 A 
ATOM      8  C8  IND d   1      -0.074  -0.211   0.228  0.00  0.00    -0.047 A 
ATOM      9  C9  IND d   1       1.178   0.320  -0.108  0.00  0.00    -0.096 A 
ATOM     10  HN1 IND d   1      -1.462  -0.958  -1.012  0.00  0.00     0.298 HD
ENDROOT
TORSDOF 0
ENDMDL
