MODEL 1
REMARK minimizedAffinity 0.0107016256
REMARK minimizedRMSD -1
REMARK  0 active torsions:
REMARK  status: ('A' for Active; 'I' for Inactive)
ROOT
ATOM      1  N1  IND d   1      -2.550   0.572   0.378  0.00  0.00    -0.196 N 
ATOM      2  C2  IND d   1      -2.295   0.836  -0.939  0.00  0.00     0.054 A 
ATOM      3  C3  IND d   1      -0.963   0.922  -1.152  0.00  0.00    -0.031 A 
ATOM      4  C4  IND d   1       0.983   0.563   0.494  0.00  0.00     0.051 A 
ATOM      5  C5  IND d   1       1.248   0.337   1.816  0.00  0.00    -0.031 A 
ATOM      6  C6  IND d   1       0.241   0.172   2.744  0.00  0.00     0.015 A 
ATOM      7  C7  IND d   1      -1.076   0.215   2.381  0.00  0.00    -0.016 A 
ATOM      8  C8  IND d   1      -1.349   0.451   1.041  0.00  0.00    -0.047 A 
ATOM      9  C9  IND d   1      -0.331   0.662   0.102  0.00  0.00    -0.096 A 
ATOM     10  HN1 IND d   1      -3.330   0.493   0.732  0.00  0.00     0.298 HD
ENDROOT
TORSDOF 0
ENDMDL
