MODEL 1
REMARK minimizedAffinity -2.49650359
REMARK minimizedRMSD -1
REMARK  0 active torsions:
REMARK  status: ('A' for Active; 'I' for Inactive)
ROOT
ATOM      1  N1  IND d   1      -1.911   0.533  -0.033  0.00  0.00    -0.196 N 
ATOM      2  C2  IND d   1      -1.360   0.303  -1.263  0.00  0.00     0.054 A 
ATOM      3  C3  IND d   1      -0.034   0.065  -1.148  0.00  0.00    -0.031 A 
ATOM      4  C4  IND d   1       1.420  -0.096   0.970  0.00  0.00     0.051 A 
ATOM      5  C5  IND d   1       1.372   0.075   2.325  0.00  0.00    -0.031 A 
ATOM      6  C6  IND d   1       0.203   0.411   2.977  0.00  0.00     0.015 A 
ATOM      7  C7  IND d   1      -0.969   0.579   2.296  0.00  0.00    -0.016 A 
ATOM      8  C8  IND d   1      -0.922   0.413   0.919  0.00  0.00    -0.047 A 
ATOM      9  C9  IND d   1       0.270   0.113   0.247  0.00  0.00    -0.096 A 
ATOM     10  HN1 IND d   1      -2.736   0.721   0.120  0.00  0.00     0.298 HD
ENDROOT
TORSDOF 0
ENDMDL
