MODEL 1
REMARK minimizedAffinity -0.0408210866
REMARK minimizedRMSD -1
REMARK  0 active torsions:
REMARK  status: ('A' for Active; 'I' for Inactive)
ROOT
ATOM      1  N1  IND d   1      -2.592   0.528   0.780  0.00  0.00    -0.196 N 
ATOM      2  C2  IND d   1      -2.764   0.695  -0.566  0.00  0.00     0.054 A 
ATOM      3  C3  IND d   1      -1.570   0.681  -1.198  0.00  0.00    -0.031 A 
ATOM      4  C4  IND d   1       0.786   0.294  -0.235  0.00  0.00     0.051 A 
ATOM      5  C5  IND d   1       1.454   0.131   0.946  0.00  0.00    -0.031 A 
ATOM      6  C6  IND d   1       0.793   0.089   2.157  0.00  0.00     0.015 A 
ATOM      7  C7  IND d   1      -0.567   0.197   2.230  0.00  0.00    -0.016 A 
ATOM      8  C8  IND d   1      -1.247   0.369   1.033  0.00  0.00    -0.047 A 
ATOM      9  C9  IND d   1      -0.579   0.456  -0.195  0.00  0.00    -0.096 A 
ATOM     10  HN1 IND d   1      -3.218   0.522   1.369  0.00  0.00     0.298 HD
ENDROOT
TORSDOF 0
ENDMDL
