MODEL 1
REMARK minimizedAffinity -2.78034949
REMARK minimizedRMSD -1
REMARK  0 active torsions:
REMARK  status: ('A' for Active; 'I' for Inactive)
ROOT
ATOM      1  N1  IND d   1      -0.764   3.350  -1.340  0.00  0.00    -0.196 N 
ATOM      2  C2  IND d   1      -0.686   3.429  -2.702  0.00  0.00     0.054 A 
ATOM      3  C3  IND d   1      -0.408   2.214  -3.228  0.00  0.00    -0.031 A 
ATOM      4  C4  IND d   1      -0.142  -0.057  -2.047  0.00  0.00     0.051 A 
ATOM      5  C5  IND d   1      -0.092  -0.627  -0.805  0.00  0.00    -0.031 A 
ATOM      6  C6  IND d   1      -0.269   0.115   0.345  0.00  0.00     0.015 A 
ATOM      7  C7  IND d   1      -0.516   1.458   0.295  0.00  0.00    -0.016 A 
ATOM      8  C8  IND d   1      -0.561   2.041  -0.963  0.00  0.00    -0.047 A 
ATOM      9  C9  IND d   1      -0.339   1.301  -2.132  0.00  0.00    -0.096 A 
ATOM     10  HN1 IND d   1      -0.914   4.008  -0.807  0.00  0.00     0.298 HD
ENDROOT
TORSDOF 0
ENDMDL
