MODEL 1
REMARK minimizedAffinity -3.53036427
REMARK minimizedRMSD -1
REMARK  0 active torsions:
REMARK  status: ('A' for Active; 'I' for Inactive)
ROOT
ATOM      1  N1  IND d   1       1.322  -1.349  -1.098  0.00  0.00    -0.196 N 
ATOM      2  C2  IND d   1       2.386  -2.063  -0.622  0.00  0.00     0.054 A 
ATOM      3  C3  IND d   1       2.345  -2.124   0.728  0.00  0.00    -0.031 A 
ATOM      4  C4  IND d   1       0.570  -1.210   2.353  0.00  0.00     0.051 A 
ATOM      5  C5  IND d   1      -0.569  -0.455   2.392  0.00  0.00    -0.031 A 
ATOM      6  C6  IND d   1      -1.148   0.049   1.245  0.00  0.00     0.015 A 
ATOM      7  C7  IND d   1      -0.615  -0.195   0.011  0.00  0.00    -0.016 A 
ATOM      8  C8  IND d   1       0.545  -0.955  -0.031  0.00  0.00    -0.047 A 
ATOM      9  C9  IND d   1       1.162  -1.433   1.133  0.00  0.00    -0.096 A 
ATOM     10  HN1 IND d   1       1.165  -1.175  -1.925  0.00  0.00     0.298 HD
ENDROOT
TORSDOF 0
ENDMDL
