MODEL 1
REMARK minimizedAffinity 0.987083673
REMARK minimizedRMSD -1
REMARK  0 active torsions:
REMARK  status: ('A' for Active; 'I' for Inactive)
ROOT
ATOM      1  N1  IND d   1      -0.218   2.622  -1.876  0.00  0.00    -0.196 N 
ATOM      2  C2  IND d   1      -1.493   2.660  -2.366  0.00  0.00     0.054 A 
ATOM      3  C3  IND d   1      -2.180   1.562  -1.976  0.00  0.00    -0.031 A 
ATOM      4  C4  IND d   1      -1.439  -0.372  -0.447  0.00  0.00     0.051 A 
ATOM      5  C5  IND d   1      -0.350  -0.865   0.215  0.00  0.00    -0.031 A 
ATOM      6  C6  IND d   1       0.862  -0.206   0.216  0.00  0.00     0.015 A 
ATOM      7  C7  IND d   1       1.028   0.981  -0.438  0.00  0.00    -0.016 A 
ATOM      8  C8  IND d   1      -0.073   1.481  -1.117  0.00  0.00    -0.047 A 
ATOM      9  C9  IND d   1      -1.294   0.796  -1.158  0.00  0.00    -0.096 A 
ATOM     10  HN1 IND d   1       0.391   3.212  -2.017  0.00  0.00     0.298 HD
ENDROOT
TORSDOF 0
ENDMDL
