MODEL 1
REMARK minimizedAffinity -4.46427155
REMARK minimizedRMSD -1
REMARK  0 active torsions:
REMARK  status: ('A' for Active; 'I' for Inactive)
ROOT
ATOM      1  N1  IND d   1       0.216   0.275  -0.971  0.00  0.00    -0.196 N 
ATOM      2  C2  IND d   1      -1.144   0.170  -1.064  0.00  0.00     0.054 A 
ATOM      3  C3  IND d   1      -1.663  -0.265   0.106  0.00  0.00    -0.031 A 
ATOM      4  C4  IND d   1      -0.476  -0.768   2.335  0.00  0.00     0.051 A 
ATOM      5  C5  IND d   1       0.766  -0.853   2.899  0.00  0.00    -0.031 A 
ATOM      6  C6  IND d   1       1.911  -0.557   2.188  0.00  0.00     0.015 A 
ATOM      7  C7  IND d   1       1.855  -0.153   0.884  0.00  0.00    -0.016 A 
ATOM      8  C8  IND d   1       0.596  -0.073   0.306  0.00  0.00    -0.047 A 
ATOM      9  C9  IND d   1      -0.566  -0.413   1.010  0.00  0.00    -0.096 A 
ATOM     10  HN1 IND d   1       0.745   0.517  -1.605  0.00  0.00     0.298 HD
ENDROOT
TORSDOF 0
ENDMDL
