MODEL 1
REMARK minimizedAffinity -5.09603071
REMARK minimizedRMSD -1
REMARK  0 active torsions:
REMARK  status: ('A' for Active; 'I' for Inactive)
ROOT
ATOM      1  N1  IND d   1       0.700  -0.396  -0.985  0.00  0.00    -0.196 N 
ATOM      2  C2  IND d   1      -0.544   0.151  -0.836  0.00  0.00     0.054 A 
ATOM      3  C3  IND d   1      -0.915   0.128   0.464  0.00  0.00    -0.031 A 
ATOM      4  C4  IND d   1       0.402  -0.668   2.527  0.00  0.00     0.051 A 
ATOM      5  C5  IND d   1       1.569  -1.281   2.890  0.00  0.00    -0.031 A 
ATOM      6  C6  IND d   1       2.526  -1.634   1.960  0.00  0.00     0.015 A 
ATOM      7  C7  IND d   1       2.356  -1.377   0.630  0.00  0.00    -0.016 A 
ATOM      8  C8  IND d   1       1.170  -0.761   0.257  0.00  0.00    -0.047 A 
ATOM      9  C9  IND d   1       0.176  -0.439   1.191  0.00  0.00    -0.096 A 
ATOM     10  HN1 IND d   1       1.118  -0.495  -1.730  0.00  0.00     0.298 HD
ENDROOT
TORSDOF 0
ENDMDL
