MODEL 1
REMARK minimizedAffinity 0.463970065
REMARK minimizedRMSD -1
REMARK  0 active torsions:
REMARK  status: ('A' for Active; 'I' for Inactive)
ROOT
ATOM      1  N1  IND d   1       0.229   0.122  -1.292  0.00  0.00    -0.196 N 
ATOM      2  C2  IND d   1      -0.220   0.031  -0.004  0.00  0.00     0.054 A 
ATOM      3  C3  IND d   1      -0.850   1.171   0.356  0.00  0.00    -0.031 A 
ATOM      4  C4  IND d   1      -1.349   3.275  -1.041  0.00  0.00     0.051 A 
ATOM      5  C5  IND d   1      -1.106   3.841  -2.261  0.00  0.00    -0.031 A 
ATOM      6  C6  IND d   1      -0.394   3.181  -3.242  0.00  0.00     0.015 A 
ATOM      7  C7  IND d   1       0.094   1.921  -3.042  0.00  0.00    -0.016 A 
ATOM      8  C8  IND d   1      -0.144   1.346  -1.801  0.00  0.00    -0.047 A 
ATOM      9  C9  IND d   1      -0.830   2.028  -0.787  0.00  0.00    -0.096 A 
ATOM     10  HN1 IND d   1       0.670  -0.484  -1.714  0.00  0.00     0.298 HD
ENDROOT
TORSDOF 0
ENDMDL
