MODEL 1
REMARK minimizedAffinity -6.6296072
REMARK minimizedRMSD -1
REMARK  0 active torsions:
REMARK  status: ('A' for Active; 'I' for Inactive)
ROOT
ATOM      1  N1  IND d   1       0.491  -0.508  -0.826  0.00  0.00    -0.196 N 
ATOM      2  C2  IND d   1      -0.738   0.027  -0.561  0.00  0.00     0.054 A 
ATOM      3  C3  IND d   1      -0.999  -0.028   0.764  0.00  0.00    -0.031 A 
ATOM      4  C4  IND d   1       0.490  -0.861   2.691  0.00  0.00     0.051 A 
ATOM      5  C5  IND d   1       1.686  -1.474   2.941  0.00  0.00    -0.031 A 
ATOM      6  C6  IND d   1       2.563  -1.801   1.928  0.00  0.00     0.015 A 
ATOM      7  C7  IND d   1       2.282  -1.515   0.622  0.00  0.00    -0.016 A 
ATOM      8  C8  IND d   1       1.065  -0.899   0.364  0.00  0.00    -0.047 A 
ATOM      9  C9  IND d   1       0.152  -0.603   1.384  0.00  0.00    -0.096 A 
ATOM     10  HN1 IND d   1       0.846  -0.588  -1.605  0.00  0.00     0.298 HD
ENDROOT
TORSDOF 0
ENDMDL
