MODEL 1
REMARK minimizedAffinity -4.46297836
REMARK minimizedRMSD -1
REMARK  0 active torsions:
REMARK  status: ('A' for Active; 'I' for Inactive)
ROOT
ATOM      1  N1  IND d   1       1.257  -1.526  -1.123  0.00  0.00    -0.196 N 
ATOM      2  C2  IND d   1       0.307  -0.780  -1.763  0.00  0.00     0.054 A 
ATOM      3  C3  IND d   1      -0.395  -0.047  -0.871  0.00  0.00    -0.031 A 
ATOM      4  C4  IND d   1      -0.089   0.162   1.677  0.00  0.00     0.051 A 
ATOM      5  C5  IND d   1       0.625  -0.354   2.722  0.00  0.00    -0.031 A 
ATOM      6  C6  IND d   1       1.609  -1.303   2.534  0.00  0.00     0.015 A 
ATOM      7  C7  IND d   1       1.924  -1.767   1.288  0.00  0.00    -0.016 A 
ATOM      8  C8  IND d   1       1.195  -1.251   0.226  0.00  0.00    -0.047 A 
ATOM      9  C9  IND d   1       0.167  -0.318   0.414  0.00  0.00    -0.096 A 
ATOM     10  HN1 IND d   1       1.802  -2.075  -1.499  0.00  0.00     0.298 HD
ENDROOT
TORSDOF 0
ENDMDL
