MODEL 1
REMARK minimizedAffinity -3.23162174
REMARK minimizedRMSD -1
REMARK  0 active torsions:
REMARK  status: ('A' for Active; 'I' for Inactive)
ROOT
ATOM      1  N1  IND d   1       2.359  -1.903  -0.860  0.00  0.00    -0.196 N 
ATOM      2  C2  IND d   1       2.880  -2.663   0.149  0.00  0.00     0.054 A 
ATOM      3  C3  IND d   1       2.133  -2.534   1.269  0.00  0.00    -0.031 A 
ATOM      4  C4  IND d   1      -0.042  -1.207   1.640  0.00  0.00     0.051 A 
ATOM      5  C5  IND d   1      -0.886  -0.327   1.022  0.00  0.00    -0.031 A 
ATOM      6  C6  IND d   1      -0.689   0.079  -0.282  0.00  0.00     0.015 A 
ATOM      7  C7  IND d   1       0.358  -0.392  -1.024  0.00  0.00    -0.016 A 
ATOM      8  C8  IND d   1       1.221  -1.280  -0.398  0.00  0.00    -0.047 A 
ATOM      9  C9  IND d   1       1.050  -1.662   0.939  0.00  0.00    -0.096 A 
ATOM     10  HN1 IND d   1       2.687  -1.827  -1.652  0.00  0.00     0.298 HD
ENDROOT
TORSDOF 0
ENDMDL
