MODEL 1
REMARK minimizedAffinity -2.09590173
REMARK minimizedRMSD -1
REMARK  0 active torsions:
REMARK  status: ('A' for Active; 'I' for Inactive)
ROOT
ATOM      1  N1  IND d   1       2.039  -1.746  -0.447  0.00  0.00    -0.196 N 
ATOM      2  C2  IND d   1       2.658  -2.559   0.461  0.00  0.00     0.054 A 
ATOM      3  C3  IND d   1       2.027  -2.498   1.655  0.00  0.00    -0.031 A 
ATOM      4  C4  IND d   1      -0.102  -1.210   2.316  0.00  0.00     0.051 A 
ATOM      5  C5  IND d   1      -1.004  -0.302   1.836  0.00  0.00    -0.031 A 
ATOM      6  C6  IND d   1      -0.938   0.179   0.544  0.00  0.00     0.015 A 
ATOM      7  C7  IND d   1       0.030  -0.241  -0.324  0.00  0.00    -0.016 A 
ATOM      8  C8  IND d   1       0.952  -1.158   0.162  0.00  0.00    -0.047 A 
ATOM      9  C9  IND d   1       0.916  -1.617   1.485  0.00  0.00    -0.096 A 
ATOM     10  HN1 IND d   1       2.286  -1.623  -1.261  0.00  0.00     0.298 HD
ENDROOT
TORSDOF 0
ENDMDL
