MODEL 1
REMARK minimizedAffinity -3.44204092
REMARK minimizedRMSD -1
REMARK  0 active torsions:
REMARK  status: ('A' for Active; 'I' for Inactive)
ROOT
ATOM      1  N1  IND d   1       0.250   0.297  -1.014  0.00  0.00    -0.196 N 
ATOM      2  C2  IND d   1      -0.372  -0.283   0.057  0.00  0.00     0.054 A 
ATOM      3  C3  IND d   1      -1.489   0.405   0.381  0.00  0.00    -0.031 A 
ATOM      4  C4  IND d   1      -2.542   2.452  -0.771  0.00  0.00     0.051 A 
ATOM      5  C5  IND d   1      -2.319   3.361  -1.767  0.00  0.00    -0.031 A 
ATOM      6  C6  IND d   1      -1.207   3.291  -2.582  0.00  0.00     0.015 A 
ATOM      7  C7  IND d   1      -0.279   2.300  -2.437  0.00  0.00    -0.016 A 
ATOM      8  C8  IND d   1      -0.498   1.380  -1.421  0.00  0.00    -0.047 A 
ATOM      9  C9  IND d   1      -1.603   1.470  -0.565  0.00  0.00    -0.096 A 
ATOM     10  HN1 IND d   1       0.985   0.031  -1.373  0.00  0.00     0.298 HD
ENDROOT
TORSDOF 0
ENDMDL
