MODEL 1
REMARK minimizedAffinity -4.8903513
REMARK minimizedRMSD -1
REMARK  1 active torsions:
REMARK  status: ('A' for Active; 'I' for Inactive)
REMARK    1  A    between atoms: C1_2  and  C2_3 
ROOT
ATOM      1  C2  UNL d   1      -0.178  -0.299  -0.837  0.00  0.00    -0.073 A 
ATOM      2  C3  UNL d   1      -1.508   0.007  -0.527  0.00  0.00    -0.002 A 
ATOM      3  C4  UNL d   1      -1.833   0.568   0.709  0.00  0.00     0.004 A 
ATOM      4  C5  UNL d   1      -0.833   0.833   1.644  0.00  0.00    -0.004 A 
ATOM      5  C6  UNL d   1       0.503   0.544   1.349  0.00  0.00    -0.075 A 
ATOM      6  C7  UNL d   1       1.591   0.821   2.346  0.00  0.00     0.076 C 
ATOM      7  C8  UNL d   1       0.822  -0.021   0.107  0.00  0.00     0.001 A 
ENDROOT
BRANCH   1   8
ATOM      8  C1  UNL d   1       0.179  -0.898  -2.172  0.00  0.00     0.053 C 
ATOM      9  C   UNL d   1       0.668   0.153  -3.156  0.00  0.00     0.018 C 
ENDBRANCH   1   8
TORSDOF 1
ENDMDL
