MODEL 1
REMARK minimizedAffinity -3.0310874
REMARK minimizedRMSD -1
REMARK  1 active torsions:
REMARK  status: ('A' for Active; 'I' for Inactive)
REMARK    1  A    between atoms: C1_2  and  C2_3 
ROOT
ATOM      1  C2  UNL d   1      -0.476  -0.281  -0.604  0.00  0.00    -0.073 A 
ATOM      2  C3  UNL d   1      -1.678  -0.069  -1.288  0.00  0.00    -0.002 A 
ATOM      3  C4  UNL d   1      -2.797   0.421  -0.613  0.00  0.00     0.004 A 
ATOM      4  C5  UNL d   1      -2.724   0.711   0.749  0.00  0.00    -0.004 A 
ATOM      5  C6  UNL d   1      -1.528   0.518   1.448  0.00  0.00    -0.075 A 
ATOM      6  C7  UNL d   1      -1.433   0.823   2.914  0.00  0.00     0.076 C 
ATOM      7  C8  UNL d   1      -0.409   0.023   0.764  0.00  0.00     0.001 A 
ENDROOT
BRANCH   1   8
ATOM      8  C1  UNL d   1       0.736  -0.804  -1.330  0.00  0.00     0.053 C 
ATOM      9  C   UNL d   1       0.730  -0.419  -2.801  0.00  0.00     0.018 C 
ENDBRANCH   1   8
TORSDOF 1
ENDMDL
