MODEL 1
REMARK minimizedAffinity -0.316701323
REMARK minimizedRMSD -1
REMARK  1 active torsions:
REMARK  status: ('A' for Active; 'I' for Inactive)
REMARK    1  A    between atoms: C1_2  and  C2_3 
ROOT
ATOM      1  C2  UNL d   1      -0.116   0.613  -0.723  0.00  0.00    -0.073 A 
ATOM      2  C3  UNL d   1      -1.036  -0.425  -0.535  0.00  0.00    -0.002 A 
ATOM      3  C4  UNL d   1      -1.698  -0.567   0.686  0.00  0.00     0.004 A 
ATOM      4  C5  UNL d   1      -1.453   0.329   1.726  0.00  0.00    -0.004 A 
ATOM      5  C6  UNL d   1      -0.547   1.380   1.553  0.00  0.00    -0.075 A 
ATOM      6  C7  UNL d   1      -0.271   2.351   2.663  0.00  0.00     0.076 C 
ATOM      7  C8  UNL d   1       0.116   1.515   0.326  0.00  0.00     0.001 A 
ENDROOT
BRANCH   1   8
ATOM      8  C1  UNL d   1       0.596   0.775  -2.041  0.00  0.00     0.053 C 
ATOM      9  C   UNL d   1      -0.370   1.056  -3.180  0.00  0.00     0.018 C 
ENDBRANCH   1   8
TORSDOF 1
ENDMDL
