MODEL 1
REMARK minimizedAffinity -5.49514055
REMARK minimizedRMSD -1
REMARK  1 active torsions:
REMARK  status: ('A' for Active; 'I' for Inactive)
REMARK    1  A    between atoms: C1_2  and  C2_3 
ROOT
ATOM      1  C2  UNL d   1       0.332  -0.144  -0.469  0.00  0.00    -0.073 A 
ATOM      2  C3  UNL d   1       1.607  -0.529  -0.041  0.00  0.00    -0.002 A 
ATOM      3  C4  UNL d   1       2.008  -0.299   1.275  0.00  0.00     0.004 A 
ATOM      4  C5  UNL d   1       1.137   0.311   2.178  0.00  0.00    -0.004 A 
ATOM      5  C6  UNL d   1      -0.146   0.692   1.772  0.00  0.00    -0.075 A 
ATOM      6  C7  UNL d   1      -1.094   1.351   2.730  0.00  0.00     0.076 C 
ATOM      7  C8  UNL d   1      -0.540   0.460   0.448  0.00  0.00     0.001 A 
ENDROOT
BRANCH   1   8
ATOM      8  C1  UNL d   1      -0.108  -0.397  -1.888  0.00  0.00     0.053 C 
ATOM      9  C   UNL d   1       0.678   0.439  -2.886  0.00  0.00     0.018 C 
ENDBRANCH   1   8
TORSDOF 1
ENDMDL
