MODEL 1
REMARK minimizedAffinity -2.64487267
REMARK minimizedRMSD -1
REMARK  1 active torsions:
REMARK  status: ('A' for Active; 'I' for Inactive)
REMARK    1  A    between atoms: C1_2  and  C2_3 
ROOT
ATOM      1  C2  UNL d   1       0.066  -0.039  -0.131  0.00  0.00    -0.073 A 
ATOM      2  C3  UNL d   1      -1.219  -0.459  -0.494  0.00  0.00    -0.002 A 
ATOM      3  C4  UNL d   1      -2.312  -0.171   0.324  0.00  0.00     0.004 A 
ATOM      4  C5  UNL d   1      -2.134   0.545   1.508  0.00  0.00    -0.004 A 
ATOM      5  C6  UNL d   1      -0.860   0.983   1.882  0.00  0.00    -0.075 A 
ATOM      6  C7  UNL d   1      -0.651   1.752   3.153  0.00  0.00     0.076 C 
ATOM      7  C8  UNL d   1       0.234   0.688   1.057  0.00  0.00     0.001 A 
ENDROOT
BRANCH   1   8
ATOM      8  C1  UNL d   1       1.249  -0.342  -1.014  0.00  0.00     0.053 C 
ATOM      9  C   UNL d   1       1.218   0.464  -2.303  0.00  0.00     0.018 C 
ENDBRANCH   1   8
TORSDOF 1
ENDMDL
