MODEL 1
REMARK minimizedAffinity -3.94365025
REMARK minimizedRMSD -1
REMARK  1 active torsions:
REMARK  status: ('A' for Active; 'I' for Inactive)
REMARK    1  A    between atoms: C1_2  and  C2_3 
ROOT
ATOM      1  C2  UNL d   1       0.036  -0.104  -0.958  0.00  0.00    -0.073 A 
ATOM      2  C3  UNL d   1      -1.118   0.511  -0.458  0.00  0.00    -0.002 A 
ATOM      3  C4  UNL d   1      -1.255   0.746   0.911  0.00  0.00     0.004 A 
ATOM      4  C5  UNL d   1      -0.238   0.377   1.792  0.00  0.00    -0.004 A 
ATOM      5  C6  UNL d   1       0.927  -0.227   1.310  0.00  0.00    -0.075 A 
ATOM      6  C7  UNL d   1       2.029  -0.632   2.245  0.00  0.00     0.076 C 
ATOM      7  C8  UNL d   1       1.056  -0.463  -0.065  0.00  0.00     0.001 A 
ENDROOT
BRANCH   1   8
ATOM      8  C1  UNL d   1       0.190  -0.354  -2.435  0.00  0.00     0.053 C 
ATOM      9  C   UNL d   1       1.263   0.528  -3.054  0.00  0.00     0.018 C 
ENDBRANCH   1   8
TORSDOF 1
ENDMDL
