MODEL 1
REMARK minimizedAffinity 7.64807606
REMARK minimizedRMSD -1
REMARK  1 active torsions:
REMARK  status: ('A' for Active; 'I' for Inactive)
REMARK    1  A    between atoms: C1_2  and  C2_3 
ROOT
ATOM      1  C2  UNL d   1      -2.478   0.332   1.127  0.00  0.00    -0.081 A 
ATOM      2  C3  UNL d   1      -2.357   1.530   0.413  0.00  0.00     0.006 A 
ATOM      3  C4  UNL d   1      -3.495   2.250   0.038  0.00  0.00     0.002 A 
ATOM      4  C5  UNL d   1      -4.771   1.787   0.378  0.00  0.00    -0.080 A 
ATOM      5  C6  UNL d   1      -5.999   2.566   0.009  0.00  0.00     0.076 C 
ATOM      6  C7  UNL d   1      -4.893   0.581   1.077  0.00  0.00     0.002 A 
ATOM      7  C8  UNL d   1      -3.756  -0.139   1.450  0.00  0.00     0.006 A 
ENDROOT
BRANCH   1   8
ATOM      8  C1  UNL d   1      -1.252  -0.413   1.588  0.00  0.00     0.054 C 
ATOM      9  C   UNL d   1      -1.500  -1.123   2.911  0.00  0.00     0.018 C 
ENDBRANCH   1   8
TORSDOF 1
ENDMDL
