MODEL 1
REMARK minimizedAffinity 3.93346262
REMARK minimizedRMSD -1
REMARK  1 active torsions:
REMARK  status: ('A' for Active; 'I' for Inactive)
REMARK    1  A    between atoms: C1_2  and  C2_3 
ROOT
ATOM      1  C2  UNL d   1      -2.239   1.189   2.642  0.00  0.00    -0.081 A 
ATOM      2  C3  UNL d   1      -2.782   2.439   2.318  0.00  0.00     0.006 A 
ATOM      3  C4  UNL d   1      -3.992   2.527   1.625  0.00  0.00     0.002 A 
ATOM      4  C5  UNL d   1      -4.682   1.369   1.251  0.00  0.00    -0.080 A 
ATOM      5  C6  UNL d   1      -5.996   1.451   0.534  0.00  0.00     0.076 C 
ATOM      6  C7  UNL d   1      -4.131   0.121   1.559  0.00  0.00     0.002 A 
ATOM      7  C8  UNL d   1      -2.921   0.032   2.251  0.00  0.00     0.006 A 
ENDROOT
BRANCH   1   8
ATOM      8  C1  UNL d   1      -0.967   1.091   3.445  0.00  0.00     0.054 C 
ATOM      9  C   UNL d   1      -0.868   2.217   4.464  0.00  0.00     0.018 C 
ENDBRANCH   1   8
TORSDOF 1
ENDMDL
