MODEL 1
REMARK minimizedAffinity 5.66831541
REMARK minimizedRMSD -1
REMARK  1 active torsions:
REMARK  status: ('A' for Active; 'I' for Inactive)
REMARK    1  A    between atoms: C1_2  and  C2_3 
ROOT
ATOM      1  C2  UNL d   1      -2.370  -4.883  -0.154  0.00  0.00    -0.081 A 
ATOM      2  C3  UNL d   1      -1.728  -4.962  -1.396  0.00  0.00     0.006 A 
ATOM      3  C4  UNL d   1      -1.988  -4.013  -2.389  0.00  0.00     0.002 A 
ATOM      4  C5  UNL d   1      -2.887  -2.968  -2.153  0.00  0.00    -0.080 A 
ATOM      5  C6  UNL d   1      -3.152  -1.926  -3.200  0.00  0.00     0.076 C 
ATOM      6  C7  UNL d   1      -3.542  -2.900  -0.919  0.00  0.00     0.002 A 
ATOM      7  C8  UNL d   1      -3.283  -3.848   0.073  0.00  0.00     0.006 A 
ENDROOT
BRANCH   1   8
ATOM      8  C1  UNL d   1      -2.043  -5.867   0.940  0.00  0.00     0.054 C 
ATOM      9  C   UNL d   1      -1.300  -5.193   2.085  0.00  0.00     0.018 C 
ENDBRANCH   1   8
TORSDOF 1
ENDMDL
