MODEL 1
REMARK minimizedAffinity 2.31447673
REMARK minimizedRMSD -1
REMARK  1 active torsions:
REMARK  status: ('A' for Active; 'I' for Inactive)
REMARK    1  A    between atoms: C1_2  and  C2_3 
ROOT
ATOM      1  C2  UNL d   1      -4.698   1.448   1.115  0.00  0.00    -0.081 A 
ATOM      2  C3  UNL d   1      -4.687   0.111   1.531  0.00  0.00     0.006 A 
ATOM      3  C4  UNL d   1      -3.479  -0.579   1.663  0.00  0.00     0.002 A 
ATOM      4  C5  UNL d   1      -2.264   0.057   1.388  0.00  0.00    -0.080 A 
ATOM      5  C6  UNL d   1      -0.959  -0.663   1.555  0.00  0.00     0.076 C 
ATOM      6  C7  UNL d   1      -2.277   1.387   0.955  0.00  0.00     0.002 A 
ATOM      7  C8  UNL d   1      -3.483   2.078   0.822  0.00  0.00     0.006 A 
ENDROOT
BRANCH   1   8
ATOM      8  C1  UNL d   1      -5.993   2.215   1.034  0.00  0.00     0.054 C 
ATOM      9  C   UNL d   1      -6.000   3.393   1.997  0.00  0.00     0.018 C 
ENDBRANCH   1   8
TORSDOF 1
ENDMDL
