MODEL 1
REMARK minimizedAffinity 0.566889703
REMARK minimizedRMSD -1
REMARK  1 active torsions:
REMARK  status: ('A' for Active; 'I' for Inactive)
REMARK    1  A    between atoms: C1_2  and  C2_3 
ROOT
ATOM      1  C2  UNL d   1       5.436   3.769   2.582  0.00  0.00    -0.081 A 
ATOM      2  C3  UNL d   1       5.339   5.165   2.524  0.00  0.00     0.006 A 
ATOM      3  C4  UNL d   1       4.873   5.889   3.623  0.00  0.00     0.002 A 
ATOM      4  C5  UNL d   1       4.504   5.231   4.801  0.00  0.00    -0.080 A 
ATOM      5  C6  UNL d   1       4.030   5.999   5.999  0.00  0.00     0.076 C 
ATOM      6  C7  UNL d   1       4.584   3.836   4.854  0.00  0.00     0.002 A 
ATOM      7  C8  UNL d   1       5.049   3.111   3.754  0.00  0.00     0.006 A 
ENDROOT
BRANCH   1   8
ATOM      8  C1  UNL d   1       6.000   2.991   1.421  0.00  0.00     0.054 C 
ATOM      9  C   UNL d   1       4.907   2.233   0.680  0.00  0.00     0.018 C 
ENDBRANCH   1   8
TORSDOF 1
ENDMDL
