MODEL 1
REMARK minimizedAffinity 10.5178156
REMARK minimizedRMSD -1
REMARK  1 active torsions:
REMARK  status: ('A' for Active; 'I' for Inactive)
REMARK    1  A    between atoms: C1_2  and  C2_3 
ROOT
ATOM      1  C2  UNL d   1      -3.794   0.108   1.204  0.00  0.00    -0.081 A 
ATOM      2  C3  UNL d   1      -2.489   0.108   0.699  0.00  0.00     0.006 A 
ATOM      3  C4  UNL d   1      -2.089   1.068  -0.233  0.00  0.00     0.002 A 
ATOM      4  C5  UNL d   1      -2.986   2.049  -0.670  0.00  0.00    -0.080 A 
ATOM      5  C6  UNL d   1      -2.562   3.104  -1.648  0.00  0.00     0.076 C 
ATOM      6  C7  UNL d   1      -4.296   2.039  -0.179  0.00  0.00     0.002 A 
ATOM      7  C8  UNL d   1      -4.696   1.079   0.753  0.00  0.00     0.006 A 
ENDROOT
BRANCH   1   8
ATOM      8  C1  UNL d   1      -4.209  -0.886   2.259  0.00  0.00     0.054 C 
ATOM      9  C   UNL d   1      -3.420  -0.689   3.545  0.00  0.00     0.018 C 
ENDBRANCH   1   8
TORSDOF 1
ENDMDL
