MODEL 1
REMARK minimizedAffinity 8.36273479
REMARK minimizedRMSD -1
REMARK  1 active torsions:
REMARK  status: ('A' for Active; 'I' for Inactive)
REMARK    1  A    between atoms: C1_2  and  C2_3 
ROOT
ATOM      1  C2  UNL d   1      -3.333   1.992  -0.590  0.00  0.00    -0.081 A 
ATOM      2  C3  UNL d   1      -2.686   1.101   0.275  0.00  0.00     0.006 A 
ATOM      3  C4  UNL d   1      -3.419   0.358   1.204  0.00  0.00     0.002 A 
ATOM      4  C5  UNL d   1      -4.810   0.488   1.278  0.00  0.00    -0.080 A 
ATOM      5  C6  UNL d   1      -5.612  -0.325   2.250  0.00  0.00     0.076 C 
ATOM      6  C7  UNL d   1      -5.454   1.391   0.425  0.00  0.00     0.002 A 
ATOM      7  C8  UNL d   1      -4.722   2.134  -0.504  0.00  0.00     0.006 A 
ENDROOT
BRANCH   1   8
ATOM      8  C1  UNL d   1      -2.553   2.745  -1.637  0.00  0.00     0.054 C 
ATOM      9  C   UNL d   1      -3.132   2.523  -3.026  0.00  0.00     0.018 C 
ENDBRANCH   1   8
TORSDOF 1
ENDMDL
