MODEL 1
REMARK minimizedAffinity 4.19950962
REMARK minimizedRMSD -1
REMARK  1 active torsions:
REMARK  status: ('A' for Active; 'I' for Inactive)
REMARK    1  A    between atoms: C1_2  and  C2_3 
ROOT
ATOM      1  C2  UNL d   1       2.004   1.060   0.679  0.00  0.00    -0.081 A 
ATOM      2  C3  UNL d   1       2.394   1.770   1.820  0.00  0.00     0.006 A 
ATOM      3  C4  UNL d   1       1.440   2.404   2.620  0.00  0.00     0.002 A 
ATOM      4  C5  UNL d   1       0.081   2.331   2.297  0.00  0.00    -0.080 A 
ATOM      5  C6  UNL d   1      -0.956   2.981   3.165  0.00  0.00     0.076 C 
ATOM      6  C7  UNL d   1      -0.307   1.635   1.147  0.00  0.00     0.002 A 
ATOM      7  C8  UNL d   1       0.646   1.002   0.346  0.00  0.00     0.006 A 
ENDROOT
BRANCH   1   8
ATOM      8  C1  UNL d   1       3.024   0.321  -0.150  0.00  0.00     0.054 C 
ATOM      9  C   UNL d   1       2.844   0.609  -1.634  0.00  0.00     0.018 C 
ENDBRANCH   1   8
TORSDOF 1
ENDMDL
