MODEL 1
REMARK minimizedAffinity 9.5153513
REMARK minimizedRMSD -1
REMARK  1 active torsions:
REMARK  status: ('A' for Active; 'I' for Inactive)
REMARK    1  A    between atoms: C1_2  and  C2_3 
ROOT
ATOM      1  C2  UNL d   1       1.755   1.068   0.140  0.00  0.00    -0.081 A 
ATOM      2  C3  UNL d   1       2.684   0.750  -0.859  0.00  0.00     0.006 A 
ATOM      3  C4  UNL d   1       2.357   0.912  -2.208  0.00  0.00     0.002 A 
ATOM      4  C5  UNL d   1       1.101   1.403  -2.579  0.00  0.00    -0.080 A 
ATOM      5  C6  UNL d   1       0.748   1.611  -4.022  0.00  0.00     0.076 C 
ATOM      6  C7  UNL d   1       0.167   1.704  -1.583  0.00  0.00     0.002 A 
ATOM      7  C8  UNL d   1       0.492   1.542  -0.234  0.00  0.00     0.006 A 
ENDROOT
BRANCH   1   8
ATOM      8  C1  UNL d   1       2.127   0.955   1.596  0.00  0.00     0.054 C 
ATOM      9  C   UNL d   1       3.251   1.916   1.956  0.00  0.00     0.018 C 
ENDBRANCH   1   8
TORSDOF 1
ENDMDL
