MODEL 1
REMARK minimizedAffinity 4.48794842
REMARK minimizedRMSD -1
REMARK  1 active torsions:
REMARK  status: ('A' for Active; 'I' for Inactive)
REMARK    1  A    between atoms: C1_2  and  C2_3 
ROOT
ATOM      1  C2  UNL d   1      -0.954   2.358  -5.341  0.00  0.00    -0.081 A 
ATOM      2  C3  UNL d   1      -0.868   3.639  -5.899  0.00  0.00     0.006 A 
ATOM      3  C4  UNL d   1      -2.004   4.446  -6.000  0.00  0.00     0.002 A 
ATOM      4  C5  UNL d   1      -3.242   3.988  -5.538  0.00  0.00    -0.080 A 
ATOM      5  C6  UNL d   1      -4.464   4.856  -5.612  0.00  0.00     0.076 C 
ATOM      6  C7  UNL d   1      -3.332   2.701  -4.997  0.00  0.00     0.002 A 
ATOM      7  C8  UNL d   1      -2.197   1.894  -4.896  0.00  0.00     0.006 A 
ENDROOT
BRANCH   1   8
ATOM      8  C1  UNL d   1       0.281   1.511  -5.172  0.00  0.00     0.054 C 
ATOM      9  C   UNL d   1       0.771   1.528  -3.731  0.00  0.00     0.018 C 
ENDBRANCH   1   8
TORSDOF 1
ENDMDL
