MODEL 1
REMARK minimizedAffinity 5.65703249
REMARK minimizedRMSD -1
REMARK  1 active torsions:
REMARK  status: ('A' for Active; 'I' for Inactive)
REMARK    1  A    between atoms: C1_2  and  C2_3 
ROOT
ATOM      1  C2  UNL d   1       1.987   1.846   1.459  0.00  0.00    -0.081 A 
ATOM      2  C3  UNL d   1       2.072   2.599   2.637  0.00  0.00     0.006 A 
ATOM      3  C4  UNL d   1       0.922   3.142   3.215  0.00  0.00     0.002 A 
ATOM      4  C5  UNL d   1      -0.332   2.934   2.631  0.00  0.00    -0.080 A 
ATOM      5  C6  UNL d   1      -1.577   3.486   3.259  0.00  0.00     0.076 C 
ATOM      6  C7  UNL d   1      -0.415   2.196   1.445  0.00  0.00     0.002 A 
ATOM      7  C8  UNL d   1       0.734   1.654   0.866  0.00  0.00     0.006 A 
ENDROOT
BRANCH   1   8
ATOM      8  C1  UNL d   1       3.216   1.205   0.868  0.00  0.00     0.054 C 
ATOM      9  C   UNL d   1       2.860  -0.035   0.061  0.00  0.00     0.018 C 
ENDBRANCH   1   8
TORSDOF 1
ENDMDL
