MODEL 1
REMARK minimizedAffinity 8.7849102
REMARK minimizedRMSD -1
REMARK  1 active torsions:
REMARK  status: ('A' for Active; 'I' for Inactive)
REMARK    1  A    between atoms: C1_2  and  C2_3 
ROOT
ATOM      1  C2  UNL d   1       1.874   0.617  -0.164  0.00  0.00    -0.081 A 
ATOM      2  C3  UNL d   1       0.490   0.519   0.020  0.00  0.00     0.006 A 
ATOM      3  C4  UNL d   1      -0.143   1.242   1.034  0.00  0.00     0.002 A 
ATOM      4  C5  UNL d   1       0.597   2.080   1.875  0.00  0.00    -0.080 A 
ATOM      5  C6  UNL d   1      -0.074   2.885   2.948  0.00  0.00     0.076 C 
ATOM      6  C7  UNL d   1       1.982   2.165   1.703  0.00  0.00     0.002 A 
ATOM      7  C8  UNL d   1       2.615   1.442   0.689  0.00  0.00     0.006 A 
ENDROOT
BRANCH   1   8
ATOM      8  C1  UNL d   1       2.550  -0.111  -1.298  0.00  0.00     0.054 C 
ATOM      9  C   UNL d   1       2.023   0.355  -2.647  0.00  0.00     0.018 C 
ENDBRANCH   1   8
TORSDOF 1
ENDMDL
