MODEL 1
REMARK minimizedAffinity 4.14577818
REMARK minimizedRMSD -1
REMARK  1 active torsions:
REMARK  status: ('A' for Active; 'I' for Inactive)
REMARK    1  A    between atoms: C1_2  and  C2_3 
ROOT
ATOM      1  C2  UNL d   1      -2.123  -0.112   2.362  0.00  0.00    -0.081 A 
ATOM      2  C3  UNL d   1      -2.791   1.086   2.645  0.00  0.00     0.006 A 
ATOM      3  C4  UNL d   1      -3.985   1.402   1.992  0.00  0.00     0.002 A 
ATOM      4  C5  UNL d   1      -4.534   0.523   1.053  0.00  0.00    -0.080 A 
ATOM      5  C6  UNL d   1      -5.831   0.836   0.368  0.00  0.00     0.076 C 
ATOM      6  C7  UNL d   1      -3.858  -0.666   0.758  0.00  0.00     0.002 A 
ATOM      7  C8  UNL d   1      -2.664  -0.982   1.410  0.00  0.00     0.006 A 
ENDROOT
BRANCH   1   8
ATOM      8  C1  UNL d   1      -0.869  -0.486   3.112  0.00  0.00     0.054 C 
ATOM      9  C   UNL d   1       0.371  -0.269   2.257  0.00  0.00     0.018 C 
ENDBRANCH   1   8
TORSDOF 1
ENDMDL
