MODEL 1
REMARK minimizedAffinity 0.735481501
REMARK minimizedRMSD -1
REMARK  1 active torsions:
REMARK  status: ('A' for Active; 'I' for Inactive)
REMARK    1  A    between atoms: C1_2  and  C2_3 
ROOT
ATOM      1  C2  UNL d   1      -2.257  -0.271   1.664  0.00  0.00    -0.081 A 
ATOM      2  C3  UNL d   1      -2.701  -0.943   0.519  0.00  0.00     0.006 A 
ATOM      3  C4  UNL d   1      -3.917  -0.599  -0.076  0.00  0.00     0.002 A 
ATOM      4  C5  UNL d   1      -4.705   0.426   0.459  0.00  0.00    -0.080 A 
ATOM      5  C6  UNL d   1      -5.998   0.825  -0.187  0.00  0.00     0.076 C 
ATOM      6  C7  UNL d   1      -4.269   1.085   1.614  0.00  0.00     0.002 A 
ATOM      7  C8  UNL d   1      -3.054   0.741   2.210  0.00  0.00     0.006 A 
ENDROOT
BRANCH   1   8
ATOM      8  C1  UNL d   1      -0.915  -0.596   2.271  0.00  0.00     0.054 C 
ATOM      9  C   UNL d   1      -0.951  -0.481   3.788  0.00  0.00     0.018 C 
ENDBRANCH   1   8
TORSDOF 1
ENDMDL
