MODEL 1
REMARK minimizedAffinity 2.71577334
REMARK minimizedRMSD -1
REMARK  1 active torsions:
REMARK  status: ('A' for Active; 'I' for Inactive)
REMARK    1  A    between atoms: C1_2  and  C2_3 
ROOT
ATOM      1  C2  UNL d   1      -4.003   0.396   0.822  0.00  0.00    -0.081 A 
ATOM      2  C3  UNL d   1      -3.733   1.266   1.885  0.00  0.00     0.006 A 
ATOM      3  C4  UNL d   1      -2.532   1.169   2.592  0.00  0.00     0.002 A 
ATOM      4  C5  UNL d   1      -1.579   0.207   2.243  0.00  0.00    -0.080 A 
ATOM      5  C6  UNL d   1      -0.272   0.112   2.974  0.00  0.00     0.076 C 
ATOM      6  C7  UNL d   1      -1.855  -0.673   1.191  0.00  0.00     0.002 A 
ATOM      7  C8  UNL d   1      -3.056  -0.577   0.485  0.00  0.00     0.006 A 
ENDROOT
BRANCH   1   8
ATOM      8  C1  UNL d   1      -5.269   0.540   0.016  0.00  0.00     0.054 C 
ATOM      9  C   UNL d   1      -5.993   1.836   0.351  0.00  0.00     0.018 C 
ENDBRANCH   1   8
TORSDOF 1
ENDMDL
