MODEL 1
REMARK minimizedAffinity 1.00820112
REMARK minimizedRMSD -1
REMARK  1 active torsions:
REMARK  status: ('A' for Active; 'I' for Inactive)
REMARK    1  A    between atoms: C1_2  and  C2_3 
ROOT
ATOM      1  C2  UNL d   1      -0.623  -0.389  -4.252  0.00  0.00    -0.081 A 
ATOM      2  C3  UNL d   1      -0.939  -0.215  -2.899  0.00  0.00     0.006 A 
ATOM      3  C4  UNL d   1      -0.664  -1.223  -1.972  0.00  0.00     0.002 A 
ATOM      4  C5  UNL d   1      -0.064  -2.418  -2.380  0.00  0.00    -0.080 A 
ATOM      5  C6  UNL d   1       0.264  -3.497  -1.390  0.00  0.00     0.076 C 
ATOM      6  C7  UNL d   1       0.235  -2.600  -3.735  0.00  0.00     0.002 A 
ATOM      7  C8  UNL d   1      -0.039  -1.593  -4.662  0.00  0.00     0.006 A 
ENDROOT
BRANCH   1   8
ATOM      8  C1  UNL d   1      -0.859   0.721  -5.243  0.00  0.00     0.054 C 
ATOM      9  C   UNL d   1       0.419   1.074  -5.992  0.00  0.00     0.018 C 
ENDBRANCH   1   8
TORSDOF 1
ENDMDL
