MODEL 1
REMARK minimizedAffinity -0.72223407
REMARK minimizedRMSD -1
REMARK  1 active torsions:
REMARK  status: ('A' for Active; 'I' for Inactive)
REMARK    1  A    between atoms: C1_2  and  C2_3 
ROOT
ATOM      1  C2  UNL d   1      -2.213   0.104   1.595  0.00  0.00    -0.081 A 
ATOM      2  C3  UNL d   1      -2.531  -0.547   0.397  0.00  0.00     0.006 A 
ATOM      3  C4  UNL d   1      -3.759  -0.321  -0.228  0.00  0.00     0.002 A 
ATOM      4  C5  UNL d   1      -4.687   0.566   0.329  0.00  0.00    -0.080 A 
ATOM      5  C6  UNL d   1      -5.997   0.841  -0.348  0.00  0.00     0.076 C 
ATOM      6  C7  UNL d   1      -4.377   1.204   1.535  0.00  0.00     0.002 A 
ATOM      7  C8  UNL d   1      -3.149   0.977   2.161  0.00  0.00     0.006 A 
ENDROOT
BRANCH   1   8
ATOM      8  C1  UNL d   1      -0.863  -0.088   2.237  0.00  0.00     0.054 C 
ATOM      9  C   UNL d   1      -0.489  -1.562   2.308  0.00  0.00     0.018 C 
ENDBRANCH   1   8
TORSDOF 1
ENDMDL
