MODEL 1
REMARK minimizedAffinity -0.241984487
REMARK minimizedRMSD -1
REMARK  1 active torsions:
REMARK  status: ('A' for Active; 'I' for Inactive)
REMARK    1  A    between atoms: C1_2  and  C2_3 
ROOT
ATOM      1  C2  UNL d   1      -0.328  -0.518  -4.876  0.00  0.00    -0.081 A 
ATOM      2  C3  UNL d   1      -0.056  -1.869  -5.121  0.00  0.00     0.006 A 
ATOM      3  C4  UNL d   1       0.272  -2.728  -4.069  0.00  0.00     0.002 A 
ATOM      4  C5  UNL d   1       0.326  -2.252  -2.755  0.00  0.00    -0.080 A 
ATOM      5  C6  UNL d   1       0.647  -3.169  -1.613  0.00  0.00     0.076 C 
ATOM      6  C7  UNL d   1       0.070  -0.898  -2.512  0.00  0.00     0.002 A 
ATOM      7  C8  UNL d   1      -0.257  -0.039  -3.563  0.00  0.00     0.006 A 
ENDROOT
BRANCH   1   8
ATOM      8  C1  UNL d   1      -0.746   0.396  -6.000  0.00  0.00     0.054 C 
ATOM      9  C   UNL d   1      -2.169   0.900  -5.804  0.00  0.00     0.018 C 
ENDBRANCH   1   8
TORSDOF 1
ENDMDL
