MODEL 1
REMARK minimizedAffinity -1.0898819
REMARK minimizedRMSD -1
REMARK  1 active torsions:
REMARK  status: ('A' for Active; 'I' for Inactive)
REMARK    1  A    between atoms: C1_2  and  C2_3 
ROOT
ATOM      1  C2  UNL d   1      -0.790   0.038  -4.655  0.00  0.00    -0.081 A 
ATOM      2  C3  UNL d   1      -0.251  -0.894  -5.550  0.00  0.00     0.006 A 
ATOM      3  C4  UNL d   1       1.066  -0.767  -5.997  0.00  0.00     0.002 A 
ATOM      4  C5  UNL d   1       1.869   0.288  -5.549  0.00  0.00    -0.080 A 
ATOM      5  C6  UNL d   1       3.294   0.419  -5.997  0.00  0.00     0.076 C 
ATOM      6  C7  UNL d   1       1.325   1.229  -4.668  0.00  0.00     0.002 A 
ATOM      7  C8  UNL d   1       0.007   1.103  -4.222  0.00  0.00     0.006 A 
ENDROOT
BRANCH   1   8
ATOM      8  C1  UNL d   1      -2.190  -0.132  -4.121  0.00  0.00     0.054 C 
ATOM      9  C   UNL d   1      -3.221  -0.049  -5.237  0.00  0.00     0.018 C 
ENDBRANCH   1   8
TORSDOF 1
ENDMDL
