MODEL 1
REMARK minimizedAffinity 3.11180162
REMARK minimizedRMSD -1
REMARK  0 active torsions:
REMARK  status: ('A' for Active; 'I' for Inactive)
ROOT
ATOM      1  C   UNL d   1      -2.428   0.471  -1.811  0.00  0.00     0.124 A 
ATOM      2  C1  UNL d   1      -1.474  -0.528  -1.944  0.00  0.00     0.062 A 
ATOM      3  C2  UNL d   1      -0.252  -0.421  -1.285  0.00  0.00     0.162 A 
ATOM      4  C3  UNL d   1       0.021   0.688  -0.485  0.00  0.00    -0.034 A 
ATOM      5  C4  UNL d   1      -0.943   1.690  -0.357  0.00  0.00     0.162 A 
ATOM      6  C5  UNL d   1      -2.162   1.579  -1.018  0.00  0.00     0.062 A 
ATOM      7  F   UNL d   1      -3.083   2.545  -0.888  0.00  0.00    -0.097 F 
ATOM      8  F1  UNL d   1      -0.713   2.770   0.404  0.00  0.00    -0.096 F 
ATOM      9  I   UNL d   1       1.846   0.851   0.503  0.00  0.00    -0.060 I 
ATOM     10  F2  UNL d   1       0.651  -1.402  -1.431  0.00  0.00    -0.096 F 
ATOM     11  F3  UNL d   1      -1.728  -1.598  -2.710  0.00  0.00    -0.097 F 
ATOM     12  F4  UNL d   1      -3.602   0.367  -2.447  0.00  0.00    -0.092 F 
ENDROOT
TORSDOF 0
ENDMDL
