MODEL 1
REMARK minimizedAffinity 15.3710003
REMARK minimizedRMSD -1
REMARK  0 active torsions:
REMARK  status: ('A' for Active; 'I' for Inactive)
ROOT
ATOM      1  C   UNL d   1       1.268  -1.383   2.883  0.00  0.00     0.124 A 
ATOM      2  C1  UNL d   1       2.336  -0.547   3.181  0.00  0.00     0.062 A 
ATOM      3  C2  UNL d   1       2.528   0.627   2.459  0.00  0.00     0.162 A 
ATOM      4  C3  UNL d   1       1.650   0.974   1.432  0.00  0.00    -0.034 A 
ATOM      5  C4  UNL d   1       0.579   0.128   1.138  0.00  0.00     0.162 A 
ATOM      6  C5  UNL d   1       0.391  -1.044   1.862  0.00  0.00     0.062 A 
ATOM      7  F   UNL d   1      -0.641  -1.850   1.573  0.00  0.00    -0.097 F 
ATOM      8  F1  UNL d   1      -0.284   0.431   0.157  0.00  0.00    -0.096 F 
ATOM      9  I   UNL d   1       1.934   2.729   0.350  0.00  0.00    -0.060 I 
ATOM     10  F2  UNL d   1       3.569   1.415   2.768  0.00  0.00    -0.096 F 
ATOM     11  F3  UNL d   1       3.185  -0.872   4.166  0.00  0.00    -0.097 F 
ATOM     12  F4  UNL d   1       1.086  -2.512   3.579  0.00  0.00    -0.092 F 
ENDROOT
TORSDOF 0
ENDMDL
