MODEL 1
REMARK minimizedAffinity -3.08374572
REMARK minimizedRMSD -1
REMARK  0 active torsions:
REMARK  status: ('A' for Active; 'I' for Inactive)
ROOT
ATOM      1  C   UNL d   1       2.175  -1.599   1.526  0.00  0.00     0.124 A 
ATOM      2  C1  UNL d   1       0.941  -2.155   1.837  0.00  0.00     0.062 A 
ATOM      3  C2  UNL d   1      -0.216  -1.673   1.232  0.00  0.00     0.162 A 
ATOM      4  C3  UNL d   1      -0.145  -0.630   0.308  0.00  0.00    -0.034 A 
ATOM      5  C4  UNL d   1       1.099  -0.076   0.001  0.00  0.00     0.162 A 
ATOM      6  C5  UNL d   1       2.252  -0.561   0.609  0.00  0.00     0.062 A 
ATOM      7  F   UNL d   1       3.443  -0.022   0.307  0.00  0.00    -0.097 F 
ATOM      8  F1  UNL d   1       1.203   0.928  -0.883  0.00  0.00    -0.096 F 
ATOM      9  I   UNL d   1      -1.873   0.092  -0.600  0.00  0.00    -0.060 I 
ATOM     10  F2  UNL d   1      -1.394  -2.229   1.551  0.00  0.00    -0.096 F 
ATOM     11  F3  UNL d   1       0.864  -3.157   2.724  0.00  0.00    -0.097 F 
ATOM     12  F4  UNL d   1       3.287  -2.063   2.111  0.00  0.00    -0.092 F 
ENDROOT
TORSDOF 0
ENDMDL
