MODEL 1
REMARK minimizedAffinity 1.65943885
REMARK minimizedRMSD -1
REMARK  0 active torsions:
REMARK  status: ('A' for Active; 'I' for Inactive)
ROOT
ATOM      1  C   UNL d   1       1.693   0.283   1.303  0.00  0.00     0.124 A 
ATOM      2  C1  UNL d   1       1.699   1.251   0.308  0.00  0.00     0.062 A 
ATOM      3  C2  UNL d   1       0.635   1.342  -0.585  0.00  0.00     0.162 A 
ATOM      4  C3  UNL d   1      -0.444   0.465  -0.486  0.00  0.00    -0.034 A 
ATOM      5  C4  UNL d   1      -0.443  -0.506   0.517  0.00  0.00     0.162 A 
ATOM      6  C5  UNL d   1       0.623  -0.594   1.407  0.00  0.00     0.062 A 
ATOM      7  F   UNL d   1       0.615  -1.529   2.368  0.00  0.00    -0.097 F 
ATOM      8  F1  UNL d   1      -1.465  -1.366   0.640  0.00  0.00    -0.096 F 
ATOM      9  I   UNL d   1      -2.036   0.599  -1.820  0.00  0.00    -0.060 I 
ATOM     10  F2  UNL d   1       0.668   2.287  -1.537  0.00  0.00    -0.096 F 
ATOM     11  F3  UNL d   1       2.732   2.099   0.206  0.00  0.00    -0.097 F 
ATOM     12  F4  UNL d   1       2.718   0.197   2.161  0.00  0.00    -0.092 F 
ENDROOT
TORSDOF 0
ENDMDL
