MODEL 1
REMARK minimizedAffinity -2.48612452
REMARK minimizedRMSD -1
REMARK  0 active torsions:
REMARK  status: ('A' for Active; 'I' for Inactive)
ROOT
ATOM      1  C   UNL d   1       2.983  -0.739   1.673  0.00  0.00     0.124 A 
ATOM      2  C1  UNL d   1       2.568   0.507   1.224  0.00  0.00     0.062 A 
ATOM      3  C2  UNL d   1       1.475   0.614   0.368  0.00  0.00     0.162 A 
ATOM      4  C3  UNL d   1       0.789  -0.528  -0.043  0.00  0.00    -0.034 A 
ATOM      5  C4  UNL d   1       1.213  -1.778   0.412  0.00  0.00     0.162 A 
ATOM      6  C5  UNL d   1       2.306  -1.880   1.267  0.00  0.00     0.062 A 
ATOM      7  F   UNL d   1       2.706  -3.084   1.699  0.00  0.00    -0.097 F 
ATOM      8  F1  UNL d   1       0.577  -2.897   0.035  0.00  0.00    -0.096 F 
ATOM      9  I   UNL d   1      -0.845  -0.372  -1.323  0.00  0.00    -0.060 I 
ATOM     10  F2  UNL d   1       1.096   1.831  -0.050  0.00  0.00    -0.096 F 
ATOM     11  F3  UNL d   1       3.221   1.611   1.615  0.00  0.00    -0.097 F 
ATOM     12  F4  UNL d   1       4.036  -0.839   2.496  0.00  0.00    -0.092 F 
ENDROOT
TORSDOF 0
ENDMDL
