MODEL 1
REMARK minimizedAffinity -2.17953157
REMARK minimizedRMSD -1
REMARK  0 active torsions:
REMARK  status: ('A' for Active; 'I' for Inactive)
ROOT
ATOM      1  C   UNL d   1       2.018  -0.728   1.875  0.00  0.00     0.124 A 
ATOM      2  C1  UNL d   1       0.925  -1.573   2.001  0.00  0.00     0.062 A 
ATOM      3  C2  UNL d   1      -0.187  -1.408   1.180  0.00  0.00     0.162 A 
ATOM      4  C3  UNL d   1      -0.211  -0.393   0.224  0.00  0.00    -0.034 A 
ATOM      5  C4  UNL d   1       0.893   0.454   0.103  0.00  0.00     0.162 A 
ATOM      6  C5  UNL d   1       2.001   0.285   0.926  0.00  0.00     0.062 A 
ATOM      7  F   UNL d   1       3.057   1.102   0.802  0.00  0.00    -0.097 F 
ATOM      8  F1  UNL d   1       0.903   1.440  -0.807  0.00  0.00    -0.096 F 
ATOM      9  I   UNL d   1      -1.871  -0.142  -1.006  0.00  0.00    -0.060 I 
ATOM     10  F2  UNL d   1      -1.230  -2.239   1.325  0.00  0.00    -0.096 F 
ATOM     11  F3  UNL d   1       0.938  -2.552   2.918  0.00  0.00    -0.097 F 
ATOM     12  F4  UNL d   1       3.086  -0.889   2.667  0.00  0.00    -0.092 F 
ENDROOT
TORSDOF 0
ENDMDL
