MODEL 1
REMARK minimizedAffinity -3.21747708
REMARK minimizedRMSD -1
REMARK  0 active torsions:
REMARK  status: ('A' for Active; 'I' for Inactive)
ROOT
ATOM      1  C   UNL d   1       1.239   0.958   0.398  0.00  0.00     0.124 A 
ATOM      2  C1  UNL d   1       2.316   0.170   0.778  0.00  0.00     0.062 A 
ATOM      3  C2  UNL d   1       2.121  -1.166   1.115  0.00  0.00     0.162 A 
ATOM      4  C3  UNL d   1       0.843  -1.724   1.073  0.00  0.00    -0.034 A 
ATOM      5  C4  UNL d   1      -0.235  -0.924   0.690  0.00  0.00     0.162 A 
ATOM      6  C5  UNL d   1      -0.035   0.411   0.354  0.00  0.00     0.062 A 
ATOM      7  F   UNL d   1      -1.077   1.171  -0.013  0.00  0.00    -0.097 F 
ATOM      8  F1  UNL d   1      -1.477  -1.428   0.638  0.00  0.00    -0.096 F 
ATOM      9  I   UNL d   1       0.548  -3.721   1.576  0.00  0.00    -0.060 I 
ATOM     10  F2  UNL d   1       3.181  -1.904   1.479  0.00  0.00    -0.096 F 
ATOM     11  F3  UNL d   1       3.548   0.697   0.823  0.00  0.00    -0.097 F 
ATOM     12  F4  UNL d   1       1.429   2.244   0.075  0.00  0.00    -0.092 F 
ENDROOT
TORSDOF 0
ENDMDL
