MODEL 1
REMARK minimizedAffinity -2.83472705
REMARK minimizedRMSD -1
REMARK  0 active torsions:
REMARK  status: ('A' for Active; 'I' for Inactive)
ROOT
ATOM      1  C   UNL d   1       1.367  -1.803   1.591  0.00  0.00     0.124 A 
ATOM      2  C1  UNL d   1       0.059  -1.354   1.474  0.00  0.00     0.062 A 
ATOM      3  C2  UNL d   1      -0.207  -0.115   0.899  0.00  0.00     0.162 A 
ATOM      4  C3  UNL d   1       0.837   0.684   0.434  0.00  0.00    -0.034 A 
ATOM      5  C4  UNL d   1       2.150   0.227   0.556  0.00  0.00     0.162 A 
ATOM      6  C5  UNL d   1       2.411  -1.012   1.132  0.00  0.00     0.062 A 
ATOM      7  F   UNL d   1       3.676  -1.444   1.243  0.00  0.00    -0.097 F 
ATOM      8  F1  UNL d   1       3.178   0.970   0.119  0.00  0.00    -0.096 F 
ATOM      9  I   UNL d   1       0.443   2.538  -0.427  0.00  0.00    -0.060 I 
ATOM     10  F2  UNL d   1      -1.481   0.294   0.799  0.00  0.00    -0.096 F 
ATOM     11  F3  UNL d   1      -0.952  -2.115   1.918  0.00  0.00    -0.097 F 
ATOM     12  F4  UNL d   1       1.621  -2.995   2.146  0.00  0.00    -0.092 F 
ENDROOT
TORSDOF 0
ENDMDL
