MODEL 1
REMARK minimizedAffinity 5.36185217
REMARK minimizedRMSD -1
REMARK  3 active torsions:
REMARK  status: ('A' for Active; 'I' for Inactive)
REMARK    1  A    between atoms: C3'_2  and  C2'_3 
REMARK    2  A    between atoms: C2'_3  and  C1'_4 
REMARK    3  A    between atoms: C1'_4  and  C1_5 
ROOT
ATOM      1  C1  N4B d   1      -0.076   1.819  -0.464  0.00  0.00    -0.075 A 
ATOM      2  C2  N4B d   1      -1.479   1.687  -0.563  0.00  0.00     0.002 A 
ATOM      3  C3  N4B d   1      -2.299   2.606   0.043  0.00  0.00     0.002 A 
ATOM      4  C4  N4B d   1      -1.743   3.651   0.766  0.00  0.00    -0.004 A 
ATOM      5  C5  N4B d   1      -0.387   3.786   0.835  0.00  0.00     0.002 A 
ATOM      6  C6  N4B d   1       0.450   2.872   0.227  0.00  0.00     0.002 A 
ENDROOT
BRANCH   1   7
ATOM      7  C1' N4B d   1       0.861   0.791  -1.038  0.00  0.00     0.057 C 
BRANCH   7   8
ATOM      8  C2' N4B d   1       2.289   1.129  -0.622  0.00  0.00     0.009 C 
BRANCH   8   9
ATOM      9  C3' N4B d   1       3.307   0.647  -1.642  0.00  0.00     0.004 C 
ATOM     10  C4' N4B d   1       4.605   1.394  -1.564  0.00  0.00     0.003 C 
ENDBRANCH   8   9
ENDBRANCH   7   8
ENDBRANCH   1   7
TORSDOF 3
ENDMDL
