MODEL 1
REMARK minimizedAffinity -0.466409326
REMARK minimizedRMSD -1
REMARK  3 active torsions:
REMARK  status: ('A' for Active; 'I' for Inactive)
REMARK    1  A    between atoms: C3'_2  and  C2'_3 
REMARK    2  A    between atoms: C2'_3  and  C1'_4 
REMARK    3  A    between atoms: C1'_4  and  C1_5 
ROOT
ATOM      1  C1  N4B d   1       4.728   1.905  -1.744  0.00  0.00    -0.075 A 
ATOM      2  C2  N4B d   1       4.974   1.881  -0.354  0.00  0.00     0.002 A 
ATOM      3  C3  N4B d   1       4.201   1.098   0.467  0.00  0.00     0.002 A 
ATOM      4  C4  N4B d   1       3.168   0.347  -0.075  0.00  0.00    -0.004 A 
ATOM      5  C5  N4B d   1       2.954   0.356  -1.422  0.00  0.00     0.002 A 
ATOM      6  C6  N4B d   1       3.726   1.136  -2.260  0.00  0.00     0.002 A 
ENDROOT
BRANCH   1   7
ATOM      7  C1' N4B d   1       5.492   2.812  -2.671  0.00  0.00     0.057 C 
BRANCH   7   8
ATOM      8  C2' N4B d   1       4.679   4.080  -2.913  0.00  0.00     0.009 C 
BRANCH   8   9
ATOM      9  C3' N4B d   1       5.563   5.312  -3.008  0.00  0.00     0.004 C 
ATOM     10  C4' N4B d   1       5.745   6.000  -1.688  0.00  0.00     0.003 C 
ENDBRANCH   8   9
ENDBRANCH   7   8
ENDBRANCH   1   7
TORSDOF 3
ENDMDL
