MODEL 1
REMARK minimizedAffinity 13.8189259
REMARK minimizedRMSD -1
REMARK  3 active torsions:
REMARK  status: ('A' for Active; 'I' for Inactive)
REMARK    1  A    between atoms: C3'_2  and  C2'_3 
REMARK    2  A    between atoms: C2'_3  and  C1'_4 
REMARK    3  A    between atoms: C1'_4  and  C1_5 
ROOT
ATOM      1  C1  N4B d   1      -5.648  -0.180  -3.435  0.00  0.00    -0.075 A 
ATOM      2  C2  N4B d   1      -5.465  -0.998  -4.571  0.00  0.00     0.002 A 
ATOM      3  C3  N4B d   1      -5.558  -0.456  -5.829  0.00  0.00     0.002 A 
ATOM      4  C4  N4B d   1      -5.850   0.891  -5.976  0.00  0.00    -0.004 A 
ATOM      5  C5  N4B d   1      -6.000   1.680  -4.873  0.00  0.00     0.002 A 
ATOM      6  C6  N4B d   1      -5.905   1.150  -3.602  0.00  0.00     0.002 A 
ENDROOT
BRANCH   1   7
ATOM      7  C1' N4B d   1      -5.640  -0.744  -2.040  0.00  0.00     0.057 C 
BRANCH   7   8
ATOM      8  C2' N4B d   1      -5.379   0.383  -1.045  0.00  0.00     0.009 C 
BRANCH   8   9
ATOM      9  C3' N4B d   1      -4.332  -0.002  -0.014  0.00  0.00     0.004 C 
ATOM     10  C4' N4B d   1      -3.159   0.932  -0.000  0.00  0.00     0.003 C 
ENDBRANCH   8   9
ENDBRANCH   7   8
ENDBRANCH   1   7
TORSDOF 3
ENDMDL
