MODEL 1
REMARK minimizedAffinity 21.1556339
REMARK minimizedRMSD -1
REMARK  2 active torsions:
REMARK  status: ('A' for Active; 'I' for Inactive)
REMARK    1  A    between atoms: C2'_3  and  C1'_4 
REMARK    2  A    between atoms: C1'_4  and  C1_5 
ROOT
ATOM      1  C1  I4B d   1      -4.026  -3.783  -1.730  0.00  0.00    -0.075 A 
ATOM      2  C2  I4B d   1      -4.046  -5.044  -1.189  0.00  0.00     0.003 A 
ATOM      3  C3  I4B d   1      -5.029  -5.979  -1.595  0.00  0.00     0.002 A 
ATOM      4  C4  I4B d   1      -5.996  -5.597  -2.501  0.00  0.00    -0.004 A 
ATOM      5  C5  I4B d   1      -5.961  -4.325  -3.066  0.00  0.00     0.002 A 
ATOM      6  C6  I4B d   1      -4.963  -3.416  -2.688  0.00  0.00     0.003 A 
ENDROOT
BRANCH   1   7
ATOM      7  C1' I4B d   1      -2.995  -2.810  -1.254  0.00  0.00     0.060 C 
BRANCH   7   8
ATOM      8  C2' I4B d   1      -2.988  -2.840   0.260  0.00  0.00    -0.013 C 
ATOM      9  C4' I4B d   1      -1.582  -2.807   0.800  0.00  0.00     0.013 C 
ATOM     10  C3' I4B d   1      -3.784  -1.668   0.751  0.00  0.00     0.013 C 
ENDBRANCH   7   8
ENDBRANCH   1   7
TORSDOF 2
ENDMDL
