MODEL 1
REMARK minimizedAffinity 19.3102303
REMARK minimizedRMSD -1
REMARK  2 active torsions:
REMARK  status: ('A' for Active; 'I' for Inactive)
REMARK    1  A    between atoms: C2'_3  and  C1'_4 
REMARK    2  A    between atoms: C1'_4  and  C1_5 
ROOT
ATOM      1  C1  I4B d   1      -3.237  -4.179  -1.662  0.00  0.00    -0.075 A 
ATOM      2  C2  I4B d   1      -3.943  -3.636  -2.706  0.00  0.00     0.003 A 
ATOM      3  C3  I4B d   1      -5.135  -4.252  -3.158  0.00  0.00     0.002 A 
ATOM      4  C4  I4B d   1      -5.554  -5.430  -2.574  0.00  0.00    -0.004 A 
ATOM      5  C5  I4B d   1      -4.849  -5.967  -1.500  0.00  0.00     0.002 A 
ATOM      6  C6  I4B d   1      -3.689  -5.331  -1.033  0.00  0.00     0.003 A 
ENDROOT
BRANCH   1   7
ATOM      7  C1' I4B d   1      -1.964  -3.519  -1.233  0.00  0.00     0.060 C 
BRANCH   7   8
ATOM      8  C2' I4B d   1      -1.931  -3.510   0.282  0.00  0.00    -0.013 C 
ATOM      9  C4' I4B d   1      -0.756  -4.292   0.806  0.00  0.00     0.013 C 
ATOM     10  C3' I4B d   1      -1.877  -2.082   0.735  0.00  0.00     0.013 C 
ENDBRANCH   7   8
ENDBRANCH   1   7
TORSDOF 2
ENDMDL
