MODEL 1
REMARK minimizedAffinity 14.1996555
REMARK minimizedRMSD -1
REMARK  2 active torsions:
REMARK  status: ('A' for Active; 'I' for Inactive)
REMARK    1  A    between atoms: C2'_3  and  C1'_4 
REMARK    2  A    between atoms: C1'_4  and  C1_5 
ROOT
ATOM      1  C1  I4B d   1      -3.509  -3.693  -1.882  0.00  0.00    -0.075 A 
ATOM      2  C2  I4B d   1      -4.228  -3.058  -2.864  0.00  0.00     0.003 A 
ATOM      3  C3  I4B d   1      -5.388  -3.665  -3.403  0.00  0.00     0.002 A 
ATOM      4  C4  I4B d   1      -5.761  -4.921  -2.971  0.00  0.00    -0.004 A 
ATOM      5  C5  I4B d   1      -5.044  -5.553  -1.960  0.00  0.00     0.002 A 
ATOM      6  C6  I4B d   1      -3.918  -4.930  -1.402  0.00  0.00     0.003 A 
ENDROOT
BRANCH   1   7
ATOM      7  C1' I4B d   1      -2.271  -3.038  -1.358  0.00  0.00     0.060 C 
BRANCH   7   8
ATOM      8  C2' I4B d   1      -2.168  -3.350   0.121  0.00  0.00    -0.013 C 
ATOM      9  C4' I4B d   1      -0.945  -4.178   0.420  0.00  0.00     0.013 C 
ATOM     10  C3' I4B d   1      -2.137  -2.050   0.868  0.00  0.00     0.013 C 
ENDBRANCH   7   8
ENDBRANCH   1   7
TORSDOF 2
ENDMDL
