MODEL 1
REMARK minimizedAffinity 10.0518608
REMARK minimizedRMSD -1
REMARK  2 active torsions:
REMARK  status: ('A' for Active; 'I' for Inactive)
REMARK    1  A    between atoms: C2'_3  and  C1'_4 
REMARK    2  A    between atoms: C1'_4  and  C1_5 
ROOT
ATOM      1  C1  I4B d   1       2.975   1.033  -1.014  0.00  0.00    -0.075 A 
ATOM      2  C2  I4B d   1       2.026   1.769  -0.348  0.00  0.00     0.003 A 
ATOM      3  C3  I4B d   1       2.045   1.842   1.066  0.00  0.00     0.002 A 
ATOM      4  C4  I4B d   1       2.992   1.129   1.772  0.00  0.00    -0.004 A 
ATOM      5  C5  I4B d   1       3.967   0.402   1.094  0.00  0.00     0.002 A 
ATOM      6  C6  I4B d   1       3.966   0.363  -0.308  0.00  0.00     0.003 A 
ENDROOT
BRANCH   1   7
ATOM      7  C1' I4B d   1       2.906   0.950  -2.506  0.00  0.00     0.060 C 
BRANCH   7   8
ATOM      8  C2' I4B d   1       2.193   2.189  -3.009  0.00  0.00    -0.013 C 
ATOM      9  C4' I4B d   1       2.368   2.352  -4.496  0.00  0.00     0.013 C 
ATOM     10  C3' I4B d   1       0.743   2.068  -2.645  0.00  0.00     0.013 C 
ENDBRANCH   7   8
ENDBRANCH   1   7
TORSDOF 2
ENDMDL
