MODEL 1
REMARK minimizedAffinity 7.74147463
REMARK minimizedRMSD -1
REMARK  2 active torsions:
REMARK  status: ('A' for Active; 'I' for Inactive)
REMARK    1  A    between atoms: C2'_3  and  C1'_4 
REMARK    2  A    between atoms: C1'_4  and  C1_5 
ROOT
ATOM      1  C1  I4B d   1       3.077   1.634  -1.350  0.00  0.00    -0.075 A 
ATOM      2  C2  I4B d   1       1.742   1.940  -1.439  0.00  0.00     0.003 A 
ATOM      3  C3  I4B d   1       1.136   2.128  -2.705  0.00  0.00     0.002 A 
ATOM      4  C4  I4B d   1       1.909   2.050  -3.846  0.00  0.00    -0.004 A 
ATOM      5  C5  I4B d   1       3.257   1.718  -3.755  0.00  0.00     0.002 A 
ATOM      6  C6  I4B d   1       3.843   1.496  -2.500  0.00  0.00     0.003 A 
ENDROOT
BRANCH   1   7
ATOM      7  C1' I4B d   1       3.691   1.475   0.005  0.00  0.00     0.060 C 
BRANCH   7   8
ATOM      8  C2' I4B d   1       3.363   0.083   0.506  0.00  0.00    -0.013 C 
ATOM      9  C4' I4B d   1       1.919  -0.019   0.923  0.00  0.00     0.013 C 
ATOM     10  C3' I4B d   1       3.680  -0.890  -0.590  0.00  0.00     0.013 C 
ENDBRANCH   7   8
ENDBRANCH   1   7
TORSDOF 2
ENDMDL
