MODEL 1
REMARK minimizedAffinity 24.6781673
REMARK minimizedRMSD -1
REMARK  2 active torsions:
REMARK  status: ('A' for Active; 'I' for Inactive)
REMARK    1  A    between atoms: C2'_3  and  C1'_4 
REMARK    2  A    between atoms: C1'_4  and  C1_5 
ROOT
ATOM      1  C1  I4B d   1       4.278   3.703   1.983  0.00  0.00    -0.075 A 
ATOM      2  C2  I4B d   1       5.477   3.593   2.642  0.00  0.00     0.003 A 
ATOM      3  C3  I4B d   1       5.999   4.696   3.360  0.00  0.00     0.002 A 
ATOM      4  C4  I4B d   1       5.319   5.897   3.352  0.00  0.00    -0.004 A 
ATOM      5  C5  I4B d   1       4.092   5.999   2.703  0.00  0.00     0.002 A 
ATOM      6  C6  I4B d   1       3.561   4.892   2.024  0.00  0.00     0.003 A 
ENDROOT
BRANCH   1   7
ATOM      7  C1' I4B d   1       3.772   2.529   1.207  0.00  0.00     0.060 C 
BRANCH   7   8
ATOM      8  C2' I4B d   1       2.729   1.825   2.052  0.00  0.00    -0.013 C 
ATOM      9  C4' I4B d   1       1.336   2.166   1.594  0.00  0.00     0.013 C 
ATOM     10  C3' I4B d   1       2.982   0.349   1.964  0.00  0.00     0.013 C 
ENDBRANCH   7   8
ENDBRANCH   1   7
TORSDOF 2
ENDMDL
