MODEL 1
REMARK minimizedAffinity 12.0959215
REMARK minimizedRMSD -1
REMARK  2 active torsions:
REMARK  status: ('A' for Active; 'I' for Inactive)
REMARK    1  A    between atoms: C2'_3  and  C1'_4 
REMARK    2  A    between atoms: C1'_4  and  C1_5 
ROOT
ATOM      1  C1  I4B d   1      -3.004  -3.780   0.724  0.00  0.00    -0.075 A 
ATOM      2  C2  I4B d   1      -3.827  -4.878   0.745  0.00  0.00     0.003 A 
ATOM      3  C3  I4B d   1      -3.499  -5.999   1.545  0.00  0.00     0.002 A 
ATOM      4  C4  I4B d   1      -2.321  -6.000   2.265  0.00  0.00    -0.004 A 
ATOM      5  C5  I4B d   1      -1.500  -4.876   2.261  0.00  0.00     0.002 A 
ATOM      6  C6  I4B d   1      -1.850  -3.754   1.495  0.00  0.00     0.003 A 
ENDROOT
BRANCH   1   7
ATOM      7  C1' I4B d   1      -3.364  -2.626  -0.157  0.00  0.00     0.060 C 
BRANCH   7   8
ATOM      8  C2' I4B d   1      -2.947  -2.972  -1.572  0.00  0.00    -0.013 C 
ATOM      9  C4' I4B d   1      -4.134  -3.370  -2.409  0.00  0.00     0.013 C 
ATOM     10  C3' I4B d   1      -2.250  -1.778  -2.154  0.00  0.00     0.013 C 
ENDBRANCH   7   8
ENDBRANCH   1   7
TORSDOF 2
ENDMDL
