MODEL 1
REMARK minimizedAffinity 11.9195786
REMARK minimizedRMSD -1
REMARK  2 active torsions:
REMARK  status: ('A' for Active; 'I' for Inactive)
REMARK    1  A    between atoms: C2'_3  and  C1'_4 
REMARK    2  A    between atoms: C1'_4  and  C1_5 
ROOT
ATOM      1  C1  I4B d   1      -3.724  -3.883  -1.981  0.00  0.00    -0.075 A 
ATOM      2  C2  I4B d   1      -4.831  -3.385  -2.621  0.00  0.00     0.003 A 
ATOM      3  C3  I4B d   1      -5.985  -4.191  -2.779  0.00  0.00     0.002 A 
ATOM      4  C4  I4B d   1      -5.970  -5.495  -2.329  0.00  0.00    -0.004 A 
ATOM      5  C5  I4B d   1      -4.854  -5.991  -1.660  0.00  0.00     0.002 A 
ATOM      6  C6  I4B d   1      -3.728  -5.176  -1.474  0.00  0.00     0.003 A 
ENDROOT
BRANCH   1   7
ATOM      7  C1' I4B d   1      -2.511  -3.016  -1.862  0.00  0.00     0.060 C 
BRANCH   7   8
ATOM      8  C2' I4B d   1      -1.675  -3.206  -3.111  0.00  0.00    -0.013 C 
ATOM      9  C4' I4B d   1      -1.452  -4.667  -3.401  0.00  0.00     0.013 C 
ATOM     10  C3' I4B d   1      -2.383  -2.531  -4.248  0.00  0.00     0.013 C 
ENDBRANCH   7   8
ENDBRANCH   1   7
TORSDOF 2
ENDMDL
