MODEL 1
REMARK minimizedAffinity 6.24459076
REMARK minimizedRMSD -1
REMARK  0 active torsions:
REMARK  status: ('A' for Active; 'I' for Inactive)
ROOT
ATOM      1  C   UNL d   1       2.746   0.669  -0.122  0.00  0.00     0.020 A 
ATOM      2  C1  UNL d   1       2.279  -0.606   0.194  0.00  0.00     0.020 A 
ATOM      3  C2  UNL d   1       2.388  -1.640  -0.739  0.00  0.00     0.034 A 
ATOM      4  C3  UNL d   1       2.964  -1.400  -1.992  0.00  0.00     0.017 A 
ATOM      5  C4  UNL d   1       3.432  -0.119  -2.307  0.00  0.00     0.017 A 
ATOM      6  C5  UNL d   1       3.321   0.912  -1.370  0.00  0.00     0.034 A 
ATOM      7 Cl   UNL d   1       4.156   0.254  -3.832  0.00  0.00    -0.070 Cl
ATOM      8 Cl1  UNL d   1       3.067  -2.725  -3.096  0.00  0.00    -0.070 Cl
ENDROOT
TORSDOF 0
ENDMDL
