MODEL 1
REMARK minimizedAffinity 13.2395973
REMARK minimizedRMSD -1
REMARK  0 active torsions:
REMARK  status: ('A' for Active; 'I' for Inactive)
ROOT
ATOM      1  C   UNL d   1      -4.761   2.957  -0.361  0.00  0.00     0.020 A 
ATOM      2  C1  UNL d   1      -4.073   2.134   0.529  0.00  0.00     0.020 A 
ATOM      3  C2  UNL d   1      -3.970   0.764   0.276  0.00  0.00     0.034 A 
ATOM      4  C3  UNL d   1      -4.558   0.214  -0.869  0.00  0.00     0.017 A 
ATOM      5  C4  UNL d   1      -5.248   1.041  -1.762  0.00  0.00     0.017 A 
ATOM      6  C5  UNL d   1      -5.348   2.412  -1.504  0.00  0.00     0.034 A 
ATOM      7 Cl   UNL d   1      -5.999   0.435  -3.196  0.00  0.00    -0.070 Cl
ATOM      8 Cl1  UNL d   1      -4.392  -1.488  -1.119  0.00  0.00    -0.070 Cl
ENDROOT
TORSDOF 0
ENDMDL
