MODEL 1
REMARK minimizedAffinity 7.29057837
REMARK minimizedRMSD -1
REMARK  0 active torsions:
REMARK  status: ('A' for Active; 'I' for Inactive)
ROOT
ATOM      1  C   UNL d   1       1.657   0.214  -0.997  0.00  0.00     0.020 A 
ATOM      2  C1  UNL d   1       1.774  -0.082   0.360  0.00  0.00     0.020 A 
ATOM      3  C2  UNL d   1       2.778   0.518   1.122  0.00  0.00     0.034 A 
ATOM      4  C3  UNL d   1       3.670   1.418   0.528  0.00  0.00     0.017 A 
ATOM      5  C4  UNL d   1       3.552   1.715  -0.835  0.00  0.00     0.017 A 
ATOM      6  C5  UNL d   1       2.544   1.111  -1.593  0.00  0.00     0.034 A 
ATOM      7 Cl   UNL d   1       4.615   2.815  -1.639  0.00  0.00    -0.070 Cl
ATOM      8 Cl1  UNL d   1       4.888   2.123   1.530  0.00  0.00    -0.070 Cl
ENDROOT
TORSDOF 0
ENDMDL
