MODEL 1
REMARK minimizedAffinity 14.028616
REMARK minimizedRMSD -1
REMARK  0 active torsions:
REMARK  status: ('A' for Active; 'I' for Inactive)
ROOT
ATOM      1  C   UNL d   1       3.510   1.308   0.715  0.00  0.00     0.020 A 
ATOM      2  C1  UNL d   1       2.961   1.695  -0.507  0.00  0.00     0.020 A 
ATOM      3  C2  UNL d   1       2.226   0.779  -1.263  0.00  0.00     0.034 A 
ATOM      4  C3  UNL d   1       2.038  -0.528  -0.798  0.00  0.00     0.017 A 
ATOM      5  C4  UNL d   1       2.589  -0.915   0.428  0.00  0.00     0.017 A 
ATOM      6  C5  UNL d   1       3.324   0.006   1.182  0.00  0.00     0.034 A 
ATOM      7 Cl   UNL d   1       2.400  -2.509   1.068  0.00  0.00    -0.070 Cl
ATOM      8 Cl1  UNL d   1       1.118  -1.607  -1.785  0.00  0.00    -0.070 Cl
ENDROOT
TORSDOF 0
ENDMDL
