MODEL 1
REMARK minimizedAffinity 11.3439741
REMARK minimizedRMSD -1
REMARK  0 active torsions:
REMARK  status: ('A' for Active; 'I' for Inactive)
ROOT
ATOM      1  C   UNL d   1       3.105   0.524  -0.412  0.00  0.00     0.020 A 
ATOM      2  C1  UNL d   1       2.576   0.001  -1.591  0.00  0.00     0.020 A 
ATOM      3  C2  UNL d   1       1.887  -1.214  -1.568  0.00  0.00     0.034 A 
ATOM      4  C3  UNL d   1       1.725  -1.908  -0.364  0.00  0.00     0.017 A 
ATOM      5  C4  UNL d   1       2.256  -1.382   0.819  0.00  0.00     0.017 A 
ATOM      6  C5  UNL d   1       2.945  -0.165   0.790  0.00  0.00     0.034 A 
ATOM      7 Cl   UNL d   1       2.097  -2.181   2.343  0.00  0.00    -0.070 Cl
ATOM      8 Cl1  UNL d   1       0.861  -3.404  -0.409  0.00  0.00    -0.070 Cl
ENDROOT
TORSDOF 0
ENDMDL
