MODEL 1
REMARK minimizedAffinity 16.0716896
REMARK minimizedRMSD -1
REMARK  0 active torsions:
REMARK  status: ('A' for Active; 'I' for Inactive)
ROOT
ATOM      1  C   UNL d   1       2.292   0.449  -0.116  0.00  0.00     0.020 A 
ATOM      2  C1  UNL d   1       2.572  -0.803   0.429  0.00  0.00     0.020 A 
ATOM      3  C2  UNL d   1       3.723  -0.988   1.200  0.00  0.00     0.034 A 
ATOM      4  C3  UNL d   1       4.596   0.082   1.426  0.00  0.00     0.017 A 
ATOM      5  C4  UNL d   1       4.314   1.338   0.879  0.00  0.00     0.017 A 
ATOM      6  C5  UNL d   1       3.161   1.517   0.108  0.00  0.00     0.034 A 
ATOM      7 Cl   UNL d   1       5.344   2.706   1.115  0.00  0.00    -0.070 Cl
ATOM      8 Cl1  UNL d   1       6.000  -0.218   2.389  0.00  0.00    -0.070 Cl
ENDROOT
TORSDOF 0
ENDMDL
