MODEL 1
REMARK minimizedAffinity 8.78549671
REMARK minimizedRMSD -1
REMARK  0 active torsions:
REMARK  status: ('A' for Active; 'I' for Inactive)
ROOT
ATOM      1  C   UNL d   1       2.838   0.022  -0.254  0.00  0.00     0.020 A 
ATOM      2  C1  UNL d   1       3.157   0.192  -1.601  0.00  0.00     0.020 A 
ATOM      3  C2  UNL d   1       4.136   1.115  -1.975  0.00  0.00     0.034 A 
ATOM      4  C3  UNL d   1       4.799   1.871  -1.002  0.00  0.00     0.017 A 
ATOM      5  C4  UNL d   1       4.478   1.700   0.350  0.00  0.00     0.017 A 
ATOM      6  C5  UNL d   1       3.497   0.775   0.719  0.00  0.00     0.034 A 
ATOM      7 Cl   UNL d   1       5.253   2.597   1.608  0.00  0.00    -0.070 Cl
ATOM      8 Cl1  UNL d   1       5.999   2.994  -1.536  0.00  0.00    -0.070 Cl
ENDROOT
TORSDOF 0
ENDMDL
