MODEL 1
REMARK minimizedAffinity 8.80730057
REMARK minimizedRMSD -1
REMARK  0 active torsions:
REMARK  status: ('A' for Active; 'I' for Inactive)
ROOT
ATOM      1  C   UNL d   1      -4.386   0.366  -6.000  0.00  0.00     0.020 A 
ATOM      2  C1  UNL d   1      -5.411   0.737  -5.131  0.00  0.00     0.020 A 
ATOM      3  C2  UNL d   1      -5.210   0.684  -3.750  0.00  0.00     0.034 A 
ATOM      4  C3  UNL d   1      -3.981   0.258  -3.234  0.00  0.00     0.017 A 
ATOM      5  C4  UNL d   1      -2.952  -0.115  -4.107  0.00  0.00     0.017 A 
ATOM      6  C5  UNL d   1      -3.159  -0.059  -5.489  0.00  0.00     0.034 A 
ATOM      7 Cl   UNL d   1      -1.408  -0.651  -3.545  0.00  0.00    -0.070 Cl
ATOM      8 Cl1  UNL d   1      -3.802   0.217  -1.516  0.00  0.00    -0.070 Cl
ENDROOT
TORSDOF 0
ENDMDL
