MODEL 1
REMARK minimizedAffinity 10.0717821
REMARK minimizedRMSD -1
REMARK  0 active torsions:
REMARK  status: ('A' for Active; 'I' for Inactive)
ROOT
ATOM      1  C   UNL d   1      -4.657   1.612   0.643  0.00  0.00     0.020 A 
ATOM      2  C1  UNL d   1      -5.713   0.917   0.053  0.00  0.00     0.020 A 
ATOM      3  C2  UNL d   1      -5.465   0.034  -1.001  0.00  0.00     0.034 A 
ATOM      4  C3  UNL d   1      -4.160  -0.156  -1.468  0.00  0.00     0.017 A 
ATOM      5  C4  UNL d   1      -3.101   0.542  -0.875  0.00  0.00     0.017 A 
ATOM      6  C5  UNL d   1      -3.354   1.424   0.179  0.00  0.00     0.034 A 
ATOM      7 Cl   UNL d   1      -1.463   0.359  -1.397  0.00  0.00    -0.070 Cl
ATOM      8 Cl1  UNL d   1      -3.927  -1.263  -2.774  0.00  0.00    -0.070 Cl
ENDROOT
TORSDOF 0
ENDMDL
