MODEL 1
REMARK minimizedAffinity 4.31774044
REMARK minimizedRMSD -1
REMARK  0 active torsions:
REMARK  status: ('A' for Active; 'I' for Inactive)
ROOT
ATOM      1  C   UNL d   1      -5.198   1.033   0.303  0.00  0.00     0.020 A 
ATOM      2  C1  UNL d   1      -4.277   1.676   1.128  0.00  0.00     0.020 A 
ATOM      3  C2  UNL d   1      -2.923   1.691   0.784  0.00  0.00     0.034 A 
ATOM      4  C3  UNL d   1      -2.488   1.062  -0.388  0.00  0.00     0.017 A 
ATOM      5  C4  UNL d   1      -3.414   0.416  -1.215  0.00  0.00     0.017 A 
ATOM      6  C5  UNL d   1      -4.768   0.404  -0.866  0.00  0.00     0.034 A 
ATOM      7 Cl   UNL d   1      -2.952  -0.383  -2.677  0.00  0.00    -0.070 Cl
ATOM      8 Cl1  UNL d   1      -0.800   1.120  -0.752  0.00  0.00    -0.070 Cl
ENDROOT
TORSDOF 0
ENDMDL
