MODEL 1
REMARK minimizedAffinity 12.9923458
REMARK minimizedRMSD -1
REMARK  0 active torsions:
REMARK  status: ('A' for Active; 'I' for Inactive)
ROOT
ATOM      1  C   UNL d   1       0.806   5.365   5.619  0.00  0.00     0.020 A 
ATOM      2  C1  UNL d   1       1.748   6.000   4.810  0.00  0.00     0.020 A 
ATOM      3  C2  UNL d   1       2.592   5.242   3.995  0.00  0.00     0.034 A 
ATOM      4  C3  UNL d   1       2.495   3.846   3.987  0.00  0.00     0.017 A 
ATOM      5  C4  UNL d   1       1.550   3.210   4.800  0.00  0.00     0.017 A 
ATOM      6  C5  UNL d   1       0.708   3.973   5.614  0.00  0.00     0.034 A 
ATOM      7 Cl   UNL d   1       1.372   1.491   4.845  0.00  0.00    -0.070 Cl
ATOM      8 Cl1  UNL d   1       3.570   2.972   2.955  0.00  0.00    -0.070 Cl
ENDROOT
TORSDOF 0
ENDMDL
