MODEL 1
REMARK minimizedAffinity 2.41344571
REMARK minimizedRMSD -1
REMARK  0 active torsions:
REMARK  status: ('A' for Active; 'I' for Inactive)
ROOT
ATOM      1  C   UNL d   1       3.249   1.464   0.098  0.00  0.00     0.020 A 
ATOM      2  C1  UNL d   1       4.149   1.533  -0.965  0.00  0.00     0.020 A 
ATOM      3  C2  UNL d   1       4.274   0.455  -1.844  0.00  0.00     0.034 A 
ATOM      4  C3  UNL d   1       3.498  -0.695  -1.663  0.00  0.00     0.017 A 
ATOM      5  C4  UNL d   1       2.595  -0.763  -0.596  0.00  0.00     0.017 A 
ATOM      6  C5  UNL d   1       2.473   0.319   0.282  0.00  0.00     0.034 A 
ATOM      7 Cl   UNL d   1       1.603  -2.149  -0.308  0.00  0.00    -0.070 Cl
ATOM      8 Cl1  UNL d   1       3.704  -1.989  -2.789  0.00  0.00    -0.070 Cl
ENDROOT
TORSDOF 0
ENDMDL
