MODEL 1
REMARK minimizedAffinity -3.1572516
REMARK minimizedRMSD -1
REMARK  0 active torsions:
REMARK  status: ('A' for Active; 'I' for Inactive)
ROOT
ATOM      1  C   UNL d   1       2.591  -1.519   0.046  0.00  0.00     0.020 A 
ATOM      2  C1  UNL d   1       1.500  -2.321  -0.289  0.00  0.00     0.020 A 
ATOM      3  C2  UNL d   1       0.233  -1.751  -0.430  0.00  0.00     0.034 A 
ATOM      4  C3  UNL d   1       0.054  -0.377  -0.237  0.00  0.00     0.017 A 
ATOM      5  C4  UNL d   1       1.149   0.427   0.100  0.00  0.00     0.017 A 
ATOM      6  C5  UNL d   1       2.416  -0.149   0.240  0.00  0.00     0.034 A 
ATOM      7 Cl   UNL d   1       1.006   2.130   0.355  0.00  0.00    -0.070 Cl
ATOM      8 Cl1  UNL d   1      -1.541   0.260  -0.428  0.00  0.00    -0.070 Cl
ENDROOT
TORSDOF 0
ENDMDL
