MODEL 1
REMARK minimizedAffinity 5.55620527
REMARK minimizedRMSD -1
REMARK  0 active torsions:
REMARK  status: ('A' for Active; 'I' for Inactive)
ROOT
ATOM      1  C   UNL d   1       0.276   1.821  -0.543  0.00  0.00     0.020 A 
ATOM      2  C1  UNL d   1       1.172   2.771  -0.053  0.00  0.00     0.020 A 
ATOM      3  C2  UNL d   1       2.461   2.387   0.321  0.00  0.00     0.034 A 
ATOM      4  C3  UNL d   1       2.859   1.050   0.206  0.00  0.00     0.017 A 
ATOM      5  C4  UNL d   1       1.959   0.097  -0.285  0.00  0.00     0.017 A 
ATOM      6  C5  UNL d   1       0.669   0.487  -0.659  0.00  0.00     0.034 A 
ATOM      7 Cl   UNL d   1       2.377  -1.571  -0.455  0.00  0.00    -0.070 Cl
ATOM      8 Cl1  UNL d   1       4.468   0.647   0.687  0.00  0.00    -0.070 Cl
ENDROOT
TORSDOF 0
ENDMDL
