MODEL 1
REMARK minimizedAffinity 6.85247469
REMARK minimizedRMSD -1
REMARK  0 active torsions:
REMARK  status: ('A' for Active; 'I' for Inactive)
ROOT
ATOM      1  C   UNL d   1       0.980   2.409  -0.034  0.00  0.00     0.020 A 
ATOM      2  C1  UNL d   1       1.934   2.075   0.926  0.00  0.00     0.020 A 
ATOM      3  C2  UNL d   1       1.533   1.710   2.213  0.00  0.00     0.034 A 
ATOM      4  C3  UNL d   1       0.173   1.677   2.543  0.00  0.00     0.017 A 
ATOM      5  C4  UNL d   1      -0.784   2.012   1.578  0.00  0.00     0.017 A 
ATOM      6  C5  UNL d   1      -0.377   2.377   0.292  0.00  0.00     0.034 A 
ATOM      7 Cl   UNL d   1      -2.480   1.995   1.911  0.00  0.00    -0.070 Cl
ATOM      8 Cl1  UNL d   1      -0.252   1.216   4.153  0.00  0.00    -0.070 Cl
ENDROOT
TORSDOF 0
ENDMDL
