MODEL 1
REMARK minimizedAffinity -1.24931633
REMARK minimizedRMSD -1
REMARK  0 active torsions:
REMARK  status: ('A' for Active; 'I' for Inactive)
ROOT
ATOM      1  C   UNL d   1      -3.470   0.592   0.783  0.00  0.00     0.020 A 
ATOM      2  C1  UNL d   1      -3.037   1.586   1.659  0.00  0.00     0.020 A 
ATOM      3  C2  UNL d   1      -1.679   1.902   1.742  0.00  0.00     0.034 A 
ATOM      4  C3  UNL d   1      -0.749   1.221   0.948  0.00  0.00     0.017 A 
ATOM      5  C4  UNL d   1      -1.184   0.223   0.069  0.00  0.00     0.017 A 
ATOM      6  C5  UNL d   1      -2.545  -0.088  -0.010  0.00  0.00     0.034 A 
ATOM      7 Cl   UNL d   1      -0.096  -0.660  -0.943  0.00  0.00    -0.070 Cl
ATOM      8 Cl1  UNL d   1       0.914   1.663   1.102  0.00  0.00    -0.070 Cl
ENDROOT
TORSDOF 0
ENDMDL
