MODEL 1
REMARK minimizedAffinity 6.84673643
REMARK minimizedRMSD -1
REMARK  0 active torsions:
REMARK  status: ('A' for Active; 'I' for Inactive)
ROOT
ATOM      1  C   UNL d   1       1.550  -1.911  -0.009  0.00  0.00     0.020 A 
ATOM      2  C1  UNL d   1       1.356  -0.563   0.291  0.00  0.00     0.020 A 
ATOM      3  C2  UNL d   1       0.442   0.192  -0.447  0.00  0.00     0.034 A 
ATOM      4  C3  UNL d   1      -0.281  -0.400  -1.489  0.00  0.00     0.017 A 
ATOM      5  C4  UNL d   1      -0.085  -1.752  -1.790  0.00  0.00     0.017 A 
ATOM      6  C5  UNL d   1       0.831  -2.504  -1.048  0.00  0.00     0.034 A 
ATOM      7 Cl   UNL d   1      -0.940  -2.552  -3.061  0.00  0.00    -0.070 Cl
ATOM      8 Cl1  UNL d   1      -1.394   0.594  -2.360  0.00  0.00    -0.070 Cl
ENDROOT
TORSDOF 0
ENDMDL
