MODEL 1
REMARK minimizedAffinity -4.08493042
REMARK minimizedRMSD -1
REMARK  0 active torsions:
REMARK  status: ('A' for Active; 'I' for Inactive)
ROOT
ATOM      1  O1  BZF d   1       0.348  -0.175   3.115  0.00  0.00    -0.204 OA
ATOM      2  C2  BZF d   1      -0.845  -0.760   3.494  0.00  0.00     0.174 A 
ATOM      3  C3  BZF d   1      -1.607  -1.033   2.415  0.00  0.00    -0.012 A 
ATOM      4  C3A BZF d   1      -0.804  -0.675   1.286  0.00  0.00    -0.107 A 
ATOM      5  C4  BZF d   1      -1.004  -0.730  -0.063  0.00  0.00     0.055 A 
ATOM      6  C5  BZF d   1      -0.049  -0.234  -0.893  0.00  0.00    -0.016 A 
ATOM      7  C6  BZF d   1       1.114   0.327  -0.408  0.00  0.00     0.022 A 
ATOM      8  C7  BZF d   1       1.359   0.399   0.923  0.00  0.00     0.029 A 
ATOM      9  C7A BZF d   1       0.411  -0.131   1.763  0.00  0.00     0.058 A 
ENDROOT
TORSDOF 0
ENDMDL
