MODEL 1
REMARK minimizedAffinity -3.66323137
REMARK minimizedRMSD -1
REMARK  0 active torsions:
REMARK  status: ('A' for Active; 'I' for Inactive)
ROOT
ATOM      1  O1  BZF d   1      -0.755  -1.193  -0.706  0.00  0.00    -0.204 OA
ATOM      2  C2  BZF d   1       0.282  -0.762  -1.510  0.00  0.00     0.174 A 
ATOM      3  C3  BZF d   1       1.122   0.036  -0.819  0.00  0.00    -0.012 A 
ATOM      4  C3A BZF d   1       0.626   0.033   0.523  0.00  0.00    -0.107 A 
ATOM      5  C4  BZF d   1       1.042   0.628   1.679  0.00  0.00     0.055 A 
ATOM      6  C5  BZF d   1       0.293   0.483   2.803  0.00  0.00    -0.016 A 
ATOM      7  C6  BZF d   1      -0.879  -0.244   2.806  0.00  0.00     0.022 A 
ATOM      8  C7  BZF d   1      -1.330  -0.857   1.685  0.00  0.00     0.029 A 
ATOM      9  C7A BZF d   1      -0.558  -0.740   0.555  0.00  0.00     0.058 A 
ENDROOT
TORSDOF 0
ENDMDL
