MODEL 1
REMARK minimizedAffinity -1.938712
REMARK minimizedRMSD -1
REMARK  0 active torsions:
REMARK  status: ('A' for Active; 'I' for Inactive)
ROOT
ATOM      1  O1  BZF d   1      -1.292  -0.447  -0.764  0.00  0.00    -0.204 OA
ATOM      2  C2  BZF d   1      -0.282  -0.344  -1.701  0.00  0.00     0.174 A 
ATOM      3  C3  BZF d   1       0.902  -0.101  -1.104  0.00  0.00    -0.012 A 
ATOM      4  C3A BZF d   1       0.631  -0.142   0.300  0.00  0.00    -0.107 A 
ATOM      5  C4  BZF d   1       1.410   0.009   1.412  0.00  0.00     0.055 A 
ATOM      6  C5  BZF d   1       0.824  -0.015   2.637  0.00  0.00    -0.016 A 
ATOM      7  C6  BZF d   1      -0.537  -0.183   2.788  0.00  0.00     0.022 A 
ATOM      8  C7  BZF d   1      -1.350  -0.342   1.715  0.00  0.00     0.029 A 
ATOM      9  C7A BZF d   1      -0.756  -0.351   0.477  0.00  0.00     0.058 A 
ENDROOT
TORSDOF 0
ENDMDL
