MODEL 1
REMARK minimizedAffinity -4.86580229
REMARK minimizedRMSD -1
REMARK  0 active torsions:
REMARK  status: ('A' for Active; 'I' for Inactive)
ROOT
ATOM      1  O1  BZF d   1      -0.198  -1.373  -0.314  0.00  0.00    -0.204 OA
ATOM      2  C2  BZF d   1      -0.208  -0.151   0.331  0.00  0.00     0.174 A 
ATOM      3  C3  BZF d   1       0.397   0.792  -0.420  0.00  0.00    -0.012 A 
ATOM      4  C3A BZF d   1       0.730   0.138  -1.648  0.00  0.00    -0.107 A 
ATOM      5  C4  BZF d   1       1.333   0.556  -2.800  0.00  0.00     0.055 A 
ATOM      6  C5  BZF d   1       1.575  -0.350  -3.784  0.00  0.00    -0.016 A 
ATOM      7  C6  BZF d   1       1.232  -1.679  -3.648  0.00  0.00     0.022 A 
ATOM      8  C7  BZF d   1       0.627  -2.139  -2.526  0.00  0.00     0.029 A 
ATOM      9  C7A BZF d   1       0.351  -1.220  -1.543  0.00  0.00     0.058 A 
ENDROOT
TORSDOF 0
ENDMDL
