MODEL 1
REMARK minimizedAffinity -3.06044221
REMARK minimizedRMSD -1
REMARK  0 active torsions:
REMARK  status: ('A' for Active; 'I' for Inactive)
ROOT
ATOM      1  O1  BZF d   1       0.762  -0.255  -3.231  0.00  0.00    -0.204 OA
ATOM      2  C2  BZF d   1       1.196  -1.502  -3.636  0.00  0.00     0.174 A 
ATOM      3  C3  BZF d   1       1.329  -2.329  -2.579  0.00  0.00    -0.012 A 
ATOM      4  C3A BZF d   1       0.866  -1.578  -1.453  0.00  0.00    -0.107 A 
ATOM      5  C4  BZF d   1       0.738  -1.862  -0.123  0.00  0.00     0.055 A 
ATOM      6  C5  BZF d   1       0.323  -0.884   0.724  0.00  0.00    -0.016 A 
ATOM      7  C6  BZF d   1       0.033   0.389   0.278  0.00  0.00     0.022 A 
ATOM      8  C7  BZF d   1       0.140   0.717  -1.033  0.00  0.00     0.029 A 
ATOM      9  C7A BZF d   1       0.528  -0.278  -1.897  0.00  0.00     0.058 A 
ENDROOT
TORSDOF 0
ENDMDL
