MODEL 1
REMARK minimizedAffinity -1.52313828
REMARK minimizedRMSD -1
REMARK  0 active torsions:
REMARK  status: ('A' for Active; 'I' for Inactive)
ROOT
ATOM      1  O1  BZF d   1      -0.557   0.160  -2.815  0.00  0.00    -0.204 OA
ATOM      2  C2  BZF d   1       0.439  -0.454  -3.550  0.00  0.00     0.174 A 
ATOM      3  C3  BZF d   1       1.393  -0.954  -2.738  0.00  0.00    -0.012 A 
ATOM      4  C3A BZF d   1       0.921  -0.712  -1.409  0.00  0.00    -0.107 A 
ATOM      5  C4  BZF d   1       1.421  -0.993  -0.170  0.00  0.00     0.055 A 
ATOM      6  C5  BZF d   1       0.750  -0.556   0.928  0.00  0.00    -0.016 A 
ATOM      7  C6  BZF d   1      -0.420   0.167   0.823  0.00  0.00     0.022 A 
ATOM      8  C7  BZF d   1      -0.958   0.465  -0.385  0.00  0.00     0.029 A 
ATOM      9  C7A BZF d   1      -0.299  -0.003  -1.495  0.00  0.00     0.058 A 
ENDROOT
TORSDOF 0
ENDMDL
