MODEL 1
REMARK minimizedAffinity -3.35422397
REMARK minimizedRMSD -1
REMARK  0 active torsions:
REMARK  status: ('A' for Active; 'I' for Inactive)
ROOT
ATOM      1  O1  BZF d   1      -2.551   0.164   0.733  0.00  0.00    -0.204 OA
ATOM      2  C2  BZF d   1      -3.216   0.421   1.917  0.00  0.00     0.174 A 
ATOM      3  C3  BZF d   1      -2.371   0.347   2.965  0.00  0.00    -0.012 A 
ATOM      4  C3A BZF d   1      -1.080   0.114   2.393  0.00  0.00    -0.107 A 
ATOM      5  C4  BZF d   1       0.169  -0.037   2.924  0.00  0.00     0.055 A 
ATOM      6  C5  BZF d   1       1.208  -0.325   2.096  0.00  0.00    -0.016 A 
ATOM      7  C6  BZF d   1       1.033  -0.474   0.736  0.00  0.00     0.022 A 
ATOM      8  C7  BZF d   1      -0.187  -0.328   0.163  0.00  0.00     0.029 A 
ATOM      9  C7A BZF d   1      -1.233  -0.005   0.992  0.00  0.00     0.058 A 
ENDROOT
TORSDOF 0
ENDMDL
