MODEL 1
REMARK minimizedAffinity -4.27809954
REMARK minimizedRMSD -1
REMARK  0 active torsions:
REMARK  status: ('A' for Active; 'I' for Inactive)
ROOT
ATOM      1  O1  BZF d   1       1.185   0.988   0.025  0.00  0.00    -0.204 OA
ATOM      2  C2  BZF d   1       0.597   0.790  -1.210  0.00  0.00     0.174 A 
ATOM      3  C3  BZF d   1      -0.385  -0.132  -1.130  0.00  0.00    -0.012 A 
ATOM      4  C3A BZF d   1      -0.474  -0.466   0.259  0.00  0.00    -0.107 A 
ATOM      5  C4  BZF d   1      -1.275  -1.314   0.970  0.00  0.00     0.055 A 
ATOM      6  C5  BZF d   1      -1.057  -1.464   2.303  0.00  0.00    -0.016 A 
ATOM      7  C6  BZF d   1      -0.047  -0.787   2.955  0.00  0.00     0.022 A 
ATOM      8  C7  BZF d   1       0.769   0.068   2.292  0.00  0.00     0.029 A 
ATOM      9  C7A BZF d   1       0.531   0.247   0.951  0.00  0.00     0.058 A 
ENDROOT
TORSDOF 0
ENDMDL
