MODEL 1
REMARK minimizedAffinity -3.71461368
REMARK minimizedRMSD -1
REMARK  0 active torsions:
REMARK  status: ('A' for Active; 'I' for Inactive)
ROOT
ATOM      1  O1  BZF d   1      -1.958   0.221   2.059  0.00  0.00    -0.204 OA
ATOM      2  C2  BZF d   1      -1.324   0.214   3.286  0.00  0.00     0.174 A 
ATOM      3  C3  BZF d   1       0.000   0.002   3.140  0.00  0.00    -0.012 A 
ATOM      4  C3A BZF d   1       0.220  -0.040   1.726  0.00  0.00    -0.107 A 
ATOM      5  C4  BZF d   1       1.334  -0.206   0.954  0.00  0.00     0.055 A 
ATOM      6  C5  BZF d   1       1.198  -0.271  -0.396  0.00  0.00    -0.016 A 
ATOM      7  C6  BZF d   1      -0.035  -0.179  -1.007  0.00  0.00     0.022 A 
ATOM      8  C7  BZF d   1      -1.168  -0.008  -0.283  0.00  0.00     0.029 A 
ATOM      9  C7A BZF d   1      -1.031   0.091   1.080  0.00  0.00     0.058 A 
ENDROOT
TORSDOF 0
ENDMDL
