MODEL 1
REMARK minimizedAffinity -4.23056841
REMARK minimizedRMSD -1
REMARK  0 active torsions:
REMARK  status: ('A' for Active; 'I' for Inactive)
ROOT
ATOM      1  O1  BZF d   1      -0.694  -1.095  -0.801  0.00  0.00    -0.204 OA
ATOM      2  C2  BZF d   1       0.009  -0.224  -1.612  0.00  0.00     0.174 A 
ATOM      3  C3  BZF d   1       0.583   0.752  -0.880  0.00  0.00    -0.012 A 
ATOM      4  C3A BZF d   1       0.294   0.423   0.481  0.00  0.00    -0.107 A 
ATOM      5  C4  BZF d   1       0.609   1.005   1.676  0.00  0.00     0.055 A 
ATOM      6  C5  BZF d   1       0.109   0.473   2.822  0.00  0.00    -0.016 A 
ATOM      7  C6  BZF d   1      -0.711  -0.637   2.811  0.00  0.00     0.022 A 
ATOM      8  C7  BZF d   1      -1.047  -1.252   1.651  0.00  0.00     0.029 A 
ATOM      9  C7A BZF d   1      -0.517  -0.736   0.493  0.00  0.00     0.058 A 
ENDROOT
TORSDOF 0
ENDMDL
