MODEL 1
REMARK minimizedAffinity -5.00152922
REMARK minimizedRMSD -1
REMARK  0 active torsions:
REMARK  status: ('A' for Active; 'I' for Inactive)
ROOT
ATOM      1  O1  BZF d   1       0.047   0.452   0.833  0.00  0.00    -0.204 OA
ATOM      2  C2  BZF d   1       0.018  -0.721   1.562  0.00  0.00     0.174 A 
ATOM      3  C3  BZF d   1       0.296  -1.780   0.775  0.00  0.00    -0.012 A 
ATOM      4  C3A BZF d   1       0.603  -1.225  -0.508  0.00  0.00    -0.107 A 
ATOM      5  C4  BZF d   1       0.973  -1.773  -1.703  0.00  0.00     0.055 A 
ATOM      6  C5  BZF d   1       1.127  -0.960  -2.782  0.00  0.00    -0.016 A 
ATOM      7  C6  BZF d   1       0.914   0.400  -2.703  0.00  0.00     0.022 A 
ATOM      8  C7  BZF d   1       0.551   0.990  -1.537  0.00  0.00     0.029 A 
ATOM      9  C7A BZF d   1       0.427   0.176  -0.438  0.00  0.00     0.058 A 
ENDROOT
TORSDOF 0
ENDMDL
