MODEL 1
REMARK minimizedAffinity -2.49205709
REMARK minimizedRMSD -1
REMARK  0 active torsions:
REMARK  status: ('A' for Active; 'I' for Inactive)
ROOT
ATOM      1  O1  BZF d   1      -0.553  -1.485  -0.337  0.00  0.00    -0.204 OA
ATOM      2  C2  BZF d   1      -0.028  -1.148  -1.570  0.00  0.00     0.174 A 
ATOM      3  C3  BZF d   1       0.827  -0.111  -1.459  0.00  0.00    -0.012 A 
ATOM      4  C3A BZF d   1       0.908   0.162  -0.056  0.00  0.00    -0.107 A 
ATOM      5  C4  BZF d   1       1.608   1.070   0.685  0.00  0.00     0.055 A 
ATOM      6  C5  BZF d   1       1.407   1.122   2.028  0.00  0.00    -0.016 A 
ATOM      7  C6  BZF d   1       0.511   0.285   2.661  0.00  0.00     0.022 A 
ATOM      8  C7  BZF d   1      -0.203  -0.635   1.968  0.00  0.00     0.029 A 
ATOM      9  C7A BZF d   1       0.022  -0.712   0.616  0.00  0.00     0.058 A 
ENDROOT
TORSDOF 0
ENDMDL
