MODEL 1
REMARK minimizedAffinity -3.4388907
REMARK minimizedRMSD -1
REMARK  0 active torsions:
REMARK  status: ('A' for Active; 'I' for Inactive)
ROOT
ATOM      1  O1  BZF d   1       1.493   0.359   0.983  0.00  0.00    -0.204 OA
ATOM      2  C2  BZF d   1       1.029   0.071   2.252  0.00  0.00     0.174 A 
ATOM      3  C3  BZF d   1      -0.318   0.004   2.264  0.00  0.00    -0.012 A 
ATOM      4  C3A BZF d   1      -0.716   0.174   0.900  0.00  0.00    -0.107 A 
ATOM      5  C4  BZF d   1      -1.928   0.187   0.271  0.00  0.00     0.055 A 
ATOM      6  C5  BZF d   1      -1.977   0.450  -1.062  0.00  0.00    -0.016 A 
ATOM      7  C6  BZF d   1      -0.836   0.709  -1.793  0.00  0.00     0.022 A 
ATOM      8  C7  BZF d   1       0.389   0.702  -1.213  0.00  0.00     0.029 A 
ATOM      9  C7A BZF d   1       0.445   0.404   0.126  0.00  0.00     0.058 A 
ENDROOT
TORSDOF 0
ENDMDL
