MODEL 1
REMARK minimizedAffinity -3.52748752
REMARK minimizedRMSD -1
REMARK  0 active torsions:
REMARK  status: ('A' for Active; 'I' for Inactive)
ROOT
ATOM      1  O1  BZF d   1       0.357  -0.547  -3.214  0.00  0.00    -0.204 OA
ATOM      2  C2  BZF d   1       0.581  -1.875  -3.518  0.00  0.00     0.174 A 
ATOM      3  C3  BZF d   1       0.740  -2.604  -2.394  0.00  0.00    -0.012 A 
ATOM      4  C3A BZF d   1       0.515  -1.688  -1.318  0.00  0.00    -0.107 A 
ATOM      5  C4  BZF d   1       0.516  -1.819   0.042  0.00  0.00     0.055 A 
ATOM      6  C5  BZF d   1       0.332  -0.714   0.811  0.00  0.00    -0.016 A 
ATOM      7  C6  BZF d   1       0.149   0.536   0.256  0.00  0.00     0.022 A 
ATOM      8  C7  BZF d   1       0.135   0.714  -1.087  0.00  0.00     0.029 A 
ATOM      9  C7A BZF d   1       0.288  -0.405  -1.868  0.00  0.00     0.058 A 
ENDROOT
TORSDOF 0
ENDMDL
