MODEL 1
REMARK minimizedAffinity -5.18605328
REMARK minimizedRMSD -1
REMARK  0 active torsions:
REMARK  status: ('A' for Active; 'I' for Inactive)
ROOT
ATOM      1  O1  BZF d   1      -2.518   0.803   0.604  0.00  0.00    -0.204 OA
ATOM      2  C2  BZF d   1      -3.137   0.756   1.838  0.00  0.00     0.174 A 
ATOM      3  C3  BZF d   1      -2.267   0.374   2.795  0.00  0.00    -0.012 A 
ATOM      4  C3A BZF d   1      -1.005   0.258   2.132  0.00  0.00    -0.107 A 
ATOM      5  C4  BZF d   1       0.251  -0.073   2.555  0.00  0.00     0.055 A 
ATOM      6  C5  BZF d   1       1.253  -0.165   1.642  0.00  0.00    -0.016 A 
ATOM      7  C6  BZF d   1       1.034   0.062   0.299  0.00  0.00     0.022 A 
ATOM      8  C7  BZF d   1      -0.194   0.398  -0.168  0.00  0.00     0.029 A 
ATOM      9  C7A BZF d   1      -1.201   0.524   0.757  0.00  0.00     0.058 A 
ENDROOT
TORSDOF 0
ENDMDL
