MODEL 1
REMARK minimizedAffinity -1.51169145
REMARK minimizedRMSD -1
REMARK  0 active torsions:
REMARK  status: ('A' for Active; 'I' for Inactive)
ROOT
ATOM      1  O1  BZF d   1       0.251  -1.033  -1.049  0.00  0.00    -0.204 OA
ATOM      2  C2  BZF d   1       0.289   0.133  -1.790  0.00  0.00     0.174 A 
ATOM      3  C3  BZF d   1       0.272   1.213  -0.983  0.00  0.00    -0.012 A 
ATOM      4  C3A BZF d   1       0.313   0.690   0.348  0.00  0.00    -0.107 A 
ATOM      5  C4  BZF d   1       0.334   1.269   1.585  0.00  0.00     0.055 A 
ATOM      6  C5  BZF d   1       0.299   0.475   2.687  0.00  0.00    -0.016 A 
ATOM      7  C6  BZF d   1       0.238  -0.900   2.589  0.00  0.00     0.022 A 
ATOM      8  C7  BZF d   1       0.221  -1.520   1.384  0.00  0.00     0.029 A 
ATOM      9  C7A BZF d   1       0.289  -0.722   0.269  0.00  0.00     0.058 A 
ENDROOT
TORSDOF 0
ENDMDL
