MODEL 1
REMARK minimizedAffinity -2.70669198
REMARK minimizedRMSD -1
REMARK  0 active torsions:
REMARK  status: ('A' for Active; 'I' for Inactive)
ROOT
ATOM      1  O1  BZF d   1       1.310   0.183  -3.604  0.00  0.00    -0.204 OA
ATOM      2  C2  BZF d   1       1.366  -1.036  -4.252  0.00  0.00     0.174 A 
ATOM      3  C3  BZF d   1       1.102  -2.044  -3.396  0.00  0.00    -0.012 A 
ATOM      4  C3A BZF d   1       0.775  -1.410  -2.156  0.00  0.00    -0.107 A 
ATOM      5  C4  BZF d   1       0.407  -1.882  -0.929  0.00  0.00     0.055 A 
ATOM      6  C5  BZF d   1       0.231  -1.002   0.092  0.00  0.00    -0.016 A 
ATOM      7  C6  BZF d   1       0.419   0.354  -0.078  0.00  0.00     0.022 A 
ATOM      8  C7  BZF d   1       0.780   0.870  -1.278  0.00  0.00     0.029 A 
ATOM      9  C7A BZF d   1       0.926  -0.014  -2.320  0.00  0.00     0.058 A 
ENDROOT
TORSDOF 0
ENDMDL
