MODEL 1
REMARK minimizedAffinity -2.93635941
REMARK minimizedRMSD -1
REMARK  0 active torsions:
REMARK  status: ('A' for Active; 'I' for Inactive)
ROOT
ATOM      1  O1  BZF d   1      -2.167   0.377  -0.334  0.00  0.00    -0.204 OA
ATOM      2  C2  BZF d   1      -1.386   0.499  -1.467  0.00  0.00     0.174 A 
ATOM      3  C3  BZF d   1      -0.076   0.483  -1.148  0.00  0.00    -0.012 A 
ATOM      4  C3A BZF d   1      -0.034   0.250   0.263  0.00  0.00    -0.107 A 
ATOM      5  C4  BZF d   1       0.984   0.114   1.162  0.00  0.00     0.055 A 
ATOM      6  C5  BZF d   1       0.686  -0.033   2.480  0.00  0.00    -0.016 A 
ATOM      7  C6  BZF d   1      -0.617  -0.044   2.933  0.00  0.00     0.022 A 
ATOM      8  C7  BZF d   1      -1.661   0.083   2.078  0.00  0.00     0.029 A 
ATOM      9  C7A BZF d   1      -1.364   0.198   0.742  0.00  0.00     0.058 A 
ENDROOT
TORSDOF 0
ENDMDL
