MODEL 1
REMARK minimizedAffinity -0.619430482
REMARK minimizedRMSD -1
REMARK  3 active torsions:
REMARK  status: ('A' for Active; 'I' for Inactive)
REMARK    1  A    between atoms: C3'_2  and  C2'_3 
REMARK    2  A    between atoms: C2'_3  and  C1'_4 
REMARK    3  A    between atoms: C1'_4  and  C1_5 
ROOT
ATOM      1  C1  N4B d   1      -0.747  -3.764  -0.765  0.00  0.00    -0.075 A 
ATOM      2  C2  N4B d   1      -2.037  -3.316  -1.124  0.00  0.00     0.002 A 
ATOM      3  C3  N4B d   1      -2.999  -4.222  -1.500  0.00  0.00     0.002 A 
ATOM      4  C4  N4B d   1      -2.689  -5.573  -1.542  0.00  0.00    -0.004 A 
ATOM      5  C5  N4B d   1      -1.448  -6.000  -1.170  0.00  0.00     0.002 A 
ATOM      6  C6  N4B d   1      -0.473  -5.101  -0.786  0.00  0.00     0.002 A 
ENDROOT
BRANCH   1   7
ATOM      7  C1' N4B d   1       0.362  -2.805  -0.430  0.00  0.00     0.057 C 
BRANCH   7   8
ATOM      8  C2' N4B d   1      -0.212  -1.632   0.359  0.00  0.00     0.009 C 
BRANCH   8   9
ATOM      9  C3' N4B d   1       0.732  -0.442   0.375  0.00  0.00     0.004 C 
ATOM     10  C4' N4B d   1       2.129  -0.803  -0.035  0.00  0.00     0.003 C 
ENDBRANCH   8   9
ENDBRANCH   7   8
ENDBRANCH   1   7
TORSDOF 3
ENDMDL
