MODEL 1
REMARK minimizedAffinity -1.5563283
REMARK minimizedRMSD -1
REMARK  3 active torsions:
REMARK  status: ('A' for Active; 'I' for Inactive)
REMARK    1  A    between atoms: C3'_2  and  C2'_3 
REMARK    2  A    between atoms: C2'_3  and  C1'_4 
REMARK    3  A    between atoms: C1'_4  and  C1_5 
ROOT
ATOM      1  C1  N4B d   1       1.229  -1.762   0.159  0.00  0.00    -0.075 A 
ATOM      2  C2  N4B d   1       0.240  -2.765   0.068  0.00  0.00     0.002 A 
ATOM      3  C3  N4B d   1       0.594  -4.052  -0.256  0.00  0.00     0.002 A 
ATOM      4  C4  N4B d   1       1.924  -4.354  -0.510  0.00  0.00    -0.004 A 
ATOM      5  C5  N4B d   1       2.877  -3.385  -0.395  0.00  0.00     0.002 A 
ATOM      6  C6  N4B d   1       2.536  -2.088  -0.066  0.00  0.00     0.002 A 
ENDROOT
BRANCH   1   7
ATOM      7  C1' N4B d   1       0.880  -0.323   0.425  0.00  0.00     0.057 C 
BRANCH   7   8
ATOM      8  C2' N4B d   1       2.144   0.525   0.330  0.00  0.00     0.009 C 
BRANCH   8   9
ATOM      9  C3' N4B d   1       2.280   1.476   1.507  0.00  0.00     0.004 C 
ATOM     10  C4' N4B d   1       3.703   1.864   1.779  0.00  0.00     0.003 C 
ENDBRANCH   8   9
ENDBRANCH   7   8
ENDBRANCH   1   7
TORSDOF 3
ENDMDL
