MODEL 1
REMARK minimizedAffinity 12.3061361
REMARK minimizedRMSD -1
REMARK  3 active torsions:
REMARK  status: ('A' for Active; 'I' for Inactive)
REMARK    1  A    between atoms: C3'_2  and  C2'_3 
REMARK    2  A    between atoms: C2'_3  and  C1'_4 
REMARK    3  A    between atoms: C1'_4  and  C1_5 
ROOT
ATOM      1  C1  N4B d   1       2.457   2.108   1.393  0.00  0.00    -0.075 A 
ATOM      2  C2  N4B d   1       1.976   3.414   1.629  0.00  0.00     0.002 A 
ATOM      3  C3  N4B d   1       2.728   4.302   2.359  0.00  0.00     0.002 A 
ATOM      4  C4  N4B d   1       3.951   3.901   2.876  0.00  0.00    -0.004 A 
ATOM      5  C5  N4B d   1       4.420   2.646   2.622  0.00  0.00     0.002 A 
ATOM      6  C6  N4B d   1       3.677   1.744   1.887  0.00  0.00     0.002 A 
ENDROOT
BRANCH   1   7
ATOM      7  C1' N4B d   1       1.632   1.076   0.674  0.00  0.00     0.057 C 
BRANCH   7   8
ATOM      8  C2' N4B d   1       2.561   0.136  -0.090  0.00  0.00     0.009 C 
BRANCH   8   9
ATOM      9  C3' N4B d   1       2.322  -1.319   0.276  0.00  0.00     0.004 C 
ATOM     10  C4' N4B d   1       3.234  -2.258  -0.456  0.00  0.00     0.003 C 
ENDBRANCH   8   9
ENDBRANCH   7   8
ENDBRANCH   1   7
TORSDOF 3
ENDMDL
