MODEL 1
REMARK minimizedAffinity 10.7552176
REMARK minimizedRMSD -1
REMARK  3 active torsions:
REMARK  status: ('A' for Active; 'I' for Inactive)
REMARK    1  A    between atoms: C3'_2  and  C2'_3 
REMARK    2  A    between atoms: C2'_3  and  C1'_4 
REMARK    3  A    between atoms: C1'_4  and  C1_5 
ROOT
ATOM      1  C1  N4B d   1       2.213   1.903   1.722  0.00  0.00    -0.075 A 
ATOM      2  C2  N4B d   1       3.622   1.807   1.733  0.00  0.00     0.002 A 
ATOM      3  C3  N4B d   1       4.366   2.703   2.462  0.00  0.00     0.002 A 
ATOM      4  C4  N4B d   1       3.726   3.710   3.168  0.00  0.00    -0.004 A 
ATOM      5  C5  N4B d   1       2.364   3.781   3.173  0.00  0.00     0.002 A 
ATOM      6  C6  N4B d   1       1.604   2.884   2.448  0.00  0.00     0.002 A 
ENDROOT
BRANCH   1   7
ATOM      7  C1' N4B d   1       1.363   0.999   0.872  0.00  0.00     0.057 C 
BRANCH   7   8
ATOM      8  C2' N4B d   1       2.246  -0.074   0.243  0.00  0.00     0.009 C 
BRANCH   8   9
ATOM      9  C3' N4B d   1       2.583   0.243  -1.204  0.00  0.00     0.004 C 
ATOM     10  C4' N4B d   1       3.288  -0.884  -1.897  0.00  0.00     0.003 C 
ENDBRANCH   8   9
ENDBRANCH   7   8
ENDBRANCH   1   7
TORSDOF 3
ENDMDL
