MODEL 1
REMARK minimizedAffinity 6.2591176
REMARK minimizedRMSD -1
REMARK  3 active torsions:
REMARK  status: ('A' for Active; 'I' for Inactive)
REMARK    1  A    between atoms: C3'_2  and  C2'_3 
REMARK    2  A    between atoms: C2'_3  and  C1'_4 
REMARK    3  A    between atoms: C1'_4  and  C1_5 
ROOT
ATOM      1  C1  N4B d   1       3.649   3.859   2.308  0.00  0.00    -0.075 A 
ATOM      2  C2  N4B d   1       4.559   2.792   2.142  0.00  0.00     0.002 A 
ATOM      3  C3  N4B d   1       4.093   1.523   1.902  0.00  0.00     0.002 A 
ATOM      4  C4  N4B d   1       2.727   1.294   1.842  0.00  0.00    -0.004 A 
ATOM      5  C5  N4B d   1       1.855   2.334   1.978  0.00  0.00     0.002 A 
ATOM      6  C6  N4B d   1       2.309   3.616   2.216  0.00  0.00     0.002 A 
ENDROOT
BRANCH   1   7
ATOM      7  C1' N4B d   1       4.108   5.248   2.657  0.00  0.00     0.057 C 
BRANCH   7   8
ATOM      8  C2' N4B d   1       5.182   5.164   3.738  0.00  0.00     0.009 C 
BRANCH   8   9
ATOM      9  C3' N4B d   1       4.829   6.000   4.956  0.00  0.00     0.004 C 
ATOM     10  C4' N4B d   1       5.906   5.988   6.000  0.00  0.00     0.003 C 
ENDBRANCH   8   9
ENDBRANCH   7   8
ENDBRANCH   1   7
TORSDOF 3
ENDMDL
