MODEL 1
REMARK minimizedAffinity 9.85970306
REMARK minimizedRMSD -1
REMARK  3 active torsions:
REMARK  status: ('A' for Active; 'I' for Inactive)
REMARK    1  A    between atoms: C3'_2  and  C2'_3 
REMARK    2  A    between atoms: C2'_3  and  C1'_4 
REMARK    3  A    between atoms: C1'_4  and  C1_5 
ROOT
ATOM      1  C1  N4B d   1       4.203   3.303   3.044  0.00  0.00    -0.075 A 
ATOM      2  C2  N4B d   1       2.862   2.899   3.228  0.00  0.00     0.002 A 
ATOM      3  C3  N4B d   1       1.900   3.279   2.325  0.00  0.00     0.002 A 
ATOM      4  C4  N4B d   1       2.250   4.076   1.245  0.00  0.00    -0.004 A 
ATOM      5  C5  N4B d   1       3.551   4.441   1.061  0.00  0.00     0.002 A 
ATOM      6  C6  N4B d   1       4.529   4.063   1.958  0.00  0.00     0.002 A 
ENDROOT
BRANCH   1   7
ATOM      7  C1' N4B d   1       5.274   2.984   4.050  0.00  0.00     0.057 C 
BRANCH   7   8
ATOM      8  C2' N4B d   1       5.969   4.276   4.469  0.00  0.00     0.009 C 
BRANCH   8   9
ATOM      9  C3' N4B d   1       5.636   4.663   5.900  0.00  0.00     0.004 C 
ATOM     10  C4' N4B d   1       4.964   6.000   5.999  0.00  0.00     0.003 C 
ENDBRANCH   8   9
ENDBRANCH   7   8
ENDBRANCH   1   7
TORSDOF 3
ENDMDL
