MODEL 1
REMARK minimizedAffinity 7.708498
REMARK minimizedRMSD -1
REMARK  3 active torsions:
REMARK  status: ('A' for Active; 'I' for Inactive)
REMARK    1  A    between atoms: C3'_2  and  C2'_3 
REMARK    2  A    between atoms: C2'_3  and  C1'_4 
REMARK    3  A    between atoms: C1'_4  and  C1_5 
ROOT
ATOM      1  C1  N4B d   1      -4.087   1.122   0.012  0.00  0.00    -0.075 A 
ATOM      2  C2  N4B d   1      -5.024   0.889  -1.018  0.00  0.00     0.002 A 
ATOM      3  C3  N4B d   1      -5.964   1.844  -1.320  0.00  0.00     0.002 A 
ATOM      4  C4  N4B d   1      -5.999   3.025  -0.595  0.00  0.00    -0.004 A 
ATOM      5  C5  N4B d   1      -5.074   3.253   0.382  0.00  0.00     0.002 A 
ATOM      6  C6  N4B d   1      -4.120   2.305   0.693  0.00  0.00     0.002 A 
ENDROOT
BRANCH   1   7
ATOM      7  C1' N4B d   1      -3.094   0.074   0.435  0.00  0.00     0.057 C 
BRANCH   7   8
ATOM      8  C2' N4B d   1      -3.104  -0.040   1.956  0.00  0.00     0.009 C 
BRANCH   8   9
ATOM      9  C3' N4B d   1      -3.153  -1.486   2.418  0.00  0.00     0.004 C 
ATOM     10  C4' N4B d   1      -4.394  -1.805   3.197  0.00  0.00     0.003 C 
ENDBRANCH   8   9
ENDBRANCH   7   8
ENDBRANCH   1   7
TORSDOF 3
ENDMDL
