MODEL 1
REMARK minimizedAffinity 3.20674682
REMARK minimizedRMSD -1
REMARK  3 active torsions:
REMARK  status: ('A' for Active; 'I' for Inactive)
REMARK    1  A    between atoms: C3'_2  and  C2'_3 
REMARK    2  A    between atoms: C2'_3  and  C1'_4 
REMARK    3  A    between atoms: C1'_4  and  C1_5 
ROOT
ATOM      1  C1  N4B d   1       0.791  -3.872   0.059  0.00  0.00    -0.075 A 
ATOM      2  C2  N4B d   1      -0.451  -3.250  -0.191  0.00  0.00     0.002 A 
ATOM      3  C3  N4B d   1      -1.390  -3.878  -0.971  0.00  0.00     0.002 A 
ATOM      4  C4  N4B d   1      -1.102  -5.116  -1.527  0.00  0.00    -0.004 A 
ATOM      5  C5  N4B d   1       0.091  -5.722  -1.260  0.00  0.00     0.002 A 
ATOM      6  C6  N4B d   1       1.042  -5.104  -0.474  0.00  0.00     0.002 A 
ENDROOT
BRANCH   1   7
ATOM      7  C1' N4B d   1       1.882  -3.186   0.836  0.00  0.00     0.057 C 
BRANCH   7   8
ATOM      8  C2' N4B d   1       2.265  -1.892   0.124  0.00  0.00     0.009 C 
BRANCH   8   9
ATOM      9  C3' N4B d   1       1.512  -0.694   0.677  0.00  0.00     0.004 C 
ATOM     10  C4' N4B d   1       2.361   0.540   0.755  0.00  0.00     0.003 C 
ENDBRANCH   8   9
ENDBRANCH   7   8
ENDBRANCH   1   7
TORSDOF 3
ENDMDL
