MODEL 1
REMARK minimizedAffinity 7.17055082
REMARK minimizedRMSD -1
REMARK  3 active torsions:
REMARK  status: ('A' for Active; 'I' for Inactive)
REMARK    1  A    between atoms: C3'_2  and  C2'_3 
REMARK    2  A    between atoms: C2'_3  and  C1'_4 
REMARK    3  A    between atoms: C1'_4  and  C1_5 
ROOT
ATOM      1  C1  N4B d   1       3.267   2.422   2.122  0.00  0.00    -0.075 A 
ATOM      2  C2  N4B d   1       4.634   2.070   2.097  0.00  0.00     0.002 A 
ATOM      3  C3  N4B d   1       5.596   3.048   2.172  0.00  0.00     0.002 A 
ATOM      4  C4  N4B d   1       5.217   4.379   2.252  0.00  0.00    -0.004 A 
ATOM      5  C5  N4B d   1       3.894   4.709   2.302  0.00  0.00     0.002 A 
ATOM      6  C6  N4B d   1       2.916   3.737   2.232  0.00  0.00     0.002 A 
ENDROOT
BRANCH   1   7
ATOM      7  C1' N4B d   1       2.180   1.396   1.957  0.00  0.00     0.057 C 
BRANCH   7   8
ATOM      8  C2' N4B d   1       2.375   0.670   0.629  0.00  0.00     0.009 C 
BRANCH   8   9
ATOM      9  C3' N4B d   1       1.511  -0.576   0.532  0.00  0.00     0.004 C 
ATOM     10  C4' N4B d   1       2.313  -1.822   0.301  0.00  0.00     0.003 C 
ENDBRANCH   8   9
ENDBRANCH   7   8
ENDBRANCH   1   7
TORSDOF 3
ENDMDL
