MODEL 1
REMARK minimizedAffinity 6.59643173
REMARK minimizedRMSD -1
REMARK  3 active torsions:
REMARK  status: ('A' for Active; 'I' for Inactive)
REMARK    1  A    between atoms: C3'_2  and  C2'_3 
REMARK    2  A    between atoms: C2'_3  and  C1'_4 
REMARK    3  A    between atoms: C1'_4  and  C1_5 
ROOT
ATOM      1  C1  N4B d   1       2.307   2.912   3.023  0.00  0.00    -0.075 A 
ATOM      2  C2  N4B d   1       1.467   2.630   4.123  0.00  0.00     0.002 A 
ATOM      3  C3  N4B d   1       0.892   3.658   4.830  0.00  0.00     0.002 A 
ATOM      4  C4  N4B d   1       1.156   4.970   4.469  0.00  0.00    -0.004 A 
ATOM      5  C5  N4B d   1       1.948   5.234   3.389  0.00  0.00     0.002 A 
ATOM      6  C6  N4B d   1       2.529   4.211   2.667  0.00  0.00     0.002 A 
ENDROOT
BRANCH   1   7
ATOM      7  C1' N4B d   1       3.026   1.825   2.273  0.00  0.00     0.057 C 
BRANCH   7   8
ATOM      8  C2' N4B d   1       2.513   1.784   0.837  0.00  0.00     0.009 C 
BRANCH   8   9
ATOM      9  C3' N4B d   1       1.794   0.482   0.527  0.00  0.00     0.004 C 
ATOM     10  C4' N4B d   1       0.345   0.683   0.199  0.00  0.00     0.003 C 
ENDBRANCH   8   9
ENDBRANCH   7   8
ENDBRANCH   1   7
TORSDOF 3
ENDMDL
