MODEL 1
REMARK minimizedAffinity -5.54555416
REMARK minimizedRMSD -1
REMARK  3 active torsions:
REMARK  status: ('A' for Active; 'I' for Inactive)
REMARK    1  A    between atoms: C3'_2  and  C2'_3 
REMARK    2  A    between atoms: C2'_3  and  C1'_4 
REMARK    3  A    between atoms: C1'_4  and  C1_5 
ROOT
ATOM      1  C1  N4B d   1      -1.068   0.916   0.083  0.00  0.00    -0.075 A 
ATOM      2  C2  N4B d   1      -0.924  -0.489   0.095  0.00  0.00     0.002 A 
ATOM      3  C3  N4B d   1      -0.589  -1.154  -1.059  0.00  0.00     0.002 A 
ATOM      4  C4  N4B d   1      -0.412  -0.441  -2.235  0.00  0.00    -0.004 A 
ATOM      5  C5  N4B d   1      -0.527   0.918  -2.232  0.00  0.00     0.002 A 
ATOM      6  C6  N4B d   1      -0.860   1.600  -1.079  0.00  0.00     0.002 A 
ENDROOT
BRANCH   1   7
ATOM      7  C1' N4B d   1      -1.517   1.679   1.300  0.00  0.00     0.057 C 
BRANCH   7   8
ATOM      8  C2' N4B d   1      -0.436   2.682   1.689  0.00  0.00     0.009 C 
BRANCH   8   9
ATOM      9  C3' N4B d   1       0.752   2.008   2.354  0.00  0.00     0.004 C 
ATOM     10  C4' N4B d   1       1.874   2.961   2.641  0.00  0.00     0.003 C 
ENDBRANCH   8   9
ENDBRANCH   7   8
ENDBRANCH   1   7
TORSDOF 3
ENDMDL
