MODEL 1
REMARK minimizedAffinity -1.58299589
REMARK minimizedRMSD -1
REMARK  3 active torsions:
REMARK  status: ('A' for Active; 'I' for Inactive)
REMARK    1  A    between atoms: C3'_2  and  C2'_3 
REMARK    2  A    between atoms: C2'_3  and  C1'_4 
REMARK    3  A    between atoms: C1'_4  and  C1_5 
ROOT
ATOM      1  C1  N4B d   1       0.372   0.353   0.418  0.00  0.00    -0.075 A 
ATOM      2  C2  N4B d   1       0.760   1.696   0.619  0.00  0.00     0.002 A 
ATOM      3  C3  N4B d   1       0.955   2.171   1.892  0.00  0.00     0.002 A 
ATOM      4  C4  N4B d   1       0.751   1.331   2.976  0.00  0.00    -0.004 A 
ATOM      5  C5  N4B d   1       0.402   0.028   2.773  0.00  0.00     0.002 A 
ATOM      6  C6  N4B d   1       0.206  -0.464   1.498  0.00  0.00     0.002 A 
ENDROOT
BRANCH   1   7
ATOM      7  C1' N4B d   1       0.064  -0.188  -0.952  0.00  0.00     0.057 C 
BRANCH   7   8
ATOM      8  C2' N4B d   1      -0.919  -1.348  -0.822  0.00  0.00     0.009 C 
BRANCH   8   9
ATOM      9  C3' N4B d   1      -0.584  -2.486  -1.771  0.00  0.00     0.004 C 
ATOM     10  C4' N4B d   1      -0.926  -3.832  -1.207  0.00  0.00     0.003 C 
ENDBRANCH   8   9
ENDBRANCH   7   8
ENDBRANCH   1   7
TORSDOF 3
ENDMDL
