MODEL 1
REMARK minimizedAffinity -2.9090693
REMARK minimizedRMSD -1
REMARK  3 active torsions:
REMARK  status: ('A' for Active; 'I' for Inactive)
REMARK    1  A    between atoms: C3'_2  and  C2'_3 
REMARK    2  A    between atoms: C2'_3  and  C1'_4 
REMARK    3  A    between atoms: C1'_4  and  C1_5 
ROOT
ATOM      1  C1  N4B d   1       0.485   1.254   0.530  0.00  0.00    -0.075 A 
ATOM      2  C2  N4B d   1       0.180   2.415  -0.216  0.00  0.00     0.002 A 
ATOM      3  C3  N4B d   1       0.087   2.347  -1.584  0.00  0.00     0.002 A 
ATOM      4  C4  N4B d   1       0.311   1.139  -2.228  0.00  0.00    -0.004 A 
ATOM      5  C5  N4B d   1       0.580   0.018  -1.499  0.00  0.00     0.002 A 
ATOM      6  C6  N4B d   1       0.674   0.070  -0.123  0.00  0.00     0.002 A 
ENDROOT
BRANCH   1   7
ATOM      7  C1' N4B d   1       0.683   1.297   2.020  0.00  0.00     0.057 C 
BRANCH   7   8
ATOM      8  C2' N4B d   1       1.870   0.414   2.394  0.00  0.00     0.009 C 
BRANCH   8   9
ATOM      9  C3' N4B d   1       1.752  -0.128   3.808  0.00  0.00     0.004 C 
ATOM     10  C4' N4B d   1       2.877  -1.050   4.172  0.00  0.00     0.003 C 
ENDBRANCH   8   9
ENDBRANCH   7   8
ENDBRANCH   1   7
TORSDOF 3
ENDMDL
