MODEL 1
REMARK minimizedAffinity -1.20983911
REMARK minimizedRMSD -1
REMARK  0 active torsions:
REMARK  status: ('A' for Active; 'I' for Inactive)
ROOT
ATOM      1  C   UNL d   1      -1.226  -2.655   0.373  0.00  0.00    -0.002 A 
ATOM      2  C1  UNL d   1      -0.991  -1.978   1.562  0.00  0.00     0.010 A 
ATOM      3  C2  UNL d   1      -0.360  -0.733   1.557  0.00  0.00     0.041 A 
ATOM      4  C3  UNL d   1       0.033  -0.172   0.326  0.00  0.00    -0.075 A 
ATOM      5  S   UNL d   1       0.820   1.341   0.077  0.00  0.00     0.015 SA
ATOM      6  C4  UNL d   1       0.862   1.126  -1.613  0.00  0.00     0.022 A 
ATOM      7  C5  UNL d   1       0.294  -0.066  -1.996  0.00  0.00     0.026 A 
ATOM      8  C6  UNL d   1      -0.194  -0.834  -0.884  0.00  0.00    -0.082 A 
ATOM      9  C7  UNL d   1      -0.835  -2.096  -0.846  0.00  0.00     0.045 A 
ENDROOT
TORSDOF 0
ENDMDL
