MODEL 1
REMARK minimizedAffinity 10.3421545
REMARK minimizedRMSD -1
REMARK  0 active torsions:
REMARK  status: ('A' for Active; 'I' for Inactive)
ROOT
ATOM      1  C   UNL d   1      -1.895  -2.068   1.545  0.00  0.00    -0.002 A 
ATOM      2  C1  UNL d   1      -2.300  -0.811   1.972  0.00  0.00     0.010 A 
ATOM      3  C2  UNL d   1      -1.760   0.342   1.399  0.00  0.00     0.041 A 
ATOM      4  C3  UNL d   1      -0.799   0.210   0.378  0.00  0.00    -0.075 A 
ATOM      5  S   UNL d   1      -0.002   1.482  -0.470  0.00  0.00     0.015 SA
ATOM      6  C4  UNL d   1       0.894   0.387  -1.421  0.00  0.00     0.022 A 
ATOM      7  C5  UNL d   1       0.605  -0.921  -1.112  0.00  0.00     0.026 A 
ATOM      8  C6  UNL d   1      -0.376  -1.045  -0.071  0.00  0.00    -0.082 A 
ATOM      9  C7  UNL d   1      -0.941  -2.195   0.531  0.00  0.00     0.045 A 
ENDROOT
TORSDOF 0
ENDMDL
