MODEL 1
REMARK minimizedAffinity 0.874358535
REMARK minimizedRMSD -1
REMARK  0 active torsions:
REMARK  status: ('A' for Active; 'I' for Inactive)
ROOT
ATOM      1  C   UNL d   1      -2.268  -0.054   1.376  0.00  0.00    -0.002 A 
ATOM      2  C1  UNL d   1      -1.171   0.116   2.208  0.00  0.00     0.010 A 
ATOM      3  C2  UNL d   1       0.106   0.299   1.673  0.00  0.00     0.041 A 
ATOM      4  C3  UNL d   1       0.263   0.310   0.273  0.00  0.00    -0.075 A 
ATOM      5  S   UNL d   1       1.731   0.518  -0.607  0.00  0.00     0.015 SA
ATOM      6  C4  UNL d   1       0.936   0.387  -2.109  0.00  0.00     0.022 A 
ATOM      7  C5  UNL d   1      -0.417   0.189  -1.961  0.00  0.00     0.026 A 
ATOM      8  C6  UNL d   1      -0.827   0.142  -0.586  0.00  0.00    -0.082 A 
ATOM      9  C7  UNL d   1      -2.108  -0.042  -0.013  0.00  0.00     0.045 A 
ENDROOT
TORSDOF 0
ENDMDL
