MODEL 1
REMARK minimizedAffinity -3.27649903
REMARK minimizedRMSD -1
REMARK  0 active torsions:
REMARK  status: ('A' for Active; 'I' for Inactive)
ROOT
ATOM      1  C   UNL d   1      -1.282  -1.384   2.155  0.00  0.00    -0.002 A 
ATOM      2  C1  UNL d   1      -0.960  -2.123   1.025  0.00  0.00     0.010 A 
ATOM      3  C2  UNL d   1      -0.490  -1.490  -0.127  0.00  0.00     0.041 A 
ATOM      4  C3  UNL d   1      -0.346  -0.089  -0.125  0.00  0.00    -0.075 A 
ATOM      5  S   UNL d   1       0.212   0.901  -1.421  0.00  0.00     0.015 SA
ATOM      6  C4  UNL d   1       0.038   2.328  -0.506  0.00  0.00     0.022 A 
ATOM      7  C5  UNL d   1      -0.434   2.074   0.760  0.00  0.00     0.026 A 
ATOM      8  C6  UNL d   1      -0.663   0.677   1.001  0.00  0.00    -0.082 A 
ATOM      9  C7  UNL d   1      -1.138   0.006   2.154  0.00  0.00     0.045 A 
ENDROOT
TORSDOF 0
ENDMDL
