MODEL 1
REMARK minimizedAffinity 2.46613646
REMARK minimizedRMSD -1
REMARK  0 active torsions:
REMARK  status: ('A' for Active; 'I' for Inactive)
ROOT
ATOM      1  C   UNL d   1       1.449   0.128  -1.226  0.00  0.00    -0.002 A 
ATOM      2  C1  UNL d   1       0.063   0.190  -1.253  0.00  0.00     0.010 A 
ATOM      3  C2  UNL d   1      -0.618   1.184  -0.547  0.00  0.00     0.041 A 
ATOM      4  C3  UNL d   1       0.126   2.125   0.192  0.00  0.00    -0.075 A 
ATOM      5  S   UNL d   1      -0.492   3.431   1.132  0.00  0.00     0.015 SA
ATOM      6  C4  UNL d   1       1.069   3.938   1.592  0.00  0.00     0.022 A 
ATOM      7  C5  UNL d   1       2.050   3.141   1.050  0.00  0.00     0.026 A 
ATOM      8  C6  UNL d   1       1.522   2.084   0.234  0.00  0.00    -0.082 A 
ATOM      9  C7  UNL d   1       2.183   1.063  -0.491  0.00  0.00     0.045 A 
ENDROOT
TORSDOF 0
ENDMDL
