MODEL 1
REMARK minimizedAffinity 1.54961729
REMARK minimizedRMSD -1
REMARK  0 active torsions:
REMARK  status: ('A' for Active; 'I' for Inactive)
ROOT
ATOM      1  C   UNL d   1      -1.134  -0.203   0.743  0.00  0.00    -0.002 A 
ATOM      2  C1  UNL d   1       0.127  -0.751   0.550  0.00  0.00     0.010 A 
ATOM      3  C2  UNL d   1       1.244   0.073   0.403  0.00  0.00     0.041 A 
ATOM      4  C3  UNL d   1       1.072   1.470   0.455  0.00  0.00    -0.075 A 
ATOM      5  S   UNL d   1       2.296   2.674   0.301  0.00  0.00     0.015 SA
ATOM      6  C4  UNL d   1       1.175   3.944   0.489  0.00  0.00     0.022 A 
ATOM      7  C5  UNL d   1      -0.106   3.479   0.666  0.00  0.00     0.026 A 
ATOM      8  C6  UNL d   1      -0.187   2.045   0.650  0.00  0.00    -0.082 A 
ATOM      9  C7  UNL d   1      -1.300   1.183   0.795  0.00  0.00     0.045 A 
ENDROOT
TORSDOF 0
ENDMDL
