MODEL 1
REMARK minimizedAffinity -1.07903481
REMARK minimizedRMSD -1
REMARK  0 active torsions:
REMARK  status: ('A' for Active; 'I' for Inactive)
ROOT
ATOM      1  C   UNL d   1      -0.936  -2.368   1.366  0.00  0.00    -0.002 A 
ATOM      2  C1  UNL d   1      -0.502  -2.920   0.169  0.00  0.00     0.010 A 
ATOM      3  C2  UNL d   1       0.026  -2.109  -0.837  0.00  0.00     0.041 A 
ATOM      4  C3  UNL d   1       0.113  -0.720  -0.617  0.00  0.00    -0.075 A 
ATOM      5  S   UNL d   1       0.726   0.468  -1.706  0.00  0.00     0.015 SA
ATOM      6  C4  UNL d   1       0.428   1.737  -0.607  0.00  0.00     0.022 A 
ATOM      7  C5  UNL d   1      -0.126   1.283   0.567  0.00  0.00     0.026 A 
ATOM      8  C6  UNL d   1      -0.316  -0.141   0.581  0.00  0.00    -0.082 A 
ATOM      9  C7  UNL d   1      -0.847  -0.990   1.581  0.00  0.00     0.045 A 
ENDROOT
TORSDOF 0
ENDMDL
