MODEL 1
REMARK minimizedAffinity -5.11096859
REMARK minimizedRMSD -1
REMARK  0 active torsions:
REMARK  status: ('A' for Active; 'I' for Inactive)
ROOT
ATOM      1  C   UNL d   1       0.044  -3.358   0.281  0.00  0.00    -0.002 A 
ATOM      2  C1  UNL d   1       0.148  -3.400  -1.102  0.00  0.00     0.010 A 
ATOM      3  C2  UNL d   1       0.160  -2.220  -1.849  0.00  0.00     0.041 A 
ATOM      4  C3  UNL d   1       0.068  -0.986  -1.177  0.00  0.00    -0.075 A 
ATOM      5  S   UNL d   1       0.065   0.586  -1.885  0.00  0.00     0.015 SA
ATOM      6  C4  UNL d   1      -0.074   1.350  -0.368  0.00  0.00     0.022 A 
ATOM      7  C5  UNL d   1      -0.118   0.444   0.665  0.00  0.00     0.026 A 
ATOM      8  C6  UNL d   1      -0.037  -0.918   0.216  0.00  0.00    -0.082 A 
ATOM      9  C7  UNL d   1      -0.048  -2.131   0.945  0.00  0.00     0.045 A 
ENDROOT
TORSDOF 0
ENDMDL
