MODEL 1
REMARK minimizedAffinity -4.2100625
REMARK minimizedRMSD -1
REMARK  0 active torsions:
REMARK  status: ('A' for Active; 'I' for Inactive)
ROOT
ATOM      1  C   UNL d   1       0.835   4.008   0.392  0.00  0.00    -0.002 A 
ATOM      2  C1  UNL d   1       2.046   3.382   0.134  0.00  0.00     0.010 A 
ATOM      3  C2  UNL d   1       2.124   1.990   0.057  0.00  0.00     0.041 A 
ATOM      4  C3  UNL d   1       0.952   1.230   0.243  0.00  0.00    -0.075 A 
ATOM      5  S   UNL d   1       0.807  -0.487   0.191  0.00  0.00     0.015 SA
ATOM      6  C4  UNL d   1      -0.866  -0.430   0.510  0.00  0.00     0.022 A 
ATOM      7  C5  UNL d   1      -1.320   0.860   0.655  0.00  0.00     0.026 A 
ATOM      8  C6  UNL d   1      -0.279   1.838   0.503  0.00  0.00    -0.082 A 
ATOM      9  C7  UNL d   1      -0.325   3.251   0.576  0.00  0.00     0.045 A 
ENDROOT
TORSDOF 0
ENDMDL
