MODEL 1
REMARK minimizedAffinity -4.95472193
REMARK minimizedRMSD -1
REMARK  0 active torsions:
REMARK  status: ('A' for Active; 'I' for Inactive)
ROOT
ATOM      1  C   UNL d   1       0.525  -2.957   0.519  0.00  0.00    -0.002 A 
ATOM      2  C1  UNL d   1       0.378  -3.140  -0.848  0.00  0.00     0.010 A 
ATOM      3  C2  UNL d   1       0.233  -2.044  -1.700  0.00  0.00     0.041 A 
ATOM      4  C3  UNL d   1       0.240  -0.747  -1.150  0.00  0.00    -0.075 A 
ATOM      5  S   UNL d   1       0.080   0.744  -2.000  0.00  0.00     0.015 SA
ATOM      6  C4  UNL d   1       0.204   1.660  -0.568  0.00  0.00     0.022 A 
ATOM      7  C5  UNL d   1       0.364   0.864   0.541  0.00  0.00     0.026 A 
ATOM      8  C6  UNL d   1       0.388  -0.537   0.224  0.00  0.00    -0.082 A 
ATOM      9  C7  UNL d   1       0.532  -1.669   1.062  0.00  0.00     0.045 A 
ENDROOT
TORSDOF 0
ENDMDL
