MODEL 1
REMARK minimizedAffinity 7.2269783
REMARK minimizedRMSD -1
REMARK  1 active torsions:
REMARK  status: ('A' for Active; 'I' for Inactive)
REMARK    1  A    between atoms: C3_4  and  O_7 
ROOT
ATOM      1  C   UNL d   1      -0.975  -1.762  -5.143  0.00  0.00    -0.033 A 
ATOM      2  C1  UNL d   1      -0.764  -0.548  -4.487  0.00  0.00     0.039 A 
ATOM      3  C2  UNL d   1       0.536  -0.111  -4.226  0.00  0.00    -0.080 A 
ATOM      4  C3  UNL d   1       1.614  -0.896  -4.626  0.00  0.00     0.150 A 
ATOM      5  C4  UNL d   1       1.411  -2.105  -5.283  0.00  0.00    -0.007 A 
ATOM      6  C5  UNL d   1       0.112  -2.540  -5.542  0.00  0.00     0.039 A 
ENDROOT
BRANCH   4   7
ATOM      7  O   UNL d   1       2.901  -0.513  -4.389  0.00  0.00    -0.526 OA
ATOM      8  H5  UNL d   1       2.887   0.328  -3.902  0.00  0.00     0.418 HD
ENDBRANCH   4   7
TORSDOF 1
ENDMDL
