MODEL 1
REMARK minimizedAffinity 5.67123461
REMARK minimizedRMSD -1
REMARK  1 active torsions:
REMARK  status: ('A' for Active; 'I' for Inactive)
REMARK    1  A    between atoms: C3_4  and  O_7 
ROOT
ATOM      1  C   UNL d   1       5.291   3.531   3.669  0.00  0.00    -0.033 A 
ATOM      2  C1  UNL d   1       5.228   2.523   2.704  0.00  0.00     0.039 A 
ATOM      3  C2  UNL d   1       4.638   2.778   1.464  0.00  0.00    -0.080 A 
ATOM      4  C3  UNL d   1       4.117   4.042   1.202  0.00  0.00     0.150 A 
ATOM      5  C4  UNL d   1       4.180   5.051   2.157  0.00  0.00    -0.007 A 
ATOM      6  C5  UNL d   1       4.769   4.795   3.395  0.00  0.00     0.039 A 
ENDROOT
BRANCH   4   7
ATOM      7  O   UNL d   1       3.528   4.336   0.008  0.00  0.00    -0.526 OA
ATOM      8  H5  UNL d   1       3.531   3.535  -0.542  0.00  0.00     0.418 HD
ENDBRANCH   4   7
TORSDOF 1
ENDMDL
