MODEL 1
REMARK minimizedAffinity 6.20468187
REMARK minimizedRMSD -1
REMARK  1 active torsions:
REMARK  status: ('A' for Active; 'I' for Inactive)
REMARK    1  A    between atoms: C3_4  and  O_7 
ROOT
ATOM      1  C   UNL d   1      -1.883  -5.498  -5.252  0.00  0.00    -0.033 A 
ATOM      2  C1  UNL d   1      -1.947  -6.000  -3.950  0.00  0.00     0.039 A 
ATOM      3  C2  UNL d   1      -1.781  -5.143  -2.861  0.00  0.00    -0.080 A 
ATOM      4  C3  UNL d   1      -1.552  -3.788  -3.086  0.00  0.00     0.150 A 
ATOM      5  C4  UNL d   1      -1.491  -3.281  -4.380  0.00  0.00    -0.007 A 
ATOM      6  C5  UNL d   1      -1.656  -4.139  -5.467  0.00  0.00     0.039 A 
ENDROOT
BRANCH   4   7
ATOM      7  O   UNL d   1      -1.379  -2.913  -2.055  0.00  0.00    -0.526 OA
ATOM      8  H5  UNL d   1      -1.418  -3.410  -1.221  0.00  0.00     0.418 HD
ENDBRANCH   4   7
TORSDOF 1
ENDMDL
