MODEL 1
REMARK minimizedAffinity 7.32190323
REMARK minimizedRMSD -1
REMARK  1 active torsions:
REMARK  status: ('A' for Active; 'I' for Inactive)
REMARK    1  A    between atoms: C3_4  and  O_7 
ROOT
ATOM      1  C   UNL d   1       2.027  -1.160   3.645  0.00  0.00    -0.033 A 
ATOM      2  C1  UNL d   1       1.944  -2.552   3.696  0.00  0.00     0.039 A 
ATOM      3  C2  UNL d   1       2.845  -3.279   4.477  0.00  0.00    -0.080 A 
ATOM      4  C3  UNL d   1       3.822  -2.602   5.201  0.00  0.00     0.150 A 
ATOM      5  C4  UNL d   1       3.908  -1.214   5.158  0.00  0.00    -0.007 A 
ATOM      6  C5  UNL d   1       3.008  -0.490   4.377  0.00  0.00     0.039 A 
ENDROOT
BRANCH   4   7
ATOM      7  O   UNL d   1       4.727  -3.268   5.973  0.00  0.00    -0.526 OA
ATOM      8  H5  UNL d   1       4.565  -4.222   5.884  0.00  0.00     0.418 HD
ENDBRANCH   4   7
TORSDOF 1
ENDMDL
