MODEL 1
REMARK minimizedAffinity 3.91776419
REMARK minimizedRMSD -1
REMARK  1 active torsions:
REMARK  status: ('A' for Active; 'I' for Inactive)
REMARK    1  A    between atoms: C3_4  and  O_7 
ROOT
ATOM      1  C   UNL d   1       4.206  -2.335   5.112  0.00  0.00    -0.033 A 
ATOM      2  C1  UNL d   1       3.524  -1.616   4.129  0.00  0.00     0.039 A 
ATOM      3  C2  UNL d   1       2.305  -2.086   3.636  0.00  0.00    -0.080 A 
ATOM      4  C3  UNL d   1       1.779  -3.275   4.135  0.00  0.00     0.150 A 
ATOM      5  C4  UNL d   1       2.451  -3.995   5.117  0.00  0.00    -0.007 A 
ATOM      6  C5  UNL d   1       3.669  -3.524   5.607  0.00  0.00     0.039 A 
ENDROOT
BRANCH   4   7
ATOM      7  O   UNL d   1       0.596  -3.776   3.681  0.00  0.00    -0.526 OA
ATOM      8  H5  UNL d   1       0.259  -3.188   2.984  0.00  0.00     0.418 HD
ENDBRANCH   4   7
TORSDOF 1
ENDMDL
