MODEL 1
REMARK minimizedAffinity 1.09056544
REMARK minimizedRMSD -1
REMARK  0 active torsions:
REMARK  status: ('A' for Active; 'I' for Inactive)
ROOT
ATOM      1  C4' PXY d   1       0.561   1.881  -0.006  0.00  0.00     0.077 C 
ATOM      2  C1' PXY d   1      -1.263  -3.574  -0.582  0.00  0.00     0.077 C 
ATOM      3  C1  PXY d   1      -0.777  -2.145  -0.441  0.00  0.00    -0.082 A 
ATOM      4  C2  PXY d   1      -0.875  -1.533   0.728  0.00  0.00     0.003 A 
ATOM      5  C3  PXY d   1      -0.470  -0.230   0.865  0.00  0.00     0.003 A 
ATOM      6  C4  PXY d   1       0.091   0.436  -0.192  0.00  0.00    -0.082 A 
ATOM      7  C5  PXY d   1       0.205  -0.186  -1.385  0.00  0.00     0.003 A 
ATOM      8  C6  PXY d   1      -0.250  -1.494  -1.514  0.00  0.00     0.003 A 
ENDROOT
TORSDOF 0
ENDMDL
