MODEL 1
REMARK minimizedAffinity 2.8473351
REMARK minimizedRMSD -1
REMARK  0 active torsions:
REMARK  status: ('A' for Active; 'I' for Inactive)
ROOT
ATOM      1  C4' PXY d   1       1.024   0.019  -2.529  0.00  0.00     0.077 C 
ATOM      2  C1' PXY d   1      -2.066  -0.075   2.356  0.00  0.00     0.077 C 
ATOM      3  C1  PXY d   1      -1.253  -0.038   1.077  0.00  0.00    -0.082 A 
ATOM      4  C2  PXY d   1      -1.522  -0.895   0.105  0.00  0.00     0.003 A 
ATOM      5  C3  PXY d   1      -0.775  -0.897  -1.045  0.00  0.00     0.003 A 
ATOM      6  C4  PXY d   1       0.223   0.024  -1.224  0.00  0.00    -0.082 A 
ATOM      7  C5  PXY d   1       0.496   0.908  -0.242  0.00  0.00     0.003 A 
ATOM      8  C6  PXY d   1      -0.246   0.866   0.935  0.00  0.00     0.003 A 
ENDROOT
TORSDOF 0
ENDMDL
