MODEL 1
REMARK minimizedAffinity 1.01764524
REMARK minimizedRMSD -1
REMARK  0 active torsions:
REMARK  status: ('A' for Active; 'I' for Inactive)
ROOT
ATOM      1  C4' PXY d   1       0.335  -0.280  -2.077  0.00  0.00     0.077 C 
ATOM      2  C1' PXY d   1       1.618   3.622   1.990  0.00  0.00     0.077 C 
ATOM      3  C1  PXY d   1       1.290   2.604   0.916  0.00  0.00    -0.082 A 
ATOM      4  C2  PXY d   1       0.125   1.977   0.942  0.00  0.00     0.003 A 
ATOM      5  C3  PXY d   1      -0.175   1.031  -0.004  0.00  0.00     0.003 A 
ATOM      6  C4  PXY d   1       0.705   0.761  -1.018  0.00  0.00    -0.082 A 
ATOM      7  C5  PXY d   1       1.892   1.404  -1.057  0.00  0.00     0.003 A 
ATOM      8  C6  PXY d   1       2.194   2.332  -0.065  0.00  0.00     0.003 A 
ENDROOT
TORSDOF 0
ENDMDL
