MODEL 1
REMARK minimizedAffinity -1.65778482
REMARK minimizedRMSD -1
REMARK  0 active torsions:
REMARK  status: ('A' for Active; 'I' for Inactive)
ROOT
ATOM      1  C4' PXY d   1       3.812   2.175  -0.228  0.00  0.00     0.077 C 
ATOM      2  C1' PXY d   1      -1.638   0.430   0.590  0.00  0.00     0.077 C 
ATOM      3  C1  PXY d   1      -0.212   0.900   0.379  0.00  0.00    -0.082 A 
ATOM      4  C2  PXY d   1       0.590   0.216  -0.421  0.00  0.00     0.003 A 
ATOM      5  C3  PXY d   1       1.892   0.609  -0.598  0.00  0.00     0.003 A 
ATOM      6  C4  PXY d   1       2.362   1.743   0.008  0.00  0.00    -0.082 A 
ATOM      7  C5  PXY d   1       1.546   2.452   0.817  0.00  0.00     0.003 A 
ATOM      8  C6  PXY d   1       0.240   2.013   1.016  0.00  0.00     0.003 A 
ENDROOT
TORSDOF 0
ENDMDL
