MODEL 1
REMARK minimizedAffinity 0.386746824
REMARK minimizedRMSD -1
REMARK  0 active torsions:
REMARK  status: ('A' for Active; 'I' for Inactive)
ROOT
ATOM      1  C4' PXY d   1       0.665  -0.201  -2.604  0.00  0.00     0.077 C 
ATOM      2  C1' PXY d   1      -1.657  -0.288   2.688  0.00  0.00     0.077 C 
ATOM      3  C1  PXY d   1      -1.050  -0.252   1.300  0.00  0.00    -0.082 A 
ATOM      4  C2  PXY d   1      -1.075  -1.340   0.547  0.00  0.00     0.003 A 
ATOM      5  C3  PXY d   1      -0.502  -1.334  -0.699  0.00  0.00     0.003 A 
ATOM      6  C4  PXY d   1       0.056  -0.188  -1.200  0.00  0.00    -0.082 A 
ATOM      7  C5  PXY d   1       0.076   0.929  -0.442  0.00  0.00     0.003 A 
ATOM      8  C6  PXY d   1      -0.474   0.890   0.836  0.00  0.00     0.003 A 
ENDROOT
TORSDOF 0
ENDMDL
