MODEL 1
REMARK minimizedAffinity 5.99539995
REMARK minimizedRMSD -1
REMARK  0 active torsions:
REMARK  status: ('A' for Active; 'I' for Inactive)
ROOT
ATOM      1  C4' PXY d   1      -0.833  -0.515   0.121  0.00  0.00     0.077 C 
ATOM      2  C1' PXY d   1       2.734   3.810   1.531  0.00  0.00     0.077 C 
ATOM      3  C1  PXY d   1       1.806   2.673   1.150  0.00  0.00    -0.082 A 
ATOM      4  C2  PXY d   1       0.569   2.655   1.619  0.00  0.00     0.003 A 
ATOM      5  C3  PXY d   1      -0.274   1.618   1.311  0.00  0.00     0.003 A 
ATOM      6  C4  PXY d   1       0.137   0.617   0.471  0.00  0.00    -0.082 A 
ATOM      7  C5  PXY d   1       1.394   0.634  -0.019  0.00  0.00     0.003 A 
ATOM      8  C6  PXY d   1       2.247   1.674   0.339  0.00  0.00     0.003 A 
ENDROOT
TORSDOF 0
ENDMDL
