MODEL 1
REMARK minimizedAffinity 1.70595956
REMARK minimizedRMSD -1
REMARK  0 active torsions:
REMARK  status: ('A' for Active; 'I' for Inactive)
ROOT
ATOM      1  C4' PXY d   1       0.654   2.811   0.758  0.00  0.00     0.077 C 
ATOM      2  C1' PXY d   1      -1.789  -2.383   1.444  0.00  0.00     0.077 C 
ATOM      3  C1  PXY d   1      -1.145  -1.021   1.277  0.00  0.00    -0.082 A 
ATOM      4  C2  PXY d   1      -1.513  -0.242   0.272  0.00  0.00     0.003 A 
ATOM      5  C3  PXY d   1      -0.919   0.980   0.088  0.00  0.00     0.003 A 
ATOM      6  C4  PXY d   1       0.024   1.432   0.971  0.00  0.00    -0.082 A 
ATOM      7  C5  PXY d   1       0.398   0.648   2.005  0.00  0.00     0.003 A 
ATOM      8  C6  PXY d   1      -0.188  -0.606   2.151  0.00  0.00     0.003 A 
ENDROOT
TORSDOF 0
ENDMDL
