MODEL 1
REMARK minimizedAffinity -0.00131035771
REMARK minimizedRMSD -1
REMARK  0 active torsions:
REMARK  status: ('A' for Active; 'I' for Inactive)
ROOT
ATOM      1  C4' PXY d   1       2.654   2.984   0.852  0.00  0.00     0.077 C 
ATOM      2  C1' PXY d   1      -1.935   5.998   2.660  0.00  0.00     0.077 C 
ATOM      3  C1  PXY d   1      -0.740   5.198   2.182  0.00  0.00    -0.082 A 
ATOM      4  C2  PXY d   1       0.449   5.412   2.722  0.00  0.00     0.003 A 
ATOM      5  C3  PXY d   1       1.547   4.720   2.279  0.00  0.00     0.003 A 
ATOM      6  C4  PXY d   1       1.417   3.761   1.310  0.00  0.00    -0.082 A 
ATOM      7  C5  PXY d   1       0.206   3.530   0.762  0.00  0.00     0.003 A 
ATOM      8  C6  PXY d   1      -0.889   4.272   1.196  0.00  0.00     0.003 A 
ENDROOT
TORSDOF 0
ENDMDL
