MODEL 1
REMARK minimizedAffinity 3.2230382
REMARK minimizedRMSD -1
REMARK  0 active torsions:
REMARK  status: ('A' for Active; 'I' for Inactive)
ROOT
ATOM      1  C4' PXY d   1       0.511  -0.083  -3.014  0.00  0.00     0.077 C 
ATOM      2  C1' PXY d   1      -1.160  -0.859   2.465  0.00  0.00     0.077 C 
ATOM      3  C1  PXY d   1      -0.721  -0.642   1.030  0.00  0.00    -0.082 A 
ATOM      4  C2  PXY d   1      -1.017  -1.548   0.112  0.00  0.00     0.003 A 
ATOM      5  C3  PXY d   1      -0.600  -1.384  -1.184  0.00  0.00     0.003 A 
ATOM      6  C4  PXY d   1       0.080  -0.255  -1.555  0.00  0.00    -0.082 A 
ATOM      7  C5  PXY d   1       0.376   0.679  -0.626  0.00  0.00     0.003 A 
ATOM      8  C6  PXY d   1      -0.020   0.473   0.692  0.00  0.00     0.003 A 
ENDROOT
TORSDOF 0
ENDMDL
