MODEL 1
REMARK minimizedAffinity -4.0861063
REMARK minimizedRMSD -1
REMARK  0 active torsions:
REMARK  status: ('A' for Active; 'I' for Inactive)
ROOT
ATOM      1  C4' PXY d   1       0.244   1.998  -0.633  0.00  0.00     0.077 C 
ATOM      2  C1' PXY d   1      -1.153  -3.562   0.106  0.00  0.00     0.077 C 
ATOM      3  C1  PXY d   1      -0.779  -2.107  -0.098  0.00  0.00    -0.082 A 
ATOM      4  C2  PXY d   1      -0.876  -1.259   0.913  0.00  0.00     0.003 A 
ATOM      5  C3  PXY d   1      -0.573   0.066   0.738  0.00  0.00     0.003 A 
ATOM      6  C4  PXY d   1      -0.114   0.518  -0.470  0.00  0.00    -0.082 A 
ATOM      7  C5  PXY d   1      -0.002  -0.343  -1.504  0.00  0.00     0.003 A 
ATOM      8  C6  PXY d   1      -0.354  -1.676  -1.317  0.00  0.00     0.003 A 
ENDROOT
TORSDOF 0
ENDMDL
