MODEL 1
REMARK minimizedAffinity -0.0634422377
REMARK minimizedRMSD -1
REMARK  0 active torsions:
REMARK  status: ('A' for Active; 'I' for Inactive)
ROOT
ATOM      1  C4' PXY d   1       1.469   3.309   0.380  0.00  0.00     0.077 C 
ATOM      2  C1' PXY d   1      -1.365  -1.728   0.476  0.00  0.00     0.077 C 
ATOM      3  C1  PXY d   1      -0.621  -0.408   0.438  0.00  0.00    -0.082 A 
ATOM      4  C2  PXY d   1       0.061  -0.010   1.500  0.00  0.00     0.003 A 
ATOM      5  C3  PXY d   1       0.713   1.196   1.494  0.00  0.00     0.003 A 
ATOM      6  C4  PXY d   1       0.711   1.979   0.371  0.00  0.00    -0.082 A 
ATOM      7  C5  PXY d   1       0.026   1.575  -0.720  0.00  0.00     0.003 A 
ATOM      8  C6  PXY d   1      -0.664   0.367  -0.680  0.00  0.00     0.003 A 
ENDROOT
TORSDOF 0
ENDMDL
