MODEL 1
REMARK minimizedAffinity -2.35654187
REMARK minimizedRMSD -1
REMARK  0 active torsions:
REMARK  status: ('A' for Active; 'I' for Inactive)
ROOT
ATOM      1  C4' PXY d   1       0.582   2.649   0.217  0.00  0.00     0.077 C 
ATOM      2  C1' PXY d   1      -1.333  -2.803   0.067  0.00  0.00     0.077 C 
ATOM      3  C1  PXY d   1      -0.825  -1.375   0.095  0.00  0.00    -0.082 A 
ATOM      4  C2  PXY d   1      -0.670  -0.759   1.255  0.00  0.00     0.003 A 
ATOM      5  C3  PXY d   1      -0.242   0.543   1.297  0.00  0.00     0.003 A 
ATOM      6  C4  PXY d   1       0.081   1.204   0.142  0.00  0.00    -0.082 A 
ATOM      7  C5  PXY d   1      -0.065   0.578  -1.045  0.00  0.00     0.003 A 
ATOM      8  C6  PXY d   1      -0.540  -0.730  -1.069  0.00  0.00     0.003 A 
ENDROOT
TORSDOF 0
ENDMDL
