MODEL 1
REMARK minimizedAffinity 0.581078649
REMARK minimizedRMSD -1
REMARK  0 active torsions:
REMARK  status: ('A' for Active; 'I' for Inactive)
ROOT
ATOM      1  C4' PXY d   1       0.503   2.448   0.623  0.00  0.00     0.077 C 
ATOM      2  C1' PXY d   1      -1.354  -3.024   0.460  0.00  0.00     0.077 C 
ATOM      3  C1  PXY d   1      -0.857  -1.592   0.494  0.00  0.00    -0.082 A 
ATOM      4  C2  PXY d   1      -1.148  -0.824   1.532  0.00  0.00     0.003 A 
ATOM      5  C3  PXY d   1      -0.734   0.483   1.564  0.00  0.00     0.003 A 
ATOM      6  C4  PXY d   1       0.031   0.993   0.550  0.00  0.00    -0.082 A 
ATOM      7  C5  PXY d   1       0.341   0.212  -0.507  0.00  0.00     0.003 A 
ATOM      8  C6  PXY d   1      -0.124  -1.099  -0.540  0.00  0.00     0.003 A 
ENDROOT
TORSDOF 0
ENDMDL
