MODEL 1
REMARK minimizedAffinity -1.80825019
REMARK minimizedRMSD -1
REMARK  0 active torsions:
REMARK  status: ('A' for Active; 'I' for Inactive)
ROOT
ATOM      1  C4' PXY d   1       0.033  -1.994  -2.989  0.00  0.00     0.077 C 
ATOM      2  C1' PXY d   1      -0.696  -0.020   2.394  0.00  0.00     0.077 C 
ATOM      3  C1  PXY d   1      -0.506  -0.526   0.978  0.00  0.00    -0.082 A 
ATOM      4  C2  PXY d   1      -0.832  -1.772   0.679  0.00  0.00     0.003 A 
ATOM      5  C3  PXY d   1      -0.636  -2.256  -0.589  0.00  0.00     0.003 A 
ATOM      6  C4  PXY d   1      -0.151  -1.438  -1.575  0.00  0.00    -0.082 A 
ATOM      7  C5  PXY d   1       0.175  -0.162  -1.280  0.00  0.00     0.003 A 
ATOM      8  C6  PXY d   1       0.007   0.297   0.023  0.00  0.00     0.003 A 
ENDROOT
TORSDOF 0
ENDMDL
