MODEL 1
REMARK minimizedAffinity 6.39740944
REMARK minimizedRMSD -1
REMARK  0 active torsions:
REMARK  status: ('A' for Active; 'I' for Inactive)
ROOT
ATOM      1  C4' PXY d   1       0.758   2.790   0.869  0.00  0.00     0.077 C 
ATOM      2  C1' PXY d   1      -1.926  -2.284   1.553  0.00  0.00     0.077 C 
ATOM      3  C1  PXY d   1      -1.221  -0.952   1.386  0.00  0.00    -0.082 A 
ATOM      4  C2  PXY d   1      -1.390  -0.257   0.273  0.00  0.00     0.003 A 
ATOM      5  C3  PXY d   1      -0.735   0.934   0.093  0.00  0.00     0.003 A 
ATOM      6  C4  PXY d   1       0.059   1.444   1.084  0.00  0.00    -0.082 A 
ATOM      7  C5  PXY d   1       0.228   0.746   2.227  0.00  0.00     0.003 A 
ATOM      8  C6  PXY d   1      -0.413  -0.480   2.374  0.00  0.00     0.003 A 
ENDROOT
TORSDOF 0
ENDMDL
