MODEL 1
REMARK minimizedAffinity -5.7566576
REMARK minimizedRMSD -1
REMARK  0 active torsions:
REMARK  status: ('A' for Active; 'I' for Inactive)
ROOT
ATOM      1  C4' PXY d   1      -0.006  -3.117  -2.274  0.00  0.00     0.077 C 
ATOM      2  C1' PXY d   1      -0.392  -0.108   2.646  0.00  0.00     0.077 C 
ATOM      3  C1  PXY d   1      -0.295  -0.887   1.349  0.00  0.00    -0.082 A 
ATOM      4  C2  PXY d   1      -0.379  -2.207   1.371  0.00  0.00     0.003 A 
ATOM      5  C3  PXY d   1      -0.261  -2.929   0.211  0.00  0.00     0.003 A 
ATOM      6  C4  PXY d   1      -0.109  -2.290  -0.990  0.00  0.00    -0.082 A 
ATOM      7  C5  PXY d   1      -0.033  -0.942  -1.022  0.00  0.00     0.003 A 
ATOM      8  C6  PXY d   1      -0.114  -0.230   0.171  0.00  0.00     0.003 A 
ENDROOT
TORSDOF 0
ENDMDL
