MODEL 1
REMARK minimizedAffinity -2.33082819
REMARK minimizedRMSD -1
REMARK  0 active torsions:
REMARK  status: ('A' for Active; 'I' for Inactive)
ROOT
ATOM      1  C4' PXY d   1       0.585  -0.077  -3.136  0.00  0.00     0.077 C 
ATOM      2  C1' PXY d   1      -1.410  -0.108   2.289  0.00  0.00     0.077 C 
ATOM      3  C1  PXY d   1      -0.885  -0.087   0.867  0.00  0.00    -0.082 A 
ATOM      4  C2  PXY d   1      -1.253  -1.034   0.020  0.00  0.00     0.003 A 
ATOM      5  C3  PXY d   1      -0.762  -1.048  -1.260  0.00  0.00     0.003 A 
ATOM      6  C4  PXY d   1       0.072  -0.053  -1.694  0.00  0.00    -0.082 A 
ATOM      7  C5  PXY d   1       0.443   0.923  -0.838  0.00  0.00     0.003 A 
ATOM      8  C6  PXY d   1      -0.033   0.897   0.469  0.00  0.00     0.003 A 
ENDROOT
TORSDOF 0
ENDMDL
