MODEL 1
REMARK minimizedAffinity -4.19112301
REMARK minimizedRMSD -1
REMARK  0 active torsions:
REMARK  status: ('A' for Active; 'I' for Inactive)
ROOT
ATOM      1  C4' PXY d   1       1.754   3.949   1.799  0.00  0.00     0.077 C 
ATOM      2  C1' PXY d   1       1.911  -0.366  -2.046  0.00  0.00     0.077 C 
ATOM      3  C1  PXY d   1       1.857   0.767  -1.039  0.00  0.00    -0.082 A 
ATOM      4  C2  PXY d   1       2.945   1.480  -0.798  0.00  0.00     0.003 A 
ATOM      5  C3  PXY d   1       2.922   2.487   0.133  0.00  0.00     0.003 A 
ATOM      6  C4  PXY d   1       1.760   2.802   0.784  0.00  0.00    -0.082 A 
ATOM      7  C5  PXY d   1       0.642   2.086   0.535  0.00  0.00     0.003 A 
ATOM      8  C6  PXY d   1       0.697   1.042  -0.383  0.00  0.00     0.003 A 
ENDROOT
TORSDOF 0
ENDMDL
