MODEL 1
REMARK minimizedAffinity 0.699561954
REMARK minimizedRMSD -1
REMARK  0 active torsions:
REMARK  status: ('A' for Active; 'I' for Inactive)
ROOT
ATOM      1  C1  BNZ d   1       2.265   4.142  -0.663  0.00  0.00     0.000 A 
ATOM      2  C2  BNZ d   1       2.165   3.220  -1.671  0.00  0.00     0.000 A 
ATOM      3  C3  BNZ d   1       3.284   2.646  -2.208  0.00  0.00     0.000 A 
ATOM      4  C4  BNZ d   1       4.501   3.025  -1.766  0.00  0.00     0.000 A 
ATOM      5  C5  BNZ d   1       4.618   3.961  -0.757  0.00  0.00     0.000 A 
ATOM      6  C6  BNZ d   1       3.489   4.507  -0.192  0.00  0.00     0.000 A 
ENDROOT
TORSDOF 0
ENDMDL
