MODEL 1
REMARK minimizedAffinity 0.764398694
REMARK minimizedRMSD -1
REMARK  0 active torsions:
REMARK  status: ('A' for Active; 'I' for Inactive)
ROOT
ATOM      1  C1  BNZ d   1       0.307  -3.677  -3.708  0.00  0.00     0.000 A 
ATOM      2  C2  BNZ d   1      -0.798  -3.952  -2.948  0.00  0.00     0.000 A 
ATOM      3  C3  BNZ d   1      -1.375  -2.983  -2.175  0.00  0.00     0.000 A 
ATOM      4  C4  BNZ d   1      -0.823  -1.754  -2.132  0.00  0.00     0.000 A 
ATOM      5  C5  BNZ d   1       0.297  -1.463  -2.886  0.00  0.00     0.000 A 
ATOM      6  C6  BNZ d   1       0.851  -2.430  -3.693  0.00  0.00     0.000 A 
ENDROOT
TORSDOF 0
ENDMDL
