MODEL 1
REMARK minimizedAffinity -1.5781914
REMARK minimizedRMSD -1
REMARK  0 active torsions:
REMARK  status: ('A' for Active; 'I' for Inactive)
ROOT
ATOM      1  C1  BNZ d   1       2.032   5.009  -5.981  0.00  0.00     0.000 A 
ATOM      2  C2  BNZ d   1       2.425   3.698  -5.939  0.00  0.00     0.000 A 
ATOM      3  C3  BNZ d   1       3.750   3.365  -5.899  0.00  0.00     0.000 A 
ATOM      4  C4  BNZ d   1       4.680   4.341  -5.941  0.00  0.00     0.000 A 
ATOM      5  C5  BNZ d   1       4.300   5.667  -5.993  0.00  0.00     0.000 A 
ATOM      6  C6  BNZ d   1       2.964   6.000  -5.994  0.00  0.00     0.000 A 
ENDROOT
TORSDOF 0
ENDMDL
