MODEL 1
REMARK minimizedAffinity -2.63411427
REMARK minimizedRMSD -1
REMARK  0 active torsions:
REMARK  status: ('A' for Active; 'I' for Inactive)
ROOT
ATOM      1  C1  BNZ d   1      -2.998   3.041  -6.000  0.00  0.00     0.000 A 
ATOM      2  C2  BNZ d   1      -1.846   2.301  -5.998  0.00  0.00     0.000 A 
ATOM      3  C3  BNZ d   1      -0.623   2.910  -5.963  0.00  0.00     0.000 A 
ATOM      4  C4  BNZ d   1      -0.553   4.257  -5.972  0.00  0.00     0.000 A 
ATOM      5  C5  BNZ d   1      -1.705   5.017  -5.983  0.00  0.00     0.000 A 
ATOM      6  C6  BNZ d   1      -2.935   4.400  -5.978  0.00  0.00     0.000 A 
ENDROOT
TORSDOF 0
ENDMDL
