MODEL 1
REMARK minimizedAffinity -0.464025706
REMARK minimizedRMSD -1
REMARK  0 active torsions:
REMARK  status: ('A' for Active; 'I' for Inactive)
ROOT
ATOM      1  C1  BNZ d   1      -2.943   3.061  -5.942  0.00  0.00     0.000 A 
ATOM      2  C2  BNZ d   1      -4.112   3.773  -5.920  0.00  0.00     0.000 A 
ATOM      3  C3  BNZ d   1      -4.100   5.139  -5.961  0.00  0.00     0.000 A 
ATOM      4  C4  BNZ d   1      -2.920   5.792  -5.985  0.00  0.00     0.000 A 
ATOM      5  C5  BNZ d   1      -1.733   5.088  -5.998  0.00  0.00     0.000 A 
ATOM      6  C6  BNZ d   1      -1.749   3.712  -5.996  0.00  0.00     0.000 A 
ENDROOT
TORSDOF 0
ENDMDL
