MODEL 1
REMARK minimizedAffinity -0.389350563
REMARK minimizedRMSD -1
REMARK  0 active torsions:
REMARK  status: ('A' for Active; 'I' for Inactive)
ROOT
ATOM      1  C1  BNZ d   1       0.759   3.031  -5.970  0.00  0.00     0.000 A 
ATOM      2  C2  BNZ d   1      -0.557   3.410  -5.964  0.00  0.00     0.000 A 
ATOM      3  C3  BNZ d   1      -0.904   4.731  -6.000  0.00  0.00     0.000 A 
ATOM      4  C4  BNZ d   1       0.062   5.672  -6.000  0.00  0.00     0.000 A 
ATOM      5  C5  BNZ d   1       1.394   5.305  -5.996  0.00  0.00     0.000 A 
ATOM      6  C6  BNZ d   1       1.740   3.974  -6.000  0.00  0.00     0.000 A 
ENDROOT
TORSDOF 0
ENDMDL
