MODEL 1
REMARK minimizedAffinity -2.12487888
REMARK minimizedRMSD -1
REMARK  0 active torsions:
REMARK  status: ('A' for Active; 'I' for Inactive)
ROOT
ATOM      1  C1  BNZ d   1      -3.161   3.747  -5.993  0.00  0.00     0.000 A 
ATOM      2  C2  BNZ d   1      -2.057   2.937  -5.999  0.00  0.00     0.000 A 
ATOM      3  C3  BNZ d   1      -0.798   3.469  -5.980  0.00  0.00     0.000 A 
ATOM      4  C4  BNZ d   1      -0.645   4.809  -5.996  0.00  0.00     0.000 A 
ATOM      5  C5  BNZ d   1      -1.748   5.639  -5.999  0.00  0.00     0.000 A 
ATOM      6  C6  BNZ d   1      -3.014   5.100  -5.979  0.00  0.00     0.000 A 
ENDROOT
TORSDOF 0
ENDMDL
