MODEL 1
REMARK minimizedAffinity -2.8806386
REMARK minimizedRMSD -1
REMARK  0 active torsions:
REMARK  status: ('A' for Active; 'I' for Inactive)
ROOT
ATOM      1  C1  BNZ d   1      -0.331   4.913  -5.976  0.00  0.00     0.000 A 
ATOM      2  C2  BNZ d   1       0.974   4.496  -5.971  0.00  0.00     0.000 A 
ATOM      3  C3  BNZ d   1       1.283   3.164  -5.999  0.00  0.00     0.000 A 
ATOM      4  C4  BNZ d   1       0.289   2.253  -5.991  0.00  0.00     0.000 A 
ATOM      5  C5  BNZ d   1      -1.031   2.658  -5.987  0.00  0.00     0.000 A 
ATOM      6  C6  BNZ d   1      -1.339   3.999  -5.999  0.00  0.00     0.000 A 
ENDROOT
TORSDOF 0
ENDMDL
