MODEL 1
REMARK minimizedAffinity -1.5503093
REMARK minimizedRMSD -1
REMARK  0 active torsions:
REMARK  status: ('A' for Active; 'I' for Inactive)
ROOT
ATOM      1  C1  BNZ d   1       3.739   3.644  -5.966  0.00  0.00     0.000 A 
ATOM      2  C2  BNZ d   1       2.381   3.468  -5.960  0.00  0.00     0.000 A 
ATOM      3  C3  BNZ d   1       1.537   4.542  -5.997  0.00  0.00     0.000 A 
ATOM      4  C4  BNZ d   1       2.050   5.789  -5.999  0.00  0.00     0.000 A 
ATOM      5  C5  BNZ d   1       3.417   5.983  -5.996  0.00  0.00     0.000 A 
ATOM      6  C6  BNZ d   1       4.264   4.899  -5.998  0.00  0.00     0.000 A 
ENDROOT
TORSDOF 0
ENDMDL
