MODEL 1
REMARK minimizedAffinity 0.394655615
REMARK minimizedRMSD -1
REMARK  0 active torsions:
REMARK  status: ('A' for Active; 'I' for Inactive)
ROOT
ATOM      1  C1  BNZ d   1       1.137   5.136  -5.997  0.00  0.00     0.000 A 
ATOM      2  C2  BNZ d   1      -0.102   5.720  -5.992  0.00  0.00     0.000 A 
ATOM      3  C3  BNZ d   1      -1.235   4.956  -5.966  0.00  0.00     0.000 A 
ATOM      4  C4  BNZ d   1      -1.129   3.612  -5.984  0.00  0.00     0.000 A 
ATOM      5  C5  BNZ d   1       0.112   3.008  -5.999  0.00  0.00     0.000 A 
ATOM      6  C6  BNZ d   1       1.251   3.780  -5.986  0.00  0.00     0.000 A 
ENDROOT
TORSDOF 0
ENDMDL
