MODEL 1
REMARK minimizedAffinity -2.45806384
REMARK minimizedRMSD -1
REMARK  0 active torsions:
REMARK  status: ('A' for Active; 'I' for Inactive)
ROOT
ATOM      1  C1  BNZ d   1       2.527   3.579  -5.989  0.00  0.00     0.000 A 
ATOM      2  C2  BNZ d   1       3.894   3.656  -5.978  0.00  0.00     0.000 A 
ATOM      3  C3  BNZ d   1       4.526   4.868  -5.953  0.00  0.00     0.000 A 
ATOM      4  C4  BNZ d   1       3.792   5.999  -5.980  0.00  0.00     0.000 A 
ATOM      5  C5  BNZ d   1       2.413   5.937  -6.000  0.00  0.00     0.000 A 
ATOM      6  C6  BNZ d   1       1.780   4.716  -5.985  0.00  0.00     0.000 A 
ENDROOT
TORSDOF 0
ENDMDL
