MODEL 1
REMARK minimizedAffinity -0.55422312
REMARK minimizedRMSD -1
REMARK  0 active torsions:
REMARK  status: ('A' for Active; 'I' for Inactive)
ROOT
ATOM      1  C1  BNZ d   1      -1.099   3.296  -6.000  0.00  0.00     0.000 A 
ATOM      2  C2  BNZ d   1       0.177   3.792  -5.998  0.00  0.00     0.000 A 
ATOM      3  C3  BNZ d   1       0.404   5.140  -5.971  0.00  0.00     0.000 A 
ATOM      4  C4  BNZ d   1      -0.643   5.989  -5.987  0.00  0.00     0.000 A 
ATOM      5  C5  BNZ d   1      -1.936   5.504  -5.999  0.00  0.00     0.000 A 
ATOM      6  C6  BNZ d   1      -2.161   4.146  -5.987  0.00  0.00     0.000 A 
ENDROOT
TORSDOF 0
ENDMDL
