MODEL 1
REMARK minimizedAffinity -1.16928327
REMARK minimizedRMSD -1
REMARK  0 active torsions:
REMARK  status: ('A' for Active; 'I' for Inactive)
ROOT
ATOM      1  C1  BNZ d   1      -0.013   5.581  -5.963  0.00  0.00     0.000 A 
ATOM      2  C2  BNZ d   1       1.324   5.285  -5.961  0.00  0.00     0.000 A 
ATOM      3  C3  BNZ d   1       1.753   3.988  -5.998  0.00  0.00     0.000 A 
ATOM      4  C4  BNZ d   1       0.847   2.989  -5.996  0.00  0.00     0.000 A 
ATOM      5  C5  BNZ d   1      -0.504   3.271  -5.988  0.00  0.00     0.000 A 
ATOM      6  C6  BNZ d   1      -0.933   4.579  -5.990  0.00  0.00     0.000 A 
ENDROOT
TORSDOF 0
ENDMDL
