MODEL 1
REMARK minimizedAffinity -2.67507386
REMARK minimizedRMSD -1
REMARK  1 active torsions:
REMARK  status: ('A' for Active; 'I' for Inactive)
REMARK    1  A    between atoms: C1_2  and  C2_3 
ROOT
ATOM      1  C2  UNL d   1      -0.351  -0.424   0.640  0.00  0.00    -0.081 A 
ATOM      2  C3  UNL d   1      -1.080   0.638   0.090  0.00  0.00     0.006 A 
ATOM      3  C4  UNL d   1      -0.512   1.910  -0.009  0.00  0.00     0.002 A 
ATOM      4  C5  UNL d   1       0.795   2.140   0.433  0.00  0.00    -0.080 A 
ATOM      5  C6  UNL d   1       1.427   3.494   0.305  0.00  0.00     0.076 C 
ATOM      6  C7  UNL d   1       1.517   1.083   0.998  0.00  0.00     0.002 A 
ATOM      7  C8  UNL d   1       0.950  -0.189   1.098  0.00  0.00     0.006 A 
ENDROOT
BRANCH   1   8
ATOM      8  C1  UNL d   1      -0.937  -1.812   0.688  0.00  0.00     0.054 C 
ATOM      9  C   UNL d   1      -0.528  -2.629  -0.529  0.00  0.00     0.018 C 
ENDBRANCH   1   8
TORSDOF 1
ENDMDL
