MODEL 1
REMARK minimizedAffinity -2.52410769
REMARK minimizedRMSD -1
REMARK  1 active torsions:
REMARK  status: ('A' for Active; 'I' for Inactive)
REMARK    1  A    between atoms: C1_2  and  C2_3 
ROOT
ATOM      1  C2  UNL d   1       0.851   1.833   0.037  0.00  0.00    -0.081 A 
ATOM      2  C3  UNL d   1      -0.194   1.539  -0.848  0.00  0.00     0.006 A 
ATOM      3  C4  UNL d   1      -0.941   0.368  -0.699  0.00  0.00     0.002 A 
ATOM      4  C5  UNL d   1      -0.661  -0.524   0.341  0.00  0.00    -0.080 A 
ATOM      5  C6  UNL d   1      -1.474  -1.770   0.531  0.00  0.00     0.076 C 
ATOM      6  C7  UNL d   1       0.394  -0.240   1.215  0.00  0.00     0.002 A 
ATOM      7  C8  UNL d   1       1.142   0.930   1.066  0.00  0.00     0.006 A 
ENDROOT
BRANCH   1   8
ATOM      8  C1  UNL d   1       1.616   3.126  -0.083  0.00  0.00     0.054 C 
ATOM      9  C   UNL d   1       2.075   3.625   1.280  0.00  0.00     0.018 C 
ENDBRANCH   1   8
TORSDOF 1
ENDMDL
