MODEL 1
REMARK minimizedAffinity 1.38354349
REMARK minimizedRMSD -1
REMARK  1 active torsions:
REMARK  status: ('A' for Active; 'I' for Inactive)
REMARK    1  A    between atoms: C1_2  and  C2_3 
ROOT
ATOM      1  C2  UNL d   1      -1.663  -0.211   1.542  0.00  0.00    -0.081 A 
ATOM      2  C3  UNL d   1      -1.707  -1.310   0.675  0.00  0.00     0.006 A 
ATOM      3  C4  UNL d   1      -1.016  -1.281  -0.539  0.00  0.00     0.002 A 
ATOM      4  C5  UNL d   1      -0.265  -0.158  -0.902  0.00  0.00    -0.080 A 
ATOM      5  C6  UNL d   1       0.505  -0.127  -2.189  0.00  0.00     0.076 C 
ATOM      6  C7  UNL d   1      -0.236   0.946  -0.044  0.00  0.00     0.002 A 
ATOM      7  C8  UNL d   1      -0.926   0.918   1.169  0.00  0.00     0.006 A 
ENDROOT
BRANCH   1   8
ATOM      8  C1  UNL d   1      -2.354  -0.264   2.881  0.00  0.00     0.054 C 
ATOM      9  C   UNL d   1      -3.499   0.737   2.953  0.00  0.00     0.018 C 
ENDBRANCH   1   8
TORSDOF 1
ENDMDL
