MODEL 1
REMARK minimizedAffinity 5.7530427
REMARK minimizedRMSD -1
REMARK  1 active torsions:
REMARK  status: ('A' for Active; 'I' for Inactive)
REMARK    1  A    between atoms: C1_2  and  C2_3 
ROOT
ATOM      1  C2  UNL d   1      -1.548  -1.105   1.082  0.00  0.00    -0.081 A 
ATOM      2  C3  UNL d   1      -1.186  -0.538  -0.147  0.00  0.00     0.006 A 
ATOM      3  C4  UNL d   1      -0.658   0.754  -0.203  0.00  0.00     0.002 A 
ATOM      4  C5  UNL d   1      -0.476   1.497   0.968  0.00  0.00    -0.080 A 
ATOM      5  C6  UNL d   1       0.118   2.874   0.924  0.00  0.00     0.076 C 
ATOM      6  C7  UNL d   1      -0.854   0.939   2.193  0.00  0.00     0.002 A 
ATOM      7  C8  UNL d   1      -1.383  -0.353   2.250  0.00  0.00     0.006 A 
ENDROOT
BRANCH   1   8
ATOM      8  C1  UNL d   1      -2.057  -2.522   1.152  0.00  0.00     0.054 C 
ATOM      9  C   UNL d   1      -1.705  -3.300  -0.108  0.00  0.00     0.018 C 
ENDBRANCH   1   8
TORSDOF 1
ENDMDL
