MODEL 1
REMARK minimizedAffinity -1.24353802
REMARK minimizedRMSD -1
REMARK  1 active torsions:
REMARK  status: ('A' for Active; 'I' for Inactive)
REMARK    1  A    between atoms: C1_2  and  C2_3 
ROOT
ATOM      1  C2  UNL d   1       0.079   0.279   0.001  0.00  0.00    -0.081 A 
ATOM      2  C3  UNL d   1      -0.468  -0.372  -1.111  0.00  0.00     0.006 A 
ATOM      3  C4  UNL d   1       0.106  -0.218  -2.375  0.00  0.00     0.002 A 
ATOM      4  C5  UNL d   1       1.241   0.583  -2.547  0.00  0.00    -0.080 A 
ATOM      5  C6  UNL d   1       1.885   0.733  -3.893  0.00  0.00     0.076 C 
ATOM      6  C7  UNL d   1       1.777   1.247  -1.438  0.00  0.00     0.002 A 
ATOM      7  C8  UNL d   1       1.203   1.094  -0.175  0.00  0.00     0.006 A 
ENDROOT
BRANCH   1   8
ATOM      8  C1  UNL d   1      -0.499   0.063   1.376  0.00  0.00     0.054 C 
ATOM      9  C   UNL d   1      -1.606  -0.981   1.354  0.00  0.00     0.018 C 
ENDBRANCH   1   8
TORSDOF 1
ENDMDL
