MODEL 1
REMARK minimizedAffinity -4.45564175
REMARK minimizedRMSD -1
REMARK  1 active torsions:
REMARK  status: ('A' for Active; 'I' for Inactive)
REMARK    1  A    between atoms: C1_2  and  C2_3 
ROOT
ATOM      1  C2  UNL d   1       0.899   1.672   0.710  0.00  0.00    -0.081 A 
ATOM      2  C3  UNL d   1       1.295   0.779   1.713  0.00  0.00     0.006 A 
ATOM      3  C4  UNL d   1       0.658  -0.456   1.852  0.00  0.00     0.002 A 
ATOM      4  C5  UNL d   1      -0.378  -0.823   0.987  0.00  0.00    -0.080 A 
ATOM      5  C6  UNL d   1      -1.049  -2.159   1.107  0.00  0.00     0.076 C 
ATOM      6  C7  UNL d   1      -0.785   0.077  -0.004  0.00  0.00     0.002 A 
ATOM      7  C8  UNL d   1      -0.150   1.312  -0.144  0.00  0.00     0.006 A 
ENDROOT
BRANCH   1   8
ATOM      8  C1  UNL d   1       1.626   2.978   0.515  0.00  0.00     0.054 C 
ATOM      9  C   UNL d   1       2.667   2.873  -0.590  0.00  0.00     0.018 C 
ENDBRANCH   1   8
TORSDOF 1
ENDMDL
