MODEL 1
REMARK minimizedAffinity -3.20078254
REMARK minimizedRMSD -1
REMARK  1 active torsions:
REMARK  status: ('A' for Active; 'I' for Inactive)
REMARK    1  A    between atoms: C1_2  and  C2_3 
ROOT
ATOM      1  C2  UNL d   1       0.467   1.884   0.599  0.00  0.00    -0.081 A 
ATOM      2  C3  UNL d   1      -0.247   1.220  -0.406  0.00  0.00     0.006 A 
ATOM      3  C4  UNL d   1      -0.671  -0.098  -0.220  0.00  0.00     0.002 A 
ATOM      4  C5  UNL d   1      -0.396  -0.771   0.976  0.00  0.00    -0.080 A 
ATOM      5  C6  UNL d   1      -0.873  -2.175   1.200  0.00  0.00     0.076 C 
ATOM      6  C7  UNL d   1       0.332  -0.113   1.973  0.00  0.00     0.002 A 
ATOM      7  C8  UNL d   1       0.757   1.204   1.787  0.00  0.00     0.006 A 
ENDROOT
BRANCH   1   8
ATOM      8  C1  UNL d   1       0.870   3.326   0.428  0.00  0.00     0.054 C 
ATOM      9  C   UNL d   1       2.381   3.492   0.511  0.00  0.00     0.018 C 
ENDBRANCH   1   8
TORSDOF 1
ENDMDL
