MODEL 1
REMARK minimizedAffinity -4.23508644
REMARK minimizedRMSD -1
REMARK  1 active torsions:
REMARK  status: ('A' for Active; 'I' for Inactive)
REMARK    1  A    between atoms: C1_2  and  C2_3 
ROOT
ATOM      1  C2  UNL d   1       1.422   2.285   0.152  0.00  0.00    -0.081 A 
ATOM      2  C3  UNL d   1       0.479   1.871  -0.798  0.00  0.00     0.006 A 
ATOM      3  C4  UNL d   1      -0.292   0.728  -0.578  0.00  0.00     0.002 A 
ATOM      4  C5  UNL d   1      -0.140  -0.016   0.597  0.00  0.00    -0.080 A 
ATOM      5  C6  UNL d   1      -0.984  -1.228   0.859  0.00  0.00     0.076 C 
ATOM      6  C7  UNL d   1       0.814   0.387   1.538  0.00  0.00     0.002 A 
ATOM      7  C8  UNL d   1       1.586   1.530   1.318  0.00  0.00     0.006 A 
ENDROOT
BRANCH   1   8
ATOM      8  C1  UNL d   1       2.210   3.554  -0.053  0.00  0.00     0.054 C 
ATOM      9  C   UNL d   1       2.920   3.553  -1.399  0.00  0.00     0.018 C 
ENDBRANCH   1   8
TORSDOF 1
ENDMDL
