MODEL 1
REMARK minimizedAffinity -3.75959492
REMARK minimizedRMSD -1
REMARK  1 active torsions:
REMARK  status: ('A' for Active; 'I' for Inactive)
REMARK    1  A    between atoms: C1_2  and  C2_3 
ROOT
ATOM      1  C2  UNL d   1       0.382   1.381  -0.391  0.00  0.00    -0.081 A 
ATOM      2  C3  UNL d   1       0.160   0.235   0.382  0.00  0.00     0.006 A 
ATOM      3  C4  UNL d   1      -0.076  -0.998  -0.230  0.00  0.00     0.002 A 
ATOM      4  C5  UNL d   1      -0.087  -1.107  -1.625  0.00  0.00    -0.080 A 
ATOM      5  C6  UNL d   1      -0.309  -2.430  -2.295  0.00  0.00     0.076 C 
ATOM      6  C7  UNL d   1       0.117   0.041  -2.398  0.00  0.00     0.002 A 
ATOM      7  C8  UNL d   1       0.352   1.274  -1.786  0.00  0.00     0.006 A 
ENDROOT
BRANCH   1   8
ATOM      8  C1  UNL d   1       0.701   2.699   0.267  0.00  0.00     0.054 C 
ATOM      9  C   UNL d   1       2.031   3.253  -0.222  0.00  0.00     0.018 C 
ENDBRANCH   1   8
TORSDOF 1
ENDMDL
