MODEL 1
REMARK minimizedAffinity -2.87394428
REMARK minimizedRMSD -1
REMARK  1 active torsions:
REMARK  status: ('A' for Active; 'I' for Inactive)
REMARK    1  A    between atoms: C1_2  and  C2_3 
ROOT
ATOM      1  C2  UNL d   1      -0.666  -2.889  -1.162  0.00  0.00    -0.081 A 
ATOM      2  C3  UNL d   1      -0.087  -1.660  -1.503  0.00  0.00     0.006 A 
ATOM      3  C4  UNL d   1       0.002  -0.633  -0.561  0.00  0.00     0.002 A 
ATOM      4  C5  UNL d   1      -0.480  -0.819   0.739  0.00  0.00    -0.080 A 
ATOM      5  C6  UNL d   1      -0.364   0.265   1.769  0.00  0.00     0.076 C 
ATOM      6  C7  UNL d   1      -1.074  -2.040   1.075  0.00  0.00     0.002 A 
ATOM      7  C8  UNL d   1      -1.164  -3.067   0.133  0.00  0.00     0.006 A 
ENDROOT
BRANCH   1   8
ATOM      8  C1  UNL d   1      -0.704  -4.021  -2.157  0.00  0.00     0.054 C 
ATOM      9  C   UNL d   1      -1.510  -3.645  -3.392  0.00  0.00     0.018 C 
ENDBRANCH   1   8
TORSDOF 1
ENDMDL
