MODEL 1
REMARK minimizedAffinity -4.67631483
REMARK minimizedRMSD -1
REMARK  1 active torsions:
REMARK  status: ('A' for Active; 'I' for Inactive)
REMARK    1  A    between atoms: C1_2  and  C2_3 
ROOT
ATOM      1  C2  UNL d   1       0.920   1.967   0.666  0.00  0.00    -0.081 A 
ATOM      2  C3  UNL d   1       0.218   1.502  -0.453  0.00  0.00     0.006 A 
ATOM      3  C4  UNL d   1      -0.325   0.214  -0.463  0.00  0.00     0.002 A 
ATOM      4  C5  UNL d   1      -0.181  -0.625   0.646  0.00  0.00    -0.080 A 
ATOM      5  C6  UNL d   1      -0.784  -1.999   0.660  0.00  0.00     0.076 C 
ATOM      6  C7  UNL d   1       0.536  -0.167   1.757  0.00  0.00     0.002 A 
ATOM      7  C8  UNL d   1       1.079   1.120   1.768  0.00  0.00     0.006 A 
ENDROOT
BRANCH   1   8
ATOM      8  C1  UNL d   1       1.450   3.378   0.705  0.00  0.00     0.054 C 
ATOM      9  C   UNL d   1       2.789   3.486  -0.011  0.00  0.00     0.018 C 
ENDBRANCH   1   8
TORSDOF 1
ENDMDL
