MODEL 1
REMARK minimizedAffinity -3.19991708
REMARK minimizedRMSD -1
REMARK  1 active torsions:
REMARK  status: ('A' for Active; 'I' for Inactive)
REMARK    1  A    between atoms: C1_2  and  C2_3 
ROOT
ATOM      1  C2  UNL d   1       0.819   1.255   0.448  0.00  0.00    -0.081 A 
ATOM      2  C3  UNL d   1      -0.071   0.874  -0.563  0.00  0.00     0.006 A 
ATOM      3  C4  UNL d   1      -0.890  -0.246  -0.401  0.00  0.00     0.002 A 
ATOM      4  C5  UNL d   1      -0.838  -0.998   0.777  0.00  0.00    -0.080 A 
ATOM      5  C6  UNL d   1      -1.733  -2.185   0.977  0.00  0.00     0.076 C 
ATOM      6  C7  UNL d   1       0.063  -0.628   1.781  0.00  0.00     0.002 A 
ATOM      7  C8  UNL d   1       0.883   0.492   1.619  0.00  0.00     0.006 A 
ENDROOT
BRANCH   1   8
ATOM      8  C1  UNL d   1       1.657   2.500   0.303  0.00  0.00     0.054 C 
ATOM      9  C   UNL d   1       0.936   3.720   0.859  0.00  0.00     0.018 C 
ENDBRANCH   1   8
TORSDOF 1
ENDMDL
