MODEL 1
REMARK minimizedAffinity -2.87702513
REMARK minimizedRMSD -1
REMARK  1 active torsions:
REMARK  status: ('A' for Active; 'I' for Inactive)
REMARK    1  A    between atoms: C1_2  and  C2_3 
ROOT
ATOM      1  C2  UNL d   1       0.135   1.476   0.008  0.00  0.00    -0.081 A 
ATOM      2  C3  UNL d   1       0.163   0.630  -1.108  0.00  0.00     0.006 A 
ATOM      3  C4  UNL d   1      -0.152  -0.724  -0.979  0.00  0.00     0.002 A 
ATOM      4  C5  UNL d   1      -0.508  -1.254   0.266  0.00  0.00    -0.080 A 
ATOM      5  C6  UNL d   1      -0.878  -2.700   0.414  0.00  0.00     0.076 C 
ATOM      6  C7  UNL d   1      -0.519  -0.414   1.384  0.00  0.00     0.002 A 
ATOM      7  C8  UNL d   1      -0.203   0.941   1.256  0.00  0.00     0.006 A 
ENDROOT
BRANCH   1   8
ATOM      8  C1  UNL d   1       0.411   2.950  -0.141  0.00  0.00     0.054 C 
ATOM      9  C   UNL d   1       1.906   3.238  -0.115  0.00  0.00     0.018 C 
ENDBRANCH   1   8
TORSDOF 1
ENDMDL
