MODEL 1
REMARK minimizedAffinity 10.3046494
REMARK minimizedRMSD -1
REMARK  1 active torsions:
REMARK  status: ('A' for Active; 'I' for Inactive)
REMARK    1  A    between atoms: C1_2  and  C2_3 
ROOT
ATOM      1  C2  UNL d   1       4.130  -2.259   4.716  0.00  0.00    -0.076 A 
ATOM      2  C3  UNL d   1       3.714  -1.384   3.697  0.00  0.00     0.004 A 
ATOM      3  C4  UNL d   1       4.434  -1.272   2.509  0.00  0.00    -0.003 A 
ATOM      4  C5  UNL d   1       5.582  -2.033   2.320  0.00  0.00     0.000 A 
ATOM      5  C6  UNL d   1       5.999  -2.919   3.312  0.00  0.00     0.000 A 
ATOM      6  C7  UNL d   1       5.276  -3.056   4.509  0.00  0.00    -0.073 A 
ATOM      7  C8  UNL d   1       5.775  -4.023   5.548  0.00  0.00     0.078 C 
ENDROOT
BRANCH   1   8
ATOM      8  C1  UNL d   1       3.324  -2.318   5.994  0.00  0.00     0.053 C 
ATOM      9  C   UNL d   1       2.052  -1.488   5.919  0.00  0.00     0.018 C 
ENDBRANCH   1   8
TORSDOF 1
ENDMDL
