MODEL 1
REMARK minimizedAffinity 8.68148518
REMARK minimizedRMSD -1
REMARK  1 active torsions:
REMARK  status: ('A' for Active; 'I' for Inactive)
REMARK    1  A    between atoms: C1_2  and  C2_3 
ROOT
ATOM      1  C2  UNL d   1      -0.693   4.089  -0.312  0.00  0.00    -0.076 A 
ATOM      2  C3  UNL d   1      -0.762   5.254  -1.095  0.00  0.00     0.004 A 
ATOM      3  C4  UNL d   1       0.383   5.998  -1.376  0.00  0.00    -0.003 A 
ATOM      4  C5  UNL d   1       1.615   5.589  -0.878  0.00  0.00     0.000 A 
ATOM      5  C6  UNL d   1       1.704   4.425  -0.114  0.00  0.00     0.000 A 
ATOM      6  C7  UNL d   1       0.562   3.655   0.165  0.00  0.00    -0.073 A 
ATOM      7  C8  UNL d   1       0.715   2.413   0.999  0.00  0.00     0.078 C 
ENDROOT
BRANCH   1   8
ATOM      8  C1  UNL d   1      -1.972   3.337  -0.018  0.00  0.00     0.053 C 
ATOM      9  C   UNL d   1      -2.615   3.771   1.291  0.00  0.00     0.018 C 
ENDBRANCH   1   8
TORSDOF 1
ENDMDL
