MODEL 1
REMARK minimizedAffinity 13.5482063
REMARK minimizedRMSD -1
REMARK  1 active torsions:
REMARK  status: ('A' for Active; 'I' for Inactive)
REMARK    1  A    between atoms: C1_2  and  C2_3 
ROOT
ATOM      1  C2  UNL d   1       1.124   5.183  -0.905  0.00  0.00    -0.076 A 
ATOM      2  C3  UNL d   1      -0.163   5.316  -1.456  0.00  0.00     0.004 A 
ATOM      3  C4  UNL d   1      -1.234   4.570  -0.967  0.00  0.00    -0.003 A 
ATOM      4  C5  UNL d   1      -1.035   3.679   0.082  0.00  0.00     0.000 A 
ATOM      5  C6  UNL d   1       0.230   3.547   0.652  0.00  0.00     0.000 A 
ATOM      6  C7  UNL d   1       1.317   4.303   0.182  0.00  0.00    -0.073 A 
ATOM      7  C8  UNL d   1       2.661   4.116   0.830  0.00  0.00     0.078 C 
ENDROOT
BRANCH   1   8
ATOM      8  C1  UNL d   1       2.252   5.998  -1.495  0.00  0.00     0.053 C 
ATOM      9  C   UNL d   1       2.239   5.997  -3.016  0.00  0.00     0.018 C 
ENDBRANCH   1   8
TORSDOF 1
ENDMDL
