MODEL 1
REMARK minimizedAffinity 12.6990891
REMARK minimizedRMSD -1
REMARK  1 active torsions:
REMARK  status: ('A' for Active; 'I' for Inactive)
REMARK    1  A    between atoms: C1_2  and  C2_3 
ROOT
ATOM      1  C2  UNL d   1      -3.234   3.321   1.092  0.00  0.00    -0.076 A 
ATOM      2  C3  UNL d   1      -3.389   4.418   1.957  0.00  0.00     0.004 A 
ATOM      3  C4  UNL d   1      -4.630   5.028   2.126  0.00  0.00    -0.003 A 
ATOM      4  C5  UNL d   1      -5.737   4.551   1.433  0.00  0.00     0.000 A 
ATOM      5  C6  UNL d   1      -5.606   3.453   0.584  0.00  0.00     0.000 A 
ATOM      6  C7  UNL d   1      -4.365   2.816   0.415  0.00  0.00    -0.073 A 
ATOM      7  C8  UNL d   1      -4.279   1.639  -0.518  0.00  0.00     0.078 C 
ENDROOT
BRANCH   1   8
ATOM      8  C1  UNL d   1      -1.858   2.716   0.928  0.00  0.00     0.053 C 
ATOM      9  C   UNL d   1      -0.989   3.500  -0.044  0.00  0.00     0.018 C 
ENDBRANCH   1   8
TORSDOF 1
ENDMDL
