MODEL 1
REMARK minimizedAffinity 6.4205718
REMARK minimizedRMSD -1
REMARK  1 active torsions:
REMARK  status: ('A' for Active; 'I' for Inactive)
REMARK    1  A    between atoms: C1_2  and  C2_3 
ROOT
ATOM      1  C2  UNL d   1      -0.193   1.121  -0.362  0.00  0.00    -0.076 A 
ATOM      2  C3  UNL d   1      -0.001   0.678   0.958  0.00  0.00     0.004 A 
ATOM      3  C4  UNL d   1       0.717  -0.487   1.227  0.00  0.00    -0.003 A 
ATOM      4  C5  UNL d   1       1.254  -1.226   0.180  0.00  0.00     0.000 A 
ATOM      5  C6  UNL d   1       1.089  -0.792  -1.135  0.00  0.00     0.000 A 
ATOM      6  C7  UNL d   1       0.382   0.388  -1.422  0.00  0.00    -0.073 A 
ATOM      7  C8  UNL d   1       0.229   0.807  -2.859  0.00  0.00     0.078 C 
ENDROOT
BRANCH   1   8
ATOM      8  C1  UNL d   1      -1.003   2.377  -0.594  0.00  0.00     0.053 C 
ATOM      9  C   UNL d   1      -2.258   2.426   0.263  0.00  0.00     0.018 C 
ENDBRANCH   1   8
TORSDOF 1
ENDMDL
