MODEL 1
REMARK minimizedAffinity 2.56234097
REMARK minimizedRMSD -1
REMARK  1 active torsions:
REMARK  status: ('A' for Active; 'I' for Inactive)
REMARK    1  A    between atoms: C1_2  and  C2_3 
ROOT
ATOM      1  C2  UNL d   1       0.103   5.160  -1.362  0.00  0.00    -0.076 A 
ATOM      2  C3  UNL d   1      -0.891   5.999  -1.895  0.00  0.00     0.004 A 
ATOM      3  C4  UNL d   1      -2.233   5.626  -1.874  0.00  0.00    -0.003 A 
ATOM      4  C5  UNL d   1      -2.604   4.406  -1.318  0.00  0.00     0.000 A 
ATOM      5  C6  UNL d   1      -1.634   3.569  -0.768  0.00  0.00     0.000 A 
ATOM      6  C7  UNL d   1      -0.278   3.938  -0.767  0.00  0.00    -0.073 A 
ATOM      7  C8  UNL d   1       0.726   2.994  -0.166  0.00  0.00     0.078 C 
ENDROOT
BRANCH   1   8
ATOM      8  C1  UNL d   1       1.545   5.606  -1.437  0.00  0.00     0.053 C 
ATOM      9  C   UNL d   1       1.960   6.000  -2.846  0.00  0.00     0.018 C 
ENDBRANCH   1   8
TORSDOF 1
ENDMDL
