MODEL 1
REMARK minimizedAffinity 1.08928347
REMARK minimizedRMSD -1
REMARK  0 active torsions:
REMARK  status: ('A' for Active; 'I' for Inactive)
ROOT
ATOM      1  C   UNL d   1       6.000  -2.606   5.630  0.00  0.00     0.077 C 
ATOM      2  C1  UNL d   1       4.780  -1.845   5.202  0.00  0.00    -0.074 A 
ATOM      3  C2  UNL d   1       3.632  -1.820   6.000  0.00  0.00    -0.005 A 
ATOM      4  C3  UNL d   1       2.508  -1.101   5.593  0.00  0.00     0.006 A 
ATOM      5  C4  UNL d   1       2.522  -0.400   4.386  0.00  0.00    -0.005 A 
ATOM      6  C5  UNL d   1       3.662  -0.412   3.576  0.00  0.00    -0.074 A 
ATOM      7  C6  UNL d   1       3.697   0.343   2.281  0.00  0.00     0.077 C 
ATOM      8  C7  UNL d   1       4.789  -1.132   3.995  0.00  0.00    -0.001 A 
ENDROOT
TORSDOF 0
ENDMDL
