MODEL 1
REMARK minimizedAffinity 4.34394169
REMARK minimizedRMSD -1
REMARK  0 active torsions:
REMARK  status: ('A' for Active; 'I' for Inactive)
ROOT
ATOM      1  C   UNL d   1       1.596  -1.509  -0.076  0.00  0.00     0.077 C 
ATOM      2  C1  UNL d   1       2.209  -1.429   1.291  0.00  0.00    -0.074 A 
ATOM      3  C2  UNL d   1       1.437  -1.091   2.406  0.00  0.00    -0.005 A 
ATOM      4  C3  UNL d   1       2.019  -1.029   3.672  0.00  0.00     0.006 A 
ATOM      5  C4  UNL d   1       3.377  -1.304   3.835  0.00  0.00    -0.005 A 
ATOM      6  C5  UNL d   1       4.165  -1.645   2.732  0.00  0.00    -0.074 A 
ATOM      7  C6  UNL d   1       5.624  -1.953   2.891  0.00  0.00     0.077 C 
ATOM      8  C7  UNL d   1       3.571  -1.712   1.464  0.00  0.00    -0.001 A 
ENDROOT
TORSDOF 0
ENDMDL
