MODEL 1
REMARK minimizedAffinity 0.961616993
REMARK minimizedRMSD -1
REMARK  0 active torsions:
REMARK  status: ('A' for Active; 'I' for Inactive)
ROOT
ATOM      1  C   UNL d   1       2.141  -4.772   3.097  0.00  0.00     0.077 C 
ATOM      2  C1  UNL d   1       2.340  -3.327   3.447  0.00  0.00    -0.074 A 
ATOM      3  C2  UNL d   1       2.322  -2.901   4.779  0.00  0.00    -0.005 A 
ATOM      4  C3  UNL d   1       2.518  -1.556   5.090  0.00  0.00     0.006 A 
ATOM      5  C4  UNL d   1       2.734  -0.624   4.074  0.00  0.00    -0.005 A 
ATOM      6  C5  UNL d   1       2.756  -1.031   2.736  0.00  0.00    -0.074 A 
ATOM      7  C6  UNL d   1       2.996  -0.044   1.633  0.00  0.00     0.077 C 
ATOM      8  C7  UNL d   1       2.565  -2.386   2.432  0.00  0.00    -0.001 A 
ENDROOT
TORSDOF 0
ENDMDL
