MODEL 1
REMARK minimizedAffinity 4.15850401
REMARK minimizedRMSD -1
REMARK  0 active torsions:
REMARK  status: ('A' for Active; 'I' for Inactive)
ROOT
ATOM      1  C   UNL d   1       2.692  -3.888   4.485  0.00  0.00     0.077 C 
ATOM      2  C1  UNL d   1       2.714  -2.673   3.606  0.00  0.00    -0.074 A 
ATOM      3  C2  UNL d   1       3.843  -1.850   3.545  0.00  0.00    -0.005 A 
ATOM      4  C3  UNL d   1       3.852  -0.729   2.716  0.00  0.00     0.006 A 
ATOM      5  C4  UNL d   1       2.735  -0.419   1.940  0.00  0.00    -0.005 A 
ATOM      6  C5  UNL d   1       1.597  -1.231   1.987  0.00  0.00    -0.074 A 
ATOM      7  C6  UNL d   1       0.391  -0.919   1.152  0.00  0.00     0.077 C 
ATOM      8  C7  UNL d   1       1.598  -2.360   2.817  0.00  0.00    -0.001 A 
ENDROOT
TORSDOF 0
ENDMDL
