MODEL 1
REMARK minimizedAffinity 3.79324031
REMARK minimizedRMSD -1
REMARK  0 active torsions:
REMARK  status: ('A' for Active; 'I' for Inactive)
ROOT
ATOM      1  C   UNL d   1       2.287  -4.563   2.621  0.00  0.00     0.077 C 
ATOM      2  C1  UNL d   1       2.305  -3.121   3.036  0.00  0.00    -0.074 A 
ATOM      3  C2  UNL d   1       2.087  -2.754   4.368  0.00  0.00    -0.005 A 
ATOM      4  C3  UNL d   1       2.116  -1.410   4.740  0.00  0.00     0.006 A 
ATOM      5  C4  UNL d   1       2.362  -0.422   3.786  0.00  0.00    -0.005 A 
ATOM      6  C5  UNL d   1       2.582  -0.770   2.450  0.00  0.00    -0.074 A 
ATOM      7  C6  UNL d   1       2.858   0.279   1.414  0.00  0.00     0.077 C 
ATOM      8  C7  UNL d   1       2.559  -2.123   2.085  0.00  0.00    -0.001 A 
ENDROOT
TORSDOF 0
ENDMDL
