MODEL 1
REMARK minimizedAffinity 9.64721775
REMARK minimizedRMSD -1
REMARK  0 active torsions:
REMARK  status: ('A' for Active; 'I' for Inactive)
ROOT
ATOM      1  C   UNL d   1       2.028  -2.167   4.086  0.00  0.00     0.077 C 
ATOM      2  C1  UNL d   1       2.288  -0.751   3.666  0.00  0.00    -0.074 A 
ATOM      3  C2  UNL d   1       2.078   0.312   4.551  0.00  0.00    -0.005 A 
ATOM      4  C3  UNL d   1       2.333   1.623   4.149  0.00  0.00     0.006 A 
ATOM      5  C4  UNL d   1       2.799   1.884   2.860  0.00  0.00    -0.005 A 
ATOM      6  C5  UNL d   1       3.015   0.834   1.961  0.00  0.00    -0.074 A 
ATOM      7  C6  UNL d   1       3.525   1.097   0.575  0.00  0.00     0.077 C 
ATOM      8  C7  UNL d   1       2.763  -0.481   2.375  0.00  0.00    -0.001 A 
ENDROOT
TORSDOF 0
ENDMDL
