MODEL 1
REMARK minimizedAffinity 3.11249352
REMARK minimizedRMSD -1
REMARK  0 active torsions:
REMARK  status: ('A' for Active; 'I' for Inactive)
ROOT
ATOM      1  C   UNL d   1       2.253   1.138   3.435  0.00  0.00     0.077 C 
ATOM      2  C1  UNL d   1       2.389   1.478   1.981  0.00  0.00    -0.074 A 
ATOM      3  C2  UNL d   1       3.145   0.673   1.122  0.00  0.00    -0.005 A 
ATOM      4  C3  UNL d   1       3.255   0.997  -0.230  0.00  0.00     0.006 A 
ATOM      5  C4  UNL d   1       2.611   2.127  -0.736  0.00  0.00    -0.005 A 
ATOM      6  C5  UNL d   1       1.850   2.943   0.107  0.00  0.00    -0.074 A 
ATOM      7  C6  UNL d   1       1.143   4.155  -0.423  0.00  0.00     0.077 C 
ATOM      8  C7  UNL d   1       1.739   2.607   1.463  0.00  0.00    -0.001 A 
ENDROOT
TORSDOF 0
ENDMDL
