MODEL 1
REMARK minimizedAffinity 6.1818881
REMARK minimizedRMSD -1
REMARK  0 active torsions:
REMARK  status: ('A' for Active; 'I' for Inactive)
ROOT
ATOM      1  C   UNL d   1       1.869   0.541   2.417  0.00  0.00     0.077 C 
ATOM      2  C1  UNL d   1       2.237  -0.853   2.830  0.00  0.00    -0.074 A 
ATOM      3  C2  UNL d   1       2.254  -1.897   1.901  0.00  0.00    -0.005 A 
ATOM      4  C3  UNL d   1       2.608  -3.187   2.298  0.00  0.00     0.006 A 
ATOM      5  C4  UNL d   1       2.948  -3.444   3.627  0.00  0.00    -0.005 A 
ATOM      6  C5  UNL d   1       2.937  -2.412   4.570  0.00  0.00    -0.074 A 
ATOM      7  C6  UNL d   1       3.310  -2.670   6.000  0.00  0.00     0.077 C 
ATOM      8  C7  UNL d   1       2.588  -1.118   4.162  0.00  0.00    -0.001 A 
ENDROOT
TORSDOF 0
ENDMDL
