MODEL 1
REMARK minimizedAffinity 5.78247976
REMARK minimizedRMSD -1
REMARK  0 active torsions:
REMARK  status: ('A' for Active; 'I' for Inactive)
ROOT
ATOM      1  C   UNL d   1       1.516  -3.036   5.679  0.00  0.00     0.077 C 
ATOM      2  C1  UNL d   1       1.949  -2.816   4.260  0.00  0.00    -0.074 A 
ATOM      3  C2  UNL d   1       2.592  -3.828   3.539  0.00  0.00    -0.005 A 
ATOM      4  C3  UNL d   1       2.980  -3.613   2.217  0.00  0.00     0.006 A 
ATOM      5  C4  UNL d   1       2.730  -2.385   1.603  0.00  0.00    -0.005 A 
ATOM      6  C5  UNL d   1       2.088  -1.362   2.307  0.00  0.00    -0.074 A 
ATOM      7  C6  UNL d   1       1.802  -0.040   1.658  0.00  0.00     0.077 C 
ATOM      8  C7  UNL d   1       1.694  -1.589   3.633  0.00  0.00    -0.001 A 
ENDROOT
TORSDOF 0
ENDMDL
