MODEL 1
REMARK minimizedAffinity 10.6140947
REMARK minimizedRMSD -1
REMARK  0 active torsions:
REMARK  status: ('A' for Active; 'I' for Inactive)
ROOT
ATOM      1  C   UNL d   1      -5.999   2.384   3.905  0.00  0.00     0.077 C 
ATOM      2  C1  UNL d   1      -5.243   2.929   2.730  0.00  0.00    -0.074 A 
ATOM      3  C2  UNL d   1      -3.893   2.617   2.537  0.00  0.00    -0.005 A 
ATOM      4  C3  UNL d   1      -3.205   3.123   1.434  0.00  0.00     0.006 A 
ATOM      5  C4  UNL d   1      -3.859   3.946   0.515  0.00  0.00    -0.005 A 
ATOM      6  C5  UNL d   1      -5.208   4.268   0.692  0.00  0.00    -0.074 A 
ATOM      7  C6  UNL d   1      -5.928   5.142  -0.292  0.00  0.00     0.077 C 
ATOM      8  C7  UNL d   1      -5.894   3.749   1.798  0.00  0.00    -0.001 A 
ENDROOT
TORSDOF 0
ENDMDL
