MODEL 1
REMARK minimizedAffinity 6.7549572
REMARK minimizedRMSD -1
REMARK  0 active torsions:
REMARK  status: ('A' for Active; 'I' for Inactive)
ROOT
ATOM      1  C   UNL d   1      -5.436   2.242   4.448  0.00  0.00     0.077 C 
ATOM      2  C1  UNL d   1      -5.037   2.736   3.089  0.00  0.00    -0.074 A 
ATOM      3  C2  UNL d   1      -6.000   3.026   2.117  0.00  0.00    -0.005 A 
ATOM      4  C3  UNL d   1      -5.614   3.494   0.862  0.00  0.00     0.006 A 
ATOM      5  C4  UNL d   1      -4.262   3.677   0.565  0.00  0.00    -0.005 A 
ATOM      6  C5  UNL d   1      -3.285   3.394   1.525  0.00  0.00    -0.074 A 
ATOM      7  C6  UNL d   1      -1.829   3.595   1.226  0.00  0.00     0.077 C 
ATOM      8  C7  UNL d   1      -3.682   2.931   2.787  0.00  0.00    -0.001 A 
ENDROOT
TORSDOF 0
ENDMDL
