MODEL 1
REMARK minimizedAffinity -3.70556641
REMARK minimizedRMSD -1
REMARK  2 active torsions:
REMARK  status: ('A' for Active; 'I' for Inactive)
REMARK    1  A    between atoms: C2'_3  and  C1'_4 
REMARK    2  A    between atoms: C1'_4  and  C1_5 
ROOT
ATOM      1  C1  I4B d   1       2.137   0.944   0.547  0.00  0.00    -0.075 A 
ATOM      2  C2  I4B d   1       2.899   1.644  -0.355  0.00  0.00     0.003 A 
ATOM      3  C3  I4B d   1       3.423   2.913  -0.012  0.00  0.00     0.002 A 
ATOM      4  C4  I4B d   1       3.121   3.464   1.217  0.00  0.00    -0.004 A 
ATOM      5  C5  I4B d   1       2.368   2.743   2.139  0.00  0.00     0.002 A 
ATOM      6  C6  I4B d   1       1.883   1.470   1.807  0.00  0.00     0.003 A 
ENDROOT
BRANCH   1   7
ATOM      7  C1' I4B d   1       1.572  -0.380   0.140  0.00  0.00     0.060 C 
BRANCH   7   8
ATOM      8  C2' I4B d   1       0.063  -0.294   0.242  0.00  0.00    -0.013 C 
ATOM      9  C4' I4B d   1      -0.566  -0.117  -1.115  0.00  0.00     0.013 C 
ATOM     10  C3' I4B d   1      -0.428  -1.546   0.906  0.00  0.00     0.013 C 
ENDBRANCH   7   8
ENDBRANCH   1   7
TORSDOF 2
ENDMDL
