MODEL 1
REMARK minimizedAffinity -3.15366054
REMARK minimizedRMSD -1
REMARK  2 active torsions:
REMARK  status: ('A' for Active; 'I' for Inactive)
REMARK    1  A    between atoms: C2'_3  and  C1'_4 
REMARK    2  A    between atoms: C1'_4  and  C1_5 
ROOT
ATOM      1  C1  I4B d   1       0.919   0.518   0.186  0.00  0.00    -0.075 A 
ATOM      2  C2  I4B d   1       2.199   0.300  -0.259  0.00  0.00     0.003 A 
ATOM      3  C3  I4B d   1       3.275   1.054   0.267  0.00  0.00     0.002 A 
ATOM      4  C4  I4B d   1       3.022   2.045   1.194  0.00  0.00    -0.004 A 
ATOM      5  C5  I4B d   1       1.727   2.249   1.662  0.00  0.00     0.002 A 
ATOM      6  C6  I4B d   1       0.670   1.473   1.164  0.00  0.00     0.003 A 
ENDROOT
BRANCH   1   7
ATOM      7  C1' I4B d   1      -0.198  -0.274  -0.415  0.00  0.00     0.060 C 
BRANCH   7   8
ATOM      8  C2' I4B d   1      -1.282   0.696  -0.840  0.00  0.00    -0.013 C 
ATOM      9  C4' I4B d   1      -0.860   1.491  -2.047  0.00  0.00     0.013 C 
ATOM     10  C3' I4B d   1      -2.526  -0.093  -1.119  0.00  0.00     0.013 C 
ENDBRANCH   7   8
ENDBRANCH   1   7
TORSDOF 2
ENDMDL
