MODEL 1
REMARK minimizedAffinity -3.55836844
REMARK minimizedRMSD -1
REMARK  2 active torsions:
REMARK  status: ('A' for Active; 'I' for Inactive)
REMARK    1  A    between atoms: C2'_3  and  C1'_4 
REMARK    2  A    between atoms: C1'_4  and  C1_5 
ROOT
ATOM      1  C1  I4B d   1       1.066   0.750   0.260  0.00  0.00    -0.075 A 
ATOM      2  C2  I4B d   1       2.410   0.472   0.245  0.00  0.00     0.003 A 
ATOM      3  C3  I4B d   1       3.336   1.403   0.772  0.00  0.00     0.002 A 
ATOM      4  C4  I4B d   1       2.883   2.614   1.255  0.00  0.00    -0.004 A 
ATOM      5  C5  I4B d   1       1.519   2.885   1.290  0.00  0.00     0.002 A 
ATOM      6  C6  I4B d   1       0.603   1.942   0.801  0.00  0.00     0.003 A 
ENDROOT
BRANCH   1   7
ATOM      7  C1' I4B d   1       0.117  -0.242  -0.336  0.00  0.00     0.060 C 
BRANCH   7   8
ATOM      8  C2' I4B d   1      -0.921   0.524  -1.131  0.00  0.00    -0.013 C 
ATOM      9  C4' I4B d   1      -0.354   1.014  -2.437  0.00  0.00     0.013 C 
ATOM     10  C3' I4B d   1      -2.093  -0.384  -1.356  0.00  0.00     0.013 C 
ENDBRANCH   7   8
ENDBRANCH   1   7
TORSDOF 2
ENDMDL
