MODEL 1
REMARK minimizedAffinity -0.609772325
REMARK minimizedRMSD -1
REMARK  2 active torsions:
REMARK  status: ('A' for Active; 'I' for Inactive)
REMARK    1  A    between atoms: C2'_3  and  C1'_4 
REMARK    2  A    between atoms: C1'_4  and  C1_5 
ROOT
ATOM      1  C1  I4B d   1       0.400   0.108  -0.264  0.00  0.00    -0.075 A 
ATOM      2  C2  I4B d   1      -0.094   0.446  -1.499  0.00  0.00     0.003 A 
ATOM      3  C3  I4B d   1      -1.400   0.051  -1.878  0.00  0.00     0.002 A 
ATOM      4  C4  I4B d   1      -2.153  -0.719  -1.016  0.00  0.00    -0.004 A 
ATOM      5  C5  I4B d   1      -1.660  -1.041   0.245  0.00  0.00     0.002 A 
ATOM      6  C6  I4B d   1      -0.381  -0.615   0.629  0.00  0.00     0.003 A 
ENDROOT
BRANCH   1   7
ATOM      7  C1' I4B d   1       1.795   0.514   0.090  0.00  0.00     0.060 C 
BRANCH   7   8
ATOM      8  C2' I4B d   1       1.747   1.928   0.633  0.00  0.00    -0.013 C 
ATOM      9  C4' I4B d   1       1.908   1.943   2.130  0.00  0.00     0.013 C 
ATOM     10  C3' I4B d   1       2.832   2.717  -0.036  0.00  0.00     0.013 C 
ENDBRANCH   7   8
ENDBRANCH   1   7
TORSDOF 2
ENDMDL
