MODEL 1
REMARK minimizedAffinity -3.96943712
REMARK minimizedRMSD -1
REMARK  2 active torsions:
REMARK  status: ('A' for Active; 'I' for Inactive)
REMARK    1  A    between atoms: C2'_3  and  C1'_4 
REMARK    2  A    between atoms: C1'_4  and  C1_5 
ROOT
ATOM      1  C1  I4B d   1       0.849   0.552  -0.185  0.00  0.00    -0.075 A 
ATOM      2  C2  I4B d   1       0.260   0.967  -1.353  0.00  0.00     0.003 A 
ATOM      3  C3  I4B d   1      -1.015   0.474  -1.722  0.00  0.00     0.002 A 
ATOM      4  C4  I4B d   1      -1.637  -0.465  -0.926  0.00  0.00    -0.004 A 
ATOM      5  C5  I4B d   1      -1.048  -0.868   0.269  0.00  0.00     0.002 A 
ATOM      6  C6  I4B d   1       0.197  -0.347   0.649  0.00  0.00     0.003 A 
ENDROOT
BRANCH   1   7
ATOM      7  C1' I4B d   1       2.211   1.068   0.158  0.00  0.00     0.060 C 
BRANCH   7   8
ATOM      8  C2' I4B d   1       2.054   2.110   1.247  0.00  0.00    -0.013 C 
ATOM      9  C4' I4B d   1       2.987   1.841   2.398  0.00  0.00     0.013 C 
ATOM     10  C3' I4B d   1       2.316   3.456   0.641  0.00  0.00     0.013 C 
ENDBRANCH   7   8
ENDBRANCH   1   7
TORSDOF 2
ENDMDL
