MODEL 1
REMARK minimizedAffinity -2.29657626
REMARK minimizedRMSD -1
REMARK  2 active torsions:
REMARK  status: ('A' for Active; 'I' for Inactive)
REMARK    1  A    between atoms: C2'_3  and  C1'_4 
REMARK    2  A    between atoms: C1'_4  and  C1_5 
ROOT
ATOM      1  C1  I4B d   1       0.260   0.267  -0.105  0.00  0.00    -0.075 A 
ATOM      2  C2  I4B d   1      -0.606   0.997  -0.879  0.00  0.00     0.003 A 
ATOM      3  C3  I4B d   1      -1.864   0.459  -1.243  0.00  0.00     0.002 A 
ATOM      4  C4  I4B d   1      -2.192  -0.825  -0.856  0.00  0.00    -0.004 A 
ATOM      5  C5  I4B d   1      -1.321  -1.555  -0.053  0.00  0.00     0.002 A 
ATOM      6  C6  I4B d   1      -0.092  -1.002   0.336  0.00  0.00     0.003 A 
ENDROOT
BRANCH   1   7
ATOM      7  C1' I4B d   1       1.594   0.854   0.233  0.00  0.00     0.060 C 
BRANCH   7   8
ATOM      8  C2' I4B d   1       1.362   2.058   1.122  0.00  0.00    -0.013 C 
ATOM      9  C4' I4B d   1       2.117   1.932   2.419  0.00  0.00     0.013 C 
ATOM     10  C3' I4B d   1       1.787   3.281   0.365  0.00  0.00     0.013 C 
ENDBRANCH   7   8
ENDBRANCH   1   7
TORSDOF 2
ENDMDL
