MODEL 1
REMARK minimizedAffinity -4.81736374
REMARK minimizedRMSD -1
REMARK  2 active torsions:
REMARK  status: ('A' for Active; 'I' for Inactive)
REMARK    1  A    between atoms: C2'_3  and  C1'_4 
REMARK    2  A    between atoms: C1'_4  and  C1_5 
ROOT
ATOM      1  C1  I4B d   1      -0.431  -0.456  -0.010  0.00  0.00    -0.075 A 
ATOM      2  C2  I4B d   1      -1.573  -0.390  -0.769  0.00  0.00     0.003 A 
ATOM      3  C3  I4B d   1      -2.606  -1.340  -0.587  0.00  0.00     0.002 A 
ATOM      4  C4  I4B d   1      -2.436  -2.363   0.324  0.00  0.00    -0.004 A 
ATOM      5  C5  I4B d   1      -1.288  -2.415   1.109  0.00  0.00     0.002 A 
ATOM      6  C6  I4B d   1      -0.284  -1.449   0.950  0.00  0.00     0.003 A 
ENDROOT
BRANCH   1   7
ATOM      7  C1' I4B d   1       0.654   0.544  -0.252  0.00  0.00     0.060 C 
BRANCH   7   8
ATOM      8  C2' I4B d   1       1.785   0.249   0.713  0.00  0.00    -0.013 C 
ATOM      9  C4' I4B d   1       2.819  -0.647   0.084  0.00  0.00     0.013 C 
ATOM     10  C3' I4B d   1       2.385   1.557   1.135  0.00  0.00     0.013 C 
ENDBRANCH   7   8
ENDBRANCH   1   7
TORSDOF 2
ENDMDL
