MODEL 1
REMARK minimizedAffinity -0.734684646
REMARK minimizedRMSD -1
REMARK  2 active torsions:
REMARK  status: ('A' for Active; 'I' for Inactive)
REMARK    1  A    between atoms: C2'_3  and  C1'_4 
REMARK    2  A    between atoms: C1'_4  and  C1_5 
ROOT
ATOM      1  C1  I4B d   1       1.102   0.848   0.029  0.00  0.00    -0.075 A 
ATOM      2  C2  I4B d   1       0.211   1.371  -0.874  0.00  0.00     0.003 A 
ATOM      3  C3  I4B d   1      -0.896   0.603  -1.311  0.00  0.00     0.002 A 
ATOM      4  C4  I4B d   1      -1.043  -0.693  -0.861  0.00  0.00    -0.004 A 
ATOM      5  C5  I4B d   1      -0.152  -1.214   0.072  0.00  0.00     0.002 A 
ATOM      6  C6  I4B d   1       0.921  -0.435   0.530  0.00  0.00     0.003 A 
ENDROOT
BRANCH   1   7
ATOM      7  C1' I4B d   1       2.277   1.675   0.444  0.00  0.00     0.060 C 
BRANCH   7   8
ATOM      8  C2' I4B d   1       1.828   2.600   1.556  0.00  0.00    -0.013 C 
ATOM      9  C4' I4B d   1       2.679   2.429   2.786  0.00  0.00     0.013 C 
ATOM     10  C3' I4B d   1       1.896   4.008   1.043  0.00  0.00     0.013 C 
ENDBRANCH   7   8
ENDBRANCH   1   7
TORSDOF 2
ENDMDL
