MODEL 1
REMARK minimizedAffinity 0.91691494
REMARK minimizedRMSD -1
REMARK  2 active torsions:
REMARK  status: ('A' for Active; 'I' for Inactive)
REMARK    1  A    between atoms: C2'_3  and  C1'_4 
REMARK    2  A    between atoms: C1'_4  and  C1_5 
ROOT
ATOM      1  C1  I4B d   1       0.939  -0.029   0.371  0.00  0.00    -0.075 A 
ATOM      2  C2  I4B d   1       1.804  -0.866   1.030  0.00  0.00     0.003 A 
ATOM      3  C3  I4B d   1       1.305  -1.947   1.796  0.00  0.00     0.002 A 
ATOM      4  C4  I4B d   1      -0.058  -2.123   1.916  0.00  0.00    -0.004 A 
ATOM      5  C5  I4B d   1      -0.934  -1.287   1.229  0.00  0.00     0.002 A 
ATOM      6  C6  I4B d   1      -0.432  -0.241   0.441  0.00  0.00     0.003 A 
ENDROOT
BRANCH   1   7
ATOM      7  C1' I4B d   1       1.498   1.123  -0.402  0.00  0.00     0.060 C 
BRANCH   7   8
ATOM      8  C2' I4B d   1       2.594   1.756   0.431  0.00  0.00    -0.013 C 
ATOM      9  C4' I4B d   1       3.005   3.091  -0.132  0.00  0.00     0.013 C 
ATOM     10  C3' I4B d   1       2.086   1.894   1.836  0.00  0.00     0.013 C 
ENDBRANCH   7   8
ENDBRANCH   1   7
TORSDOF 2
ENDMDL
