MODEL 1
REMARK minimizedAffinity -4.41591406
REMARK minimizedRMSD -1
REMARK  2 active torsions:
REMARK  status: ('A' for Active; 'I' for Inactive)
REMARK    1  A    between atoms: C2'_3  and  C1'_4 
REMARK    2  A    between atoms: C1'_4  and  C1_5 
ROOT
ATOM      1  C1  I4B d   1       0.452   1.574   0.274  0.00  0.00    -0.075 A 
ATOM      2  C2  I4B d   1       0.583   2.845   0.778  0.00  0.00     0.003 A 
ATOM      3  C3  I4B d   1       1.868   3.404   0.977  0.00  0.00     0.002 A 
ATOM      4  C4  I4B d   1       2.989   2.644   0.709  0.00  0.00    -0.004 A 
ATOM      5  C5  I4B d   1       2.855   1.365   0.178  0.00  0.00     0.002 A 
ATOM      6  C6  I4B d   1       1.579   0.831  -0.053  0.00  0.00     0.003 A 
ENDROOT
BRANCH   1   7
ATOM      7  C1' I4B d   1      -0.920   1.002   0.107  0.00  0.00     0.060 C 
BRANCH   7   8
ATOM      8  C2' I4B d   1      -0.923   0.157  -1.150  0.00  0.00    -0.013 C 
ATOM      9  C4' I4B d   1      -2.027  -0.867  -1.116  0.00  0.00     0.013 C 
ATOM     10  C3' I4B d   1      -1.074   1.077  -2.325  0.00  0.00     0.013 C 
ENDBRANCH   7   8
ENDBRANCH   1   7
TORSDOF 2
ENDMDL
