MODEL 1
REMARK minimizedAffinity 2.91693258
REMARK minimizedRMSD -1
REMARK  3 active torsions:
REMARK  status: ('A' for Active; 'I' for Inactive)
REMARK    1  A    between atoms: C3'_2  and  C2'_3 
REMARK    2  A    between atoms: C2'_3  and  C1'_4 
REMARK    3  A    between atoms: C1'_4  and  C1_5 
ROOT
ATOM      1  C1  N4B d   1       0.501   0.309   3.273  0.00  0.00    -0.075 A 
ATOM      2  C2  N4B d   1       1.405   0.754   2.283  0.00  0.00     0.002 A 
ATOM      3  C3  N4B d   1       1.031   1.746   1.409  0.00  0.00     0.002 A 
ATOM      4  C4  N4B d   1      -0.241   2.291   1.494  0.00  0.00    -0.004 A 
ATOM      5  C5  N4B d   1      -1.098   1.874   2.469  0.00  0.00     0.002 A 
ATOM      6  C6  N4B d   1      -0.735   0.881   3.357  0.00  0.00     0.002 A 
ENDROOT
BRANCH   1   7
ATOM      7  C1' N4B d   1       0.833  -0.831   4.196  0.00  0.00     0.057 C 
BRANCH   7   8
ATOM      8  C2' N4B d   1       2.128  -1.491   3.731  0.00  0.00     0.009 C 
BRANCH   8   9
ATOM      9  C3' N4B d   1       2.574  -2.596   4.674  0.00  0.00     0.004 C 
ATOM     10  C4' N4B d   1       3.812  -2.239   5.442  0.00  0.00     0.003 C 
ENDBRANCH   8   9
ENDBRANCH   7   8
ENDBRANCH   1   7
TORSDOF 3
ENDMDL
