MODEL 1
REMARK minimizedAffinity 5.33472586
REMARK minimizedRMSD -1
REMARK  3 active torsions:
REMARK  status: ('A' for Active; 'I' for Inactive)
REMARK    1  A    between atoms: C3'_2  and  C2'_3 
REMARK    2  A    between atoms: C2'_3  and  C1'_4 
REMARK    3  A    between atoms: C1'_4  and  C1_5 
ROOT
ATOM      1  C1  N4B d   1      -0.655   1.485   2.588  0.00  0.00    -0.075 A 
ATOM      2  C2  N4B d   1      -0.795   0.381   3.458  0.00  0.00     0.002 A 
ATOM      3  C3  N4B d   1       0.303  -0.372   3.794  0.00  0.00     0.002 A 
ATOM      4  C4  N4B d   1       1.542  -0.053   3.260  0.00  0.00    -0.004 A 
ATOM      5  C5  N4B d   1       1.674   1.030   2.441  0.00  0.00     0.002 A 
ATOM      6  C6  N4B d   1       0.579   1.798   2.098  0.00  0.00     0.002 A 
ENDROOT
BRANCH   1   7
ATOM      7  C1' N4B d   1      -1.841   2.286   2.124  0.00  0.00     0.057 C 
BRANCH   7   8
ATOM      8  C2' N4B d   1      -1.392   3.709   1.808  0.00  0.00     0.009 C 
BRANCH   8   9
ATOM      9  C3' N4B d   1      -2.551   4.588   1.372  0.00  0.00     0.004 C 
ATOM     10  C4' N4B d   1      -2.510   5.953   1.991  0.00  0.00     0.003 C 
ENDBRANCH   8   9
ENDBRANCH   7   8
ENDBRANCH   1   7
TORSDOF 3
ENDMDL
