MODEL 1
REMARK minimizedAffinity 7.27240181
REMARK minimizedRMSD -1
REMARK  3 active torsions:
REMARK  status: ('A' for Active; 'I' for Inactive)
REMARK    1  A    between atoms: C3'_2  and  C2'_3 
REMARK    2  A    between atoms: C2'_3  and  C1'_4 
REMARK    3  A    between atoms: C1'_4  and  C1_5 
ROOT
ATOM      1  C1  N4B d   1      -4.292  -0.361   1.761  0.00  0.00    -0.075 A 
ATOM      2  C2  N4B d   1      -4.957   0.390   0.767  0.00  0.00     0.002 A 
ATOM      3  C3  N4B d   1      -4.527   0.336  -0.536  0.00  0.00     0.002 A 
ATOM      4  C4  N4B d   1      -3.428  -0.443  -0.865  0.00  0.00    -0.004 A 
ATOM      5  C5  N4B d   1      -2.807  -1.185   0.097  0.00  0.00     0.002 A 
ATOM      6  C6  N4B d   1      -3.231  -1.144   1.410  0.00  0.00     0.002 A 
ENDROOT
BRANCH   1   7
ATOM      7  C1' N4B d   1      -4.671  -0.267   3.214  0.00  0.00     0.057 C 
BRANCH   7   8
ATOM      8  C2' N4B d   1      -5.999  -0.986   3.432  0.00  0.00     0.009 C 
BRANCH   8   9
ATOM      9  C3' N4B d   1      -5.894  -2.063   4.498  0.00  0.00     0.004 C 
ATOM     10  C4' N4B d   1      -5.996  -1.515   5.890  0.00  0.00     0.003 C 
ENDBRANCH   8   9
ENDBRANCH   7   8
ENDBRANCH   1   7
TORSDOF 3
ENDMDL
