MODEL 1
REMARK minimizedAffinity 10.2257166
REMARK minimizedRMSD -1
REMARK  3 active torsions:
REMARK  status: ('A' for Active; 'I' for Inactive)
REMARK    1  A    between atoms: C3'_2  and  C2'_3 
REMARK    2  A    between atoms: C2'_3  and  C1'_4 
REMARK    3  A    between atoms: C1'_4  and  C1_5 
ROOT
ATOM      1  C1  N4B d   1      -0.142   0.664   0.017  0.00  0.00    -0.075 A 
ATOM      2  C2  N4B d   1      -0.212   0.961   1.395  0.00  0.00     0.002 A 
ATOM      3  C3  N4B d   1       0.801   0.569   2.235  0.00  0.00     0.002 A 
ATOM      4  C4  N4B d   1       1.881  -0.136   1.724  0.00  0.00    -0.004 A 
ATOM      5  C5  N4B d   1       1.953  -0.396   0.386  0.00  0.00     0.002 A 
ATOM      6  C6  N4B d   1       0.944  -0.004  -0.470  0.00  0.00     0.002 A 
ENDROOT
BRANCH   1   7
ATOM      7  C1' N4B d   1      -1.266   0.998  -0.926  0.00  0.00     0.057 C 
BRANCH   7   8
ATOM      8  C2' N4B d   1      -2.576   1.048  -0.145  0.00  0.00     0.009 C 
BRANCH   8   9
ATOM      9  C3' N4B d   1      -3.777   1.213  -1.060  0.00  0.00     0.004 C 
ATOM     10  C4' N4B d   1      -3.824   2.560  -1.719  0.00  0.00     0.003 C 
ENDBRANCH   8   9
ENDBRANCH   7   8
ENDBRANCH   1   7
TORSDOF 3
ENDMDL
