MODEL 1
REMARK minimizedAffinity -1.83789504
REMARK minimizedRMSD -1
REMARK  3 active torsions:
REMARK  status: ('A' for Active; 'I' for Inactive)
REMARK    1  A    between atoms: C3'_2  and  C2'_3 
REMARK    2  A    between atoms: C2'_3  and  C1'_4 
REMARK    3  A    between atoms: C1'_4  and  C1_5 
ROOT
ATOM      1  C1  N4B d   1       0.605   1.296  -0.463  0.00  0.00    -0.075 A 
ATOM      2  C2  N4B d   1       0.658   2.673  -0.155  0.00  0.00     0.002 A 
ATOM      3  C3  N4B d   1       0.658   3.083   1.156  0.00  0.00     0.002 A 
ATOM      4  C4  N4B d   1       0.585   2.140   2.170  0.00  0.00    -0.004 A 
ATOM      5  C5  N4B d   1       0.560   0.811   1.864  0.00  0.00     0.002 A 
ATOM      6  C6  N4B d   1       0.564   0.384   0.551  0.00  0.00     0.002 A 
ENDROOT
BRANCH   1   7
ATOM      7  C1' N4B d   1       0.517   0.803  -1.882  0.00  0.00     0.057 C 
BRANCH   7   8
ATOM      8  C2' N4B d   1      -0.785   0.027  -2.062  0.00  0.00     0.009 C 
BRANCH   8   9
ATOM      9  C3' N4B d   1      -1.219  -0.023  -3.517  0.00  0.00     0.004 C 
ATOM     10  C4' N4B d   1      -2.707  -0.119  -3.677  0.00  0.00     0.003 C 
ENDBRANCH   8   9
ENDBRANCH   7   8
ENDBRANCH   1   7
TORSDOF 3
ENDMDL
