MODEL 1
REMARK minimizedAffinity -0.913246691
REMARK minimizedRMSD -1
REMARK  1 active torsions:
REMARK  status: ('A' for Active; 'I' for Inactive)
REMARK    1  A    between atoms: C1_2  and  C2_3 
ROOT
ATOM      1  C2  UNL d   1      -0.273  -1.349   0.701  0.00  0.00    -0.077 A 
ATOM      2  C3  UNL d   1       0.613  -2.420   0.880  0.00  0.00     0.002 A 
ATOM      3  C4  UNL d   1       1.933  -2.326   0.434  0.00  0.00     0.002 A 
ATOM      4  C5  UNL d   1       2.379  -1.162  -0.189  0.00  0.00    -0.004 A 
ATOM      5  C6  UNL d   1       1.504  -0.092  -0.373  0.00  0.00     0.002 A 
ATOM      6  C7  UNL d   1       0.184  -0.185   0.071  0.00  0.00     0.002 A 
ENDROOT
BRANCH   1   7
ATOM      7  C1  UNL d   1      -1.683  -1.429   1.226  0.00  0.00     0.055 C 
ATOM      8  C   UNL d   1      -1.886  -0.500   2.414  0.00  0.00     0.019 C 
ENDBRANCH   1   7
TORSDOF 1
ENDMDL
