MODEL 1
REMARK minimizedAffinity -3.35693884
REMARK minimizedRMSD -1
REMARK  1 active torsions:
REMARK  status: ('A' for Active; 'I' for Inactive)
REMARK    1  A    between atoms: C1_2  and  C2_3 
ROOT
ATOM      1  C2  UNL d   1       0.231  -1.140   0.121  0.00  0.00    -0.077 A 
ATOM      2  C3  UNL d   1       0.244  -0.854  -1.252  0.00  0.00     0.002 A 
ATOM      3  C4  UNL d   1      -0.540   0.181  -1.765  0.00  0.00     0.002 A 
ATOM      4  C5  UNL d   1      -1.339   0.941  -0.912  0.00  0.00    -0.004 A 
ATOM      5  C6  UNL d   1      -1.360   0.663   0.454  0.00  0.00     0.002 A 
ATOM      6  C7  UNL d   1      -0.578  -0.372   0.968  0.00  0.00     0.002 A 
ENDROOT
BRANCH   1   7
ATOM      7  C1  UNL d   1       1.114  -2.223   0.683  0.00  0.00     0.055 C 
ATOM      8  C   UNL d   1       2.417  -1.652   1.223  0.00  0.00     0.019 C 
ENDBRANCH   1   7
TORSDOF 1
ENDMDL
