MODEL 1
REMARK minimizedAffinity -3.36960697
REMARK minimizedRMSD -1
REMARK  1 active torsions:
REMARK  status: ('A' for Active; 'I' for Inactive)
REMARK    1  A    between atoms: C1_2  and  C2_3 
ROOT
ATOM      1  C2  UNL d   1       0.022  -0.424   0.352  0.00  0.00    -0.077 A 
ATOM      2  C3  UNL d   1       0.258  -1.201   1.494  0.00  0.00     0.002 A 
ATOM      3  C4  UNL d   1       1.305  -2.125   1.515  0.00  0.00     0.002 A 
ATOM      4  C5  UNL d   1       2.124  -2.278   0.399  0.00  0.00    -0.004 A 
ATOM      5  C6  UNL d   1       1.896  -1.511  -0.743  0.00  0.00     0.002 A 
ATOM      6  C7  UNL d   1       0.850  -0.587  -0.766  0.00  0.00     0.002 A 
ENDROOT
BRANCH   1   7
ATOM      7  C1  UNL d   1      -1.075   0.609   0.344  0.00  0.00     0.055 C 
ATOM      8  C   UNL d   1      -1.247   1.224  -1.037  0.00  0.00     0.019 C 
ENDBRANCH   1   7
TORSDOF 1
ENDMDL
