MODEL 1
REMARK minimizedAffinity -2.91558719
REMARK minimizedRMSD -1
REMARK  1 active torsions:
REMARK  status: ('A' for Active; 'I' for Inactive)
REMARK    1  A    between atoms: C1_2  and  C2_3 
ROOT
ATOM      1  C2  UNL d   1      -0.191  -0.270   0.017  0.00  0.00    -0.077 A 
ATOM      2  C3  UNL d   1      -0.326  -1.288   0.971  0.00  0.00     0.002 A 
ATOM      3  C4  UNL d   1       0.766  -2.089   1.309  0.00  0.00     0.002 A 
ATOM      4  C5  UNL d   1       2.002  -1.877   0.701  0.00  0.00    -0.004 A 
ATOM      5  C6  UNL d   1       2.146  -0.869  -0.250  0.00  0.00     0.002 A 
ATOM      6  C7  UNL d   1       1.055  -0.068  -0.591  0.00  0.00     0.002 A 
ENDROOT
BRANCH   1   7
ATOM      7  C1  UNL d   1      -1.356   0.627  -0.313  0.00  0.00     0.055 C 
ATOM      8  C   UNL d   1      -1.211   1.235  -1.701  0.00  0.00     0.019 C 
ENDBRANCH   1   7
TORSDOF 1
ENDMDL
