MODEL 1
REMARK minimizedAffinity -3.61009908
REMARK minimizedRMSD -1
REMARK  1 active torsions:
REMARK  status: ('A' for Active; 'I' for Inactive)
REMARK    1  A    between atoms: C1_2  and  C2_3 
ROOT
ATOM      1  C2  UNL d   1      -0.203  -0.120  -0.412  0.00  0.00    -0.077 A 
ATOM      2  C3  UNL d   1       0.225  -0.532   0.858  0.00  0.00     0.002 A 
ATOM      3  C4  UNL d   1       1.149  -1.570   0.989  0.00  0.00     0.002 A 
ATOM      4  C5  UNL d   1       1.656  -2.201  -0.145  0.00  0.00    -0.004 A 
ATOM      5  C6  UNL d   1       1.236  -1.799  -1.412  0.00  0.00     0.002 A 
ATOM      6  C7  UNL d   1       0.311  -0.763  -1.545  0.00  0.00     0.002 A 
ENDROOT
BRANCH   1   7
ATOM      7  C1  UNL d   1      -1.163   1.033  -0.557  0.00  0.00     0.055 C 
ATOM      8  C   UNL d   1      -1.907   0.969  -1.883  0.00  0.00     0.019 C 
ENDBRANCH   1   7
TORSDOF 1
ENDMDL
