MODEL 1
REMARK minimizedAffinity -3.86582828
REMARK minimizedRMSD -1
REMARK  1 active torsions:
REMARK  status: ('A' for Active; 'I' for Inactive)
REMARK    1  A    between atoms: C1_2  and  C2_3 
ROOT
ATOM      1  C2  UNL d   1       1.158  -0.898   0.071  0.00  0.00    -0.077 A 
ATOM      2  C3  UNL d   1       0.431   0.125   0.695  0.00  0.00     0.002 A 
ATOM      3  C4  UNL d   1      -0.493   0.879  -0.031  0.00  0.00     0.002 A 
ATOM      4  C5  UNL d   1      -0.701   0.616  -1.384  0.00  0.00    -0.004 A 
ATOM      5  C6  UNL d   1       0.019  -0.399  -2.014  0.00  0.00     0.002 A 
ATOM      6  C7  UNL d   1       0.944  -1.153  -1.289  0.00  0.00     0.002 A 
ENDROOT
BRANCH   1   7
ATOM      7  C1  UNL d   1       2.119  -1.745   0.864  0.00  0.00     0.055 C 
ATOM      8  C   UNL d   1       3.092  -0.884   1.657  0.00  0.00     0.019 C 
ENDBRANCH   1   7
TORSDOF 1
ENDMDL
