MODEL 1
REMARK minimizedAffinity -4.14748192
REMARK minimizedRMSD -1
REMARK  1 active torsions:
REMARK  status: ('A' for Active; 'I' for Inactive)
REMARK    1  A    between atoms: C1_2  and  C2_3 
ROOT
ATOM      1  C2  UNL d   1       0.513  -1.158   0.426  0.00  0.00    -0.077 A 
ATOM      2  C3  UNL d   1      -0.315  -1.001   1.546  0.00  0.00     0.002 A 
ATOM      3  C4  UNL d   1      -0.234  -1.895   2.615  0.00  0.00     0.002 A 
ATOM      4  C5  UNL d   1       0.676  -2.950   2.576  0.00  0.00    -0.004 A 
ATOM      5  C6  UNL d   1       1.502  -3.116   1.465  0.00  0.00     0.002 A 
ATOM      6  C7  UNL d   1       1.422  -2.223   0.395  0.00  0.00     0.002 A 
ENDROOT
BRANCH   1   7
ATOM      7  C1  UNL d   1       0.462  -0.166  -0.707  0.00  0.00     0.055 C 
ATOM      8  C   UNL d   1       1.688   0.736  -0.709  0.00  0.00     0.019 C 
ENDBRANCH   1   7
TORSDOF 1
ENDMDL
