MODEL 1
REMARK minimizedAffinity -4.96939039
REMARK minimizedRMSD -1
REMARK  1 active torsions:
REMARK  status: ('A' for Active; 'I' for Inactive)
REMARK    1  A    between atoms: C1_2  and  C2_3 
ROOT
ATOM      1  C2  UNL d   1       0.090   0.315   0.029  0.00  0.00    -0.077 A 
ATOM      2  C3  UNL d   1       0.153  -0.992   0.531  0.00  0.00     0.002 A 
ATOM      3  C4  UNL d   1       1.374  -1.667   0.594  0.00  0.00     0.002 A 
ATOM      4  C5  UNL d   1       2.541  -1.041   0.162  0.00  0.00    -0.004 A 
ATOM      5  C6  UNL d   1       2.489   0.259  -0.341  0.00  0.00     0.002 A 
ATOM      6  C7  UNL d   1       1.269   0.934  -0.407  0.00  0.00     0.002 A 
ENDROOT
BRANCH   1   7
ATOM      7  C1  UNL d   1      -1.217   1.062   0.005  0.00  0.00     0.055 C 
ATOM      8  C   UNL d   1      -1.649   1.378  -1.420  0.00  0.00     0.019 C 
ENDBRANCH   1   7
TORSDOF 1
ENDMDL
