MODEL 1
REMARK minimizedAffinity -4.54644632
REMARK minimizedRMSD -1
REMARK  1 active torsions:
REMARK  status: ('A' for Active; 'I' for Inactive)
REMARK    1  A    between atoms: C1_2  and  C2_3 
ROOT
ATOM      1  C2  UNL d   1      -0.247  -1.351   0.932  0.00  0.00    -0.077 A 
ATOM      2  C3  UNL d   1      -1.323  -0.567   1.371  0.00  0.00     0.002 A 
ATOM      3  C4  UNL d   1      -1.615   0.646   0.743  0.00  0.00     0.002 A 
ATOM      4  C5  UNL d   1      -0.840   1.082  -0.329  0.00  0.00    -0.004 A 
ATOM      5  C6  UNL d   1       0.233   0.309  -0.773  0.00  0.00     0.002 A 
ATOM      6  C7  UNL d   1       0.527  -0.902  -0.145  0.00  0.00     0.002 A 
ENDROOT
BRANCH   1   7
ATOM      7  C1  UNL d   1       0.040  -2.683   1.576  0.00  0.00     0.055 C 
ATOM      8  C   UNL d   1       1.524  -2.847   1.869  0.00  0.00     0.019 C 
ENDBRANCH   1   7
TORSDOF 1
ENDMDL
