MODEL 1
REMARK minimizedAffinity -4.8816452
REMARK minimizedRMSD -1
REMARK  1 active torsions:
REMARK  status: ('A' for Active; 'I' for Inactive)
REMARK    1  A    between atoms: C1_2  and  C2_3 
ROOT
ATOM      1  C2  UNL d   1       0.452  -0.478  -0.218  0.00  0.00    -0.077 A 
ATOM      2  C3  UNL d   1       1.851  -0.576  -0.221  0.00  0.00     0.002 A 
ATOM      3  C4  UNL d   1       2.485  -1.656   0.396  0.00  0.00     0.002 A 
ATOM      4  C5  UNL d   1       1.728  -2.647   1.017  0.00  0.00    -0.004 A 
ATOM      5  C6  UNL d   1       0.337  -2.558   1.027  0.00  0.00     0.002 A 
ATOM      6  C7  UNL d   1      -0.298  -1.479   0.412  0.00  0.00     0.002 A 
ENDROOT
BRANCH   1   7
ATOM      7  C1  UNL d   1      -0.235   0.660  -0.926  0.00  0.00     0.055 C 
ATOM      8  C   UNL d   1      -1.184   1.400   0.006  0.00  0.00     0.019 C 
ENDBRANCH   1   7
TORSDOF 1
ENDMDL
