MODEL 1
REMARK minimizedAffinity -1.40719306
REMARK minimizedRMSD -1
REMARK  1 active torsions:
REMARK  status: ('A' for Active; 'I' for Inactive)
REMARK    1  A    between atoms: C1_2  and  C2_3 
ROOT
ATOM      1  C2  UNL d   1       1.182  -0.675   0.691  0.00  0.00    -0.077 A 
ATOM      2  C3  UNL d   1       1.544   0.300  -0.250  0.00  0.00     0.002 A 
ATOM      3  C4  UNL d   1       0.654   1.323  -0.584  0.00  0.00     0.002 A 
ATOM      4  C5  UNL d   1      -0.600   1.384   0.020  0.00  0.00    -0.004 A 
ATOM      5  C6  UNL d   1      -0.969   0.418   0.955  0.00  0.00     0.002 A 
ATOM      6  C7  UNL d   1      -0.082  -0.606   1.290  0.00  0.00     0.002 A 
ENDROOT
BRANCH   1   7
ATOM      7  C1  UNL d   1       2.158  -1.751   1.089  0.00  0.00     0.055 C 
ATOM      8  C   UNL d   1       3.357  -1.166   1.821  0.00  0.00     0.019 C 
ENDBRANCH   1   7
TORSDOF 1
ENDMDL
