MODEL 1
REMARK minimizedAffinity 0.0645854995
REMARK minimizedRMSD -1
REMARK  1 active torsions:
REMARK  status: ('A' for Active; 'I' for Inactive)
REMARK    1  A    between atoms: C1_2  and  C2_3 
ROOT
ATOM      1  C2  UNL d   1       0.121  -1.145   0.716  0.00  0.00    -0.077 A 
ATOM      2  C3  UNL d   1       0.489  -0.304  -0.344  0.00  0.00     0.002 A 
ATOM      3  C4  UNL d   1      -0.165   0.914  -0.538  0.00  0.00     0.002 A 
ATOM      4  C5  UNL d   1      -1.186   1.304   0.326  0.00  0.00    -0.004 A 
ATOM      5  C6  UNL d   1      -1.560   0.474   1.381  0.00  0.00     0.002 A 
ATOM      6  C7  UNL d   1      -0.909  -0.745   1.576  0.00  0.00     0.002 A 
ENDROOT
BRANCH   1   7
ATOM      7  C1  UNL d   1       0.858  -2.437   0.956  0.00  0.00     0.055 C 
ATOM      8  C   UNL d   1       2.252  -2.184   1.513  0.00  0.00     0.019 C 
ENDBRANCH   1   7
TORSDOF 1
ENDMDL
