MODEL 1
REMARK minimizedAffinity -0.316159427
REMARK minimizedRMSD -1
REMARK  0 active torsions:
REMARK  status: ('A' for Active; 'I' for Inactive)
ROOT
ATOM      1  C   UNL d   1      -4.657   4.738  -1.786  0.00  0.00     0.078 C 
ATOM      2  C1  UNL d   1      -3.731   3.621  -2.166  0.00  0.00    -0.077 A 
ATOM      3  C2  UNL d   1      -3.381   3.398  -3.503  0.00  0.00    -0.001 A 
ATOM      4  C3  UNL d   1      -2.526   2.349  -3.843  0.00  0.00     0.003 A 
ATOM      5  C4  UNL d   1      -2.015   1.513  -2.852  0.00  0.00    -0.005 A 
ATOM      6  C5  UNL d   1      -2.361   1.725  -1.519  0.00  0.00     0.003 A 
ATOM      7  C6  UNL d   1      -3.215   2.774  -1.177  0.00  0.00    -0.001 A 
ENDROOT
TORSDOF 0
ENDMDL
