MODEL 1
REMARK minimizedAffinity 3.23458028
REMARK minimizedRMSD -1
REMARK  0 active torsions:
REMARK  status: ('A' for Active; 'I' for Inactive)
ROOT
ATOM      1  C   UNL d   1      -2.396  -4.624  -1.385  0.00  0.00     0.078 C 
ATOM      2  C1  UNL d   1      -2.666  -3.394  -2.199  0.00  0.00    -0.077 A 
ATOM      3  C2  UNL d   1      -1.616  -2.596  -2.670  0.00  0.00    -0.001 A 
ATOM      4  C3  UNL d   1      -1.883  -1.449  -3.419  0.00  0.00     0.003 A 
ATOM      5  C4  UNL d   1      -3.199  -1.088  -3.702  0.00  0.00    -0.005 A 
ATOM      6  C5  UNL d   1      -4.250  -1.875  -3.235  0.00  0.00     0.003 A 
ATOM      7  C6  UNL d   1      -3.985  -3.023  -2.487  0.00  0.00    -0.001 A 
ENDROOT
TORSDOF 0
ENDMDL
