MODEL 1
REMARK minimizedAffinity -1.38487089
REMARK minimizedRMSD -1
REMARK  0 active torsions:
REMARK  status: ('A' for Active; 'I' for Inactive)
ROOT
ATOM      1  C   UNL d   1       2.556  -2.999  -5.981  0.00  0.00     0.078 C 
ATOM      2  C1  UNL d   1       3.634  -1.957  -5.994  0.00  0.00    -0.077 A 
ATOM      3  C2  UNL d   1       4.987  -2.318  -5.996  0.00  0.00    -0.001 A 
ATOM      4  C3  UNL d   1       5.980  -1.337  -5.998  0.00  0.00     0.003 A 
ATOM      5  C4  UNL d   1       5.630   0.012  -5.997  0.00  0.00    -0.005 A 
ATOM      6  C5  UNL d   1       4.287   0.381  -5.994  0.00  0.00     0.003 A 
ATOM      7  C6  UNL d   1       3.293  -0.599  -5.992  0.00  0.00    -0.001 A 
ENDROOT
TORSDOF 0
ENDMDL
