MODEL 1
REMARK minimizedAffinity -3.63831902
REMARK minimizedRMSD -1
REMARK  0 active torsions:
REMARK  status: ('A' for Active; 'I' for Inactive)
ROOT
ATOM      1  C   UNL d   1       4.499  -0.834  -4.753  0.00  0.00     0.078 C 
ATOM      2  C1  UNL d   1       4.368  -2.325  -4.839  0.00  0.00    -0.077 A 
ATOM      3  C2  UNL d   1       3.744  -2.931  -5.937  0.00  0.00    -0.001 A 
ATOM      4  C3  UNL d   1       3.620  -4.320  -6.000  0.00  0.00     0.003 A 
ATOM      5  C4  UNL d   1       4.115  -5.114  -4.967  0.00  0.00    -0.005 A 
ATOM      6  C5  UNL d   1       4.735  -4.520  -3.870  0.00  0.00     0.003 A 
ATOM      7  C6  UNL d   1       4.860  -3.131  -3.806  0.00  0.00    -0.001 A 
ENDROOT
TORSDOF 0
ENDMDL
