MODEL 1
REMARK minimizedAffinity -4.37961721
REMARK minimizedRMSD -1
REMARK  0 active torsions:
REMARK  status: ('A' for Active; 'I' for Inactive)
ROOT
ATOM      1  C   UNL d   1       4.514  -4.394  -3.375  0.00  0.00     0.078 C 
ATOM      2  C1  UNL d   1       4.260  -3.130  -4.141  0.00  0.00    -0.077 A 
ATOM      3  C2  UNL d   1       4.810  -1.912  -3.725  0.00  0.00    -0.001 A 
ATOM      4  C3  UNL d   1       4.558  -0.741  -4.442  0.00  0.00     0.003 A 
ATOM      5  C4  UNL d   1       3.754  -0.777  -5.579  0.00  0.00    -0.005 A 
ATOM      6  C5  UNL d   1       3.200  -1.985  -6.000  0.00  0.00     0.003 A 
ATOM      7  C6  UNL d   1       3.451  -3.156  -5.284  0.00  0.00    -0.001 A 
ENDROOT
TORSDOF 0
ENDMDL
