MODEL 1
REMARK minimizedAffinity 5.62240934
REMARK minimizedRMSD -1
REMARK  0 active torsions:
REMARK  status: ('A' for Active; 'I' for Inactive)
ROOT
ATOM      1  C   UNL d   1       2.605   0.388   2.597  0.00  0.00     0.078 C 
ATOM      2  C1  UNL d   1       1.706   0.882   1.504  0.00  0.00    -0.077 A 
ATOM      3  C2  UNL d   1       1.437   2.248   1.353  0.00  0.00    -0.001 A 
ATOM      4  C3  UNL d   1       0.591   2.693   0.336  0.00  0.00     0.003 A 
ATOM      5  C4  UNL d   1       0.005   1.779  -0.536  0.00  0.00    -0.005 A 
ATOM      6  C5  UNL d   1       0.264   0.417  -0.393  0.00  0.00     0.003 A 
ATOM      7  C6  UNL d   1       1.110  -0.029   0.623  0.00  0.00    -0.001 A 
ENDROOT
TORSDOF 0
ENDMDL
