MODEL 1
REMARK minimizedAffinity 16.1031818
REMARK minimizedRMSD -1
REMARK  0 active torsions:
REMARK  status: ('A' for Active; 'I' for Inactive)
ROOT
ATOM      1  C   UNL d   1       6.000  -2.573  -4.429  0.00  0.00     0.023 A 
ATOM      2  C1  UNL d   1       5.106  -2.719  -3.368  0.00  0.00     0.003 A 
ATOM      3  C2  UNL d   1       3.731  -2.624  -3.594  0.00  0.00     0.048 A 
ATOM      4  C3  UNL d   1       3.257  -2.382  -4.883  0.00  0.00     0.023 A 
ATOM      5  C4  UNL d   1       4.148  -2.235  -5.948  0.00  0.00     0.048 A 
ATOM      6  C5  UNL d   1       5.522  -2.331  -5.717  0.00  0.00     0.003 A 
ATOM      7  I   UNL d   1       1.212  -2.239  -5.222  0.00  0.00    -0.146 I 
ENDROOT
TORSDOF 0
ENDMDL
