MODEL 1
REMARK minimizedAffinity 12.7300463
REMARK minimizedRMSD -1
REMARK  0 active torsions:
REMARK  status: ('A' for Active; 'I' for Inactive)
ROOT
ATOM      1  C   UNL d   1       0.973   2.986   5.992  0.00  0.00     0.023 A 
ATOM      2  C1  UNL d   1       2.148   3.737   6.000  0.00  0.00     0.003 A 
ATOM      3  C2  UNL d   1       3.369   3.129   5.705  0.00  0.00     0.048 A 
ATOM      4  C3  UNL d   1       3.409   1.768   5.402  0.00  0.00     0.023 A 
ATOM      5  C4  UNL d   1       2.235   1.012   5.393  0.00  0.00     0.048 A 
ATOM      6  C5  UNL d   1       1.016   1.625   5.689  0.00  0.00     0.003 A 
ATOM      7  I   UNL d   1       5.226   0.860   4.963  0.00  0.00    -0.146 I 
ENDROOT
TORSDOF 0
ENDMDL
