MODEL 1
REMARK minimizedAffinity 17.924818
REMARK minimizedRMSD -1
REMARK  0 active torsions:
REMARK  status: ('A' for Active; 'I' for Inactive)
ROOT
ATOM      1  C   UNL d   1      -0.635  -0.533  -3.609  0.00  0.00     0.023 A 
ATOM      2  C1  UNL d   1      -1.472  -1.499  -3.050  0.00  0.00     0.003 A 
ATOM      3  C2  UNL d   1      -1.722  -2.690  -3.735  0.00  0.00     0.048 A 
ATOM      4  C3  UNL d   1      -1.130  -2.909  -4.978  0.00  0.00     0.023 A 
ATOM      5  C4  UNL d   1      -0.291  -1.947  -5.541  0.00  0.00     0.048 A 
ATOM      6  C5  UNL d   1      -0.045  -0.757  -4.853  0.00  0.00     0.003 A 
ATOM      7  I   UNL d   1      -1.500  -4.681  -6.000  0.00  0.00    -0.146 I 
ENDROOT
TORSDOF 0
ENDMDL
