MODEL 1
REMARK minimizedAffinity 21.281744
REMARK minimizedRMSD -1
REMARK  0 active torsions:
REMARK  status: ('A' for Active; 'I' for Inactive)
ROOT
ATOM      1  C   UNL d   1       0.095  -5.592  -5.172  0.00  0.00     0.023 A 
ATOM      2  C1  UNL d   1       1.316  -4.920  -5.237  0.00  0.00     0.003 A 
ATOM      3  C2  UNL d   1       1.345  -3.525  -5.270  0.00  0.00     0.048 A 
ATOM      4  C3  UNL d   1       0.150  -2.807  -5.238  0.00  0.00     0.023 A 
ATOM      5  C4  UNL d   1      -1.074  -3.475  -5.173  0.00  0.00     0.048 A 
ATOM      6  C5  UNL d   1      -1.098  -4.871  -5.140  0.00  0.00     0.003 A 
ATOM      7  I   UNL d   1       0.191  -0.730  -5.288  0.00  0.00    -0.146 I 
ENDROOT
TORSDOF 0
ENDMDL
