MODEL 1
REMARK minimizedAffinity 9.67075634
REMARK minimizedRMSD -1
REMARK  0 active torsions:
REMARK  status: ('A' for Active; 'I' for Inactive)
ROOT
ATOM      1  C   UNL d   1       0.388  -0.741   2.493  0.00  0.00     0.023 A 
ATOM      2  C1  UNL d   1      -0.195   0.487   2.180  0.00  0.00     0.003 A 
ATOM      3  C2  UNL d   1      -0.226   1.509   3.131  0.00  0.00     0.048 A 
ATOM      4  C3  UNL d   1       0.329   1.297   4.393  0.00  0.00     0.023 A 
ATOM      5  C4  UNL d   1       0.914   0.070   4.709  0.00  0.00     0.048 A 
ATOM      6  C5  UNL d   1       0.942  -0.949   3.756  0.00  0.00     0.003 A 
ATOM      7  I   UNL d   1       0.284   2.816   5.810  0.00  0.00    -0.146 I 
ENDROOT
TORSDOF 0
ENDMDL
