MODEL 1
REMARK minimizedAffinity 9.99126339
REMARK minimizedRMSD -1
REMARK  0 active torsions:
REMARK  status: ('A' for Active; 'I' for Inactive)
ROOT
ATOM      1  C   UNL d   1      -2.430  -1.742  -2.427  0.00  0.00     0.023 A 
ATOM      2  C1  UNL d   1      -2.621  -1.339  -3.749  0.00  0.00     0.003 A 
ATOM      3  C2  UNL d   1      -1.541  -0.875  -4.502  0.00  0.00     0.048 A 
ATOM      4  C3  UNL d   1      -0.271  -0.820  -3.928  0.00  0.00     0.023 A 
ATOM      5  C4  UNL d   1      -0.074  -1.224  -2.607  0.00  0.00     0.048 A 
ATOM      6  C5  UNL d   1      -1.158  -1.685  -1.857  0.00  0.00     0.003 A 
ATOM      7  I   UNL d   1       1.339  -0.131  -5.048  0.00  0.00    -0.146 I 
ENDROOT
TORSDOF 0
ENDMDL
