MODEL 1
REMARK minimizedAffinity 13.6568403
REMARK minimizedRMSD -1
REMARK  0 active torsions:
REMARK  status: ('A' for Active; 'I' for Inactive)
ROOT
ATOM      1  C   UNL d   1       0.346   2.219   5.644  0.00  0.00     0.023 A 
ATOM      2  C1  UNL d   1       1.061   1.021   5.637  0.00  0.00     0.003 A 
ATOM      3  C2  UNL d   1       1.065   0.215   4.497  0.00  0.00     0.048 A 
ATOM      4  C3  UNL d   1       0.351   0.613   3.367  0.00  0.00     0.023 A 
ATOM      5  C4  UNL d   1      -0.366   1.811   3.369  0.00  0.00     0.048 A 
ATOM      6  C5  UNL d   1      -0.367   2.613   4.512  0.00  0.00     0.003 A 
ATOM      7  I   UNL d   1       0.355  -0.585   1.668  0.00  0.00    -0.146 I 
ENDROOT
TORSDOF 0
ENDMDL
