MODEL 1
REMARK minimizedAffinity 5.21075916
REMARK minimizedRMSD -1
REMARK  0 active torsions:
REMARK  status: ('A' for Active; 'I' for Inactive)
ROOT
ATOM      1  C   UNL d   1       4.133   5.000   2.317  0.00  0.00     0.023 A 
ATOM      2  C1  UNL d   1       4.425   5.020   3.681  0.00  0.00     0.003 A 
ATOM      3  C2  UNL d   1       4.499   3.825   4.399  0.00  0.00     0.048 A 
ATOM      4  C3  UNL d   1       4.280   2.612   3.747  0.00  0.00     0.023 A 
ATOM      5  C4  UNL d   1       3.988   2.586   2.382  0.00  0.00     0.048 A 
ATOM      6  C5  UNL d   1       3.914   3.784   1.669  0.00  0.00     0.003 A 
ATOM      7  I   UNL d   1       4.389   0.832   4.813  0.00  0.00    -0.146 I 
ENDROOT
TORSDOF 0
ENDMDL
