MODEL 1
REMARK minimizedAffinity -1.77140296
REMARK minimizedRMSD -1
REMARK  0 active torsions:
REMARK  status: ('A' for Active; 'I' for Inactive)
ROOT
ATOM      1  C   UNL d   1       0.001  -3.110  -2.683  0.00  0.00    -0.002 A 
ATOM      2  C1  UNL d   1       0.834  -3.617  -1.697  0.00  0.00     0.010 A 
ATOM      3  C2  UNL d   1       1.134  -2.860  -0.562  0.00  0.00     0.041 A 
ATOM      4  C3  UNL d   1       0.575  -1.573  -0.434  0.00  0.00    -0.075 A 
ATOM      5  S   UNL d   1       0.802  -0.466   0.868  0.00  0.00     0.015 SA
ATOM      6  C4  UNL d   1      -0.204   0.705   0.146  0.00  0.00     0.022 A 
ATOM      7  C5  UNL d   1      -0.708   0.279  -1.060  0.00  0.00     0.026 A 
ATOM      8  C6  UNL d   1      -0.268  -1.041  -1.414  0.00  0.00    -0.082 A 
ATOM      9  C7  UNL d   1      -0.552  -1.833  -2.553  0.00  0.00     0.045 A 
ENDROOT
TORSDOF 0
ENDMDL
