MODEL 1
REMARK minimizedAffinity -3.59646225
REMARK minimizedRMSD -1
REMARK  0 active torsions:
REMARK  status: ('A' for Active; 'I' for Inactive)
ROOT
ATOM      1  C   UNL d   1      -2.158   1.803   1.623  0.00  0.00    -0.002 A 
ATOM      2  C1  UNL d   1      -2.035   2.430   0.391  0.00  0.00     0.010 A 
ATOM      3  C2  UNL d   1      -1.063   2.017  -0.522  0.00  0.00     0.041 A 
ATOM      4  C3  UNL d   1      -0.210   0.951  -0.174  0.00  0.00    -0.075 A 
ATOM      5  S   UNL d   1       1.052   0.274  -1.134  0.00  0.00     0.015 SA
ATOM      6  C4  UNL d   1       1.456  -0.865   0.068  0.00  0.00     0.022 A 
ATOM      7  C5  UNL d   1       0.658  -0.746   1.181  0.00  0.00     0.026 A 
ATOM      8  C6  UNL d   1      -0.316   0.302   1.060  0.00  0.00    -0.082 A 
ATOM      9  C7  UNL d   1      -1.311   0.745   1.964  0.00  0.00     0.045 A 
ENDROOT
TORSDOF 0
ENDMDL
