MODEL 1
REMARK minimizedAffinity -1.74376392
REMARK minimizedRMSD -1
REMARK  0 active torsions:
REMARK  status: ('A' for Active; 'I' for Inactive)
ROOT
ATOM      1  C   UNL d   1      -1.498   3.439   1.205  0.00  0.00    -0.002 A 
ATOM      2  C1  UNL d   1      -1.011   3.564  -0.089  0.00  0.00     0.010 A 
ATOM      3  C2  UNL d   1      -0.467   2.462  -0.752  0.00  0.00     0.041 A 
ATOM      4  C3  UNL d   1      -0.423   1.220  -0.088  0.00  0.00    -0.075 A 
ATOM      5  S   UNL d   1       0.196  -0.266  -0.703  0.00  0.00     0.015 SA
ATOM      6  C4  UNL d   1      -0.173  -1.102   0.736  0.00  0.00     0.022 A 
ATOM      7  C5  UNL d   1      -0.754  -0.282   1.674  0.00  0.00     0.026 A 
ATOM      8  C6  UNL d   1      -0.909   1.070   1.214  0.00  0.00    -0.082 A 
ATOM      9  C7  UNL d   1      -1.453   2.206   1.860  0.00  0.00     0.045 A 
ENDROOT
TORSDOF 0
ENDMDL
