MODEL 1
REMARK minimizedAffinity 1.29381847
REMARK minimizedRMSD -1
REMARK  0 active torsions:
REMARK  status: ('A' for Active; 'I' for Inactive)
ROOT
ATOM      1  C   UNL d   1       1.208  -2.622  -2.560  0.00  0.00    -0.002 A 
ATOM      2  C1  UNL d   1       1.389  -3.448  -1.460  0.00  0.00     0.010 A 
ATOM      3  C2  UNL d   1       1.146  -2.976  -0.169  0.00  0.00     0.041 A 
ATOM      4  C3  UNL d   1       0.711  -1.646  -0.001  0.00  0.00    -0.075 A 
ATOM      5  S   UNL d   1       0.350  -0.851   1.485  0.00  0.00     0.015 SA
ATOM      6  C4  UNL d   1      -0.054   0.604   0.695  0.00  0.00     0.022 A 
ATOM      7  C5  UNL d   1       0.078   0.503  -0.670  0.00  0.00     0.026 A 
ATOM      8  C6  UNL d   1       0.521  -0.795  -1.093  0.00  0.00    -0.082 A 
ATOM      9  C7  UNL d   1       0.777  -1.304  -2.389  0.00  0.00     0.045 A 
ENDROOT
TORSDOF 0
ENDMDL
