MODEL 1
REMARK minimizedAffinity -4.26288557
REMARK minimizedRMSD -1
REMARK  0 active torsions:
REMARK  status: ('A' for Active; 'I' for Inactive)
ROOT
ATOM      1  C   UNL d   1       0.967   1.511  -1.551  0.00  0.00    -0.002 A 
ATOM      2  C1  UNL d   1       1.213   0.183  -1.233  0.00  0.00     0.010 A 
ATOM      3  C2  UNL d   1       0.480  -0.455  -0.230  0.00  0.00     0.041 A 
ATOM      4  C3  UNL d   1      -0.515   0.272   0.453  0.00  0.00    -0.075 A 
ATOM      5  S   UNL d   1      -1.539  -0.302   1.716  0.00  0.00     0.015 SA
ATOM      6  C4  UNL d   1      -2.326   1.202   1.863  0.00  0.00     0.022 A 
ATOM      7  C5  UNL d   1      -1.833   2.131   0.978  0.00  0.00     0.026 A 
ATOM      8  C6  UNL d   1      -0.782   1.610   0.150  0.00  0.00    -0.082 A 
ATOM      9  C7  UNL d   1      -0.020   2.229  -0.871  0.00  0.00     0.045 A 
ENDROOT
TORSDOF 0
ENDMDL
