MODEL 1
REMARK minimizedAffinity -4.60334253
REMARK minimizedRMSD -1
REMARK  0 active torsions:
REMARK  status: ('A' for Active; 'I' for Inactive)
ROOT
ATOM      1  C   UNL d   1       1.525   1.215  -1.533  0.00  0.00    -0.002 A 
ATOM      2  C1  UNL d   1       1.831  -0.005  -0.947  0.00  0.00     0.010 A 
ATOM      3  C2  UNL d   1       0.943  -0.607  -0.054  0.00  0.00     0.041 A 
ATOM      4  C3  UNL d   1      -0.271   0.043   0.242  0.00  0.00    -0.075 A 
ATOM      5  S   UNL d   1      -1.512  -0.507   1.305  0.00  0.00     0.015 SA
ATOM      6  C4  UNL d   1      -2.479   0.865   1.006  0.00  0.00     0.022 A 
ATOM      7  C5  UNL d   1      -1.885   1.731   0.120  0.00  0.00     0.026 A 
ATOM      8  C6  UNL d   1      -0.603   1.272  -0.336  0.00  0.00    -0.082 A 
ATOM      9  C7  UNL d   1       0.319   1.857  -1.237  0.00  0.00     0.045 A 
ENDROOT
TORSDOF 0
ENDMDL
