MODEL 1
REMARK minimizedAffinity -3.27091241
REMARK minimizedRMSD -1
REMARK  0 active torsions:
REMARK  status: ('A' for Active; 'I' for Inactive)
ROOT
ATOM      1  C   UNL d   1      -2.035   1.933   1.782  0.00  0.00    -0.002 A 
ATOM      2  C1  UNL d   1      -1.852   2.022   0.409  0.00  0.00     0.010 A 
ATOM      3  C2  UNL d   1      -1.080   1.076  -0.268  0.00  0.00     0.041 A 
ATOM      4  C3  UNL d   1      -0.492   0.026   0.465  0.00  0.00    -0.075 A 
ATOM      5  S   UNL d   1       0.493  -1.248  -0.151  0.00  0.00     0.015 SA
ATOM      6  C4  UNL d   1       0.693  -1.941   1.392  0.00  0.00     0.022 A 
ATOM      7  C5  UNL d   1       0.031  -1.231   2.366  0.00  0.00     0.026 A 
ATOM      8  C6  UNL d   1      -0.662  -0.086   1.848  0.00  0.00    -0.082 A 
ATOM      9  C7  UNL d   1      -1.450   0.890   2.505  0.00  0.00     0.045 A 
ENDROOT
TORSDOF 0
ENDMDL
