MODEL 1
REMARK minimizedAffinity -2.63123226
REMARK minimizedRMSD -1
REMARK  0 active torsions:
REMARK  status: ('A' for Active; 'I' for Inactive)
ROOT
ATOM      1  C   UNL d   1      -1.573   1.961   2.096  0.00  0.00    -0.002 A 
ATOM      2  C1  UNL d   1      -1.219   0.661   2.429  0.00  0.00     0.010 A 
ATOM      3  C2  UNL d   1      -0.309  -0.051   1.645  0.00  0.00     0.041 A 
ATOM      4  C3  UNL d   1       0.246   0.573   0.510  0.00  0.00    -0.075 A 
ATOM      5  S   UNL d   1       1.381  -0.104  -0.597  0.00  0.00     0.015 SA
ATOM      6  C4  UNL d   1       1.424   1.317  -1.538  0.00  0.00     0.022 A 
ATOM      7  C5  UNL d   1       0.598   2.294  -1.034  0.00  0.00     0.026 A 
ATOM      8  C6  UNL d   1      -0.094   1.881   0.155  0.00  0.00    -0.082 A 
ATOM      9  C7  UNL d   1      -1.020   2.576   0.970  0.00  0.00     0.045 A 
ENDROOT
TORSDOF 0
ENDMDL
