MODEL 1
REMARK minimizedAffinity -2.29399991
REMARK minimizedRMSD -1
REMARK  0 active torsions:
REMARK  status: ('A' for Active; 'I' for Inactive)
ROOT
ATOM      1  C   UNL d   1      -2.061   1.189   1.848  0.00  0.00    -0.002 A 
ATOM      2  C1  UNL d   1      -2.090   2.096   0.798  0.00  0.00     0.010 A 
ATOM      3  C2  UNL d   1      -1.221   1.956  -0.286  0.00  0.00     0.041 A 
ATOM      4  C3  UNL d   1      -0.315   0.877  -0.298  0.00  0.00    -0.075 A 
ATOM      5  S   UNL d   1       0.842   0.505  -1.521  0.00  0.00     0.015 SA
ATOM      6  C4  UNL d   1       1.401  -0.867  -0.678  0.00  0.00     0.022 A 
ATOM      7  C5  UNL d   1       0.733  -1.051   0.509  0.00  0.00     0.026 A 
ATOM      8  C6  UNL d   1      -0.268  -0.050   0.748  0.00  0.00    -0.082 A 
ATOM      9  C7  UNL d   1      -1.161   0.121   1.833  0.00  0.00     0.045 A 
ENDROOT
TORSDOF 0
ENDMDL
