MODEL 1
REMARK minimizedAffinity -3.38143682
REMARK minimizedRMSD -1
REMARK  0 active torsions:
REMARK  status: ('A' for Active; 'I' for Inactive)
ROOT
ATOM      1  C   UNL d   1      -2.015   2.069   1.671  0.00  0.00    -0.002 A 
ATOM      2  C1  UNL d   1      -1.809   2.478   0.362  0.00  0.00     0.010 A 
ATOM      3  C2  UNL d   1      -0.989   1.738  -0.493  0.00  0.00     0.041 A 
ATOM      4  C3  UNL d   1      -0.376   0.567  -0.005  0.00  0.00    -0.075 A 
ATOM      5  S   UNL d   1       0.667  -0.498  -0.870  0.00  0.00     0.015 SA
ATOM      6  C4  UNL d   1       0.863  -1.522   0.478  0.00  0.00     0.022 A 
ATOM      7  C5  UNL d   1       0.157  -1.077   1.571  0.00  0.00     0.026 A 
ATOM      8  C6  UNL d   1      -0.569   0.134   1.310  0.00  0.00    -0.082 A 
ATOM      9  C7  UNL d   1      -1.405   0.907   2.152  0.00  0.00     0.045 A 
ENDROOT
TORSDOF 0
ENDMDL
