MODEL 1
REMARK minimizedAffinity 1.93714452
REMARK minimizedRMSD -1
REMARK  0 active torsions:
REMARK  status: ('A' for Active; 'I' for Inactive)
ROOT
ATOM      1  C   UNL d   1       0.870   5.988  -4.070  0.00  0.00    -0.002 A 
ATOM      2  C1  UNL d   1       0.062   5.993  -5.198  0.00  0.00     0.010 A 
ATOM      3  C2  UNL d   1      -1.329   5.996  -5.075  0.00  0.00     0.041 A 
ATOM      4  C3  UNL d   1      -1.899   5.996  -3.787  0.00  0.00    -0.075 A 
ATOM      5  S   UNL d   1      -3.578   6.000  -3.394  0.00  0.00     0.015 SA
ATOM      6  C4  UNL d   1      -3.261   5.996  -1.719  0.00  0.00     0.022 A 
ATOM      7  C5  UNL d   1      -1.914   5.991  -1.449  0.00  0.00     0.026 A 
ATOM      8  C6  UNL d   1      -1.106   5.991  -2.636  0.00  0.00    -0.082 A 
ATOM      9  C7  UNL d   1       0.301   5.987  -2.794  0.00  0.00     0.045 A 
ENDROOT
TORSDOF 0
ENDMDL
