MODEL 1
REMARK minimizedAffinity 11.8250399
REMARK minimizedRMSD -1
REMARK  0 active torsions:
REMARK  status: ('A' for Active; 'I' for Inactive)
ROOT
ATOM      1  C   UNL d   1       0.472   5.995  -3.854  0.00  0.00    -0.002 A 
ATOM      2  C1  UNL d   1      -0.485   5.992  -4.859  0.00  0.00     0.010 A 
ATOM      3  C2  UNL d   1      -1.845   5.991  -4.544  0.00  0.00     0.041 A 
ATOM      4  C3  UNL d   1      -2.231   5.994  -3.189  0.00  0.00    -0.075 A 
ATOM      5  S   UNL d   1      -3.839   5.994  -2.566  0.00  0.00     0.015 SA
ATOM      6  C4  UNL d   1      -3.293   5.999  -0.951  0.00  0.00     0.022 A 
ATOM      7  C5  UNL d   1      -1.921   6.000  -0.871  0.00  0.00     0.026 A 
ATOM      8  C6  UNL d   1      -1.286   5.998  -2.159  0.00  0.00    -0.082 A 
ATOM      9  C7  UNL d   1       0.085   5.998  -2.511  0.00  0.00     0.045 A 
ENDROOT
TORSDOF 0
ENDMDL
