MODEL 1
REMARK minimizedAffinity 1.63034546
REMARK minimizedRMSD -1
REMARK  0 active torsions:
REMARK  status: ('A' for Active; 'I' for Inactive)
ROOT
ATOM      1  C   UNL d   1      -1.676   5.995  -4.940  0.00  0.00    -0.002 A 
ATOM      2  C1  UNL d   1      -0.771   5.990  -3.888  0.00  0.00     0.010 A 
ATOM      3  C2  UNL d   1      -1.218   5.990  -2.565  0.00  0.00     0.041 A 
ATOM      4  C3  UNL d   1      -2.604   5.993  -2.315  0.00  0.00    -0.075 A 
ATOM      5  S   UNL d   1      -3.383   5.992  -0.776  0.00  0.00     0.015 SA
ATOM      6  C4  UNL d   1      -4.936   5.997  -1.479  0.00  0.00     0.022 A 
ATOM      7  C5  UNL d   1      -4.880   6.000  -2.852  0.00  0.00     0.026 A 
ATOM      8  C6  UNL d   1      -3.536   5.997  -3.357  0.00  0.00    -0.082 A 
ATOM      9  C7  UNL d   1      -3.051   5.998  -4.687  0.00  0.00     0.045 A 
ENDROOT
TORSDOF 0
ENDMDL
