MODEL 1
REMARK minimizedAffinity 11.9682226
REMARK minimizedRMSD -1
REMARK  0 active torsions:
REMARK  status: ('A' for Active; 'I' for Inactive)
ROOT
ATOM      1  C   UNL d   1       1.975   2.582  -1.380  0.00  0.00    -0.002 A 
ATOM      2  C1  UNL d   1       1.489   3.607  -0.581  0.00  0.00     0.010 A 
ATOM      3  C2  UNL d   1       0.779   3.321   0.587  0.00  0.00     0.041 A 
ATOM      4  C3  UNL d   1       0.566   1.975   0.944  0.00  0.00    -0.075 A 
ATOM      5  S   UNL d   1      -0.274   1.387   2.329  0.00  0.00     0.015 SA
ATOM      6  C4  UNL d   1      -0.006  -0.239   1.894  0.00  0.00     0.022 A 
ATOM      7  C5  UNL d   1       0.705  -0.349   0.722  0.00  0.00     0.026 A 
ATOM      8  C6  UNL d   1       1.047   0.925   0.156  0.00  0.00    -0.082 A 
ATOM      9  C7  UNL d   1       1.762   1.248  -1.023  0.00  0.00     0.045 A 
ENDROOT
TORSDOF 0
ENDMDL
