MODEL 1
REMARK minimizedAffinity 7.96761322
REMARK minimizedRMSD -1
REMARK  0 active torsions:
REMARK  status: ('A' for Active; 'I' for Inactive)
ROOT
ATOM      1  C   UNL d   1      -3.105   5.880  -0.225  0.00  0.00    -0.002 A 
ATOM      2  C1  UNL d   1      -3.933   5.984  -1.334  0.00  0.00     0.010 A 
ATOM      3  C2  UNL d   1      -3.395   6.000  -2.623  0.00  0.00     0.041 A 
ATOM      4  C3  UNL d   1      -1.998   5.906  -2.779  0.00  0.00    -0.075 A 
ATOM      5  S   UNL d   1      -1.115   5.904  -4.260  0.00  0.00     0.015 SA
ATOM      6  C4  UNL d   1       0.380   5.764  -3.456  0.00  0.00     0.022 A 
ATOM      7  C5  UNL d   1       0.229   5.718  -2.090  0.00  0.00     0.026 A 
ATOM      8  C6  UNL d   1      -1.144   5.799  -1.678  0.00  0.00    -0.082 A 
ATOM      9  C7  UNL d   1      -1.720   5.787  -0.384  0.00  0.00     0.045 A 
ENDROOT
TORSDOF 0
ENDMDL
