MODEL 1
REMARK minimizedAffinity 6.40782547
REMARK minimizedRMSD -1
REMARK  0 active torsions:
REMARK  status: ('A' for Active; 'I' for Inactive)
ROOT
ATOM      1  C   UNL d   1      -3.995   5.985  -1.520  0.00  0.00    -0.002 A 
ATOM      2  C1  UNL d   1      -2.879   5.970  -0.696  0.00  0.00     0.010 A 
ATOM      3  C2  UNL d   1      -1.593   5.965  -1.241  0.00  0.00     0.041 A 
ATOM      4  C3  UNL d   1      -1.447   5.976  -2.642  0.00  0.00    -0.075 A 
ATOM      5  S   UNL d   1       0.029   5.973  -3.533  0.00  0.00     0.015 SA
ATOM      6  C4  UNL d   1      -0.787   5.992  -5.029  0.00  0.00     0.022 A 
ATOM      7  C5  UNL d   1      -2.152   6.000  -4.871  0.00  0.00     0.026 A 
ATOM      8  C6  UNL d   1      -2.555   5.992  -3.493  0.00  0.00    -0.082 A 
ATOM      9  C7  UNL d   1      -3.845   5.996  -2.910  0.00  0.00     0.045 A 
ENDROOT
TORSDOF 0
ENDMDL
