MODEL 1
REMARK minimizedAffinity 9.86619091
REMARK minimizedRMSD -1
REMARK  0 active torsions:
REMARK  status: ('A' for Active; 'I' for Inactive)
ROOT
ATOM      1  C   UNL d   1       3.451   2.355  -3.255  0.00  0.00    -0.002 A 
ATOM      2  C1  UNL d   1       4.718   2.829  -3.563  0.00  0.00     0.010 A 
ATOM      3  C2  UNL d   1       4.877   3.955  -4.373  0.00  0.00     0.041 A 
ATOM      4  C3  UNL d   1       3.730   4.604  -4.872  0.00  0.00    -0.075 A 
ATOM      5  S   UNL d   1       3.682   6.000  -5.882  0.00  0.00     0.015 SA
ATOM      6  C4  UNL d   1       1.978   6.000  -5.928  0.00  0.00     0.022 A 
ATOM      7  C5  UNL d   1       1.443   4.967  -5.196  0.00  0.00     0.026 A 
ATOM      8  C6  UNL d   1       2.444   4.145  -4.575  0.00  0.00    -0.082 A 
ATOM      9  C7  UNL d   1       2.315   3.001  -3.752  0.00  0.00     0.045 A 
ENDROOT
TORSDOF 0
ENDMDL
