MODEL 1
REMARK minimizedAffinity -1.22511518
REMARK minimizedRMSD -1
REMARK  0 active torsions:
REMARK  status: ('A' for Active; 'I' for Inactive)
ROOT
ATOM      1  C   UNL d   1       2.170   5.937  -4.892  0.00  0.00    -0.002 A 
ATOM      2  C1  UNL d   1       1.370   5.695  -6.000  0.00  0.00     0.010 A 
ATOM      3  C2  UNL d   1      -0.007   5.509  -5.854  0.00  0.00     0.041 A 
ATOM      4  C3  UNL d   1      -0.570   5.573  -4.565  0.00  0.00    -0.075 A 
ATOM      5  S   UNL d   1      -2.231   5.377  -4.146  0.00  0.00     0.015 SA
ATOM      6  C4  UNL d   1      -1.917   5.610  -2.487  0.00  0.00     0.022 A 
ATOM      7  C5  UNL d   1      -0.583   5.833  -2.241  0.00  0.00     0.026 A 
ATOM      8  C6  UNL d   1       0.215   5.816  -3.434  0.00  0.00    -0.082 A 
ATOM      9  C7  UNL d   1       1.607   5.999  -3.615  0.00  0.00     0.045 A 
ENDROOT
TORSDOF 0
ENDMDL
