MODEL 1
REMARK minimizedAffinity 7.85931206
REMARK minimizedRMSD -1
REMARK  0 active torsions:
REMARK  status: ('A' for Active; 'I' for Inactive)
ROOT
ATOM      1  C   UNL d   1      -0.216   5.946  -2.263  0.00  0.00    -0.002 A 
ATOM      2  C1  UNL d   1      -1.027   5.969  -3.389  0.00  0.00     0.010 A 
ATOM      3  C2  UNL d   1      -2.418   5.985  -3.262  0.00  0.00     0.041 A 
ATOM      4  C3  UNL d   1      -2.985   5.979  -1.972  0.00  0.00    -0.075 A 
ATOM      5  S   UNL d   1      -4.662   5.997  -1.574  0.00  0.00     0.015 SA
ATOM      6  C4  UNL d   1      -4.341   5.975   0.100  0.00  0.00     0.022 A 
ATOM      7  C5  UNL d   1      -2.992   5.954   0.366  0.00  0.00     0.026 A 
ATOM      8  C6  UNL d   1      -2.188   5.957  -0.824  0.00  0.00    -0.082 A 
ATOM      9  C7  UNL d   1      -0.782   5.940  -0.986  0.00  0.00     0.045 A 
ENDROOT
TORSDOF 0
ENDMDL
