MODEL 1
REMARK minimizedAffinity -1.20089233
REMARK minimizedRMSD -1
REMARK  0 active torsions:
REMARK  status: ('A' for Active; 'I' for Inactive)
ROOT
ATOM      1  C   UNL d   1       5.927   5.320  -5.516  0.00  0.00    -0.002 A 
ATOM      2  C1  UNL d   1       5.808   4.136  -4.803  0.00  0.00     0.010 A 
ATOM      3  C2  UNL d   1       4.550   3.608  -4.506  0.00  0.00     0.041 A 
ATOM      4  C3  UNL d   1       3.402   4.297  -4.945  0.00  0.00    -0.075 A 
ATOM      5  S   UNL d   1       1.758   3.839  -4.700  0.00  0.00     0.015 SA
ATOM      6  C4  UNL d   1       1.175   5.203  -5.537  0.00  0.00     0.022 A 
ATOM      7  C5  UNL d   1       2.195   6.000  -6.000  0.00  0.00     0.026 A 
ATOM      8  C6  UNL d   1       3.496   5.490  -5.667  0.00  0.00    -0.082 A 
ATOM      9  C7  UNL d   1       4.786   6.000  -5.950  0.00  0.00     0.045 A 
ENDROOT
TORSDOF 0
ENDMDL
