MODEL 1
REMARK minimizedAffinity 5.46058464
REMARK minimizedRMSD -1
REMARK  0 active torsions:
REMARK  status: ('A' for Active; 'I' for Inactive)
ROOT
ATOM      1  C   UNL d   1      -1.067   5.964  -1.869  0.00  0.00    -0.002 A 
ATOM      2  C1  UNL d   1      -1.949   5.959  -2.940  0.00  0.00     0.010 A 
ATOM      3  C2  UNL d   1      -1.474   5.967  -4.253  0.00  0.00     0.041 A 
ATOM      4  C3  UNL d   1      -0.082   5.978  -4.473  0.00  0.00    -0.075 A 
ATOM      5  S   UNL d   1       0.729   5.989  -5.995  0.00  0.00     0.015 SA
ATOM      6  C4  UNL d   1       2.266   5.999  -5.259  0.00  0.00     0.022 A 
ATOM      7  C5  UNL d   1       2.181   5.994  -3.887  0.00  0.00     0.026 A 
ATOM      8  C6  UNL d   1       0.826   5.982  -3.411  0.00  0.00    -0.082 A 
ATOM      9  C7  UNL d   1       0.313   5.974  -2.092  0.00  0.00     0.045 A 
ENDROOT
TORSDOF 0
ENDMDL
