MODEL 1
REMARK minimizedAffinity 4.07729149
REMARK minimizedRMSD -1
REMARK  0 active torsions:
REMARK  status: ('A' for Active; 'I' for Inactive)
ROOT
ATOM      1  O1  BZF d   1      -2.047   2.989  -0.622  0.00  0.00    -0.204 OA
ATOM      2  C2  BZF d   1      -0.743   2.661  -0.301  0.00  0.00     0.174 A 
ATOM      3  C3  BZF d   1      -0.709   1.628   0.565  0.00  0.00    -0.012 A 
ATOM      4  C3A BZF d   1      -2.074   1.228   0.727  0.00  0.00    -0.107 A 
ATOM      5  C4  BZF d   1      -2.684   0.244   1.452  0.00  0.00     0.055 A 
ATOM      6  C5  BZF d   1      -4.041   0.168   1.450  0.00  0.00    -0.016 A 
ATOM      7  C6  BZF d   1      -4.817   1.060   0.741  0.00  0.00     0.022 A 
ATOM      8  C7  BZF d   1      -4.257   2.050   0.004  0.00  0.00     0.029 A 
ATOM      9  C7A BZF d   1      -2.885   2.110  -0.023  0.00  0.00     0.058 A 
ENDROOT
TORSDOF 0
ENDMDL
