MODEL 1
REMARK minimizedAffinity 0.747883558
REMARK minimizedRMSD -1
REMARK  0 active torsions:
REMARK  status: ('A' for Active; 'I' for Inactive)
ROOT
ATOM      1  O1  BZF d   1      -3.854   1.139   0.104  0.00  0.00    -0.204 OA
ATOM      2  C2  BZF d   1      -3.989   2.217  -0.749  0.00  0.00     0.174 A 
ATOM      3  C3  BZF d   1      -2.793   2.794  -0.985  0.00  0.00    -0.012 A 
ATOM      4  C3A BZF d   1      -1.839   1.972  -0.305  0.00  0.00    -0.107 A 
ATOM      5  C4  BZF d   1      -0.480   2.020  -0.178  0.00  0.00     0.055 A 
ATOM      6  C5  BZF d   1       0.142   1.109   0.616  0.00  0.00    -0.016 A 
ATOM      7  C6  BZF d   1      -0.563   0.142   1.301  0.00  0.00     0.022 A 
ATOM      8  C7  BZF d   1      -1.912   0.052   1.203  0.00  0.00     0.029 A 
ATOM      9  C7A BZF d   1      -2.540   0.950   0.376  0.00  0.00     0.058 A 
ENDROOT
TORSDOF 0
ENDMDL
