MODEL 1
REMARK minimizedAffinity 11.4924164
REMARK minimizedRMSD -1
REMARK  0 active torsions:
REMARK  status: ('A' for Active; 'I' for Inactive)
ROOT
ATOM      1  O1  BZF d   1      -0.738   3.314  -0.591  0.00  0.00    -0.204 OA
ATOM      2  C2  BZF d   1       0.355   2.666  -0.050  0.00  0.00     0.174 A 
ATOM      3  C3  BZF d   1      -0.025   1.546   0.598  0.00  0.00    -0.012 A 
ATOM      4  C3A BZF d   1      -1.434   1.442   0.375  0.00  0.00    -0.107 A 
ATOM      5  C4  BZF d   1      -2.380   0.533   0.753  0.00  0.00     0.055 A 
ATOM      6  C5  BZF d   1      -3.681   0.761   0.434  0.00  0.00    -0.016 A 
ATOM      7  C6  BZF d   1      -4.072   1.889  -0.257  0.00  0.00     0.022 A 
ATOM      8  C7  BZF d   1      -3.169   2.817  -0.658  0.00  0.00     0.029 A 
ATOM      9  C7A BZF d   1      -1.850   2.573  -0.365  0.00  0.00     0.058 A 
ENDROOT
TORSDOF 0
ENDMDL
