MODEL 1
REMARK minimizedAffinity -5.21738005
REMARK minimizedRMSD -1
REMARK  0 active torsions:
REMARK  status: ('A' for Active; 'I' for Inactive)
ROOT
ATOM      1  O1  BZF d   1       0.729   0.504   1.183  0.00  0.00    -0.204 OA
ATOM      2  C2  BZF d   1       1.220   1.610   0.517  0.00  0.00     0.174 A 
ATOM      3  C3  BZF d   1       0.214   2.331  -0.019  0.00  0.00    -0.012 A 
ATOM      4  C3A BZF d   1      -0.985   1.682   0.412  0.00  0.00    -0.107 A 
ATOM      5  C4  BZF d   1      -2.313   1.936   0.217  0.00  0.00     0.055 A 
ATOM      6  C5  BZF d   1      -3.232   1.067   0.713  0.00  0.00    -0.016 A 
ATOM      7  C6  BZF d   1      -2.860  -0.067   1.405  0.00  0.00     0.022 A 
ATOM      8  C7  BZF d   1      -1.555  -0.359   1.628  0.00  0.00     0.029 A 
ATOM      9  C7A BZF d   1      -0.625   0.535   1.156  0.00  0.00     0.058 A 
ENDROOT
TORSDOF 0
ENDMDL
