MODEL 1
REMARK minimizedAffinity 0.904759943
REMARK minimizedRMSD -1
REMARK  0 active torsions:
REMARK  status: ('A' for Active; 'I' for Inactive)
ROOT
ATOM      1  O1  BZF d   1       0.316   2.594   0.400  0.00  0.00    -0.204 OA
ATOM      2  C2  BZF d   1       1.104   1.659   1.042  0.00  0.00     0.174 A 
ATOM      3  C3  BZF d   1       0.395   0.547   1.323  0.00  0.00    -0.012 A 
ATOM      4  C3A BZF d   1      -0.894   0.766   0.743  0.00  0.00    -0.107 A 
ATOM      5  C4  BZF d   1      -2.033   0.015   0.673  0.00  0.00     0.055 A 
ATOM      6  C5  BZF d   1      -3.142   0.550   0.099  0.00  0.00    -0.016 A 
ATOM      7  C6  BZF d   1      -3.151   1.832  -0.410  0.00  0.00     0.022 A 
ATOM      8  C7  BZF d   1      -2.044   2.613  -0.369  0.00  0.00     0.029 A 
ATOM      9  C7A BZF d   1      -0.912   2.064   0.181  0.00  0.00     0.058 A 
ENDROOT
TORSDOF 0
ENDMDL
