MODEL 1
REMARK minimizedAffinity -1.15856683
REMARK minimizedRMSD -1
REMARK  0 active torsions:
REMARK  status: ('A' for Active; 'I' for Inactive)
ROOT
ATOM      1  O1  BZF d   1      -4.154   0.657   1.106  0.00  0.00    -0.204 OA
ATOM      2  C2  BZF d   1      -3.947  -0.557   1.732  0.00  0.00     0.174 A 
ATOM      3  C3  BZF d   1      -2.649  -0.917   1.659  0.00  0.00    -0.012 A 
ATOM      4  C3A BZF d   1      -1.989   0.181   1.023  0.00  0.00    -0.107 A 
ATOM      5  C4  BZF d   1      -0.689   0.426   0.683  0.00  0.00     0.055 A 
ATOM      6  C5  BZF d   1      -0.387   1.564   0.005  0.00  0.00    -0.016 A 
ATOM      7  C6  BZF d   1      -1.358   2.476  -0.353  0.00  0.00     0.022 A 
ATOM      8  C7  BZF d   1      -2.660   2.279  -0.033  0.00  0.00     0.029 A 
ATOM      9  C7A BZF d   1      -2.964   1.146   0.681  0.00  0.00     0.058 A 
ENDROOT
TORSDOF 0
ENDMDL
