MODEL 1
REMARK minimizedAffinity -1.27272582
REMARK minimizedRMSD -1
REMARK  0 active torsions:
REMARK  status: ('A' for Active; 'I' for Inactive)
ROOT
ATOM      1  O1  BZF d   1      -3.468   1.379   0.271  0.00  0.00    -0.204 OA
ATOM      2  C2  BZF d   1      -3.400   2.571  -0.424  0.00  0.00     0.174 A 
ATOM      3  C3  BZF d   1      -2.122   2.987  -0.535  0.00  0.00    -0.012 A 
ATOM      4  C3A BZF d   1      -1.335   1.947   0.053  0.00  0.00    -0.107 A 
ATOM      5  C4  BZF d   1       0.008   1.771   0.230  0.00  0.00     0.055 A 
ATOM      6  C5  BZF d   1       0.448   0.678   0.907  0.00  0.00    -0.016 A 
ATOM      7  C6  BZF d   1      -0.426  -0.256   1.423  0.00  0.00     0.022 A 
ATOM      8  C7  BZF d   1      -1.767  -0.128   1.268  0.00  0.00     0.029 A 
ATOM      9  C7A BZF d   1      -2.212   0.959   0.557  0.00  0.00     0.058 A 
ENDROOT
TORSDOF 0
ENDMDL
