MODEL 1
REMARK minimizedAffinity 5.99406481
REMARK minimizedRMSD -1
REMARK  0 active torsions:
REMARK  status: ('A' for Active; 'I' for Inactive)
ROOT
ATOM      1  O1  BZF d   1      -0.588  -4.194  -3.691  0.00  0.00    -0.204 OA
ATOM      2  C2  BZF d   1      -0.051  -5.405  -3.298  0.00  0.00     0.174 A 
ATOM      3  C3  BZF d   1      -0.454  -5.726  -2.052  0.00  0.00    -0.012 A 
ATOM      4  C3A BZF d   1      -1.369  -4.693  -1.675  0.00  0.00    -0.107 A 
ATOM      5  C4  BZF d   1      -2.114  -4.462  -0.554  0.00  0.00     0.055 A 
ATOM      6  C5  BZF d   1      -2.850  -3.322  -0.473  0.00  0.00    -0.016 A 
ATOM      7  C6  BZF d   1      -2.858  -2.390  -1.490  0.00  0.00     0.022 A 
ATOM      8  C7  BZF d   1      -2.139  -2.577  -2.623  0.00  0.00     0.029 A 
ATOM      9  C7A BZF d   1      -1.421  -3.744  -2.722  0.00  0.00     0.058 A 
ENDROOT
TORSDOF 0
ENDMDL
