MODEL 1
REMARK minimizedAffinity 1.09138167
REMARK minimizedRMSD -1
REMARK  0 active torsions:
REMARK  status: ('A' for Active; 'I' for Inactive)
ROOT
ATOM      1  O1  BZF d   1      -0.750   3.083  -0.030  0.00  0.00    -0.204 OA
ATOM      2  C2  BZF d   1       0.541   2.719   0.298  0.00  0.00     0.174 A 
ATOM      3  C3  BZF d   1       0.571   1.471   0.808  0.00  0.00    -0.012 A 
ATOM      4  C3A BZF d   1      -0.774   0.993   0.713  0.00  0.00    -0.107 A 
ATOM      5  C4  BZF d   1      -1.377  -0.187   1.044  0.00  0.00     0.055 A 
ATOM      6  C5  BZF d   1      -2.722  -0.307   0.891  0.00  0.00    -0.016 A 
ATOM      7  C6  BZF d   1      -3.495   0.733   0.416  0.00  0.00     0.022 A 
ATOM      8  C7  BZF d   1      -2.941   1.920   0.070  0.00  0.00     0.029 A 
ATOM      9  C7A BZF d   1      -1.578   2.034   0.192  0.00  0.00     0.058 A 
ENDROOT
TORSDOF 0
ENDMDL
