MODEL 1
REMARK minimizedAffinity 9.38818932
REMARK minimizedRMSD -1
REMARK  0 active torsions:
REMARK  status: ('A' for Active; 'I' for Inactive)
ROOT
ATOM      1  O1  BZF d   1       0.110   0.594   1.562  0.00  0.00    -0.204 OA
ATOM      2  C2  BZF d   1       1.002   1.572   1.166  0.00  0.00     0.174 A 
ATOM      3  C3  BZF d   1       0.427   2.416   0.285  0.00  0.00    -0.012 A 
ATOM      4  C3A BZF d   1      -0.935   1.988   0.189  0.00  0.00    -0.107 A 
ATOM      5  C4  BZF d   1      -2.014   2.440  -0.516  0.00  0.00     0.055 A 
ATOM      6  C5  BZF d   1      -3.185   1.755  -0.444  0.00  0.00    -0.016 A 
ATOM      7  C6  BZF d   1      -3.312   0.613   0.320  0.00  0.00     0.022 A 
ATOM      8  C7  BZF d   1      -2.271   0.129   1.041  0.00  0.00     0.029 A 
ATOM      9  C7A BZF d   1      -1.096   0.838   0.995  0.00  0.00     0.058 A 
ENDROOT
TORSDOF 0
ENDMDL
