MODEL 1
REMARK minimizedAffinity 1.11609769
REMARK minimizedRMSD -1
REMARK  0 active torsions:
REMARK  status: ('A' for Active; 'I' for Inactive)
ROOT
ATOM      1  O1  BZF d   1      -0.881   2.501  -0.359  0.00  0.00    -0.204 OA
ATOM      2  C2  BZF d   1       0.338   1.929  -0.052  0.00  0.00     0.174 A 
ATOM      3  C3  BZF d   1       0.171   0.810   0.682  0.00  0.00    -0.012 A 
ATOM      4  C3A BZF d   1      -1.245   0.623   0.766  0.00  0.00    -0.107 A 
ATOM      5  C4  BZF d   1      -2.034  -0.325   1.352  0.00  0.00     0.055 A 
ATOM      6  C5  BZF d   1      -3.384  -0.177   1.312  0.00  0.00    -0.016 A 
ATOM      7  C6  BZF d   1      -3.978   0.907   0.701  0.00  0.00     0.022 A 
ATOM      8  C7  BZF d   1      -3.238   1.870   0.101  0.00  0.00     0.029 A 
ATOM      9  C7A BZF d   1      -1.874   1.707   0.111  0.00  0.00     0.058 A 
ENDROOT
TORSDOF 0
ENDMDL
