MODEL 1
REMARK minimizedAffinity -1.07364953
REMARK minimizedRMSD -1
REMARK  0 active torsions:
REMARK  status: ('A' for Active; 'I' for Inactive)
ROOT
ATOM      1  O1  BZF d   1      -0.260   2.553  -0.009  0.00  0.00    -0.204 OA
ATOM      2  C2  BZF d   1       0.730   1.759   0.537  0.00  0.00     0.174 A 
ATOM      3  C3  BZF d   1       0.197   0.678   1.143  0.00  0.00    -0.012 A 
ATOM      4  C3A BZF d   1      -1.208   0.757   0.884  0.00  0.00    -0.107 A 
ATOM      5  C4  BZF d   1      -2.269  -0.038   1.213  0.00  0.00     0.055 A 
ATOM      6  C5  BZF d   1      -3.523   0.359   0.870  0.00  0.00    -0.016 A 
ATOM      7  C6  BZF d   1      -3.752   1.545   0.204  0.00  0.00     0.022 A 
ATOM      8  C7  BZF d   1      -2.731   2.364  -0.148  0.00  0.00     0.029 A 
ATOM      9  C7A BZF d   1      -1.460   1.950   0.168  0.00  0.00     0.058 A 
ENDROOT
TORSDOF 0
ENDMDL
