MODEL 1
REMARK minimizedAffinity 2.29562926
REMARK minimizedRMSD -1
REMARK  0 active torsions:
REMARK  status: ('A' for Active; 'I' for Inactive)
ROOT
ATOM      1  O1  BZF d   1      -0.621   3.079  -0.191  0.00  0.00    -0.204 OA
ATOM      2  C2  BZF d   1       0.516   2.618   0.443  0.00  0.00     0.174 A 
ATOM      3  C3  BZF d   1       0.224   1.580   1.253  0.00  0.00    -0.012 A 
ATOM      4  C3A BZF d   1      -1.167   1.320   1.046  0.00  0.00    -0.107 A 
ATOM      5  C4  BZF d   1      -2.037   0.398   1.556  0.00  0.00     0.055 A 
ATOM      6  C5  BZF d   1      -3.348   0.461   1.203  0.00  0.00    -0.016 A 
ATOM      7  C6  BZF d   1      -3.824   1.434   0.348  0.00  0.00     0.022 A 
ATOM      8  C7  BZF d   1      -2.999   2.367  -0.186  0.00  0.00     0.029 A 
ATOM      9  C7A BZF d   1      -1.668   2.286   0.142  0.00  0.00     0.058 A 
ENDROOT
TORSDOF 0
ENDMDL
