MODEL 1
REMARK minimizedAffinity 2.47903538
REMARK minimizedRMSD -1
REMARK  0 active torsions:
REMARK  status: ('A' for Active; 'I' for Inactive)
ROOT
ATOM      1  O1  BZF d   1       3.279   1.192   0.850  0.00  0.00    -0.204 OA
ATOM      2  C2  BZF d   1       3.842   2.102   1.725  0.00  0.00     0.174 A 
ATOM      3  C3  BZF d   1       2.892   2.872   2.291  0.00  0.00    -0.012 A 
ATOM      4  C3A BZF d   1       1.649   2.355   1.806  0.00  0.00    -0.107 A 
ATOM      5  C4  BZF d   1       0.343   2.691   2.023  0.00  0.00     0.055 A 
ATOM      6  C5  BZF d   1      -0.630   2.035   1.339  0.00  0.00    -0.016 A 
ATOM      7  C6  BZF d   1      -0.334   1.042   0.428  0.00  0.00     0.022 A 
ATOM      8  C7  BZF d   1       0.946   0.670   0.183  0.00  0.00     0.029 A 
ATOM      9  C7A BZF d   1       1.930   1.309   0.897  0.00  0.00     0.058 A 
ENDROOT
TORSDOF 0
ENDMDL
