MODEL 1
REMARK minimizedAffinity 7.58675528
REMARK minimizedRMSD -1
REMARK  0 active torsions:
REMARK  status: ('A' for Active; 'I' for Inactive)
ROOT
ATOM      1  O1  BZF d   1      -2.840   2.787  -0.734  0.00  0.00    -0.204 OA
ATOM      2  C2  BZF d   1      -1.517   2.431  -0.558  0.00  0.00     0.174 A 
ATOM      3  C3  BZF d   1      -1.412   1.392   0.296  0.00  0.00    -0.012 A 
ATOM      4  C3A BZF d   1      -2.758   1.020   0.605  0.00  0.00    -0.107 A 
ATOM      5  C4  BZF d   1      -3.307   0.045   1.388  0.00  0.00     0.055 A 
ATOM      6  C5  BZF d   1      -4.657  -0.003   1.534  0.00  0.00    -0.016 A 
ATOM      7  C6  BZF d   1      -5.487   0.910   0.916  0.00  0.00     0.022 A 
ATOM      8  C7  BZF d   1      -4.989   1.892   0.126  0.00  0.00     0.029 A 
ATOM      9  C7A BZF d   1      -3.628   1.923  -0.050  0.00  0.00     0.058 A 
ENDROOT
TORSDOF 0
ENDMDL
