MODEL 1
REMARK minimizedAffinity 0.543323517
REMARK minimizedRMSD -1
REMARK  0 active torsions:
REMARK  status: ('A' for Active; 'I' for Inactive)
ROOT
ATOM      1  O1  BZF d   1      -1.078   1.495   0.110  0.00  0.00    -0.204 OA
ATOM      2  C2  BZF d   1      -0.193   1.140  -0.890  0.00  0.00     0.174 A 
ATOM      3  C3  BZF d   1       1.082   1.279  -0.472  0.00  0.00    -0.012 A 
ATOM      4  C3A BZF d   1       0.987   1.661   0.904  0.00  0.00    -0.107 A 
ATOM      5  C4  BZF d   1       1.915   1.931   1.869  0.00  0.00     0.055 A 
ATOM      6  C5  BZF d   1       1.493   2.348   3.092  0.00  0.00    -0.016 A 
ATOM      7  C6  BZF d   1       0.154   2.510   3.382  0.00  0.00     0.022 A 
ATOM      8  C7  BZF d   1      -0.803   2.250   2.458  0.00  0.00     0.029 A 
ATOM      9  C7A BZF d   1      -0.382   1.797   1.232  0.00  0.00     0.058 A 
ENDROOT
TORSDOF 0
ENDMDL
