MODEL 1
REMARK minimizedAffinity 11.2991467
REMARK minimizedRMSD -1
REMARK  0 active torsions:
REMARK  status: ('A' for Active; 'I' for Inactive)
ROOT
ATOM      1  O1  BZF d   1      -0.030   1.098  -0.756  0.00  0.00    -0.204 OA
ATOM      2  C2  BZF d   1       1.292   1.330  -0.427  0.00  0.00     0.174 A 
ATOM      3  C3  BZF d   1       1.724   0.431   0.481  0.00  0.00    -0.012 A 
ATOM      4  C3A BZF d   1       0.630  -0.472   0.666  0.00  0.00    -0.107 A 
ATOM      5  C4  BZF d   1       0.453  -1.588   1.433  0.00  0.00     0.055 A 
ATOM      6  C5  BZF d   1      -0.761  -2.199   1.441  0.00  0.00    -0.016 A 
ATOM      7  C6  BZF d   1      -1.820  -1.720   0.698  0.00  0.00     0.022 A 
ATOM      8  C7  BZF d   1      -1.691  -0.619  -0.083  0.00  0.00     0.029 A 
ATOM      9  C7A BZF d   1      -0.456  -0.018  -0.118  0.00  0.00     0.058 A 
ENDROOT
TORSDOF 0
ENDMDL
