MODEL 1
REMARK minimizedAffinity 13.2676935
REMARK minimizedRMSD -1
REMARK  0 active torsions:
REMARK  status: ('A' for Active; 'I' for Inactive)
ROOT
ATOM      1  C   UNL d   1       1.625   1.835   5.477  0.00  0.00    -0.002 A 
ATOM      2  C1  UNL d   1       0.397   2.481   5.506  0.00  0.00     0.010 A 
ATOM      3  C2  UNL d   1      -0.588   2.176   4.564  0.00  0.00     0.041 A 
ATOM      4  C3  UNL d   1      -0.317   1.200   3.586  0.00  0.00    -0.075 A 
ATOM      5  S   UNL d   1      -1.373   0.663   2.333  0.00  0.00     0.015 SA
ATOM      6  C4  UNL d   1      -0.219  -0.438   1.731  0.00  0.00     0.022 A 
ATOM      7  C5  UNL d   1       0.949  -0.409   2.456  0.00  0.00     0.026 A 
ATOM      8  C6  UNL d   1       0.912   0.535   3.537  0.00  0.00    -0.082 A 
ATOM      9  C7  UNL d   1       1.890   0.867   4.504  0.00  0.00     0.045 A 
ENDROOT
TORSDOF 0
ENDMDL
