MODEL 1
REMARK minimizedAffinity 17.3661518
REMARK minimizedRMSD -1
REMARK  0 active torsions:
REMARK  status: ('A' for Active; 'I' for Inactive)
ROOT
ATOM      1  C   UNL d   1      -0.367  -0.768  -5.202  0.00  0.00    -0.002 A 
ATOM      2  C1  UNL d   1      -0.733  -1.983  -5.766  0.00  0.00     0.010 A 
ATOM      3  C2  UNL d   1       0.221  -2.976  -5.994  0.00  0.00     0.041 A 
ATOM      4  C3  UNL d   1       1.562  -2.727  -5.640  0.00  0.00    -0.075 A 
ATOM      5  S   UNL d   1       2.902  -3.796  -5.826  0.00  0.00     0.015 SA
ATOM      6  C4  UNL d   1       3.991  -2.667  -5.161  0.00  0.00     0.022 A 
ATOM      7  C5  UNL d   1       3.365  -1.497  -4.801  0.00  0.00     0.026 A 
ATOM      8  C6  UNL d   1       1.955  -1.513  -5.071  0.00  0.00    -0.082 A 
ATOM      9  C7  UNL d   1       0.964  -0.525  -4.853  0.00  0.00     0.045 A 
ENDROOT
TORSDOF 0
ENDMDL
