MODEL 1
REMARK minimizedAffinity 18.6823597
REMARK minimizedRMSD -1
REMARK  0 active torsions:
REMARK  status: ('A' for Active; 'I' for Inactive)
ROOT
ATOM      1  C   UNL d   1       1.515  -0.419  -4.830  0.00  0.00    -0.002 A 
ATOM      2  C1  UNL d   1       1.275  -1.283  -5.889  0.00  0.00     0.010 A 
ATOM      3  C2  UNL d   1       0.192  -2.164  -5.856  0.00  0.00     0.041 A 
ATOM      4  C3  UNL d   1      -0.656  -2.159  -4.731  0.00  0.00    -0.075 A 
ATOM      5  S   UNL d   1      -2.044  -3.149  -4.472  0.00  0.00     0.015 SA
ATOM      6  C4  UNL d   1      -2.352  -2.447  -2.950  0.00  0.00     0.022 A 
ATOM      7  C5  UNL d   1      -1.428  -1.479  -2.631  0.00  0.00     0.026 A 
ATOM      8  C6  UNL d   1      -0.436  -1.297  -3.653  0.00  0.00    -0.082 A 
ATOM      9  C7  UNL d   1       0.671  -0.417  -3.716  0.00  0.00     0.045 A 
ENDROOT
TORSDOF 0
ENDMDL
