MODEL 1
REMARK minimizedAffinity 24.4753838
REMARK minimizedRMSD -1
REMARK  0 active torsions:
REMARK  status: ('A' for Active; 'I' for Inactive)
ROOT
ATOM      1  C   UNL d   1       3.585   4.903   1.278  0.00  0.00    -0.002 A 
ATOM      2  C1  UNL d   1       3.440   3.587   0.860  0.00  0.00     0.010 A 
ATOM      3  C2  UNL d   1       3.673   2.531   1.743  0.00  0.00     0.041 A 
ATOM      4  C3  UNL d   1       4.056   2.823   3.067  0.00  0.00    -0.075 A 
ATOM      5  S   UNL d   1       4.393   1.692   4.324  0.00  0.00     0.015 SA
ATOM      6  C4  UNL d   1       4.737   2.928   5.446  0.00  0.00     0.022 A 
ATOM      7  C5  UNL d   1       4.603   4.179   4.892  0.00  0.00     0.026 A 
ATOM      8  C6  UNL d   1       4.208   4.139   3.512  0.00  0.00    -0.082 A 
ATOM      9  C7  UNL d   1       3.965   5.187   2.592  0.00  0.00     0.045 A 
ENDROOT
TORSDOF 0
ENDMDL
