MODEL 1
REMARK minimizedAffinity 6.4905405
REMARK minimizedRMSD -1
REMARK  1 active torsions:
REMARK  status: ('A' for Active; 'I' for Inactive)
REMARK    1  A    between atoms: C1_2  and  C2_3 
ROOT
ATOM      1  C2  UNL d   1      -3.793   2.041  -0.959  0.00  0.00    -0.081 A 
ATOM      2  C3  UNL d   1      -3.225   0.885  -1.510  0.00  0.00     0.006 A 
ATOM      3  C4  UNL d   1      -1.875   0.592  -1.303  0.00  0.00     0.002 A 
ATOM      4  C5  UNL d   1      -1.074   1.443  -0.535  0.00  0.00    -0.080 A 
ATOM      5  C6  UNL d   1       0.369   1.123  -0.279  0.00  0.00     0.076 C 
ATOM      6  C7  UNL d   1      -1.636   2.606   0.001  0.00  0.00     0.002 A 
ATOM      7  C8  UNL d   1      -2.986   2.900  -0.206  0.00  0.00     0.006 A 
ENDROOT
BRANCH   1   8
ATOM      8  C1  UNL d   1      -5.263   2.327  -1.127  0.00  0.00     0.054 C 
ATOM      9  C   UNL d   1      -6.000   1.123  -1.697  0.00  0.00     0.018 C 
ENDBRANCH   1   8
TORSDOF 1
ENDMDL
