MODEL 1
REMARK minimizedAffinity 9.40079021
REMARK minimizedRMSD -1
REMARK  1 active torsions:
REMARK  status: ('A' for Active; 'I' for Inactive)
REMARK    1  A    between atoms: C1_2  and  C2_3 
ROOT
ATOM      1  C2  UNL d   1      -0.573   1.252   1.070  0.00  0.00    -0.081 A 
ATOM      2  C3  UNL d   1       0.717   0.723   0.940  0.00  0.00     0.006 A 
ATOM      3  C4  UNL d   1       1.379   0.188   2.047  0.00  0.00     0.002 A 
ATOM      4  C5  UNL d   1       0.760   0.165   3.301  0.00  0.00    -0.080 A 
ATOM      5  C6  UNL d   1       1.447  -0.434   4.492  0.00  0.00     0.076 C 
ATOM      6  C7  UNL d   1      -0.522   0.709   3.436  0.00  0.00     0.002 A 
ATOM      7  C8  UNL d   1      -1.184   1.245   2.329  0.00  0.00     0.006 A 
ENDROOT
BRANCH   1   8
ATOM      8  C1  UNL d   1      -1.314   1.771  -0.135  0.00  0.00     0.054 C 
ATOM      9  C   UNL d   1      -2.060   3.058   0.186  0.00  0.00     0.018 C 
ENDBRANCH   1   8
TORSDOF 1
ENDMDL
