MODEL 1
REMARK minimizedAffinity 4.91010475
REMARK minimizedRMSD -1
REMARK  1 active torsions:
REMARK  status: ('A' for Active; 'I' for Inactive)
REMARK    1  A    between atoms: C1_2  and  C2_3 
ROOT
ATOM      1  C2  UNL d   1      -0.388   1.093   0.418  0.00  0.00    -0.081 A 
ATOM      2  C3  UNL d   1       0.973   0.805   0.265  0.00  0.00     0.006 A 
ATOM      3  C4  UNL d   1       1.696   0.223   1.310  0.00  0.00     0.002 A 
ATOM      4  C5  UNL d   1       1.067  -0.087   2.520  0.00  0.00    -0.080 A 
ATOM      5  C6  UNL d   1       1.824  -0.739   3.639  0.00  0.00     0.076 C 
ATOM      6  C7  UNL d   1      -0.289   0.217   2.679  0.00  0.00     0.002 A 
ATOM      7  C8  UNL d   1      -1.012   0.799   1.635  0.00  0.00     0.006 A 
ENDROOT
BRANCH   1   8
ATOM      8  C1  UNL d   1      -1.185   1.660  -0.729  0.00  0.00     0.054 C 
ATOM      9  C   UNL d   1      -1.955   0.570  -1.462  0.00  0.00     0.018 C 
ENDBRANCH   1   8
TORSDOF 1
ENDMDL
