MODEL 1
REMARK minimizedAffinity -4.76499557
REMARK minimizedRMSD -1
REMARK  0 active torsions:
REMARK  status: ('A' for Active; 'I' for Inactive)
ROOT
ATOM      1  C   UNL d   1       1.508  -1.341  -2.309  0.00  0.00     0.124 A 
ATOM      2  C1  UNL d   1       1.068  -0.033  -2.157  0.00  0.00     0.062 A 
ATOM      3  C2  UNL d   1       0.325   0.329  -1.037  0.00  0.00     0.162 A 
ATOM      4  C3  UNL d   1       0.016  -0.618  -0.061  0.00  0.00    -0.034 A 
ATOM      5  C4  UNL d   1       0.461  -1.931  -0.222  0.00  0.00     0.162 A 
ATOM      6  C5  UNL d   1       1.204  -2.288  -1.342  0.00  0.00     0.062 A 
ATOM      7  F   UNL d   1       1.627  -3.552  -1.488  0.00  0.00    -0.097 F 
ATOM      8  F1  UNL d   1       0.182  -2.867   0.698  0.00  0.00    -0.096 F 
ATOM      9  I   UNL d   1      -1.096  -0.080   1.615  0.00  0.00    -0.060 I 
ATOM     10  F2  UNL d   1      -0.087   1.600  -0.915  0.00  0.00    -0.096 F 
ATOM     11  F3  UNL d   1       1.360   0.884  -3.090  0.00  0.00    -0.097 F 
ATOM     12  F4  UNL d   1       2.222  -1.687  -3.388  0.00  0.00    -0.092 F 
ENDROOT
TORSDOF 0
ENDMDL
