MODEL 1
REMARK minimizedAffinity 1.87369537
REMARK minimizedRMSD -1
REMARK  0 active torsions:
REMARK  status: ('A' for Active; 'I' for Inactive)
ROOT
ATOM      1  C   UNL d   1       0.318  -1.785  -1.782  0.00  0.00     0.124 A 
ATOM      2  C1  UNL d   1      -0.133  -0.482  -1.942  0.00  0.00     0.062 A 
ATOM      3  C2  UNL d   1      -0.613   0.232  -0.848  0.00  0.00     0.162 A 
ATOM      4  C3  UNL d   1      -0.646  -0.356   0.417  0.00  0.00    -0.034 A 
ATOM      5  C4  UNL d   1      -0.192  -1.668   0.570  0.00  0.00     0.162 A 
ATOM      6  C5  UNL d   1       0.287  -2.377  -0.527  0.00  0.00     0.062 A 
ATOM      7  F   UNL d   1       0.722  -3.636  -0.371  0.00  0.00    -0.097 F 
ATOM      8  F1  UNL d   1      -0.209  -2.263   1.771  0.00  0.00    -0.096 F 
ATOM      9  I   UNL d   1      -1.364   0.707   2.055  0.00  0.00    -0.060 I 
ATOM     10  F2  UNL d   1      -1.042   1.489  -1.031  0.00  0.00    -0.096 F 
ATOM     11  F3  UNL d   1      -0.105   0.091  -3.153  0.00  0.00    -0.097 F 
ATOM     12  F4  UNL d   1       0.779  -2.470  -2.837  0.00  0.00    -0.092 F 
ENDROOT
TORSDOF 0
ENDMDL
