MODEL 1
REMARK minimizedAffinity -3.09505725
REMARK minimizedRMSD -1
REMARK  0 active torsions:
REMARK  status: ('A' for Active; 'I' for Inactive)
ROOT
ATOM      1  C   UNL d   1       1.812  -1.355  -2.158  0.00  0.00     0.124 A 
ATOM      2  C1  UNL d   1       1.384  -2.355  -1.297  0.00  0.00     0.062 A 
ATOM      3  C2  UNL d   1       0.544  -2.049  -0.231  0.00  0.00     0.162 A 
ATOM      4  C3  UNL d   1       0.124  -0.736  -0.020  0.00  0.00    -0.034 A 
ATOM      5  C4  UNL d   1       0.560   0.266  -0.889  0.00  0.00     0.162 A 
ATOM      6  C5  UNL d   1       1.400  -0.045  -1.954  0.00  0.00     0.062 A 
ATOM      7  F   UNL d   1       1.813   0.923  -2.784  0.00  0.00    -0.097 F 
ATOM      8  F1  UNL d   1       0.176   1.539  -0.716  0.00  0.00    -0.096 F 
ATOM      9  I   UNL d   1      -1.133  -0.274   1.573  0.00  0.00    -0.060 I 
ATOM     10  F2  UNL d   1       0.145  -3.037   0.585  0.00  0.00    -0.096 F 
ATOM     11  F3  UNL d   1       1.782  -3.621  -1.492  0.00  0.00    -0.097 F 
ATOM     12  F4  UNL d   1       2.622  -1.652  -3.183  0.00  0.00    -0.092 F 
ENDROOT
TORSDOF 0
ENDMDL
