MODEL 1
REMARK minimizedAffinity -4.23139668
REMARK minimizedRMSD -1
REMARK  0 active torsions:
REMARK  status: ('A' for Active; 'I' for Inactive)
ROOT
ATOM      1  C   UNL d   1       1.904  -0.767  -2.194  0.00  0.00     0.124 A 
ATOM      2  C1  UNL d   1       1.211  -1.865  -1.703  0.00  0.00     0.062 A 
ATOM      3  C2  UNL d   1       0.291  -1.708  -0.671  0.00  0.00     0.162 A 
ATOM      4  C3  UNL d   1       0.058  -0.447  -0.122  0.00  0.00    -0.034 A 
ATOM      5  C4  UNL d   1       0.759   0.653  -0.620  0.00  0.00     0.162 A 
ATOM      6  C5  UNL d   1       1.678   0.490  -1.652  0.00  0.00     0.062 A 
ATOM      7  F   UNL d   1       2.346   1.553  -2.125  0.00  0.00    -0.097 F 
ATOM      8  F1  UNL d   1       0.559   1.879  -0.115  0.00  0.00    -0.096 F 
ATOM      9  I   UNL d   1      -1.317  -0.208   1.422  0.00  0.00    -0.060 I 
ATOM     10  F2  UNL d   1      -0.364  -2.786  -0.216  0.00  0.00    -0.096 F 
ATOM     11  F3  UNL d   1       1.429  -3.081  -2.225  0.00  0.00    -0.097 F 
ATOM     12  F4  UNL d   1       2.789  -0.921  -3.187  0.00  0.00    -0.092 F 
ENDROOT
TORSDOF 0
ENDMDL
