MODEL 1
REMARK minimizedAffinity -2.3528161
REMARK minimizedRMSD -1
REMARK  0 active torsions:
REMARK  status: ('A' for Active; 'I' for Inactive)
ROOT
ATOM      1  C   UNL d   1       1.773  -1.191  -2.524  0.00  0.00     0.124 A 
ATOM      2  C1  UNL d   1       1.528   0.139  -2.211  0.00  0.00     0.062 A 
ATOM      3  C2  UNL d   1       0.786   0.467  -1.080  0.00  0.00     0.162 A 
ATOM      4  C3  UNL d   1       0.285  -0.538  -0.252  0.00  0.00    -0.034 A 
ATOM      5  C4  UNL d   1       0.535  -1.873  -0.574  0.00  0.00     0.162 A 
ATOM      6  C5  UNL d   1       1.277  -2.195  -1.705  0.00  0.00     0.062 A 
ATOM      7  F   UNL d   1       1.513  -3.480  -2.006  0.00  0.00    -0.097 F 
ATOM      8  F1  UNL d   1       0.068  -2.864   0.201  0.00  0.00    -0.096 F 
ATOM      9  I   UNL d   1      -0.824  -0.052   1.441  0.00  0.00    -0.060 I 
ATOM     10  F2  UNL d   1       0.565   1.760  -0.801  0.00  0.00    -0.096 F 
ATOM     11  F3  UNL d   1       2.006   1.112  -3.001  0.00  0.00    -0.097 F 
ATOM     12  F4  UNL d   1       2.486  -1.503  -3.614  0.00  0.00    -0.092 F 
ENDROOT
TORSDOF 0
ENDMDL
