MODEL 1
REMARK minimizedAffinity -1.31007719
REMARK minimizedRMSD -1
REMARK  0 active torsions:
REMARK  status: ('A' for Active; 'I' for Inactive)
ROOT
ATOM      1  C   UNL d   1      -0.067  -1.337   1.764  0.00  0.00     0.124 A 
ATOM      2  C1  UNL d   1       0.029   0.008   1.433  0.00  0.00     0.062 A 
ATOM      3  C2  UNL d   1       0.332   0.388   0.129  0.00  0.00     0.162 A 
ATOM      4  C3  UNL d   1       0.541  -0.578  -0.855  0.00  0.00    -0.034 A 
ATOM      5  C4  UNL d   1       0.444  -1.929  -0.514  0.00  0.00     0.162 A 
ATOM      6  C5  UNL d   1       0.140  -2.303   0.790  0.00  0.00     0.062 A 
ATOM      7  F   UNL d   1       0.048  -3.603   1.108  0.00  0.00    -0.097 F 
ATOM      8  F1  UNL d   1       0.638  -2.884  -1.436  0.00  0.00    -0.096 F 
ATOM      9  I   UNL d   1       0.995  -0.014  -2.806  0.00  0.00    -0.060 I 
ATOM     10  F2  UNL d   1       0.419   1.695  -0.162  0.00  0.00    -0.096 F 
ATOM     11  F3  UNL d   1      -0.170   0.944   2.373  0.00  0.00    -0.097 F 
ATOM     12  F4  UNL d   1      -0.358  -1.699   3.020  0.00  0.00    -0.092 F 
ENDROOT
TORSDOF 0
ENDMDL
