MODEL 1
REMARK minimizedAffinity 5.23945475
REMARK minimizedRMSD -1
REMARK  0 active torsions:
REMARK  status: ('A' for Active; 'I' for Inactive)
ROOT
ATOM      1  C   UNL d   1      -0.584   0.004   0.126  0.00  0.00     0.124 A 
ATOM      2  C1  UNL d   1      -0.147  -0.472  -1.103  0.00  0.00     0.062 A 
ATOM      3  C2  UNL d   1       1.165  -0.253  -1.512  0.00  0.00     0.162 A 
ATOM      4  C3  UNL d   1       2.051   0.444  -0.691  0.00  0.00    -0.034 A 
ATOM      5  C4  UNL d   1       1.605   0.919   0.543  0.00  0.00     0.162 A 
ATOM      6  C5  UNL d   1       0.293   0.698   0.948  0.00  0.00     0.062 A 
ATOM      7  F   UNL d   1      -0.127   1.158   2.135  0.00  0.00    -0.097 F 
ATOM      8  F1  UNL d   1       2.431   1.593   1.357  0.00  0.00    -0.096 F 
ATOM      9  I   UNL d   1       4.014   0.773  -1.300  0.00  0.00    -0.060 I 
ATOM     10  F2  UNL d   1       1.559  -0.723  -2.705  0.00  0.00    -0.096 F 
ATOM     11  F3  UNL d   1      -0.992  -1.142  -1.899  0.00  0.00    -0.097 F 
ATOM     12  F4  UNL d   1      -1.847  -0.207   0.517  0.00  0.00    -0.092 F 
ENDROOT
TORSDOF 0
ENDMDL
