MODEL 1
REMARK minimizedAffinity 0.151240274
REMARK minimizedRMSD -1
REMARK  0 active torsions:
REMARK  status: ('A' for Active; 'I' for Inactive)
ROOT
ATOM      1  C   UNL d   1      -0.311   0.250   1.429  0.00  0.00     0.124 A 
ATOM      2  C1  UNL d   1       0.277   1.387   0.891  0.00  0.00     0.062 A 
ATOM      3  C2  UNL d   1       0.963   1.315  -0.317  0.00  0.00     0.162 A 
ATOM      4  C3  UNL d   1       1.064   0.101  -0.998  0.00  0.00    -0.034 A 
ATOM      5  C4  UNL d   1       0.471  -1.038  -0.451  0.00  0.00     0.162 A 
ATOM      6  C5  UNL d   1      -0.214  -0.960   0.758  0.00  0.00     0.062 A 
ATOM      7  F   UNL d   1      -0.782  -2.059   1.276  0.00  0.00    -0.097 F 
ATOM      8  F1  UNL d   1       0.549  -2.220  -1.079  0.00  0.00    -0.096 F 
ATOM      9  I   UNL d   1       2.089  -0.011  -2.806  0.00  0.00    -0.060 I 
ATOM     10  F2  UNL d   1       1.522   2.429  -0.814  0.00  0.00    -0.096 F 
ATOM     11  F3  UNL d   1       0.185   2.558   1.538  0.00  0.00    -0.097 F 
ATOM     12  F4  UNL d   1      -0.970   0.322   2.593  0.00  0.00    -0.092 F 
ENDROOT
TORSDOF 0
ENDMDL
