MODEL 1
REMARK minimizedAffinity 0.751255453
REMARK minimizedRMSD -1
REMARK  0 active torsions:
REMARK  status: ('A' for Active; 'I' for Inactive)
ROOT
ATOM      1  C   UNL d   1      -0.963  -0.857   1.788  0.00  0.00     0.124 A 
ATOM      2  C1  UNL d   1      -0.923   0.380   1.160  0.00  0.00     0.062 A 
ATOM      3  C2  UNL d   1      -0.305   0.516  -0.079  0.00  0.00     0.162 A 
ATOM      4  C3  UNL d   1       0.278  -0.588  -0.700  0.00  0.00    -0.034 A 
ATOM      5  C4  UNL d   1       0.235  -1.829  -0.062  0.00  0.00     0.162 A 
ATOM      6  C5  UNL d   1      -0.384  -1.960   1.177  0.00  0.00     0.062 A 
ATOM      7  F   UNL d   1      -0.421  -3.156   1.782  0.00  0.00    -0.097 F 
ATOM      8  F1  UNL d   1       0.786  -2.912  -0.630  0.00  0.00    -0.096 F 
ATOM      9  I   UNL d   1       1.204  -0.389  -2.553  0.00  0.00    -0.060 I 
ATOM     10  F2  UNL d   1      -0.281   1.724  -0.663  0.00  0.00    -0.096 F 
ATOM     11  F3  UNL d   1      -1.481   1.448   1.750  0.00  0.00    -0.097 F 
ATOM     12  F4  UNL d   1      -1.558  -0.985   2.982  0.00  0.00    -0.092 F 
ENDROOT
TORSDOF 0
ENDMDL
