MODEL 1
REMARK minimizedAffinity -2.66148829
REMARK minimizedRMSD -1
REMARK  0 active torsions:
REMARK  status: ('A' for Active; 'I' for Inactive)
ROOT
ATOM      1  C   UNL d   1       1.766   1.349  -1.004  0.00  0.00     0.124 A 
ATOM      2  C1  UNL d   1       1.415   1.673   0.299  0.00  0.00     0.062 A 
ATOM      3  C2  UNL d   1       0.496   0.889   0.992  0.00  0.00     0.162 A 
ATOM      4  C3  UNL d   1      -0.077  -0.227   0.383  0.00  0.00    -0.034 A 
ATOM      5  C4  UNL d   1       0.280  -0.546  -0.928  0.00  0.00     0.162 A 
ATOM      6  C5  UNL d   1       1.199   0.240  -1.616  0.00  0.00     0.062 A 
ATOM      7  F   UNL d   1       1.537  -0.074  -2.875  0.00  0.00    -0.097 F 
ATOM      8  F1  UNL d   1      -0.252  -1.612  -1.544  0.00  0.00    -0.096 F 
ATOM      9  I   UNL d   1      -1.451  -1.401   1.416  0.00  0.00    -0.060 I 
ATOM     10  F2  UNL d   1       0.175   1.226   2.250  0.00  0.00    -0.096 F 
ATOM     11  F3  UNL d   1       1.961   2.744   0.893  0.00  0.00    -0.097 F 
ATOM     12  F4  UNL d   1       2.649   2.105  -1.668  0.00  0.00    -0.092 F 
ENDROOT
TORSDOF 0
ENDMDL
