MODEL 1
REMARK minimizedAffinity -4.1967802
REMARK minimizedRMSD -1
REMARK  0 active torsions:
REMARK  status: ('A' for Active; 'I' for Inactive)
ROOT
ATOM      1  C   UNL d   1      -3.148   0.702   1.612  0.00  0.00     0.124 A 
ATOM      2  C1  UNL d   1      -1.856   0.983   2.034  0.00  0.00     0.062 A 
ATOM      3  C2  UNL d   1      -0.776   0.738   1.190  0.00  0.00     0.162 A 
ATOM      4  C3  UNL d   1      -0.983   0.210  -0.084  0.00  0.00    -0.034 A 
ATOM      5  C4  UNL d   1      -2.286  -0.070  -0.500  0.00  0.00     0.162 A 
ATOM      6  C5  UNL d   1      -3.362   0.176   0.346  0.00  0.00     0.062 A 
ATOM      7  F   UNL d   1      -4.610  -0.096  -0.063  0.00  0.00    -0.097 F 
ATOM      8  F1  UNL d   1      -2.521  -0.579  -1.719  0.00  0.00    -0.096 F 
ATOM      9  I   UNL d   1       0.629  -0.157  -1.348  0.00  0.00    -0.060 I 
ATOM     10  F2  UNL d   1       0.462   1.019   1.624  0.00  0.00    -0.096 F 
ATOM     11  F3  UNL d   1      -1.646   1.490   3.257  0.00  0.00    -0.097 F 
ATOM     12  F4  UNL d   1      -4.185   0.937   2.426  0.00  0.00    -0.092 F 
ENDROOT
TORSDOF 0
ENDMDL
