MODEL 1
REMARK minimizedAffinity -0.197145641
REMARK minimizedRMSD -1
REMARK  0 active torsions:
REMARK  status: ('A' for Active; 'I' for Inactive)
ROOT
ATOM      1  C   UNL d   1       1.870  -0.897  -1.379  0.00  0.00     0.124 A 
ATOM      2  C1  UNL d   1       1.043  -1.781  -0.701  0.00  0.00     0.062 A 
ATOM      3  C2  UNL d   1       0.112  -1.305   0.217  0.00  0.00     0.162 A 
ATOM      4  C3  UNL d   1       0.003   0.064   0.463  0.00  0.00    -0.034 A 
ATOM      5  C4  UNL d   1       0.839   0.947  -0.221  0.00  0.00     0.162 A 
ATOM      6  C5  UNL d   1       1.768   0.466  -1.139  0.00  0.00     0.062 A 
ATOM      7  F   UNL d   1       2.566   1.322  -1.793  0.00  0.00    -0.097 F 
ATOM      8  F1  UNL d   1       0.761   2.269  -0.009  0.00  0.00    -0.096 F 
ATOM      9  I   UNL d   1      -1.388   0.780   1.836  0.00  0.00    -0.060 I 
ATOM     10  F2  UNL d   1      -0.675  -2.182   0.858  0.00  0.00    -0.096 F 
ATOM     11  F3  UNL d   1       1.140  -3.099  -0.931  0.00  0.00    -0.097 F 
ATOM     12  F4  UNL d   1       2.765  -1.358  -2.262  0.00  0.00    -0.092 F 
ENDROOT
TORSDOF 0
ENDMDL
