MODEL 1
REMARK minimizedAffinity 1.29894018
REMARK minimizedRMSD -1
REMARK  0 active torsions:
REMARK  status: ('A' for Active; 'I' for Inactive)
ROOT
ATOM      1  C   UNL d   1      -2.373   1.272   2.093  0.00  0.00     0.124 A 
ATOM      2  C1  UNL d   1      -1.395   0.423   2.590  0.00  0.00     0.062 A 
ATOM      3  C2  UNL d   1      -0.301   0.077   1.801  0.00  0.00     0.162 A 
ATOM      4  C3  UNL d   1      -0.180   0.582   0.507  0.00  0.00    -0.034 A 
ATOM      5  C4  UNL d   1      -1.168   1.434   0.013  0.00  0.00     0.162 A 
ATOM      6  C5  UNL d   1      -2.259   1.777   0.805  0.00  0.00     0.062 A 
ATOM      7  F   UNL d   1      -3.204   2.598   0.323  0.00  0.00    -0.097 F 
ATOM      8  F1  UNL d   1      -1.083   1.937  -1.228  0.00  0.00    -0.096 F 
ATOM      9  I   UNL d   1       1.454   0.067  -0.676  0.00  0.00    -0.060 I 
ATOM     10  F2  UNL d   1       0.630  -0.745   2.308  0.00  0.00    -0.096 F 
ATOM     11  F3  UNL d   1      -1.503  -0.067   3.833  0.00  0.00    -0.097 F 
ATOM     12  F4  UNL d   1      -3.425   1.602   2.853  0.00  0.00    -0.092 F 
ENDROOT
TORSDOF 0
ENDMDL
