MODEL 1
REMARK minimizedAffinity 5.28000975
REMARK minimizedRMSD -1
REMARK  0 active torsions:
REMARK  status: ('A' for Active; 'I' for Inactive)
ROOT
ATOM      1  C   UNL d   1       2.711   0.926  -1.433  0.00  0.00     0.124 A 
ATOM      2  C1  UNL d   1       2.287  -0.299  -0.935  0.00  0.00     0.062 A 
ATOM      3  C2  UNL d   1       0.992  -0.445  -0.446  0.00  0.00     0.162 A 
ATOM      4  C3  UNL d   1       0.111   0.636  -0.453  0.00  0.00    -0.034 A 
ATOM      5  C4  UNL d   1       0.544   1.864  -0.954  0.00  0.00     0.162 A 
ATOM      6  C5  UNL d   1       1.840   2.006  -1.442  0.00  0.00     0.062 A 
ATOM      7  F   UNL d   1       2.247   3.190  -1.922  0.00  0.00    -0.097 F 
ATOM      8  F1  UNL d   1      -0.277   2.924  -0.976  0.00  0.00    -0.096 F 
ATOM      9  I   UNL d   1      -1.826   0.420   0.277  0.00  0.00    -0.060 I 
ATOM     10  F2  UNL d   1       0.610  -1.640   0.028  0.00  0.00    -0.096 F 
ATOM     11  F3  UNL d   1       3.127  -1.344  -0.925  0.00  0.00    -0.097 F 
ATOM     12  F4  UNL d   1       3.958   1.064  -1.902  0.00  0.00    -0.092 F 
ENDROOT
TORSDOF 0
ENDMDL
