MODEL 1
REMARK minimizedAffinity -0.215822443
REMARK minimizedRMSD -1
REMARK  0 active torsions:
REMARK  status: ('A' for Active; 'I' for Inactive)
ROOT
ATOM      1  C   UNL d   1       1.846  -1.191  -2.439  0.00  0.00     0.124 A 
ATOM      2  C1  UNL d   1       1.545   0.090  -1.995  0.00  0.00     0.062 A 
ATOM      3  C2  UNL d   1       0.714   0.272  -0.893  0.00  0.00     0.162 A 
ATOM      4  C3  UNL d   1       0.179  -0.830  -0.226  0.00  0.00    -0.034 A 
ATOM      5  C4  UNL d   1       0.486  -2.115  -0.678  0.00  0.00     0.162 A 
ATOM      6  C5  UNL d   1       1.316  -2.291  -1.780  0.00  0.00     0.062 A 
ATOM      7  F   UNL d   1       1.606  -3.529  -2.207  0.00  0.00    -0.097 F 
ATOM      8  F1  UNL d   1      -0.011  -3.196  -0.060  0.00  0.00    -0.096 F 
ATOM      9  I   UNL d   1      -1.063  -0.562   1.423  0.00  0.00    -0.060 I 
ATOM     10  F2  UNL d   1       0.440   1.520  -0.487  0.00  0.00    -0.096 F 
ATOM     11  F3  UNL d   1       2.054   1.155  -2.631  0.00  0.00    -0.097 F 
ATOM     12  F4  UNL d   1       2.644  -1.363  -3.500  0.00  0.00    -0.092 F 
ENDROOT
TORSDOF 0
ENDMDL
