MODEL 1
REMARK minimizedAffinity -4.96280336
REMARK minimizedRMSD -1
REMARK  0 active torsions:
REMARK  status: ('A' for Active; 'I' for Inactive)
ROOT
ATOM      1  C   UNL d   1       2.035  -0.911  -2.364  0.00  0.00     0.124 A 
ATOM      2  C1  UNL d   1       1.434  -2.062  -1.873  0.00  0.00     0.062 A 
ATOM      3  C2  UNL d   1       0.609  -1.997  -0.754  0.00  0.00     0.162 A 
ATOM      4  C3  UNL d   1       0.379  -0.777  -0.118  0.00  0.00    -0.034 A 
ATOM      5  C4  UNL d   1       0.987   0.376  -0.617  0.00  0.00     0.162 A 
ATOM      6  C5  UNL d   1       1.812   0.306  -1.736  0.00  0.00     0.062 A 
ATOM      7  F   UNL d   1       2.391   1.419  -2.209  0.00  0.00    -0.097 F 
ATOM      8  F1  UNL d   1       0.788   1.565  -0.031  0.00  0.00    -0.096 F 
ATOM      9  I   UNL d   1      -0.855  -0.677   1.555  0.00  0.00    -0.060 I 
ATOM     10  F2  UNL d   1       0.041  -3.125  -0.301  0.00  0.00    -0.096 F 
ATOM     11  F3  UNL d   1       1.650  -3.239  -2.477  0.00  0.00    -0.097 F 
ATOM     12  F4  UNL d   1       2.830  -0.976  -3.440  0.00  0.00    -0.092 F 
ENDROOT
TORSDOF 0
ENDMDL
