MODEL 1
REMARK minimizedAffinity -2.75060892
REMARK minimizedRMSD -1
REMARK  0 active torsions:
REMARK  status: ('A' for Active; 'I' for Inactive)
ROOT
ATOM      1  C   UNL d   1      -0.097  -0.036   1.021  0.00  0.00     0.124 A 
ATOM      2  C1  UNL d   1      -0.238  -1.291   0.445  0.00  0.00     0.062 A 
ATOM      3  C2  UNL d   1       0.393  -1.583  -0.761  0.00  0.00     0.162 A 
ATOM      4  C3  UNL d   1       1.172  -0.618  -1.399  0.00  0.00    -0.034 A 
ATOM      5  C4  UNL d   1       1.309   0.642  -0.815  0.00  0.00     0.162 A 
ATOM      6  C5  UNL d   1       0.676   0.929   0.391  0.00  0.00     0.062 A 
ATOM      7  F   UNL d   1       0.814   2.142   0.945  0.00  0.00    -0.097 F 
ATOM      8  F1  UNL d   1       2.051   1.593  -1.401  0.00  0.00    -0.096 F 
ATOM      9  I   UNL d   1       2.118  -1.051  -3.202  0.00  0.00    -0.060 I 
ATOM     10  F2  UNL d   1       0.239  -2.804  -1.294  0.00  0.00    -0.096 F 
ATOM     11  F3  UNL d   1      -0.985  -2.225   1.051  0.00  0.00    -0.097 F 
ATOM     12  F4  UNL d   1      -0.706   0.243   2.180  0.00  0.00    -0.092 F 
ENDROOT
TORSDOF 0
ENDMDL
