MODEL 1
REMARK minimizedAffinity -3.54320502
REMARK minimizedRMSD -1
REMARK  3 active torsions:
REMARK  status: ('A' for Active; 'I' for Inactive)
REMARK    1  A    between atoms: C3'_2  and  C2'_3 
REMARK    2  A    between atoms: C2'_3  and  C1'_4 
REMARK    3  A    between atoms: C1'_4  and  C1_5 
ROOT
ATOM      1  C1  N4B d   1      -0.034  -0.839  -1.420  0.00  0.00    -0.075 A 
ATOM      2  C2  N4B d   1      -0.467   0.434  -1.850  0.00  0.00     0.002 A 
ATOM      3  C3  N4B d   1      -0.514   1.480  -0.961  0.00  0.00     0.002 A 
ATOM      4  C4  N4B d   1      -0.152   1.272   0.361  0.00  0.00    -0.004 A 
ATOM      5  C5  N4B d   1       0.290   0.045   0.763  0.00  0.00     0.002 A 
ATOM      6  C6  N4B d   1       0.346  -1.014  -0.121  0.00  0.00     0.002 A 
ENDROOT
BRANCH   1   7
ATOM      7  C1' N4B d   1      -0.047  -2.033  -2.335  0.00  0.00     0.057 C 
BRANCH   7   8
ATOM      8  C2' N4B d   1       0.023  -3.307  -1.498  0.00  0.00     0.009 C 
BRANCH   8   9
ATOM      9  C3' N4B d   1      -1.338  -3.967  -1.354  0.00  0.00     0.004 C 
ATOM     10  C4' N4B d   1      -2.247  -3.682  -2.512  0.00  0.00     0.003 C 
ENDBRANCH   8   9
ENDBRANCH   7   8
ENDBRANCH   1   7
TORSDOF 3
ENDMDL
