MODEL 1
REMARK minimizedAffinity -4.46462679
REMARK minimizedRMSD -1
REMARK  3 active torsions:
REMARK  status: ('A' for Active; 'I' for Inactive)
REMARK    1  A    between atoms: C3'_2  and  C2'_3 
REMARK    2  A    between atoms: C2'_3  and  C1'_4 
REMARK    3  A    between atoms: C1'_4  and  C1_5 
ROOT
ATOM      1  C1  N4B d   1       0.372   0.631   1.279  0.00  0.00    -0.075 A 
ATOM      2  C2  N4B d   1       0.040   1.794   2.008  0.00  0.00     0.002 A 
ATOM      3  C3  N4B d   1      -1.035   2.560   1.626  0.00  0.00     0.002 A 
ATOM      4  C4  N4B d   1      -1.777   2.193   0.513  0.00  0.00    -0.004 A 
ATOM      5  C5  N4B d   1      -1.464   1.054  -0.170  0.00  0.00     0.002 A 
ATOM      6  C6  N4B d   1      -0.390   0.273   0.205  0.00  0.00     0.002 A 
ENDROOT
BRANCH   1   7
ATOM      7  C1' N4B d   1       1.589  -0.190   1.607  0.00  0.00     0.057 C 
BRANCH   7   8
ATOM      8  C2' N4B d   1       2.099  -0.860   0.334  0.00  0.00     0.009 C 
BRANCH   8   9
ATOM      9  C3' N4B d   1       3.583  -1.176   0.414  0.00  0.00     0.004 C 
ATOM     10  C4' N4B d   1       4.208  -0.713   1.696  0.00  0.00     0.003 C 
ENDBRANCH   8   9
ENDBRANCH   7   8
ENDBRANCH   1   7
TORSDOF 3
ENDMDL
