MODEL 1
REMARK minimizedAffinity -4.56980562
REMARK minimizedRMSD -1
REMARK  3 active torsions:
REMARK  status: ('A' for Active; 'I' for Inactive)
REMARK    1  A    between atoms: C3'_2  and  C2'_3 
REMARK    2  A    between atoms: C2'_3  and  C1'_4 
REMARK    3  A    between atoms: C1'_4  and  C1_5 
ROOT
ATOM      1  C1  N4B d   1       0.541   0.570   1.406  0.00  0.00    -0.075 A 
ATOM      2  C2  N4B d   1      -0.139   0.217   0.219  0.00  0.00     0.002 A 
ATOM      3  C3  N4B d   1      -1.329   0.824  -0.096  0.00  0.00     0.002 A 
ATOM      4  C4  N4B d   1      -1.867   1.769   0.765  0.00  0.00    -0.004 A 
ATOM      5  C5  N4B d   1      -1.192   2.122   1.897  0.00  0.00     0.002 A 
ATOM      6  C6  N4B d   1       0.007   1.523   2.225  0.00  0.00     0.002 A 
ENDROOT
BRANCH   1   7
ATOM      7  C1' N4B d   1       1.802  -0.128   1.837  0.00  0.00     0.057 C 
BRANCH   7   8
ATOM      8  C2' N4B d   1       2.570  -0.583   0.599  0.00  0.00     0.009 C 
BRANCH   8   9
ATOM      9  C3' N4B d   1       4.073  -0.478   0.793  0.00  0.00     0.004 C 
ATOM     10  C4' N4B d   1       4.488  -0.653   2.223  0.00  0.00     0.003 C 
ENDBRANCH   8   9
ENDBRANCH   7   8
ENDBRANCH   1   7
TORSDOF 3
ENDMDL
