MODEL 1
REMARK minimizedAffinity -0.689593613
REMARK minimizedRMSD -1
REMARK  3 active torsions:
REMARK  status: ('A' for Active; 'I' for Inactive)
REMARK    1  A    between atoms: C3'_2  and  C2'_3 
REMARK    2  A    between atoms: C2'_3  and  C1'_4 
REMARK    3  A    between atoms: C1'_4  and  C1_5 
ROOT
ATOM      1  C1  N4B d   1      -0.319  -4.418  -0.829  0.00  0.00    -0.075 A 
ATOM      2  C2  N4B d   1       0.119  -5.655  -0.306  0.00  0.00     0.002 A 
ATOM      3  C3  N4B d   1       1.357  -5.752   0.280  0.00  0.00     0.002 A 
ATOM      4  C4  N4B d   1       2.179  -4.637   0.337  0.00  0.00    -0.004 A 
ATOM      5  C5  N4B d   1       1.738  -3.440  -0.148  0.00  0.00     0.002 A 
ATOM      6  C6  N4B d   1       0.494  -3.326  -0.736  0.00  0.00     0.002 A 
ENDROOT
BRANCH   1   7
ATOM      7  C1' N4B d   1      -1.629  -4.283  -1.555  0.00  0.00     0.057 C 
BRANCH   7   8
ATOM      8  C2' N4B d   1      -1.591  -3.032  -2.428  0.00  0.00     0.009 C 
BRANCH   8   9
ATOM      9  C3' N4B d   1      -1.502  -3.372  -3.906  0.00  0.00     0.004 C 
ATOM     10  C4' N4B d   1      -0.303  -2.765  -4.571  0.00  0.00     0.003 C 
ENDBRANCH   8   9
ENDBRANCH   7   8
ENDBRANCH   1   7
TORSDOF 3
ENDMDL
