MODEL 1
REMARK minimizedAffinity -4.03496265
REMARK minimizedRMSD -1
REMARK  3 active torsions:
REMARK  status: ('A' for Active; 'I' for Inactive)
REMARK    1  A    between atoms: C3'_2  and  C2'_3 
REMARK    2  A    between atoms: C2'_3  and  C1'_4 
REMARK    3  A    between atoms: C1'_4  and  C1_5 
ROOT
ATOM      1  C1  N4B d   1       0.393  -2.495  -1.125  0.00  0.00    -0.075 A 
ATOM      2  C2  N4B d   1       1.486  -3.075  -0.445  0.00  0.00     0.002 A 
ATOM      3  C3  N4B d   1       1.454  -4.405  -0.102  0.00  0.00     0.002 A 
ATOM      4  C4  N4B d   1       0.336  -5.166  -0.411  0.00  0.00    -0.004 A 
ATOM      5  C5  N4B d   1      -0.705  -4.603  -1.091  0.00  0.00     0.002 A 
ATOM      6  C6  N4B d   1      -0.684  -3.269  -1.445  0.00  0.00     0.002 A 
ENDROOT
BRANCH   1   7
ATOM      7  C1' N4B d   1       0.347  -1.026  -1.445  0.00  0.00     0.057 C 
BRANCH   7   8
ATOM      8  C2' N4B d   1       0.316  -0.231  -0.143  0.00  0.00     0.009 C 
BRANCH   8   9
ATOM      9  C3' N4B d   1       0.006   1.237  -0.381  0.00  0.00     0.004 C 
ATOM     10  C4' N4B d   1      -0.095   2.023   0.892  0.00  0.00     0.003 C 
ENDBRANCH   8   9
ENDBRANCH   7   8
ENDBRANCH   1   7
TORSDOF 3
ENDMDL
