MODEL 1
REMARK minimizedAffinity -6.2999258
REMARK minimizedRMSD -1
REMARK  0 active torsions:
REMARK  status: ('A' for Active; 'I' for Inactive)
ROOT
ATOM      1  O1  BZF d   1      -1.053   0.534  -0.709  0.00  0.00    -0.204 OA
ATOM      2  C2  BZF d   1       0.300   0.267  -0.789  0.00  0.00     0.174 A 
ATOM      3  C3  BZF d   1       0.770  -0.183   0.392  0.00  0.00    -0.012 A 
ATOM      4  C3A BZF d   1      -0.379  -0.286   1.239  0.00  0.00    -0.107 A 
ATOM      5  C4  BZF d   1      -0.560  -0.692   2.531  0.00  0.00     0.055 A 
ATOM      6  C5  BZF d   1      -1.798  -0.602   3.084  0.00  0.00    -0.016 A 
ATOM      7  C6  BZF d   1      -2.875  -0.108   2.377  0.00  0.00     0.022 A 
ATOM      8  C7  BZF d   1      -2.746   0.301   1.092  0.00  0.00     0.029 A 
ATOM      9  C7A BZF d   1      -1.503   0.181   0.519  0.00  0.00     0.058 A 
ENDROOT
TORSDOF 0
ENDMDL
