MODEL 1
REMARK minimizedAffinity -2.39478898
REMARK minimizedRMSD -1
REMARK  0 active torsions:
REMARK  status: ('A' for Active; 'I' for Inactive)
ROOT
ATOM      1  O1  BZF d   1      -0.319  -0.964  -1.817  0.00  0.00    -0.204 OA
ATOM      2  C2  BZF d   1       0.621  -0.424  -2.673  0.00  0.00     0.174 A 
ATOM      3  C3  BZF d   1       1.543   0.282  -1.987  0.00  0.00    -0.012 A 
ATOM      4  C3A BZF d   1       1.207   0.099  -0.608  0.00  0.00    -0.107 A 
ATOM      5  C4  BZF d   1       1.762   0.539   0.560  0.00  0.00     0.055 A 
ATOM      6  C5  BZF d   1       1.148   0.242   1.735  0.00  0.00    -0.016 A 
ATOM      7  C6  BZF d   1      -0.022  -0.487   1.780  0.00  0.00     0.022 A 
ATOM      8  C7  BZF d   1      -0.607  -0.949   0.648  0.00  0.00     0.029 A 
ATOM      9  C7A BZF d   1       0.029  -0.679  -0.540  0.00  0.00     0.058 A 
ENDROOT
TORSDOF 0
ENDMDL
