MODEL 1
REMARK minimizedAffinity -4.72475529
REMARK minimizedRMSD -1
REMARK  0 active torsions:
REMARK  status: ('A' for Active; 'I' for Inactive)
ROOT
ATOM      1  O1  BZF d   1      -1.669   0.123   1.593  0.00  0.00    -0.204 OA
ATOM      2  C2  BZF d   1      -1.041  -0.072   2.808  0.00  0.00     0.174 A 
ATOM      3  C3  BZF d   1       0.249  -0.419   2.629  0.00  0.00    -0.012 A 
ATOM      4  C3A BZF d   1       0.464  -0.354   1.216  0.00  0.00    -0.107 A 
ATOM      5  C4  BZF d   1       1.552  -0.574   0.421  0.00  0.00     0.055 A 
ATOM      6  C5  BZF d   1       1.411  -0.497  -0.929  0.00  0.00    -0.016 A 
ATOM      7  C6  BZF d   1       0.197  -0.207  -1.516  0.00  0.00     0.022 A 
ATOM      8  C7  BZF d   1      -0.910   0.024  -0.768  0.00  0.00     0.029 A 
ATOM      9  C7A BZF d   1      -0.763  -0.021   0.597  0.00  0.00     0.058 A 
ENDROOT
TORSDOF 0
ENDMDL
