MODEL 1
REMARK minimizedAffinity -2.77800632
REMARK minimizedRMSD -1
REMARK  0 active torsions:
REMARK  status: ('A' for Active; 'I' for Inactive)
ROOT
ATOM      1  O1  BZF d   1      -2.698   0.311   0.853  0.00  0.00    -0.204 OA
ATOM      2  C2  BZF d   1      -3.354   0.402   2.065  0.00  0.00     0.174 A 
ATOM      3  C3  BZF d   1      -2.552   0.005   3.074  0.00  0.00    -0.012 A 
ATOM      4  C3A BZF d   1      -1.288  -0.269   2.464  0.00  0.00    -0.107 A 
ATOM      5  C4  BZF d   1      -0.081  -0.686   2.950  0.00  0.00     0.055 A 
ATOM      6  C5  BZF d   1       0.933  -0.929   2.080  0.00  0.00    -0.016 A 
ATOM      7  C6  BZF d   1       0.776  -0.771   0.718  0.00  0.00     0.022 A 
ATOM      8  C7  BZF d   1      -0.401  -0.354   0.190  0.00  0.00     0.029 A 
ATOM      9  C7A BZF d   1      -1.418  -0.076   1.069  0.00  0.00     0.058 A 
ENDROOT
TORSDOF 0
ENDMDL
