MODEL 1
REMARK minimizedAffinity -5.08592844
REMARK minimizedRMSD -1
REMARK  0 active torsions:
REMARK  status: ('A' for Active; 'I' for Inactive)
ROOT
ATOM      1  O1  BZF d   1      -0.116  -1.426   0.129  0.00  0.00    -0.204 OA
ATOM      2  C2  BZF d   1      -0.337  -0.073   0.304  0.00  0.00     0.174 A 
ATOM      3  C3  BZF d   1       0.057   0.621  -0.783  0.00  0.00    -0.012 A 
ATOM      4  C3A BZF d   1       0.470  -0.367  -1.731  0.00  0.00    -0.107 A 
ATOM      5  C4  BZF d   1       0.949  -0.301  -3.008  0.00  0.00     0.055 A 
ATOM      6  C5  BZF d   1       1.328  -1.447  -3.632  0.00  0.00    -0.016 A 
ATOM      7  C6  BZF d   1       1.246  -2.674  -3.008  0.00  0.00     0.022 A 
ATOM      8  C7  BZF d   1       0.772  -2.791  -1.744  0.00  0.00     0.029 A 
ATOM      9  C7A BZF d   1       0.358  -1.639  -1.123  0.00  0.00     0.058 A 
ENDROOT
TORSDOF 0
ENDMDL
