MODEL 1
REMARK minimizedAffinity -0.62316519
REMARK minimizedRMSD -1
REMARK  0 active torsions:
REMARK  status: ('A' for Active; 'I' for Inactive)
ROOT
ATOM      1  O1  BZF d   1       1.553   0.270   1.652  0.00  0.00    -0.204 OA
ATOM      2  C2  BZF d   1       0.858   0.170   2.842  0.00  0.00     0.174 A 
ATOM      3  C3  BZF d   1      -0.472   0.192   2.623  0.00  0.00    -0.012 A 
ATOM      4  C3A BZF d   1      -0.619   0.220   1.200  0.00  0.00    -0.107 A 
ATOM      5  C4  BZF d   1      -1.702   0.236   0.368  0.00  0.00     0.055 A 
ATOM      6  C5  BZF d   1      -1.503   0.338  -0.972  0.00  0.00    -0.016 A 
ATOM      7  C6  BZF d   1      -0.238   0.431  -1.514  0.00  0.00     0.022 A 
ATOM      8  C7  BZF d   1       0.867   0.415  -0.729  0.00  0.00     0.029 A 
ATOM      9  C7A BZF d   1       0.671   0.279   0.624  0.00  0.00     0.058 A 
ENDROOT
TORSDOF 0
ENDMDL
