MODEL 1
REMARK minimizedAffinity -3.70737004
REMARK minimizedRMSD -1
REMARK  0 active torsions:
REMARK  status: ('A' for Active; 'I' for Inactive)
ROOT
ATOM      1  O1  BZF d   1      -0.012   0.199   0.314  0.00  0.00    -0.204 OA
ATOM      2  C2  BZF d   1       0.812  -0.466   1.202  0.00  0.00     0.174 A 
ATOM      3  C3  BZF d   1       1.629  -1.318   0.550  0.00  0.00    -0.012 A 
ATOM      4  C3A BZF d   1       1.360  -1.109  -0.840  0.00  0.00    -0.107 A 
ATOM      5  C4  BZF d   1       1.867  -1.649  -1.986  0.00  0.00     0.055 A 
ATOM      6  C5  BZF d   1       1.336  -1.281  -3.182  0.00  0.00    -0.016 A 
ATOM      7  C6  BZF d   1       0.295  -0.380  -3.267  0.00  0.00     0.022 A 
ATOM      8  C7  BZF d   1      -0.238   0.187  -2.157  0.00  0.00     0.029 A 
ATOM      9  C7A BZF d   1       0.319  -0.158  -0.950  0.00  0.00     0.058 A 
ENDROOT
TORSDOF 0
ENDMDL
