MODEL 1
REMARK minimizedAffinity -1.9016664
REMARK minimizedRMSD -1
REMARK  0 active torsions:
REMARK  status: ('A' for Active; 'I' for Inactive)
ROOT
ATOM      1  O1  BZF d   1      -1.015  -0.002  -0.529  0.00  0.00    -0.204 OA
ATOM      2  C2  BZF d   1       0.350  -0.090  -0.718  0.00  0.00     0.174 A 
ATOM      3  C3  BZF d   1       1.002  -0.005   0.460  0.00  0.00    -0.012 A 
ATOM      4  C3A BZF d   1      -0.024   0.053   1.455  0.00  0.00    -0.107 A 
ATOM      5  C4  BZF d   1      -0.007   0.131   2.818  0.00  0.00     0.055 A 
ATOM      6  C5  BZF d   1      -1.183   0.246   3.488  0.00  0.00    -0.016 A 
ATOM      7  C6  BZF d   1      -2.393   0.292   2.828  0.00  0.00     0.022 A 
ATOM      8  C7  BZF d   1      -2.462   0.213   1.477  0.00  0.00     0.029 A 
ATOM      9  C7A BZF d   1      -1.277   0.063   0.798  0.00  0.00     0.058 A 
ENDROOT
TORSDOF 0
ENDMDL
