MODEL 1
REMARK minimizedAffinity -2.27156448
REMARK minimizedRMSD -1
REMARK  0 active torsions:
REMARK  status: ('A' for Active; 'I' for Inactive)
ROOT
ATOM      1  O1  BZF d   1      -1.956   0.670   0.072  0.00  0.00    -0.204 OA
ATOM      2  C2  BZF d   1      -1.573   0.823  -1.247  0.00  0.00     0.174 A 
ATOM      3  C3  BZF d   1      -0.238   0.682  -1.377  0.00  0.00    -0.012 A 
ATOM      4  C3A BZF d   1       0.232   0.332  -0.072  0.00  0.00    -0.107 A 
ATOM      5  C4  BZF d   1       1.467   0.046   0.436  0.00  0.00     0.055 A 
ATOM      6  C5  BZF d   1       1.597  -0.184   1.769  0.00  0.00    -0.016 A 
ATOM      7  C6  BZF d   1       0.515  -0.131   2.623  0.00  0.00     0.022 A 
ATOM      8  C7  BZF d   1      -0.731   0.143   2.165  0.00  0.00     0.029 A 
ATOM      9  C7A BZF d   1      -0.870   0.344   0.814  0.00  0.00     0.058 A 
ENDROOT
TORSDOF 0
ENDMDL
