MODEL 1
REMARK minimizedAffinity -2.32613778
REMARK minimizedRMSD -1
REMARK  0 active torsions:
REMARK  status: ('A' for Active; 'I' for Inactive)
ROOT
ATOM      1  O1  BZF d   1      -0.342  -1.347  -0.803  0.00  0.00    -0.204 OA
ATOM      2  C2  BZF d   1      -0.160  -0.180  -0.087  0.00  0.00     0.174 A 
ATOM      3  C3  BZF d   1       0.670   0.658  -0.741  0.00  0.00    -0.012 A 
ATOM      4  C3A BZF d   1       0.955   0.011  -1.985  0.00  0.00    -0.107 A 
ATOM      5  C4  BZF d   1       1.709   0.354  -3.070  0.00  0.00     0.055 A 
ATOM      6  C5  BZF d   1       1.840  -0.534  -4.091  0.00  0.00    -0.016 A 
ATOM      7  C6  BZF d   1       1.235  -1.774  -4.057  0.00  0.00     0.022 A 
ATOM      8  C7  BZF d   1       0.474  -2.157  -3.003  0.00  0.00     0.029 A 
ATOM      9  C7A BZF d   1       0.313  -1.249  -1.985  0.00  0.00     0.058 A 
ENDROOT
TORSDOF 0
ENDMDL
