MODEL 1
REMARK minimizedAffinity -3.00118566
REMARK minimizedRMSD -1
REMARK  0 active torsions:
REMARK  status: ('A' for Active; 'I' for Inactive)
ROOT
ATOM      1  O1  BZF d   1      -1.189  -0.938   2.511  0.00  0.00    -0.204 OA
ATOM      2  C2  BZF d   1      -0.570  -0.347   3.595  0.00  0.00     0.174 A 
ATOM      3  C3  BZF d   1       0.476   0.406   3.197  0.00  0.00    -0.012 A 
ATOM      4  C3A BZF d   1       0.455   0.352   1.767  0.00  0.00    -0.107 A 
ATOM      5  C4  BZF d   1       1.234   0.913   0.795  0.00  0.00     0.055 A 
ATOM      6  C5  BZF d   1       0.993   0.601  -0.505  0.00  0.00    -0.016 A 
ATOM      7  C6  BZF d   1      -0.013  -0.269  -0.869  0.00  0.00     0.022 A 
ATOM      8  C7  BZF d   1      -0.815  -0.846   0.059  0.00  0.00     0.029 A 
ATOM      9  C7A BZF d   1      -0.595  -0.508   1.372  0.00  0.00     0.058 A 
ENDROOT
TORSDOF 0
ENDMDL
