MODEL 1
REMARK minimizedAffinity -1.92086565
REMARK minimizedRMSD -1
REMARK  0 active torsions:
REMARK  status: ('A' for Active; 'I' for Inactive)
ROOT
ATOM      1  O1  BZF d   1      -1.199  -1.000  -1.641  0.00  0.00    -0.204 OA
ATOM      2  C2  BZF d   1      -0.940   0.208  -1.024  0.00  0.00     0.174 A 
ATOM      3  C3  BZF d   1       0.225   0.728  -1.461  0.00  0.00    -0.012 A 
ATOM      4  C3A BZF d   1       0.680  -0.170  -2.478  0.00  0.00    -0.107 A 
ATOM      5  C4  BZF d   1       1.774  -0.185  -3.296  0.00  0.00     0.055 A 
ATOM      6  C5  BZF d   1       1.961  -1.243  -4.128  0.00  0.00    -0.016 A 
ATOM      7  C6  BZF d   1       1.079  -2.303  -4.164  0.00  0.00     0.022 A 
ATOM      8  C7  BZF d   1      -0.022  -2.330  -3.375  0.00  0.00     0.029 A 
ATOM      9  C7A BZF d   1      -0.232  -1.247  -2.557  0.00  0.00     0.058 A 
ENDROOT
TORSDOF 0
ENDMDL
