MODEL 1
REMARK minimizedAffinity -4.04261971
REMARK minimizedRMSD -1
REMARK  0 active torsions:
REMARK  status: ('A' for Active; 'I' for Inactive)
ROOT
ATOM      1  O1  BZF d   1       3.485   1.150  -3.577  0.00  0.00    -0.204 OA
ATOM      2  C2  BZF d   1       4.566   0.621  -4.256  0.00  0.00     0.174 A 
ATOM      3  C3  BZF d   1       4.353  -0.676  -4.558  0.00  0.00    -0.012 A 
ATOM      4  C3A BZF d   1       3.021  -0.952  -4.116  0.00  0.00    -0.107 A 
ATOM      5  C4  BZF d   1       2.231  -2.065  -4.152  0.00  0.00     0.055 A 
ATOM      6  C5  BZF d   1       1.004  -2.024  -3.569  0.00  0.00    -0.016 A 
ATOM      7  C6  BZF d   1       0.538  -0.890  -2.937  0.00  0.00     0.022 A 
ATOM      8  C7  BZF d   1       1.284   0.241  -2.879  0.00  0.00     0.029 A 
ATOM      9  C7A BZF d   1       2.510   0.213  -3.497  0.00  0.00     0.058 A 
ENDROOT
TORSDOF 0
ENDMDL
