MODEL 1
REMARK minimizedAffinity -2.36082864
REMARK minimizedRMSD -1
REMARK  0 active torsions:
REMARK  status: ('A' for Active; 'I' for Inactive)
ROOT
ATOM      1  O1  BZF d   1       0.554  -1.866   1.576  0.00  0.00    -0.204 OA
ATOM      2  C2  BZF d   1       0.712  -1.081   2.702  0.00  0.00     0.174 A 
ATOM      3  C3  BZF d   1       0.864   0.216   2.364  0.00  0.00    -0.012 A 
ATOM      4  C3A BZF d   1       0.704   0.255   0.943  0.00  0.00    -0.107 A 
ATOM      5  C4  BZF d   1       0.731   1.264   0.023  0.00  0.00     0.055 A 
ATOM      6  C5  BZF d   1       0.614   0.958  -1.296  0.00  0.00    -0.016 A 
ATOM      7  C6  BZF d   1       0.474  -0.344  -1.730  0.00  0.00     0.022 A 
ATOM      8  C7  BZF d   1       0.437  -1.378  -0.854  0.00  0.00     0.029 A 
ATOM      9  C7A BZF d   1       0.522  -1.069   0.481  0.00  0.00     0.058 A 
ENDROOT
TORSDOF 0
ENDMDL
