MODEL 1
REMARK minimizedAffinity -5.28746367
REMARK minimizedRMSD -1
REMARK  0 active torsions:
REMARK  status: ('A' for Active; 'I' for Inactive)
ROOT
ATOM      1  O1  BZF d   1       0.112  -1.286  -0.677  0.00  0.00    -0.204 OA
ATOM      2  C2  BZF d   1       0.478  -0.038  -1.142  0.00  0.00     0.174 A 
ATOM      3  C3  BZF d   1       0.398   0.881  -0.159  0.00  0.00    -0.012 A 
ATOM      4  C3A BZF d   1       0.044   0.146   1.016  0.00  0.00    -0.107 A 
ATOM      5  C4  BZF d   1      -0.169   0.501   2.317  0.00  0.00     0.055 A 
ATOM      6  C5  BZF d   1      -0.574  -0.447   3.203  0.00  0.00    -0.016 A 
ATOM      7  C6  BZF d   1      -0.782  -1.756   2.821  0.00  0.00     0.022 A 
ATOM      8  C7  BZF d   1      -0.579  -2.157   1.542  0.00  0.00     0.029 A 
ATOM      9  C7A BZF d   1      -0.138  -1.209   0.652  0.00  0.00     0.058 A 
ENDROOT
TORSDOF 0
ENDMDL
