MODEL 1
REMARK minimizedAffinity -4.22076368
REMARK minimizedRMSD -1
REMARK  0 active torsions:
REMARK  status: ('A' for Active; 'I' for Inactive)
ROOT
ATOM      1  O1  BZF d   1       0.101   0.960  -0.562  0.00  0.00    -0.204 OA
ATOM      2  C2  BZF d   1       0.320   0.038   0.443  0.00  0.00     0.174 A 
ATOM      3  C3  BZF d   1       0.637  -1.167  -0.074  0.00  0.00    -0.012 A 
ATOM      4  C3A BZF d   1       0.706  -0.963  -1.489  0.00  0.00    -0.107 A 
ATOM      5  C4  BZF d   1       0.995  -1.782  -2.542  0.00  0.00     0.055 A 
ATOM      6  C5  BZF d   1       0.904  -1.290  -3.806  0.00  0.00    -0.016 A 
ATOM      7  C6  BZF d   1       0.523   0.012  -4.052  0.00  0.00     0.022 A 
ATOM      8  C7  BZF d   1       0.232   0.864  -3.039  0.00  0.00     0.029 A 
ATOM      9  C7A BZF d   1       0.355   0.380  -1.760  0.00  0.00     0.058 A 
ENDROOT
TORSDOF 0
ENDMDL
