MODEL 1
REMARK minimizedAffinity -0.870321453
REMARK minimizedRMSD -1
REMARK  0 active torsions:
REMARK  status: ('A' for Active; 'I' for Inactive)
ROOT
ATOM      1  O1  BZF d   1      -1.691   0.508   2.480  0.00  0.00    -0.204 OA
ATOM      2  C2  BZF d   1      -0.888   0.109   3.530  0.00  0.00     0.174 A 
ATOM      3  C3  BZF d   1       0.307  -0.325   3.081  0.00  0.00    -0.012 A 
ATOM      4  C3A BZF d   1       0.281  -0.103   1.668  0.00  0.00    -0.107 A 
ATOM      5  C4  BZF d   1       1.185  -0.317   0.667  0.00  0.00     0.055 A 
ATOM      6  C5  BZF d   1       0.822  -0.060  -0.617  0.00  0.00    -0.016 A 
ATOM      7  C6  BZF d   1      -0.436   0.406  -0.936  0.00  0.00     0.022 A 
ATOM      8  C7  BZF d   1      -1.365   0.638   0.023  0.00  0.00     0.029 A 
ATOM      9  C7A BZF d   1      -0.991   0.411   1.324  0.00  0.00     0.058 A 
ENDROOT
TORSDOF 0
ENDMDL
