MODEL 1
REMARK minimizedAffinity -3.96835899
REMARK minimizedRMSD -1
REMARK  0 active torsions:
REMARK  status: ('A' for Active; 'I' for Inactive)
ROOT
ATOM      1  O1  BZF d   1      -1.003   0.364   1.705  0.00  0.00    -0.204 OA
ATOM      2  C2  BZF d   1      -0.502   0.063   2.957  0.00  0.00     0.174 A 
ATOM      3  C3  BZF d   1       0.626  -0.669   2.857  0.00  0.00    -0.012 A 
ATOM      4  C3A BZF d   1       0.895  -0.756   1.454  0.00  0.00    -0.107 A 
ATOM      5  C4  BZF d   1       1.889  -1.342   0.723  0.00  0.00     0.055 A 
ATOM      6  C5  BZF d   1       1.820  -1.306  -0.634  0.00  0.00    -0.016 A 
ATOM      7  C6  BZF d   1       0.770  -0.699  -1.291  0.00  0.00     0.022 A 
ATOM      8  C7  BZF d   1      -0.236  -0.100  -0.609  0.00  0.00     0.029 A 
ATOM      9  C7A BZF d   1      -0.152  -0.106   0.761  0.00  0.00     0.058 A 
ENDROOT
TORSDOF 0
ENDMDL
