MODEL 1
REMARK minimizedAffinity -5.20378494
REMARK minimizedRMSD -1
REMARK  0 active torsions:
REMARK  status: ('A' for Active; 'I' for Inactive)
ROOT
ATOM      1  C   UNL d   1       0.274   0.985  -0.889  0.00  0.00     0.078 C 
ATOM      2  C1  UNL d   1      -0.291   0.326   0.333  0.00  0.00    -0.077 A 
ATOM      3  C2  UNL d   1       0.466   0.210   1.505  0.00  0.00    -0.001 A 
ATOM      4  C3  UNL d   1      -0.069  -0.415   2.633  0.00  0.00     0.003 A 
ATOM      5  C4  UNL d   1      -1.363  -0.931   2.598  0.00  0.00    -0.005 A 
ATOM      6  C5  UNL d   1      -2.123  -0.823   1.435  0.00  0.00     0.003 A 
ATOM      7  C6  UNL d   1      -1.590  -0.198   0.307  0.00  0.00    -0.001 A 
ENDROOT
TORSDOF 0
ENDMDL
