MODEL 1
REMARK minimizedAffinity -2.06481552
REMARK minimizedRMSD -1
REMARK  0 active torsions:
REMARK  status: ('A' for Active; 'I' for Inactive)
ROOT
ATOM      1  C   UNL d   1       0.771   0.192  -1.963  0.00  0.00     0.078 C 
ATOM      2  C1  UNL d   1       0.199  -0.042  -0.596  0.00  0.00    -0.077 A 
ATOM      3  C2  UNL d   1       0.970   0.171   0.554  0.00  0.00    -0.001 A 
ATOM      4  C3  UNL d   1       0.428  -0.060   1.819  0.00  0.00     0.003 A 
ATOM      5  C4  UNL d   1      -0.886  -0.506   1.947  0.00  0.00    -0.005 A 
ATOM      6  C5  UNL d   1      -1.660  -0.722   0.809  0.00  0.00     0.003 A 
ATOM      7  C6  UNL d   1      -1.120  -0.492  -0.458  0.00  0.00    -0.001 A 
ENDROOT
TORSDOF 0
ENDMDL
