MODEL 1
REMARK minimizedAffinity -5.48947859
REMARK minimizedRMSD -1
REMARK  0 active torsions:
REMARK  status: ('A' for Active; 'I' for Inactive)
ROOT
ATOM      1  C   UNL d   1       1.010  -0.005  -1.384  0.00  0.00     0.078 C 
ATOM      2  C1  UNL d   1       0.344   0.034  -0.041  0.00  0.00    -0.077 A 
ATOM      3  C2  UNL d   1       1.083  -0.131   1.137  0.00  0.00    -0.001 A 
ATOM      4  C3  UNL d   1       0.448  -0.102   2.379  0.00  0.00     0.003 A 
ATOM      5  C4  UNL d   1      -0.930   0.090   2.456  0.00  0.00    -0.005 A 
ATOM      6  C5  UNL d   1      -1.674   0.253   1.290  0.00  0.00     0.003 A 
ATOM      7  C6  UNL d   1      -1.041   0.224   0.046  0.00  0.00    -0.001 A 
ENDROOT
TORSDOF 0
ENDMDL
