MODEL 1
REMARK minimizedAffinity -4.77210426
REMARK minimizedRMSD -1
REMARK  0 active torsions:
REMARK  status: ('A' for Active; 'I' for Inactive)
ROOT
ATOM      1  C   UNL d   1       0.300   0.124  -1.197  0.00  0.00     0.078 C 
ATOM      2  C1  UNL d   1      -0.135  -0.107   0.219  0.00  0.00    -0.077 A 
ATOM      3  C2  UNL d   1      -1.436  -0.530   0.515  0.00  0.00    -0.001 A 
ATOM      4  C3  UNL d   1      -1.830  -0.731   1.839  0.00  0.00     0.003 A 
ATOM      5  C4  UNL d   1      -0.928  -0.511   2.878  0.00  0.00    -0.005 A 
ATOM      6  C5  UNL d   1       0.369  -0.088   2.594  0.00  0.00     0.003 A 
ATOM      7  C6  UNL d   1       0.764   0.114   1.271  0.00  0.00    -0.001 A 
ENDROOT
TORSDOF 0
ENDMDL
