MODEL 1
REMARK minimizedAffinity -4.96018744
REMARK minimizedRMSD -1
REMARK  0 active torsions:
REMARK  status: ('A' for Active; 'I' for Inactive)
ROOT
ATOM      1  C   UNL d   1       0.093   0.240  -1.191  0.00  0.00     0.078 C 
ATOM      2  C1  UNL d   1      -0.267  -0.018   0.242  0.00  0.00    -0.077 A 
ATOM      3  C2  UNL d   1      -1.572  -0.372   0.606  0.00  0.00    -0.001 A 
ATOM      4  C3  UNL d   1      -1.894  -0.599   1.945  0.00  0.00     0.003 A 
ATOM      5  C4  UNL d   1      -0.918  -0.473   2.931  0.00  0.00    -0.005 A 
ATOM      6  C5  UNL d   1       0.383  -0.119   2.579  0.00  0.00     0.003 A 
ATOM      7  C6  UNL d   1       0.707   0.109   1.240  0.00  0.00    -0.001 A 
ENDROOT
TORSDOF 0
ENDMDL
