MODEL 1
REMARK minimizedAffinity -4.66211224
REMARK minimizedRMSD -1
REMARK  0 active torsions:
REMARK  status: ('A' for Active; 'I' for Inactive)
ROOT
ATOM      1  C   UNL d   1       0.122   0.286  -1.588  0.00  0.00     0.078 C 
ATOM      2  C1  UNL d   1       0.182  -0.011  -0.119  0.00  0.00    -0.077 A 
ATOM      3  C2  UNL d   1      -0.868  -0.675   0.525  0.00  0.00    -0.001 A 
ATOM      4  C3  UNL d   1      -0.803  -0.937   1.895  0.00  0.00     0.003 A 
ATOM      5  C4  UNL d   1       0.310  -0.536   2.632  0.00  0.00    -0.005 A 
ATOM      6  C5  UNL d   1       1.359   0.128   1.999  0.00  0.00     0.003 A 
ATOM      7  C6  UNL d   1       1.295   0.390   0.630  0.00  0.00    -0.001 A 
ENDROOT
TORSDOF 0
ENDMDL
