MODEL 1
REMARK minimizedAffinity -5.24200487
REMARK minimizedRMSD -1
REMARK  0 active torsions:
REMARK  status: ('A' for Active; 'I' for Inactive)
ROOT
ATOM      1  C   UNL d   1      -0.745  -0.459   3.366  0.00  0.00     0.078 C 
ATOM      2  C1  UNL d   1      -0.450  -0.106   1.939  0.00  0.00    -0.077 A 
ATOM      3  C2  UNL d   1       0.829   0.309   1.548  0.00  0.00    -0.001 A 
ATOM      4  C3  UNL d   1       1.087   0.645   0.218  0.00  0.00     0.003 A 
ATOM      5  C4  UNL d   1       0.070   0.569  -0.732  0.00  0.00    -0.005 A 
ATOM      6  C5  UNL d   1      -1.206   0.159  -0.352  0.00  0.00     0.003 A 
ATOM      7  C6  UNL d   1      -1.466  -0.177   0.977  0.00  0.00    -0.001 A 
ENDROOT
TORSDOF 0
ENDMDL
