MODEL 1
REMARK minimizedAffinity -5.85411167
REMARK minimizedRMSD -1
REMARK  0 active torsions:
REMARK  status: ('A' for Active; 'I' for Inactive)
ROOT
ATOM      1  C   UNL d   1      -0.517  -0.215  -0.368  0.00  0.00     0.078 C 
ATOM      2  C1  UNL d   1      -0.908  -0.172   1.079  0.00  0.00    -0.077 A 
ATOM      3  C2  UNL d   1      -2.252  -0.255   1.466  0.00  0.00    -0.001 A 
ATOM      4  C3  UNL d   1      -2.602  -0.204   2.816  0.00  0.00     0.003 A 
ATOM      5  C4  UNL d   1      -1.615  -0.069   3.791  0.00  0.00    -0.005 A 
ATOM      6  C5  UNL d   1      -0.276   0.017   3.415  0.00  0.00     0.003 A 
ATOM      7  C6  UNL d   1       0.077  -0.034   2.066  0.00  0.00    -0.001 A 
ENDROOT
TORSDOF 0
ENDMDL
