MODEL 1
REMARK minimizedAffinity -5.60287142
REMARK minimizedRMSD -1
REMARK  0 active torsions:
REMARK  status: ('A' for Active; 'I' for Inactive)
ROOT
ATOM      1  C   UNL d   1       0.085   0.079  -0.655  0.00  0.00     0.078 C 
ATOM      2  C1  UNL d   1      -0.736   0.069   0.600  0.00  0.00    -0.077 A 
ATOM      3  C2  UNL d   1      -2.123   0.254   0.555  0.00  0.00    -0.001 A 
ATOM      4  C3  UNL d   1      -2.874   0.252   1.732  0.00  0.00     0.003 A 
ATOM      5  C4  UNL d   1      -2.246   0.067   2.962  0.00  0.00    -0.005 A 
ATOM      6  C5  UNL d   1      -0.866  -0.116   3.017  0.00  0.00     0.003 A 
ATOM      7  C6  UNL d   1      -0.113  -0.114   1.841  0.00  0.00    -0.001 A 
ENDROOT
TORSDOF 0
ENDMDL
