MODEL 1
REMARK minimizedAffinity -5.07542133
REMARK minimizedRMSD -1
REMARK  0 active torsions:
REMARK  status: ('A' for Active; 'I' for Inactive)
ROOT
ATOM      1  C   UNL d   1      -0.349  -0.459   3.262  0.00  0.00     0.078 C 
ATOM      2  C1  UNL d   1      -0.423  -0.123   1.802  0.00  0.00    -0.077 A 
ATOM      3  C2  UNL d   1      -1.650  -0.098   1.129  0.00  0.00    -0.001 A 
ATOM      4  C3  UNL d   1      -1.702   0.207  -0.232  0.00  0.00     0.003 A 
ATOM      5  C4  UNL d   1      -0.531   0.488  -0.932  0.00  0.00    -0.005 A 
ATOM      6  C5  UNL d   1       0.696   0.464  -0.271  0.00  0.00     0.003 A 
ATOM      7  C6  UNL d   1       0.750   0.160   1.090  0.00  0.00    -0.001 A 
ENDROOT
TORSDOF 0
ENDMDL
