MODEL 1
REMARK minimizedAffinity -5.04191589
REMARK minimizedRMSD -1
REMARK  0 active torsions:
REMARK  status: ('A' for Active; 'I' for Inactive)
ROOT
ATOM      1  C   UNL d   1      -0.698   1.028  -1.184  0.00  0.00     0.078 C 
ATOM      2  C1  UNL d   1      -0.478   0.421   0.169  0.00  0.00    -0.077 A 
ATOM      3  C2  UNL d   1      -1.518  -0.228   0.847  0.00  0.00    -0.001 A 
ATOM      4  C3  UNL d   1      -1.302  -0.780   2.110  0.00  0.00     0.003 A 
ATOM      5  C4  UNL d   1      -0.047  -0.688   2.708  0.00  0.00    -0.005 A 
ATOM      6  C5  UNL d   1       0.994  -0.042   2.043  0.00  0.00     0.003 A 
ATOM      7  C6  UNL d   1       0.779   0.510   0.779  0.00  0.00    -0.001 A 
ENDROOT
TORSDOF 0
ENDMDL
