MODEL 1
REMARK minimizedAffinity -4.26713228
REMARK minimizedRMSD -1
REMARK  0 active torsions:
REMARK  status: ('A' for Active; 'I' for Inactive)
ROOT
ATOM      1  C   UNL d   1      -1.380  -0.849   2.335  0.00  0.00     0.078 C 
ATOM      2  C1  UNL d   1      -1.059  -0.327   0.967  0.00  0.00    -0.077 A 
ATOM      3  C2  UNL d   1       0.128  -0.687   0.318  0.00  0.00    -0.001 A 
ATOM      4  C3  UNL d   1       0.418  -0.187  -0.952  0.00  0.00     0.003 A 
ATOM      5  C4  UNL d   1      -0.473   0.678  -1.584  0.00  0.00    -0.005 A 
ATOM      6  C5  UNL d   1      -1.656   1.044  -0.945  0.00  0.00     0.003 A 
ATOM      7  C6  UNL d   1      -1.948   0.544   0.325  0.00  0.00    -0.001 A 
ENDROOT
TORSDOF 0
ENDMDL
