MODEL 1
REMARK minimizedAffinity -3.78436303
REMARK minimizedRMSD -1
REMARK  0 active torsions:
REMARK  status: ('A' for Active; 'I' for Inactive)
ROOT
ATOM      1  C   UNL d   1      -1.023  -0.289   3.269  0.00  0.00     0.078 C 
ATOM      2  C1  UNL d   1      -0.471  -0.053   1.895  0.00  0.00    -0.077 A 
ATOM      3  C2  UNL d   1      -1.297  -0.111   0.765  0.00  0.00    -0.001 A 
ATOM      4  C3  UNL d   1      -0.767   0.101  -0.508  0.00  0.00     0.003 A 
ATOM      5  C4  UNL d   1       0.591   0.370  -0.665  0.00  0.00    -0.005 A 
ATOM      6  C5  UNL d   1       1.421   0.427   0.452  0.00  0.00     0.003 A 
ATOM      7  C6  UNL d   1       0.893   0.216   1.727  0.00  0.00    -0.001 A 
ENDROOT
TORSDOF 0
ENDMDL
