MODEL 1
REMARK minimizedAffinity 11.9869499
REMARK minimizedRMSD -1
REMARK  3 active torsions:
REMARK  status: ('A' for Active; 'I' for Inactive)
REMARK    1  A    between atoms: C3'_2  and  C2'_3 
REMARK    2  A    between atoms: C2'_3  and  C1'_4 
REMARK    3  A    between atoms: C1'_4  and  C1_5 
ROOT
ATOM      1  C1  N4B d   1      -1.801   4.520  -3.058  0.00  0.00    -0.075 A 
ATOM      2  C2  N4B d   1      -2.846   3.727  -3.580  0.00  0.00     0.002 A 
ATOM      3  C3  N4B d   1      -2.556   2.560  -4.244  0.00  0.00     0.002 A 
ATOM      4  C4  N4B d   1      -1.234   2.179  -4.415  0.00  0.00    -0.004 A 
ATOM      5  C5  N4B d   1      -0.231   2.938  -3.886  0.00  0.00     0.002 A 
ATOM      6  C6  N4B d   1      -0.508   4.110  -3.212  0.00  0.00     0.002 A 
ENDROOT
BRANCH   1   7
ATOM      7  C1' N4B d   1      -2.064   5.847  -2.399  0.00  0.00     0.057 C 
BRANCH   7   8
ATOM      8  C2' N4B d   1      -2.204   5.639  -0.894  0.00  0.00     0.009 C 
BRANCH   8   9
ATOM      9  C3' N4B d   1      -3.648   5.753  -0.437  0.00  0.00     0.004 C 
ATOM     10  C4' N4B d   1      -4.150   4.501   0.219  0.00  0.00     0.003 C 
ENDBRANCH   8   9
ENDBRANCH   7   8
ENDBRANCH   1   7
TORSDOF 3
ENDMDL
