MODEL 1
REMARK minimizedAffinity 6.93779898
REMARK minimizedRMSD -1
REMARK  3 active torsions:
REMARK  status: ('A' for Active; 'I' for Inactive)
REMARK    1  A    between atoms: C3'_2  and  C2'_3 
REMARK    2  A    between atoms: C2'_3  and  C1'_4 
REMARK    3  A    between atoms: C1'_4  and  C1_5 
ROOT
ATOM      1  C1  N4B d   1       0.665  -0.757   2.961  0.00  0.00    -0.075 A 
ATOM      2  C2  N4B d   1       0.543  -0.280   1.637  0.00  0.00     0.002 A 
ATOM      3  C3  N4B d   1      -0.567  -0.595   0.893  0.00  0.00     0.002 A 
ATOM      4  C4  N4B d   1      -1.555  -1.399   1.442  0.00  0.00    -0.004 A 
ATOM      5  C5  N4B d   1      -1.442  -1.835   2.730  0.00  0.00     0.002 A 
ATOM      6  C6  N4B d   1      -0.334  -1.522   3.491  0.00  0.00     0.002 A 
ENDROOT
BRANCH   1   7
ATOM      7  C1' N4B d   1       1.900  -0.510   3.784  0.00  0.00     0.057 C 
BRANCH   7   8
ATOM      8  C2' N4B d   1       2.963   0.144   2.907  0.00  0.00     0.009 C 
BRANCH   8   9
ATOM      9  C3' N4B d   1       3.486  -0.805   1.843  0.00  0.00     0.004 C 
ATOM     10  C4' N4B d   1       4.983  -0.893   1.829  0.00  0.00     0.003 C 
ENDBRANCH   8   9
ENDBRANCH   7   8
ENDBRANCH   1   7
TORSDOF 3
ENDMDL
