MODEL 1
REMARK minimizedAffinity 12.5698786
REMARK minimizedRMSD -1
REMARK  3 active torsions:
REMARK  status: ('A' for Active; 'I' for Inactive)
REMARK    1  A    between atoms: C3'_2  and  C2'_3 
REMARK    2  A    between atoms: C2'_3  and  C1'_4 
REMARK    3  A    between atoms: C1'_4  and  C1_5 
ROOT
ATOM      1  C1  N4B d   1      -0.392   2.162  -4.519  0.00  0.00    -0.075 A 
ATOM      2  C2  N4B d   1      -1.778   2.384  -4.363  0.00  0.00     0.002 A 
ATOM      3  C3  N4B d   1      -2.223   3.483  -3.670  0.00  0.00     0.002 A 
ATOM      4  C4  N4B d   1      -1.305   4.359  -3.110  0.00  0.00    -0.004 A 
ATOM      5  C5  N4B d   1       0.031   4.151  -3.288  0.00  0.00     0.002 A 
ATOM      6  C6  N4B d   1       0.493   3.054  -3.986  0.00  0.00     0.002 A 
ENDROOT
BRANCH   1   7
ATOM      7  C1' N4B d   1       0.143   0.929  -5.195  0.00  0.00     0.057 C 
BRANCH   7   8
ATOM      8  C2' N4B d   1       0.622  -0.056  -4.133  0.00  0.00     0.009 C 
BRANCH   8   9
ATOM      9  C3' N4B d   1       0.515  -1.496  -4.604  0.00  0.00     0.004 C 
ATOM     10  C4' N4B d   1       1.852  -2.154  -4.771  0.00  0.00     0.003 C 
ENDBRANCH   8   9
ENDBRANCH   7   8
ENDBRANCH   1   7
TORSDOF 3
ENDMDL
