MODEL 1
REMARK minimizedAffinity 15.4803038
REMARK minimizedRMSD -1
REMARK  3 active torsions:
REMARK  status: ('A' for Active; 'I' for Inactive)
REMARK    1  A    between atoms: C3'_2  and  C2'_3 
REMARK    2  A    between atoms: C2'_3  and  C1'_4 
REMARK    3  A    between atoms: C1'_4  and  C1_5 
ROOT
ATOM      1  C1  N4B d   1      -0.440  -0.985   2.803  0.00  0.00    -0.075 A 
ATOM      2  C2  N4B d   1       0.815  -0.412   3.106  0.00  0.00     0.002 A 
ATOM      3  C3  N4B d   1       1.656  -0.026   2.092  0.00  0.00     0.002 A 
ATOM      4  C4  N4B d   1       1.274  -0.219   0.773  0.00  0.00    -0.004 A 
ATOM      5  C5  N4B d   1       0.049  -0.749   0.489  0.00  0.00     0.002 A 
ATOM      6  C6  N4B d   1      -0.808  -1.138   1.498  0.00  0.00     0.002 A 
ENDROOT
BRANCH   1   7
ATOM      7  C1' N4B d   1      -1.358  -1.501   3.878  0.00  0.00     0.057 C 
BRANCH   7   8
ATOM      8  C2' N4B d   1      -0.625  -1.478   5.216  0.00  0.00     0.009 C 
BRANCH   8   9
ATOM      9  C3' N4B d   1      -0.829  -2.764   5.998  0.00  0.00     0.004 C 
ATOM     10  C4' N4B d   1      -1.727  -3.736   5.294  0.00  0.00     0.003 C 
ENDBRANCH   8   9
ENDBRANCH   7   8
ENDBRANCH   1   7
TORSDOF 3
ENDMDL
