MODEL 1
REMARK minimizedAffinity 4.89840174
REMARK minimizedRMSD -1
REMARK  3 active torsions:
REMARK  status: ('A' for Active; 'I' for Inactive)
REMARK    1  A    between atoms: C3'_2  and  C2'_3 
REMARK    2  A    between atoms: C2'_3  and  C1'_4 
REMARK    3  A    between atoms: C1'_4  and  C1_5 
ROOT
ATOM      1  C1  N4B d   1       2.428   1.454  -1.190  0.00  0.00    -0.075 A 
ATOM      2  C2  N4B d   1       2.206   0.206  -0.566  0.00  0.00     0.002 A 
ATOM      3  C3  N4B d   1       3.102  -0.819  -0.743  0.00  0.00     0.002 A 
ATOM      4  C4  N4B d   1       4.213  -0.627  -1.551  0.00  0.00    -0.004 A 
ATOM      5  C5  N4B d   1       4.434   0.589  -2.128  0.00  0.00     0.002 A 
ATOM      6  C6  N4B d   1       3.543   1.630  -1.956  0.00  0.00     0.002 A 
ENDROOT
BRANCH   1   7
ATOM      7  C1' N4B d   1       1.432   2.577  -1.095  0.00  0.00     0.057 C 
BRANCH   7   8
ATOM      8  C2' N4B d   1       0.961   2.949  -2.499  0.00  0.00     0.009 C 
BRANCH   8   9
ATOM      9  C3' N4B d   1      -0.446   3.520  -2.493  0.00  0.00     0.004 C 
ATOM     10  C4' N4B d   1      -1.318   2.925  -3.559  0.00  0.00     0.003 C 
ENDBRANCH   8   9
ENDBRANCH   7   8
ENDBRANCH   1   7
TORSDOF 3
ENDMDL
