MODEL 1
REMARK minimizedAffinity 15.367877
REMARK minimizedRMSD -1
REMARK  3 active torsions:
REMARK  status: ('A' for Active; 'I' for Inactive)
REMARK    1  A    between atoms: C3'_2  and  C2'_3 
REMARK    2  A    between atoms: C2'_3  and  C1'_4 
REMARK    3  A    between atoms: C1'_4  and  C1_5 
ROOT
ATOM      1  C1  N4B d   1      -1.476   3.822  -3.557  0.00  0.00    -0.075 A 
ATOM      2  C2  N4B d   1      -2.329   4.606  -2.749  0.00  0.00     0.002 A 
ATOM      3  C3  N4B d   1      -1.828   5.690  -2.071  0.00  0.00     0.002 A 
ATOM      4  C4  N4B d   1      -0.480   5.998  -2.171  0.00  0.00    -0.004 A 
ATOM      5  C5  N4B d   1       0.333   5.252  -2.973  0.00  0.00     0.002 A 
ATOM      6  C6  N4B d   1      -0.158   4.161  -3.663  0.00  0.00     0.002 A 
ENDROOT
BRANCH   1   7
ATOM      7  C1' N4B d   1      -1.959   2.577  -4.248  0.00  0.00     0.057 C 
BRANCH   7   8
ATOM      8  C2' N4B d   1      -3.448   2.395  -3.969  0.00  0.00     0.009 C 
BRANCH   8   9
ATOM      9  C3' N4B d   1      -4.310   2.981  -5.074  0.00  0.00     0.004 C 
ATOM     10  C4' N4B d   1      -5.744   2.552  -4.982  0.00  0.00     0.003 C 
ENDBRANCH   8   9
ENDBRANCH   7   8
ENDBRANCH   1   7
TORSDOF 3
ENDMDL
