MODEL 1
REMARK minimizedAffinity 2.35254574
REMARK minimizedRMSD -1
REMARK  3 active torsions:
REMARK  status: ('A' for Active; 'I' for Inactive)
REMARK    1  A    between atoms: C3'_2  and  C2'_3 
REMARK    2  A    between atoms: C2'_3  and  C1'_4 
REMARK    3  A    between atoms: C1'_4  and  C1_5 
ROOT
ATOM      1  C1  N4B d   1       0.662  -0.303   2.171  0.00  0.00    -0.075 A 
ATOM      2  C2  N4B d   1       1.507  -0.116   3.286  0.00  0.00     0.002 A 
ATOM      3  C3  N4B d   1       2.867  -0.037   3.112  0.00  0.00     0.002 A 
ATOM      4  C4  N4B d   1       3.403  -0.161   1.839  0.00  0.00    -0.004 A 
ATOM      5  C5  N4B d   1       2.578  -0.317   0.764  0.00  0.00     0.002 A 
ATOM      6  C6  N4B d   1       1.209  -0.393   0.924  0.00  0.00     0.002 A 
ENDROOT
BRANCH   1   7
ATOM      7  C1' N4B d   1      -0.824  -0.481   2.322  0.00  0.00     0.057 C 
BRANCH   7   8
ATOM      8  C2' N4B d   1      -1.096  -1.625   3.295  0.00  0.00     0.009 C 
BRANCH   8   9
ATOM      9  C3' N4B d   1      -1.186  -1.139   4.731  0.00  0.00     0.004 C 
ATOM     10  C4' N4B d   1      -1.573  -2.227   5.689  0.00  0.00     0.003 C 
ENDBRANCH   8   9
ENDBRANCH   7   8
ENDBRANCH   1   7
TORSDOF 3
ENDMDL
