MODEL 1
REMARK minimizedAffinity 8.16523266
REMARK minimizedRMSD -1
REMARK  3 active torsions:
REMARK  status: ('A' for Active; 'I' for Inactive)
REMARK    1  A    between atoms: C3'_2  and  C2'_3 
REMARK    2  A    between atoms: C2'_3  and  C1'_4 
REMARK    3  A    between atoms: C1'_4  and  C1_5 
ROOT
ATOM      1  C1  N4B d   1       0.966  -0.259   0.576  0.00  0.00    -0.075 A 
ATOM      2  C2  N4B d   1       0.612   0.209   1.860  0.00  0.00     0.002 A 
ATOM      3  C3  N4B d   1      -0.349  -0.447   2.589  0.00  0.00     0.002 A 
ATOM      4  C4  N4B d   1      -0.980  -1.558   2.049  0.00  0.00    -0.004 A 
ATOM      5  C5  N4B d   1      -0.614  -2.018   0.818  0.00  0.00     0.002 A 
ATOM      6  C6  N4B d   1       0.353  -1.371   0.076  0.00  0.00     0.002 A 
ENDROOT
BRANCH   1   7
ATOM      7  C1' N4B d   1       1.950   0.475  -0.294  0.00  0.00     0.057 C 
BRANCH   7   8
ATOM      8  C2' N4B d   1       1.196   1.462  -1.180  0.00  0.00     0.009 C 
BRANCH   8   9
ATOM      9  C3' N4B d   1       0.926   0.894  -2.562  0.00  0.00     0.004 C 
ATOM     10  C4' N4B d   1       0.123   1.821  -3.425  0.00  0.00     0.003 C 
ENDBRANCH   8   9
ENDBRANCH   7   8
ENDBRANCH   1   7
TORSDOF 3
ENDMDL
