MODEL 1
REMARK minimizedAffinity 11.9565029
REMARK minimizedRMSD -1
REMARK  3 active torsions:
REMARK  status: ('A' for Active; 'I' for Inactive)
REMARK    1  A    between atoms: C3'_2  and  C2'_3 
REMARK    2  A    between atoms: C2'_3  and  C1'_4 
REMARK    3  A    between atoms: C1'_4  and  C1_5 
ROOT
ATOM      1  C1  N4B d   1      -1.408  -1.992   0.570  0.00  0.00    -0.075 A 
ATOM      2  C2  N4B d   1      -2.434  -1.732   1.505  0.00  0.00     0.002 A 
ATOM      3  C3  N4B d   1      -3.719  -2.142   1.246  0.00  0.00     0.002 A 
ATOM      4  C4  N4B d   1      -4.004  -2.794   0.055  0.00  0.00    -0.004 A 
ATOM      5  C5  N4B d   1      -3.003  -3.063  -0.831  0.00  0.00     0.002 A 
ATOM      6  C6  N4B d   1      -1.706  -2.660  -0.582  0.00  0.00     0.002 A 
ENDROOT
BRANCH   1   7
ATOM      7  C1' N4B d   1      -0.005  -1.488   0.770  0.00  0.00     0.057 C 
BRANCH   7   8
ATOM      8  C2' N4B d   1      -0.057  -0.047   1.271  0.00  0.00     0.009 C 
BRANCH   8   9
ATOM      9  C3' N4B d   1       1.175   0.741   0.863  0.00  0.00     0.004 C 
ATOM     10  C4' N4B d   1       1.945   0.084  -0.244  0.00  0.00     0.003 C 
ENDBRANCH   8   9
ENDBRANCH   7   8
ENDBRANCH   1   7
TORSDOF 3
ENDMDL
