MODEL 1
REMARK minimizedAffinity 5.41914988
REMARK minimizedRMSD -1
REMARK  1 active torsions:
REMARK  status: ('A' for Active; 'I' for Inactive)
REMARK    1  A    between atoms: N_2  and  C1_3 
ROOT
ATOM      1  C1  UNL d   1      -3.907   3.670  -4.860  0.00  0.00     0.143 A 
ATOM      2  C2  UNL d   1      -3.339   4.938  -5.025  0.00  0.00    -0.057 A 
ATOM      3  C3  UNL d   1      -4.072   5.996  -5.575  0.00  0.00     0.033 A 
ATOM      4  C4  UNL d   1      -5.382   5.797  -5.998  0.00  0.00    -0.042 A 
ATOM      5  C5  UNL d   1      -5.959   4.539  -5.867  0.00  0.00     0.033 A 
ATOM      6  C6  UNL d   1      -5.224   3.487  -5.311  0.00  0.00    -0.057 A 
ENDROOT
BRANCH   1   7
ATOM      7  N   UNL d   1      -3.199   2.553  -4.411  0.00  0.00    -0.732 N 
ATOM      8  C   UNL d   1      -2.287   2.658  -3.292  0.00  0.00     0.284 C 
ATOM      9  H3  UNL d   1      -3.767   1.709  -4.406  0.00  0.00     0.395 HD
ENDBRANCH   1   7
TORSDOF 1
ENDMDL
