MODEL 1
REMARK minimizedAffinity 6.27671385
REMARK minimizedRMSD -1
REMARK  1 active torsions:
REMARK  status: ('A' for Active; 'I' for Inactive)
REMARK    1  A    between atoms: N_2  and  C1_3 
ROOT
ATOM      1  C1  UNL d   1      -1.411   3.544  -5.285  0.00  0.00     0.143 A 
ATOM      2  C2  UNL d   1      -1.092   3.837  -3.954  0.00  0.00    -0.057 A 
ATOM      3  C3  UNL d   1       0.095   3.375  -3.374  0.00  0.00     0.033 A 
ATOM      4  C4  UNL d   1       0.974   2.585  -4.107  0.00  0.00    -0.042 A 
ATOM      5  C5  UNL d   1       0.666   2.260  -5.423  0.00  0.00     0.033 A 
ATOM      6  C6  UNL d   1      -0.518   2.730  -6.000  0.00  0.00    -0.057 A 
ENDROOT
BRANCH   1   7
ATOM      7  N   UNL d   1      -2.622   3.891  -5.889  0.00  0.00    -0.732 N 
ATOM      8  C   UNL d   1      -3.019   5.278  -6.000  0.00  0.00     0.284 C 
ATOM      9  H3  UNL d   1      -2.815   3.335  -6.719  0.00  0.00     0.395 HD
ENDBRANCH   1   7
TORSDOF 1
ENDMDL
