MODEL 1
REMARK minimizedAffinity 5.63123941
REMARK minimizedRMSD -1
REMARK  1 active torsions:
REMARK  status: ('A' for Active; 'I' for Inactive)
REMARK    1  A    between atoms: N_2  and  C1_3 
ROOT
ATOM      1  C1  UNL d   1      -1.240   3.806  -5.919  0.00  0.00     0.143 A 
ATOM      2  C2  UNL d   1      -2.470   3.142  -5.857  0.00  0.00    -0.057 A 
ATOM      3  C3  UNL d   1      -3.678   3.850  -5.851  0.00  0.00     0.033 A 
ATOM      4  C4  UNL d   1      -3.676   5.240  -5.877  0.00  0.00    -0.042 A 
ATOM      5  C5  UNL d   1      -2.465   5.922  -5.914  0.00  0.00     0.033 A 
ATOM      6  C6  UNL d   1      -1.262   5.210  -5.926  0.00  0.00    -0.057 A 
ENDROOT
BRANCH   1   7
ATOM      7  N   UNL d   1      -0.003   3.163  -5.829  0.00  0.00    -0.732 N 
ATOM      8  C   UNL d   1       0.087   1.722  -5.928  0.00  0.00     0.284 C 
ATOM      9  H3  UNL d   1       0.731   3.661  -6.328  0.00  0.00     0.395 HD
ENDBRANCH   1   7
TORSDOF 1
ENDMDL
