MODEL 1
REMARK minimizedAffinity 4.99438143
REMARK minimizedRMSD -1
REMARK  1 active torsions:
REMARK  status: ('A' for Active; 'I' for Inactive)
REMARK    1  A    between atoms: N_2  and  C1_3 
ROOT
ATOM      1  C1  UNL d   1       1.421   0.145  -0.335  0.00  0.00     0.143 A 
ATOM      2  C2  UNL d   1       2.277   1.090  -0.909  0.00  0.00    -0.057 A 
ATOM      3  C3  UNL d   1       2.966   0.819  -2.097  0.00  0.00     0.033 A 
ATOM      4  C4  UNL d   1       2.833  -0.418  -2.719  0.00  0.00    -0.042 A 
ATOM      5  C5  UNL d   1       2.006  -1.382  -2.153  0.00  0.00     0.033 A 
ATOM      6  C6  UNL d   1       1.315  -1.103  -0.970  0.00  0.00    -0.057 A 
ENDROOT
BRANCH   1   7
ATOM      7  N   UNL d   1       0.784   0.318   0.896  0.00  0.00    -0.732 N 
ATOM      8  C   UNL d   1      -0.622   0.013   1.049  0.00  0.00     0.284 C 
ATOM      9  H3  UNL d   1       1.362   0.017   1.678  0.00  0.00     0.395 HD
ENDBRANCH   1   7
TORSDOF 1
ENDMDL
