MODEL 1
REMARK minimizedAffinity 4.6931448
REMARK minimizedRMSD -1
REMARK  1 active torsions:
REMARK  status: ('A' for Active; 'I' for Inactive)
REMARK    1  A    between atoms: N_2  and  C1_3 
ROOT
ATOM      1  C1  UNL d   1      -2.020   3.299  -5.813  0.00  0.00     0.143 A 
ATOM      2  C2  UNL d   1      -1.704   4.650  -5.997  0.00  0.00    -0.057 A 
ATOM      3  C3  UNL d   1      -2.684   5.645  -5.895  0.00  0.00     0.033 A 
ATOM      4  C4  UNL d   1      -4.007   5.303  -5.635  0.00  0.00    -0.042 A 
ATOM      5  C5  UNL d   1      -4.348   3.965  -5.473  0.00  0.00     0.033 A 
ATOM      6  C6  UNL d   1      -3.364   2.977  -5.569  0.00  0.00    -0.057 A 
ENDROOT
BRANCH   1   7
ATOM      7  N   UNL d   1      -1.110   2.255  -5.999  0.00  0.00    -0.732 N 
ATOM      8  C   UNL d   1       0.306   2.466  -5.791  0.00  0.00     0.284 C 
ATOM      9  H3  UNL d   1      -1.456   1.370  -5.637  0.00  0.00     0.395 HD
ENDBRANCH   1   7
TORSDOF 1
ENDMDL
