MODEL 1
REMARK minimizedAffinity 1.11063182
REMARK minimizedRMSD -1
REMARK  1 active torsions:
REMARK  status: ('A' for Active; 'I' for Inactive)
REMARK    1  A    between atoms: N_2  and  C1_3 
ROOT
ATOM      1  C1  UNL d   1      -0.739   3.340  -5.303  0.00  0.00     0.143 A 
ATOM      2  C2  UNL d   1      -0.755   3.831  -3.993  0.00  0.00    -0.057 A 
ATOM      3  C3  UNL d   1      -1.949   4.235  -3.384  0.00  0.00     0.033 A 
ATOM      4  C4  UNL d   1      -3.148   4.181  -4.087  0.00  0.00    -0.042 A 
ATOM      5  C5  UNL d   1      -3.152   3.720  -5.398  0.00  0.00     0.033 A 
ATOM      6  C6  UNL d   1      -1.957   3.312  -5.999  0.00  0.00    -0.057 A 
ENDROOT
BRANCH   1   7
ATOM      7  N   UNL d   1       0.429   3.015  -5.997  0.00  0.00    -0.732 N 
ATOM      8  C   UNL d   1       0.935   1.659  -5.997  0.00  0.00     0.284 C 
ATOM      9  H3  UNL d   1       0.486   3.480  -6.901  0.00  0.00     0.395 HD
ENDBRANCH   1   7
TORSDOF 1
ENDMDL
