MODEL 1
REMARK minimizedAffinity 8.44309235
REMARK minimizedRMSD -1
REMARK  1 active torsions:
REMARK  status: ('A' for Active; 'I' for Inactive)
REMARK    1  A    between atoms: N_2  and  C1_3 
ROOT
ATOM      1  C1  UNL d   1       0.930   2.805   2.410  0.00  0.00     0.143 A 
ATOM      2  C2  UNL d   1      -0.282   2.710   1.716  0.00  0.00    -0.057 A 
ATOM      3  C3  UNL d   1      -1.500   3.006   2.339  0.00  0.00     0.033 A 
ATOM      4  C4  UNL d   1      -1.531   3.375   3.680  0.00  0.00    -0.042 A 
ATOM      5  C5  UNL d   1      -0.342   3.452   4.396  0.00  0.00     0.033 A 
ATOM      6  C6  UNL d   1       0.873   3.161   3.766  0.00  0.00    -0.057 A 
ENDROOT
BRANCH   1   7
ATOM      7  N   UNL d   1       2.164   2.429   1.874  0.00  0.00    -0.732 N 
ATOM      8  C   UNL d   1       3.383   3.078   2.307  0.00  0.00     0.284 C 
ATOM      9  H3  UNL d   1       2.247   1.422   1.760  0.00  0.00     0.395 HD
ENDBRANCH   1   7
TORSDOF 1
ENDMDL
