MODEL 1
REMARK minimizedAffinity 5.82755947
REMARK minimizedRMSD -1
REMARK  1 active torsions:
REMARK  status: ('A' for Active; 'I' for Inactive)
REMARK    1  A    between atoms: N_2  and  C1_3 
ROOT
ATOM      1  C1  UNL d   1      -3.552   3.817  -5.465  0.00  0.00     0.143 A 
ATOM      2  C2  UNL d   1      -3.612   5.215  -5.478  0.00  0.00    -0.057 A 
ATOM      3  C3  UNL d   1      -4.817   5.888  -5.711  0.00  0.00     0.033 A 
ATOM      4  C4  UNL d   1      -5.983   5.173  -5.964  0.00  0.00    -0.042 A 
ATOM      5  C5  UNL d   1      -5.942   3.783  -5.980  0.00  0.00     0.033 A 
ATOM      6  C6  UNL d   1      -4.737   3.116  -5.741  0.00  0.00    -0.057 A 
ENDROOT
BRANCH   1   7
ATOM      7  N   UNL d   1      -2.366   3.090  -5.338  0.00  0.00    -0.732 N 
ATOM      8  C   UNL d   1      -1.570   3.183  -4.132  0.00  0.00     0.284 C 
ATOM      9  H3  UNL d   1      -2.446   2.147  -5.711  0.00  0.00     0.395 HD
ENDBRANCH   1   7
TORSDOF 1
ENDMDL
