MODEL 1
REMARK minimizedAffinity 0.943536401
REMARK minimizedRMSD -1
REMARK  1 active torsions:
REMARK  status: ('A' for Active; 'I' for Inactive)
REMARK    1  A    between atoms: N_2  and  C1_3 
ROOT
ATOM      1  C1  UNL d   1      -4.123   4.320  -5.990  0.00  0.00     0.143 A 
ATOM      2  C2  UNL d   1      -3.115   5.283  -5.874  0.00  0.00    -0.057 A 
ATOM      3  C3  UNL d   1      -1.764   4.916  -5.815  0.00  0.00     0.033 A 
ATOM      4  C4  UNL d   1      -1.400   3.574  -5.843  0.00  0.00    -0.042 A 
ATOM      5  C5  UNL d   1      -2.387   2.599  -5.933  0.00  0.00     0.033 A 
ATOM      6  C6  UNL d   1      -3.733   2.972  -5.997  0.00  0.00    -0.057 A 
ENDROOT
BRANCH   1   7
ATOM      7  N   UNL d   1      -5.488   4.615  -5.953  0.00  0.00    -0.732 N 
ATOM      8  C   UNL d   1      -5.947   5.987  -5.993  0.00  0.00     0.284 C 
ATOM      9  H3  UNL d   1      -6.039   3.976  -6.521  0.00  0.00     0.395 HD
ENDBRANCH   1   7
TORSDOF 1
ENDMDL
