MODEL 1
REMARK minimizedAffinity 12.9563789
REMARK minimizedRMSD -1
REMARK  1 active torsions:
REMARK  status: ('A' for Active; 'I' for Inactive)
REMARK    1  A    between atoms: N_2  and  C1_3 
ROOT
ATOM      1  C1  UNL d   1      -1.973   3.579  -5.421  0.00  0.00     0.143 A 
ATOM      2  C2  UNL d   1      -3.282   3.161  -5.684  0.00  0.00    -0.057 A 
ATOM      3  C3  UNL d   1      -4.293   4.084  -5.980  0.00  0.00     0.033 A 
ATOM      4  C4  UNL d   1      -4.017   5.448  -5.990  0.00  0.00    -0.042 A 
ATOM      5  C5  UNL d   1      -2.729   5.887  -5.706  0.00  0.00     0.033 A 
ATOM      6  C6  UNL d   1      -1.722   4.960  -5.418  0.00  0.00    -0.057 A 
ENDROOT
BRANCH   1   7
ATOM      7  N   UNL d   1      -0.947   2.717  -5.024  0.00  0.00    -0.732 N 
ATOM      8  C   UNL d   1      -0.011   2.190  -5.993  0.00  0.00     0.284 C 
ATOM      9  H3  UNL d   1      -0.520   3.002  -4.145  0.00  0.00     0.395 HD
ENDBRANCH   1   7
TORSDOF 1
ENDMDL
