MODEL 1
REMARK minimizedAffinity 3.59669352
REMARK minimizedRMSD -1
REMARK  1 active torsions:
REMARK  status: ('A' for Active; 'I' for Inactive)
REMARK    1  A    between atoms: N_2  and  C1_3 
ROOT
ATOM      1  C1  UNL d   1      -0.214   3.136  -5.998  0.00  0.00     0.143 A 
ATOM      2  C2  UNL d   1      -1.035   2.004  -5.975  0.00  0.00    -0.057 A 
ATOM      3  C3  UNL d   1      -2.431   2.119  -5.989  0.00  0.00     0.033 A 
ATOM      4  C4  UNL d   1      -3.031   3.374  -5.997  0.00  0.00    -0.042 A 
ATOM      5  C5  UNL d   1      -2.234   4.513  -5.995  0.00  0.00     0.033 A 
ATOM      6  C6  UNL d   1      -0.842   4.392  -5.988  0.00  0.00    -0.057 A 
ENDROOT
BRANCH   1   7
ATOM      7  N   UNL d   1       1.178   3.090  -5.886  0.00  0.00    -0.732 N 
ATOM      8  C   UNL d   1       1.965   4.302  -5.965  0.00  0.00     0.284 C 
ATOM      9  H3  UNL d   1       1.488   2.438  -5.169  0.00  0.00     0.395 HD
ENDBRANCH   1   7
TORSDOF 1
ENDMDL
