MODEL 1
REMARK minimizedAffinity 9.29807281
REMARK minimizedRMSD -1
REMARK  1 active torsions:
REMARK  status: ('A' for Active; 'I' for Inactive)
REMARK    1  A    between atoms: N_2  and  C1_3 
ROOT
ATOM      1  C1  UNL d   1       1.365   0.528  -0.278  0.00  0.00     0.143 A 
ATOM      2  C2  UNL d   1       1.321   1.918  -0.428  0.00  0.00    -0.057 A 
ATOM      3  C3  UNL d   1       0.193   2.654  -0.044  0.00  0.00     0.033 A 
ATOM      4  C4  UNL d   1      -0.925   2.007   0.472  0.00  0.00    -0.042 A 
ATOM      5  C5  UNL d   1      -0.913   0.623   0.606  0.00  0.00     0.033 A 
ATOM      6  C6  UNL d   1       0.219  -0.106   0.227  0.00  0.00    -0.057 A 
ENDROOT
BRANCH   1   7
ATOM      7  N   UNL d   1       2.418  -0.270  -0.732  0.00  0.00    -0.732 N 
ATOM      8  C   UNL d   1       2.692  -0.394  -2.148  0.00  0.00     0.284 C 
ATOM      9  H3  UNL d   1       3.251  -0.181  -0.154  0.00  0.00     0.395 HD
ENDBRANCH   1   7
TORSDOF 1
ENDMDL
