MODEL 1
REMARK minimizedAffinity 0.683730304
REMARK minimizedRMSD -1
REMARK  1 active torsions:
REMARK  status: ('A' for Active; 'I' for Inactive)
REMARK    1  A    between atoms: N_2  and  C1_3 
ROOT
ATOM      1  C1  UNL d   1       1.291   4.460  -5.864  0.00  0.00     0.143 A 
ATOM      2  C2  UNL d   1       1.467   3.079  -5.998  0.00  0.00    -0.057 A 
ATOM      3  C3  UNL d   1       0.373   2.204  -5.995  0.00  0.00     0.033 A 
ATOM      4  C4  UNL d   1      -0.917   2.696  -5.829  0.00  0.00    -0.042 A 
ATOM      5  C5  UNL d   1      -1.113   4.063  -5.669  0.00  0.00     0.033 A 
ATOM      6  C6  UNL d   1      -0.018   4.932  -5.679  0.00  0.00    -0.057 A 
ENDROOT
BRANCH   1   7
ATOM      7  N   UNL d   1       2.345   5.372  -5.760  0.00  0.00    -0.732 N 
ATOM      8  C   UNL d   1       3.710   4.951  -5.994  0.00  0.00     0.284 C 
ATOM      9  H3  UNL d   1       2.115   6.278  -6.161  0.00  0.00     0.395 HD
ENDBRANCH   1   7
TORSDOF 1
ENDMDL
