MODEL 1
REMARK minimizedAffinity 3.72211885
REMARK minimizedRMSD -1
REMARK  1 active torsions:
REMARK  status: ('A' for Active; 'I' for Inactive)
REMARK    1  A    between atoms: N_2  and  C1_3 
ROOT
ATOM      1  C1  UNL d   1       0.515   0.765   0.339  0.00  0.00     0.143 A 
ATOM      2  C2  UNL d   1      -0.363  -0.279   0.650  0.00  0.00    -0.057 A 
ATOM      3  C3  UNL d   1      -1.699  -0.030   0.986  0.00  0.00     0.033 A 
ATOM      4  C4  UNL d   1      -2.175   1.276   1.045  0.00  0.00    -0.042 A 
ATOM      5  C5  UNL d   1      -1.314   2.331   0.764  0.00  0.00     0.033 A 
ATOM      6  C6  UNL d   1       0.017   2.075   0.423  0.00  0.00    -0.057 A 
ENDROOT
BRANCH   1   7
ATOM      7  N   UNL d   1       1.879   0.588   0.095  0.00  0.00    -0.732 N 
ATOM      8  C   UNL d   1       2.366   0.385  -1.253  0.00  0.00     0.284 C 
ATOM      9  H3  UNL d   1       2.458   1.208   0.657  0.00  0.00     0.395 HD
ENDBRANCH   1   7
TORSDOF 1
ENDMDL
