MODEL 1
REMARK minimizedAffinity 4.42143679
REMARK minimizedRMSD -1
REMARK  1 active torsions:
REMARK  status: ('A' for Active; 'I' for Inactive)
REMARK    1  A    between atoms: N_2  and  C1_3 
ROOT
ATOM      1  C1  UNL d   1      -0.179  -4.609   1.193  0.00  0.00     0.143 A 
ATOM      2  C2  UNL d   1       1.055  -4.154   0.718  0.00  0.00    -0.057 A 
ATOM      3  C3  UNL d   1       2.259  -4.630   1.252  0.00  0.00     0.033 A 
ATOM      4  C4  UNL d   1       2.248  -5.552   2.294  0.00  0.00    -0.042 A 
ATOM      5  C5  UNL d   1       1.033  -5.999   2.798  0.00  0.00     0.033 A 
ATOM      6  C6  UNL d   1      -0.166  -5.525   2.256  0.00  0.00    -0.057 A 
ENDROOT
BRANCH   1   7
ATOM      7  N   UNL d   1      -1.410  -4.101   0.771  0.00  0.00    -0.732 N 
ATOM      8  C   UNL d   1      -2.578  -4.953   0.711  0.00  0.00     0.284 C 
ATOM      9  H3  UNL d   1      -1.593  -3.170   1.139  0.00  0.00     0.395 HD
ENDBRANCH   1   7
TORSDOF 1
ENDMDL
