MODEL 1
REMARK minimizedAffinity 0.950662673
REMARK minimizedRMSD -1
REMARK  1 active torsions:
REMARK  status: ('A' for Active; 'I' for Inactive)
REMARK    1  A    between atoms: N_2  and  C1_3 
ROOT
ATOM      1  C1  UNL d   1      -4.476  -1.918   3.648  0.00  0.00     0.143 A 
ATOM      2  C2  UNL d   1      -4.995  -3.130   3.181  0.00  0.00    -0.057 A 
ATOM      3  C3  UNL d   1      -5.137  -3.380   1.811  0.00  0.00     0.033 A 
ATOM      4  C4  UNL d   1      -4.788  -2.407   0.881  0.00  0.00    -0.042 A 
ATOM      5  C5  UNL d   1      -4.294  -1.185   1.322  0.00  0.00     0.033 A 
ATOM      6  C6  UNL d   1      -4.148  -0.944   2.692  0.00  0.00    -0.057 A 
ENDROOT
BRANCH   1   7
ATOM      7  N   UNL d   1      -4.402  -1.572   4.999  0.00  0.00    -0.732 N 
ATOM      8  C   UNL d   1      -4.075  -2.567   5.998  0.00  0.00     0.284 C 
ATOM      9  H3  UNL d   1      -3.951  -0.672   5.146  0.00  0.00     0.395 HD
ENDBRANCH   1   7
TORSDOF 1
ENDMDL
