MODEL 1
REMARK minimizedAffinity -1.39354014
REMARK minimizedRMSD -1
REMARK  1 active torsions:
REMARK  status: ('A' for Active; 'I' for Inactive)
REMARK    1  A    between atoms: N_2  and  C1_3 
ROOT
ATOM      1  C1  UNL d   1       5.992  -3.059   4.961  0.00  0.00     0.143 A 
ATOM      2  C2  UNL d   1       5.997  -3.996   6.000  0.00  0.00    -0.057 A 
ATOM      3  C3  UNL d   1       5.999  -5.371   5.737  0.00  0.00     0.033 A 
ATOM      4  C4  UNL d   1       5.967  -5.836   4.427  0.00  0.00    -0.042 A 
ATOM      5  C5  UNL d   1       5.936  -4.923   3.378  0.00  0.00     0.033 A 
ATOM      6  C6  UNL d   1       5.941  -3.550   3.647  0.00  0.00    -0.057 A 
ENDROOT
BRANCH   1   7
ATOM      7  N   UNL d   1       5.890  -1.680   5.158  0.00  0.00    -0.732 N 
ATOM      8  C   UNL d   1       5.608  -0.796   4.047  0.00  0.00     0.284 C 
ATOM      9  H3  UNL d   1       5.391  -1.446   6.013  0.00  0.00     0.395 HD
ENDBRANCH   1   7
TORSDOF 1
ENDMDL
