MODEL 1
REMARK minimizedAffinity 1.19920564
REMARK minimizedRMSD -1
REMARK  1 active torsions:
REMARK  status: ('A' for Active; 'I' for Inactive)
REMARK    1  A    between atoms: N_2  and  C1_3 
ROOT
ATOM      1  C1  UNL d   1       3.924  -5.673   3.135  0.00  0.00     0.143 A 
ATOM      2  C2  UNL d   1       3.836  -5.169   1.833  0.00  0.00    -0.057 A 
ATOM      3  C3  UNL d   1       2.596  -4.955   1.219  0.00  0.00     0.033 A 
ATOM      4  C4  UNL d   1       1.419  -5.270   1.888  0.00  0.00    -0.042 A 
ATOM      5  C5  UNL d   1       1.482  -5.795   3.174  0.00  0.00     0.033 A 
ATOM      6  C6  UNL d   1       2.723  -6.000   3.784  0.00  0.00    -0.057 A 
ENDROOT
BRANCH   1   7
ATOM      7  N   UNL d   1       5.128  -6.000   3.763  0.00  0.00    -0.732 N 
ATOM      8  C   UNL d   1       5.243  -5.956   5.205  0.00  0.00     0.284 C 
ATOM      9  H3  UNL d   1       5.585  -6.801   3.334  0.00  0.00     0.395 HD
ENDBRANCH   1   7
TORSDOF 1
ENDMDL
