MODEL 1
REMARK minimizedAffinity -2.94242311
REMARK minimizedRMSD -1
REMARK  1 active torsions:
REMARK  status: ('A' for Active; 'I' for Inactive)
REMARK    1  A    between atoms: N_2  and  C1_3 
ROOT
ATOM      1  C1  UNL d   1       5.237  -5.333   3.582  0.00  0.00     0.143 A 
ATOM      2  C2  UNL d   1       5.662  -4.309   2.730  0.00  0.00    -0.057 A 
ATOM      3  C3  UNL d   1       4.905  -3.932   1.614  0.00  0.00     0.033 A 
ATOM      4  C4  UNL d   1       3.720  -4.594   1.314  0.00  0.00    -0.042 A 
ATOM      5  C5  UNL d   1       3.290  -5.632   2.133  0.00  0.00     0.033 A 
ATOM      6  C6  UNL d   1       4.047  -6.000   3.250  0.00  0.00    -0.057 A 
ENDROOT
BRANCH   1   7
ATOM      7  N   UNL d   1       5.993  -5.820   4.651  0.00  0.00    -0.732 N 
ATOM      8  C   UNL d   1       5.747  -5.358   6.000  0.00  0.00     0.284 C 
ATOM      9  H3  UNL d   1       6.168  -6.820   4.580  0.00  0.00     0.395 HD
ENDBRANCH   1   7
TORSDOF 1
ENDMDL
