MODEL 1
REMARK minimizedAffinity -2.96532083
REMARK minimizedRMSD -1
REMARK  1 active torsions:
REMARK  status: ('A' for Active; 'I' for Inactive)
REMARK    1  A    between atoms: N_2  and  C1_3 
ROOT
ATOM      1  C1  UNL d   1       3.384  -5.619   2.176  0.00  0.00     0.143 A 
ATOM      2  C2  UNL d   1       3.611  -5.999   3.503  0.00  0.00    -0.057 A 
ATOM      3  C3  UNL d   1       4.901  -5.993   4.049  0.00  0.00     0.033 A 
ATOM      4  C4  UNL d   1       5.993  -5.634   3.266  0.00  0.00    -0.042 A 
ATOM      5  C5  UNL d   1       5.793  -5.276   1.937  0.00  0.00     0.033 A 
ATOM      6  C6  UNL d   1       4.503  -5.277   1.399  0.00  0.00    -0.057 A 
ENDROOT
BRANCH   1   7
ATOM      7  N   UNL d   1       2.139  -5.698   1.546  0.00  0.00    -0.732 N 
ATOM      8  C   UNL d   1       0.940  -5.262   2.228  0.00  0.00     0.284 C 
ATOM      9  H3  UNL d   1       2.182  -5.428   0.566  0.00  0.00     0.395 HD
ENDBRANCH   1   7
TORSDOF 1
ENDMDL
