MODEL 1
REMARK minimizedAffinity -0.318313926
REMARK minimizedRMSD -1
REMARK  1 active torsions:
REMARK  status: ('A' for Active; 'I' for Inactive)
REMARK    1  A    between atoms: N_2  and  C1_3 
ROOT
ATOM      1  C1  UNL d   1      -2.965   3.071   2.352  0.00  0.00     0.143 A 
ATOM      2  C2  UNL d   1      -2.014   4.007   2.774  0.00  0.00    -0.057 A 
ATOM      3  C3  UNL d   1      -0.645   3.789   2.581  0.00  0.00     0.033 A 
ATOM      4  C4  UNL d   1      -0.199   2.613   1.986  0.00  0.00    -0.042 A 
ATOM      5  C5  UNL d   1      -1.124   1.658   1.581  0.00  0.00     0.033 A 
ATOM      6  C6  UNL d   1      -2.491   1.885   1.770  0.00  0.00    -0.057 A 
ENDROOT
BRANCH   1   7
ATOM      7  N   UNL d   1      -4.334   3.185   2.604  0.00  0.00    -0.732 N 
ATOM      8  C   UNL d   1      -5.124   4.200   1.939  0.00  0.00     0.284 C 
ATOM      9  H3  UNL d   1      -4.793   2.280   2.672  0.00  0.00     0.395 HD
ENDBRANCH   1   7
TORSDOF 1
ENDMDL
