MODEL 1
REMARK minimizedAffinity 8.23191261
REMARK minimizedRMSD -1
REMARK  1 active torsions:
REMARK  status: ('A' for Active; 'I' for Inactive)
REMARK    1  A    between atoms: N_2  and  C1_3 
ROOT
ATOM      1  C1  UNL d   1      -5.725   1.908   5.068  0.00  0.00     0.143 A 
ATOM      2  C2  UNL d   1      -5.600   2.054   3.682  0.00  0.00    -0.057 A 
ATOM      3  C3  UNL d   1      -5.699   0.952   2.824  0.00  0.00     0.033 A 
ATOM      4  C4  UNL d   1      -5.897  -0.324   3.341  0.00  0.00    -0.042 A 
ATOM      5  C5  UNL d   1      -6.000  -0.496   4.717  0.00  0.00     0.033 A 
ATOM      6  C6  UNL d   1      -5.906   0.609   5.568  0.00  0.00    -0.057 A 
ENDROOT
BRANCH   1   7
ATOM      7  N   UNL d   1      -5.537   2.950   5.979  0.00  0.00    -0.732 N 
ATOM      8  C   UNL d   1      -4.628   4.035   5.681  0.00  0.00     0.284 C 
ATOM      9  H3  UNL d   1      -6.407   3.245   6.417  0.00  0.00     0.395 HD
ENDBRANCH   1   7
TORSDOF 1
ENDMDL
