MODEL 1
REMARK minimizedAffinity 3.59647298
REMARK minimizedRMSD -1
REMARK  1 active torsions:
REMARK  status: ('A' for Active; 'I' for Inactive)
REMARK    1  A    between atoms: N_2  and  C1_3 
ROOT
ATOM      1  C1  UNL d   1      -1.083   2.083   2.478  0.00  0.00     0.143 A 
ATOM      2  C2  UNL d   1      -2.476   1.960   2.422  0.00  0.00    -0.057 A 
ATOM      3  C3  UNL d   1      -3.096   1.154   1.459  0.00  0.00     0.033 A 
ATOM      4  C4  UNL d   1      -2.332   0.478   0.514  0.00  0.00    -0.042 A 
ATOM      5  C5  UNL d   1      -0.948   0.605   0.535  0.00  0.00     0.033 A 
ATOM      6  C6  UNL d   1      -0.334   1.406   1.503  0.00  0.00    -0.057 A 
ENDROOT
BRANCH   1   7
ATOM      7  N   UNL d   1      -0.413   2.945   3.349  0.00  0.00    -0.732 N 
ATOM      8  C   UNL d   1       0.810   2.530   4.001  0.00  0.00     0.284 C 
ATOM      9  H3  UNL d   1      -0.399   3.905   3.011  0.00  0.00     0.395 HD
ENDBRANCH   1   7
TORSDOF 1
ENDMDL
