MODEL 1
REMARK minimizedAffinity 3.29697156
REMARK minimizedRMSD -1
REMARK  1 active torsions:
REMARK  status: ('A' for Active; 'I' for Inactive)
REMARK    1  A    between atoms: N_2  and  C1_3 
ROOT
ATOM      1  C1  UNL d   1      -0.793  -5.167   1.048  0.00  0.00     0.143 A 
ATOM      2  C2  UNL d   1      -2.090  -5.605   0.758  0.00  0.00    -0.057 A 
ATOM      3  C3  UNL d   1      -3.090  -4.706   0.369  0.00  0.00     0.033 A 
ATOM      4  C4  UNL d   1      -2.818  -3.344   0.291  0.00  0.00    -0.042 A 
ATOM      5  C5  UNL d   1      -1.543  -2.883   0.598  0.00  0.00     0.033 A 
ATOM      6  C6  UNL d   1      -0.546  -3.786   0.980  0.00  0.00    -0.057 A 
ENDROOT
BRANCH   1   7
ATOM      7  N   UNL d   1       0.218  -5.998   1.535  0.00  0.00    -0.732 N 
ATOM      8  C   UNL d   1       0.600  -5.954   2.930  0.00  0.00     0.284 C 
ATOM      9  H3  UNL d   1       0.170  -6.937   1.146  0.00  0.00     0.395 HD
ENDBRANCH   1   7
TORSDOF 1
ENDMDL
