MODEL 1
REMARK minimizedAffinity 4.45478249
REMARK minimizedRMSD -1
REMARK  1 active torsions:
REMARK  status: ('A' for Active; 'I' for Inactive)
REMARK    1  A    between atoms: N_2  and  C1_3 
ROOT
ATOM      1  C1  UNL d   1      -5.908   1.599   5.088  0.00  0.00     0.143 A 
ATOM      2  C2  UNL d   1      -5.994   0.255   5.467  0.00  0.00    -0.057 A 
ATOM      3  C3  UNL d   1      -5.997  -0.769   4.512  0.00  0.00     0.033 A 
ATOM      4  C4  UNL d   1      -5.944  -0.465   3.156  0.00  0.00    -0.042 A 
ATOM      5  C5  UNL d   1      -5.884   0.865   2.756  0.00  0.00     0.033 A 
ATOM      6  C6  UNL d   1      -5.874   1.884   3.714  0.00  0.00    -0.057 A 
ENDROOT
BRANCH   1   7
ATOM      7  N   UNL d   1      -5.999   2.667   5.984  0.00  0.00    -0.732 N 
ATOM      8  C   UNL d   1      -5.020   3.732   5.963  0.00  0.00     0.284 C 
ATOM      9  H3  UNL d   1      -6.956   2.985   6.114  0.00  0.00     0.395 HD
ENDBRANCH   1   7
TORSDOF 1
ENDMDL
