MODEL 1
REMARK minimizedAffinity 2.99755192
REMARK minimizedRMSD -1
REMARK  1 active torsions:
REMARK  status: ('A' for Active; 'I' for Inactive)
REMARK    1  A    between atoms: N_2  and  C1_3 
ROOT
ATOM      1  C1  UNL d   1      -1.506   0.555   0.925  0.00  0.00     0.143 A 
ATOM      2  C2  UNL d   1      -0.375   1.367   0.788  0.00  0.00    -0.057 A 
ATOM      3  C3  UNL d   1       0.844   1.021   1.384  0.00  0.00     0.033 A 
ATOM      4  C4  UNL d   1       0.945  -0.133   2.154  0.00  0.00    -0.042 A 
ATOM      5  C5  UNL d   1      -0.172  -0.942   2.325  0.00  0.00     0.033 A 
ATOM      6  C6  UNL d   1      -1.385  -0.594   1.722  0.00  0.00    -0.057 A 
ENDROOT
BRANCH   1   7
ATOM      7  N   UNL d   1      -2.771   0.895   0.440  0.00  0.00    -0.732 N 
ATOM      8  C   UNL d   1      -3.915   0.933   1.326  0.00  0.00     0.284 C 
ATOM      9  H3  UNL d   1      -2.738   1.661  -0.229  0.00  0.00     0.395 HD
ENDBRANCH   1   7
TORSDOF 1
ENDMDL
