MODEL 1
REMARK minimizedAffinity 8.43237114
REMARK minimizedRMSD -1
REMARK  1 active torsions:
REMARK  status: ('A' for Active; 'I' for Inactive)
REMARK    1  A    between atoms: N_2  and  C1_3 
ROOT
ATOM      1  C1  UNL d   1      -0.811   2.276   2.491  0.00  0.00     0.143 A 
ATOM      2  C2  UNL d   1      -2.198   2.309   2.670  0.00  0.00    -0.057 A 
ATOM      3  C3  UNL d   1      -3.049   1.510   1.898  0.00  0.00     0.033 A 
ATOM      4  C4  UNL d   1      -2.528   0.681   0.909  0.00  0.00    -0.042 A 
ATOM      5  C5  UNL d   1      -1.154   0.651   0.697  0.00  0.00     0.033 A 
ATOM      6  C6  UNL d   1      -0.309   1.447   1.476  0.00  0.00    -0.057 A 
ENDROOT
BRANCH   1   7
ATOM      7  N   UNL d   1       0.080   3.120   3.159  0.00  0.00    -0.732 N 
ATOM      8  C   UNL d   1       1.383   2.641   3.568  0.00  0.00     0.284 C 
ATOM      9  H3  UNL d   1       0.085   4.062   2.775  0.00  0.00     0.395 HD
ENDBRANCH   1   7
TORSDOF 1
ENDMDL
