MODEL 1
REMARK minimizedAffinity 5.43824625
REMARK minimizedRMSD -1
REMARK  1 active torsions:
REMARK  status: ('A' for Active; 'I' for Inactive)
REMARK    1  A    between atoms: N_2  and  C1_3 
ROOT
ATOM      1  C1  UNL d   1       2.194  -1.868  -5.345  0.00  0.00     0.143 A 
ATOM      2  C2  UNL d   1       3.165  -1.103  -6.000  0.00  0.00    -0.057 A 
ATOM      3  C3  UNL d   1       4.126  -0.380  -5.282  0.00  0.00     0.033 A 
ATOM      4  C4  UNL d   1       4.115  -0.387  -3.892  0.00  0.00    -0.042 A 
ATOM      5  C5  UNL d   1       3.144  -1.121  -3.219  0.00  0.00     0.033 A 
ATOM      6  C6  UNL d   1       2.191  -1.846  -3.941  0.00  0.00    -0.057 A 
ENDROOT
BRANCH   1   7
ATOM      7  N   UNL d   1       1.152  -2.529  -6.000  0.00  0.00    -0.732 N 
ATOM      8  C   UNL d   1      -0.186  -1.978  -6.000  0.00  0.00     0.284 C 
ATOM      9  H3  UNL d   1       1.441  -2.919  -6.894  0.00  0.00     0.395 HD
ENDBRANCH   1   7
TORSDOF 1
ENDMDL
