MODEL 1
REMARK minimizedAffinity -2.60745621
REMARK minimizedRMSD -1
REMARK  0 active torsions:
REMARK  status: ('A' for Active; 'I' for Inactive)
ROOT
ATOM      1  C   UNL d   1      -0.953   1.849   1.489  0.00  0.00     0.023 A 
ATOM      2  C1  UNL d   1      -0.797   1.973   0.108  0.00  0.00     0.003 A 
ATOM      3  C2  UNL d   1      -0.248   0.923  -0.631  0.00  0.00     0.048 A 
ATOM      4  C3  UNL d   1       0.142  -0.248   0.017  0.00  0.00     0.023 A 
ATOM      5  C4  UNL d   1      -0.012  -0.377   1.399  0.00  0.00     0.048 A 
ATOM      6  C5  UNL d   1      -0.561   0.676   2.133  0.00  0.00     0.003 A 
ATOM      7  I   UNL d   1       0.960  -1.812  -1.080  0.00  0.00    -0.146 I 
ENDROOT
TORSDOF 0
ENDMDL
