MODEL 1
REMARK minimizedAffinity -2.49111199
REMARK minimizedRMSD -1
REMARK  0 active torsions:
REMARK  status: ('A' for Active; 'I' for Inactive)
ROOT
ATOM      1  C   UNL d   1      -0.703   2.341   1.528  0.00  0.00     0.023 A 
ATOM      2  C1  UNL d   1      -0.152   2.623   0.279  0.00  0.00     0.003 A 
ATOM      3  C2  UNL d   1       0.319   1.586  -0.529  0.00  0.00     0.048 A 
ATOM      4  C3  UNL d   1       0.235   0.268  -0.081  0.00  0.00     0.023 A 
ATOM      5  C4  UNL d   1      -0.317  -0.020   1.169  0.00  0.00     0.048 A 
ATOM      6  C5  UNL d   1      -0.786   1.021   1.973  0.00  0.00     0.003 A 
ATOM      7  I   UNL d   1       0.935  -1.277  -1.281  0.00  0.00    -0.146 I 
ENDROOT
TORSDOF 0
ENDMDL
