MODEL 1
REMARK minimizedAffinity 0.375653684
REMARK minimizedRMSD -1
REMARK  0 active torsions:
REMARK  status: ('A' for Active; 'I' for Inactive)
ROOT
ATOM      1  C   UNL d   1       1.875  -1.113  -0.023  0.00  0.00     0.023 A 
ATOM      2  C1  UNL d   1       1.002  -1.040   1.063  0.00  0.00     0.003 A 
ATOM      3  C2  UNL d   1      -0.147  -0.250   0.985  0.00  0.00     0.048 A 
ATOM      4  C3  UNL d   1      -0.417   0.464  -0.182  0.00  0.00     0.023 A 
ATOM      5  C4  UNL d   1       0.453   0.393  -1.272  0.00  0.00     0.048 A 
ATOM      6  C5  UNL d   1       1.601  -0.398  -1.188  0.00  0.00     0.003 A 
ATOM      7  I   UNL d   1      -2.126   1.640  -0.301  0.00  0.00    -0.146 I 
ENDROOT
TORSDOF 0
ENDMDL
