MODEL 1
REMARK minimizedAffinity -0.61787641
REMARK minimizedRMSD -1
REMARK  0 active torsions:
REMARK  status: ('A' for Active; 'I' for Inactive)
ROOT
ATOM      1  C   UNL d   1      -1.230   1.887   1.622  0.00  0.00     0.023 A 
ATOM      2  C1  UNL d   1      -1.051   0.583   2.083  0.00  0.00     0.003 A 
ATOM      3  C2  UNL d   1      -0.427  -0.367   1.272  0.00  0.00     0.048 A 
ATOM      4  C3  UNL d   1       0.018  -0.005   0.001  0.00  0.00     0.023 A 
ATOM      5  C4  UNL d   1      -0.157   1.299  -0.464  0.00  0.00     0.048 A 
ATOM      6  C5  UNL d   1      -0.783   2.245   0.350  0.00  0.00     0.003 A 
ATOM      7  I   UNL d   1       0.948  -1.416  -1.209  0.00  0.00    -0.146 I 
ENDROOT
TORSDOF 0
ENDMDL
