MODEL 1
REMARK minimizedAffinity -1.29742205
REMARK minimizedRMSD -1
REMARK  0 active torsions:
REMARK  status: ('A' for Active; 'I' for Inactive)
ROOT
ATOM      1  C   UNL d   1      -0.958   1.267   1.519  0.00  0.00     0.023 A 
ATOM      2  C1  UNL d   1      -0.482   1.635   0.261  0.00  0.00     0.003 A 
ATOM      3  C2  UNL d   1       0.059   0.671  -0.592  0.00  0.00     0.048 A 
ATOM      4  C3  UNL d   1       0.120  -0.660  -0.181  0.00  0.00     0.023 A 
ATOM      5  C4  UNL d   1      -0.357  -1.033   1.077  0.00  0.00     0.048 A 
ATOM      6  C5  UNL d   1      -0.896  -0.066   1.927  0.00  0.00     0.003 A 
ATOM      7  I   UNL d   1       0.924  -2.097  -1.448  0.00  0.00    -0.146 I 
ENDROOT
TORSDOF 0
ENDMDL
