MODEL 1
REMARK minimizedAffinity 3.57711101
REMARK minimizedRMSD -1
REMARK  0 active torsions:
REMARK  status: ('A' for Active; 'I' for Inactive)
ROOT
ATOM      1  C   UNL d   1       0.300   2.224  -1.721  0.00  0.00     0.023 A 
ATOM      2  C1  UNL d   1      -0.667   2.081  -0.726  0.00  0.00     0.003 A 
ATOM      3  C2  UNL d   1      -0.550   1.063   0.222  0.00  0.00     0.048 A 
ATOM      4  C3  UNL d   1       0.537   0.191   0.170  0.00  0.00     0.023 A 
ATOM      5  C4  UNL d   1       1.508   0.331  -0.823  0.00  0.00     0.048 A 
ATOM      6  C5  UNL d   1       1.386   1.351  -1.769  0.00  0.00     0.003 A 
ATOM      7  I   UNL d   1       0.714  -1.325   1.580  0.00  0.00    -0.146 I 
ENDROOT
TORSDOF 0
ENDMDL
