MODEL 1
REMARK minimizedAffinity -0.691096544
REMARK minimizedRMSD -1
REMARK  0 active torsions:
REMARK  status: ('A' for Active; 'I' for Inactive)
ROOT
ATOM      1  C   UNL d   1      -0.239   1.134   0.145  0.00  0.00     0.023 A 
ATOM      2  C1  UNL d   1       0.247   1.116  -1.162  0.00  0.00     0.003 A 
ATOM      3  C2  UNL d   1       0.341  -0.092  -1.857  0.00  0.00     0.048 A 
ATOM      4  C3  UNL d   1      -0.054  -1.278  -1.239  0.00  0.00     0.023 A 
ATOM      5  C4  UNL d   1      -0.542  -1.264   0.069  0.00  0.00     0.048 A 
ATOM      6  C5  UNL d   1      -0.633  -0.055   0.760  0.00  0.00     0.003 A 
ATOM      7  I   UNL d   1       0.084  -3.076  -2.271  0.00  0.00    -0.146 I 
ENDROOT
TORSDOF 0
ENDMDL
