MODEL 1
REMARK minimizedAffinity -2.15959525
REMARK minimizedRMSD -1
REMARK  0 active torsions:
REMARK  status: ('A' for Active; 'I' for Inactive)
ROOT
ATOM      1  C   UNL d   1      -1.182   0.995   1.834  0.00  0.00     0.023 A 
ATOM      2  C1  UNL d   1      -1.121   1.475   0.525  0.00  0.00     0.003 A 
ATOM      3  C2  UNL d   1      -0.626   0.660  -0.495  0.00  0.00     0.048 A 
ATOM      4  C3  UNL d   1      -0.195  -0.633  -0.201  0.00  0.00     0.023 A 
ATOM      5  C4  UNL d   1      -0.256  -1.117   1.107  0.00  0.00     0.048 A 
ATOM      6  C5  UNL d   1      -0.751  -0.299   2.124  0.00  0.00     0.003 A 
ATOM      7  I   UNL d   1       0.542  -1.847  -1.718  0.00  0.00    -0.146 I 
ENDROOT
TORSDOF 0
ENDMDL
