MODEL 1
REMARK minimizedAffinity -1.81255901
REMARK minimizedRMSD -1
REMARK  0 active torsions:
REMARK  status: ('A' for Active; 'I' for Inactive)
ROOT
ATOM      1  C   UNL d   1      -0.864   1.103   1.541  0.00  0.00     0.023 A 
ATOM      2  C1  UNL d   1      -0.581   1.344   0.197  0.00  0.00     0.003 A 
ATOM      3  C2  UNL d   1      -0.149   0.300  -0.625  0.00  0.00     0.048 A 
ATOM      4  C3  UNL d   1      -0.003  -0.982  -0.095  0.00  0.00     0.023 A 
ATOM      5  C4  UNL d   1      -0.287  -1.227   1.249  0.00  0.00     0.048 A 
ATOM      6  C5  UNL d   1      -0.717  -0.181   2.067  0.00  0.00     0.003 A 
ATOM      7  I   UNL d   1       0.639  -2.536  -1.316  0.00  0.00    -0.146 I 
ENDROOT
TORSDOF 0
ENDMDL
