MODEL 1
REMARK minimizedAffinity 0.0264345855
REMARK minimizedRMSD -1
REMARK  0 active torsions:
REMARK  status: ('A' for Active; 'I' for Inactive)
ROOT
ATOM      1  C   UNL d   1      -0.705  -0.480   2.428  0.00  0.00     0.023 A 
ATOM      2  C1  UNL d   1       0.087  -1.126   1.478  0.00  0.00     0.003 A 
ATOM      3  C2  UNL d   1       0.426  -0.475   0.290  0.00  0.00     0.048 A 
ATOM      4  C3  UNL d   1      -0.029   0.822   0.059  0.00  0.00     0.023 A 
ATOM      5  C4  UNL d   1      -0.821   1.473   1.006  0.00  0.00     0.048 A 
ATOM      6  C5  UNL d   1      -1.159   0.818   2.192  0.00  0.00     0.003 A 
ATOM      7  I   UNL d   1       0.474   1.793  -1.708  0.00  0.00    -0.146 I 
ENDROOT
TORSDOF 0
ENDMDL
