MODEL 1
REMARK minimizedAffinity -0.743093073
REMARK minimizedRMSD -1
REMARK  0 active torsions:
REMARK  status: ('A' for Active; 'I' for Inactive)
ROOT
ATOM      1  C   UNL d   1       0.529  -3.415  -2.889  0.00  0.00     0.023 A 
ATOM      2  C1  UNL d   1      -0.071  -2.178  -3.122  0.00  0.00     0.003 A 
ATOM      3  C2  UNL d   1      -0.106  -1.216  -2.111  0.00  0.00     0.048 A 
ATOM      4  C3  UNL d   1       0.462  -1.498  -0.869  0.00  0.00     0.023 A 
ATOM      5  C4  UNL d   1       1.064  -2.735  -0.631  0.00  0.00     0.048 A 
ATOM      6  C5  UNL d   1       1.095  -3.693  -1.646  0.00  0.00     0.003 A 
ATOM      7  I   UNL d   1       0.411  -0.068   0.639  0.00  0.00    -0.146 I 
ENDROOT
TORSDOF 0
ENDMDL
