MODEL 1
REMARK minimizedAffinity -4.01135492
REMARK minimizedRMSD -1
REMARK  0 active torsions:
REMARK  status: ('A' for Active; 'I' for Inactive)
ROOT
ATOM      1  C   UNL d   1      -0.786   2.361   1.081  0.00  0.00     0.023 A 
ATOM      2  C1  UNL d   1      -0.038   2.466  -0.091  0.00  0.00     0.003 A 
ATOM      3  C2  UNL d   1       0.492   1.321  -0.689  0.00  0.00     0.048 A 
ATOM      4  C3  UNL d   1       0.269   0.072  -0.109  0.00  0.00     0.023 A 
ATOM      5  C4  UNL d   1      -0.480  -0.038   1.064  0.00  0.00     0.048 A 
ATOM      6  C5  UNL d   1      -1.007   1.110   1.658  0.00  0.00     0.003 A 
ATOM      7  I   UNL d   1       1.056  -1.634  -0.996  0.00  0.00    -0.146 I 
ENDROOT
TORSDOF 0
ENDMDL
