MODEL 1
REMARK minimizedAffinity -4.60705853
REMARK minimizedRMSD -1
REMARK  0 active torsions:
REMARK  status: ('A' for Active; 'I' for Inactive)
ROOT
ATOM      1  C   UNL d   1      -1.944   3.692   1.160  0.00  0.00     0.023 A 
ATOM      2  C1  UNL d   1      -1.084   3.781   0.065  0.00  0.00     0.003 A 
ATOM      3  C2  UNL d   1      -0.345   2.666  -0.336  0.00  0.00     0.048 A 
ATOM      4  C3  UNL d   1      -0.471   1.465   0.362  0.00  0.00     0.023 A 
ATOM      5  C4  UNL d   1      -1.331   1.372   1.457  0.00  0.00     0.048 A 
ATOM      6  C5  UNL d   1      -2.067   2.489   1.855  0.00  0.00     0.003 A 
ATOM      7  I   UNL d   1       0.627  -0.195  -0.233  0.00  0.00    -0.146 I 
ENDROOT
TORSDOF 0
ENDMDL
