MODEL 1
REMARK minimizedAffinity -2.53986526
REMARK minimizedRMSD -1
REMARK  0 active torsions:
REMARK  status: ('A' for Active; 'I' for Inactive)
ROOT
ATOM      1  C   UNL d   1      -0.696   1.426   1.183  0.00  0.00     0.023 A 
ATOM      2  C1  UNL d   1      -0.177   1.475  -0.111  0.00  0.00     0.003 A 
ATOM      3  C2  UNL d   1       0.361   0.325  -0.692  0.00  0.00     0.048 A 
ATOM      4  C3  UNL d   1       0.376  -0.871   0.026  0.00  0.00     0.023 A 
ATOM      5  C4  UNL d   1      -0.142  -0.924   1.321  0.00  0.00     0.048 A 
ATOM      6  C5  UNL d   1      -0.679   0.229   1.898  0.00  0.00     0.003 A 
ATOM      7  I   UNL d   1       1.177  -2.584  -0.837  0.00  0.00    -0.146 I 
ENDROOT
TORSDOF 0
ENDMDL
