MODEL 1
REMARK minimizedAffinity -3.49242759
REMARK minimizedRMSD -1
REMARK  0 active torsions:
REMARK  status: ('A' for Active; 'I' for Inactive)
ROOT
ATOM      1  C   UNL d   1      -1.288   2.254   1.352  0.00  0.00     0.023 A 
ATOM      2  C1  UNL d   1      -1.389   1.005   1.964  0.00  0.00     0.003 A 
ATOM      3  C2  UNL d   1      -0.830  -0.120   1.355  0.00  0.00     0.048 A 
ATOM      4  C3  UNL d   1      -0.170   0.012   0.134  0.00  0.00     0.023 A 
ATOM      5  C4  UNL d   1      -0.065   1.260  -0.482  0.00  0.00     0.048 A 
ATOM      6  C5  UNL d   1      -0.626   2.382   0.130  0.00  0.00     0.003 A 
ATOM      7  I   UNL d   1       0.664  -1.661  -0.775  0.00  0.00    -0.146 I 
ENDROOT
TORSDOF 0
ENDMDL
