MODEL 1
REMARK minimizedAffinity -0.966175318
REMARK minimizedRMSD -1
REMARK  0 active torsions:
REMARK  status: ('A' for Active; 'I' for Inactive)
ROOT
ATOM      1  C   UNL d   1       1.606   2.516  -0.511  0.00  0.00     0.077 C 
ATOM      2  C1  UNL d   1       0.577   1.436  -0.349  0.00  0.00    -0.074 A 
ATOM      3  C2  UNL d   1       0.361   0.829   0.892  0.00  0.00    -0.005 A 
ATOM      4  C3  UNL d   1      -0.606  -0.167   1.030  0.00  0.00     0.006 A 
ATOM      5  C4  UNL d   1      -1.365  -0.565  -0.071  0.00  0.00    -0.005 A 
ATOM      6  C5  UNL d   1      -1.164   0.031  -1.320  0.00  0.00    -0.074 A 
ATOM      7  C6  UNL d   1      -1.979  -0.378  -2.511  0.00  0.00     0.077 C 
ATOM      8  C7  UNL d   1      -0.196   1.036  -1.448  0.00  0.00    -0.001 A 
ENDROOT
TORSDOF 0
ENDMDL
