MODEL 1
REMARK minimizedAffinity 6.24635839
REMARK minimizedRMSD -1
REMARK  0 active torsions:
REMARK  status: ('A' for Active; 'I' for Inactive)
ROOT
ATOM      1  C   UNL d   1      -5.409   3.052  -2.186  0.00  0.00     0.077 C 
ATOM      2  C1  UNL d   1      -4.951   2.791  -0.781  0.00  0.00    -0.074 A 
ATOM      3  C2  UNL d   1      -5.730   3.182   0.313  0.00  0.00    -0.005 A 
ATOM      4  C3  UNL d   1      -5.295   2.924   1.613  0.00  0.00     0.006 A 
ATOM      5  C4  UNL d   1      -4.080   2.274   1.832  0.00  0.00    -0.005 A 
ATOM      6  C5  UNL d   1      -3.289   1.875   0.750  0.00  0.00    -0.074 A 
ATOM      7  C6  UNL d   1      -1.985   1.166   0.967  0.00  0.00     0.077 C 
ATOM      8  C7  UNL d   1      -3.735   2.132  -0.554  0.00  0.00    -0.001 A 
ENDROOT
TORSDOF 0
ENDMDL
