MODEL 1
REMARK minimizedAffinity -1.1850518
REMARK minimizedRMSD -1
REMARK  0 active torsions:
REMARK  status: ('A' for Active; 'I' for Inactive)
ROOT
ATOM      1  C   UNL d   1       2.031   2.848  -0.665  0.00  0.00     0.077 C 
ATOM      2  C1  UNL d   1       1.164   1.682  -0.295  0.00  0.00    -0.074 A 
ATOM      3  C2  UNL d   1       1.453   0.898   0.827  0.00  0.00    -0.005 A 
ATOM      4  C3  UNL d   1       0.632  -0.177   1.164  0.00  0.00     0.006 A 
ATOM      5  C4  UNL d   1      -0.485  -0.480   0.385  0.00  0.00    -0.005 A 
ATOM      6  C5  UNL d   1      -0.791   0.292  -0.740  0.00  0.00    -0.074 A 
ATOM      7  C6  UNL d   1      -1.993  -0.013  -1.583  0.00  0.00     0.077 C 
ATOM      8  C7  UNL d   1       0.035   1.376  -1.069  0.00  0.00    -0.001 A 
ENDROOT
TORSDOF 0
ENDMDL
