MODEL 1
REMARK minimizedAffinity -5.66391659
REMARK minimizedRMSD -1
REMARK  0 active torsions:
REMARK  status: ('A' for Active; 'I' for Inactive)
ROOT
ATOM      1  C   UNL d   1       3.101  -1.446   1.740  0.00  0.00     0.077 C 
ATOM      2  C1  UNL d   1       1.655  -1.382   1.348  0.00  0.00    -0.074 A 
ATOM      3  C2  UNL d   1       0.721  -2.266   1.897  0.00  0.00    -0.005 A 
ATOM      4  C3  UNL d   1      -0.622  -2.188   1.530  0.00  0.00     0.006 A 
ATOM      5  C4  UNL d   1      -1.045  -1.225   0.612  0.00  0.00    -0.005 A 
ATOM      6  C5  UNL d   1      -0.125  -0.332   0.054  0.00  0.00    -0.074 A 
ATOM      7  C6  UNL d   1      -0.564   0.715  -0.927  0.00  0.00     0.077 C 
ATOM      8  C7  UNL d   1       1.222  -0.412   0.433  0.00  0.00    -0.001 A 
ENDROOT
TORSDOF 0
ENDMDL
