MODEL 1
REMARK minimizedAffinity -2.26759338
REMARK minimizedRMSD -1
REMARK  0 active torsions:
REMARK  status: ('A' for Active; 'I' for Inactive)
ROOT
ATOM      1  C   UNL d   1      -2.531   0.359  -0.846  0.00  0.00     0.077 C 
ATOM      2  C1  UNL d   1      -1.350  -0.173  -0.090  0.00  0.00    -0.074 A 
ATOM      3  C2  UNL d   1      -1.389  -1.436   0.509  0.00  0.00    -0.005 A 
ATOM      4  C3  UNL d   1      -0.279  -1.921   1.201  0.00  0.00     0.006 A 
ATOM      5  C4  UNL d   1       0.879  -1.149   1.301  0.00  0.00    -0.005 A 
ATOM      6  C5  UNL d   1       0.937   0.116   0.707  0.00  0.00    -0.074 A 
ATOM      7  C6  UNL d   1       2.177   0.955   0.797  0.00  0.00     0.077 C 
ATOM      8  C7  UNL d   1      -0.180   0.594   0.008  0.00  0.00    -0.001 A 
ENDROOT
TORSDOF 0
ENDMDL
