MODEL 1
REMARK minimizedAffinity -4.12638378
REMARK minimizedRMSD -1
REMARK  0 active torsions:
REMARK  status: ('A' for Active; 'I' for Inactive)
ROOT
ATOM      1  C   UNL d   1       0.743  -3.235   2.239  0.00  0.00     0.077 C 
ATOM      2  C1  UNL d   1       1.262  -1.902   1.787  0.00  0.00    -0.074 A 
ATOM      3  C2  UNL d   1       2.511  -1.436   2.210  0.00  0.00    -0.005 A 
ATOM      4  C3  UNL d   1       2.985  -0.199   1.773  0.00  0.00     0.006 A 
ATOM      5  C4  UNL d   1       2.216   0.584   0.911  0.00  0.00    -0.005 A 
ATOM      6  C5  UNL d   1       0.965   0.134   0.477  0.00  0.00    -0.074 A 
ATOM      7  C6  UNL d   1       0.130   0.958  -0.457  0.00  0.00     0.077 C 
ATOM      8  C7  UNL d   1       0.499  -1.114   0.914  0.00  0.00    -0.001 A 
ENDROOT
TORSDOF 0
ENDMDL
