MODEL 1
REMARK minimizedAffinity -4.21014881
REMARK minimizedRMSD -1
REMARK  0 active torsions:
REMARK  status: ('A' for Active; 'I' for Inactive)
ROOT
ATOM      1  C   UNL d   1      -0.690  -0.005  -0.957  0.00  0.00     0.077 C 
ATOM      2  C1  UNL d   1       0.565  -0.218  -0.164  0.00  0.00    -0.074 A 
ATOM      3  C2  UNL d   1       1.454   0.836   0.073  0.00  0.00    -0.005 A 
ATOM      4  C3  UNL d   1       2.612   0.625   0.820  0.00  0.00     0.006 A 
ATOM      5  C4  UNL d   1       2.894  -0.640   1.338  0.00  0.00    -0.005 A 
ATOM      6  C5  UNL d   1       2.017  -1.706   1.112  0.00  0.00    -0.074 A 
ATOM      7  C6  UNL d   1       2.299  -3.069   1.669  0.00  0.00     0.077 C 
ATOM      8  C7  UNL d   1       0.851  -1.484   0.366  0.00  0.00    -0.001 A 
ENDROOT
TORSDOF 0
ENDMDL
