MODEL 1
REMARK minimizedAffinity -2.81559968
REMARK minimizedRMSD -1
REMARK  0 active torsions:
REMARK  status: ('A' for Active; 'I' for Inactive)
ROOT
ATOM      1  C   UNL d   1       2.927   0.666   1.099  0.00  0.00     0.077 C 
ATOM      2  C1  UNL d   1       1.660  -0.133   1.042  0.00  0.00    -0.074 A 
ATOM      3  C2  UNL d   1       1.494  -1.276   1.832  0.00  0.00    -0.005 A 
ATOM      4  C3  UNL d   1       0.306  -2.004   1.775  0.00  0.00     0.006 A 
ATOM      5  C4  UNL d   1      -0.727  -1.598   0.929  0.00  0.00    -0.005 A 
ATOM      6  C5  UNL d   1      -0.580  -0.458   0.132  0.00  0.00    -0.074 A 
ATOM      7  C6  UNL d   1      -1.684  -0.002  -0.775  0.00  0.00     0.077 C 
ATOM      8  C7  UNL d   1       0.615   0.273   0.201  0.00  0.00    -0.001 A 
ENDROOT
TORSDOF 0
ENDMDL
