MODEL 1
REMARK minimizedAffinity -5.17879009
REMARK minimizedRMSD -1
REMARK  0 active torsions:
REMARK  status: ('A' for Active; 'I' for Inactive)
ROOT
ATOM      1  C   UNL d   1       3.162  -1.293   1.175  0.00  0.00     0.077 C 
ATOM      2  C1  UNL d   1       2.063  -0.352   0.780  0.00  0.00    -0.074 A 
ATOM      3  C2  UNL d   1       2.346   0.962   0.393  0.00  0.00    -0.005 A 
ATOM      4  C3  UNL d   1       1.314   1.823   0.019  0.00  0.00     0.006 A 
ATOM      5  C4  UNL d   1      -0.009   1.379   0.028  0.00  0.00    -0.005 A 
ATOM      6  C5  UNL d   1      -0.311   0.069   0.412  0.00  0.00    -0.074 A 
ATOM      7  C6  UNL d   1      -1.727  -0.427   0.418  0.00  0.00     0.077 C 
ATOM      8  C7  UNL d   1       0.732  -0.792   0.779  0.00  0.00    -0.001 A 
ENDROOT
TORSDOF 0
ENDMDL
