MODEL 1
REMARK minimizedAffinity -3.47272491
REMARK minimizedRMSD -1
REMARK  0 active torsions:
REMARK  status: ('A' for Active; 'I' for Inactive)
ROOT
ATOM      1  C   UNL d   1      -3.838   2.331  -3.388  0.00  0.00     0.077 C 
ATOM      2  C1  UNL d   1      -3.336   1.104  -2.685  0.00  0.00    -0.074 A 
ATOM      3  C2  UNL d   1      -3.902  -0.150  -2.936  0.00  0.00    -0.005 A 
ATOM      4  C3  UNL d   1      -3.418  -1.283  -2.282  0.00  0.00     0.006 A 
ATOM      5  C4  UNL d   1      -2.366  -1.174  -1.372  0.00  0.00    -0.005 A 
ATOM      6  C5  UNL d   1      -1.787   0.072  -1.109  0.00  0.00    -0.074 A 
ATOM      7  C6  UNL d   1      -0.649   0.206  -0.142  0.00  0.00     0.077 C 
ATOM      8  C7  UNL d   1      -2.274   1.205  -1.776  0.00  0.00    -0.001 A 
ENDROOT
TORSDOF 0
ENDMDL
