MODEL 1
REMARK minimizedAffinity -2.1424818
REMARK minimizedRMSD -1
REMARK  0 active torsions:
REMARK  status: ('A' for Active; 'I' for Inactive)
ROOT
ATOM      1  C   UNL d   1      -1.039  -0.614   2.190  0.00  0.00     0.124 A 
ATOM      2  C1  UNL d   1       0.242  -0.207   2.538  0.00  0.00     0.062 A 
ATOM      3  C2  UNL d   1       0.974   0.609   1.680  0.00  0.00     0.162 A 
ATOM      4  C3  UNL d   1       0.427   1.025   0.466  0.00  0.00    -0.034 A 
ATOM      5  C4  UNL d   1      -0.861   0.611   0.123  0.00  0.00     0.162 A 
ATOM      6  C5  UNL d   1      -1.589  -0.205   0.983  0.00  0.00     0.062 A 
ATOM      7  F   UNL d   1      -2.826  -0.597   0.645  0.00  0.00    -0.097 F 
ATOM      8  F1  UNL d   1      -1.417   0.992  -1.037  0.00  0.00    -0.096 F 
ATOM      9  I   UNL d   1       1.519   2.245  -0.818  0.00  0.00    -0.060 I 
ATOM     10  F2  UNL d   1       2.209   0.987   2.042  0.00  0.00    -0.096 F 
ATOM     11  F3  UNL d   1       0.776  -0.601   3.703  0.00  0.00    -0.097 F 
ATOM     12  F4  UNL d   1      -1.741  -1.399   3.016  0.00  0.00    -0.092 F 
ENDROOT
TORSDOF 0
ENDMDL
