MODEL 1
REMARK minimizedAffinity 0.377958208
REMARK minimizedRMSD -1
REMARK  0 active torsions:
REMARK  status: ('A' for Active; 'I' for Inactive)
ROOT
ATOM      1  C   UNL d   1      -1.455  -0.278   2.458  0.00  0.00     0.124 A 
ATOM      2  C1  UNL d   1      -0.520  -1.279   2.238  0.00  0.00     0.062 A 
ATOM      3  C2  UNL d   1       0.011  -1.473   0.966  0.00  0.00     0.162 A 
ATOM      4  C3  UNL d   1      -0.391  -0.663  -0.096  0.00  0.00    -0.034 A 
ATOM      5  C4  UNL d   1      -1.333   0.341   0.133  0.00  0.00     0.162 A 
ATOM      6  C5  UNL d   1      -1.861   0.531   1.406  0.00  0.00     0.062 A 
ATOM      7  F   UNL d   1      -2.764   1.499   1.617  0.00  0.00    -0.097 F 
ATOM      8  F1  UNL d   1      -1.741   1.138  -0.865  0.00  0.00    -0.096 F 
ATOM      9  I   UNL d   1       0.401  -0.950  -1.999  0.00  0.00    -0.060 I 
ATOM     10  F2  UNL d   1       0.914  -2.449   0.782  0.00  0.00    -0.096 F 
ATOM     11  F3  UNL d   1      -0.127  -2.063   3.252  0.00  0.00    -0.097 F 
ATOM     12  F4  UNL d   1      -1.966  -0.094   3.682  0.00  0.00    -0.092 F 
ENDROOT
TORSDOF 0
ENDMDL
