MODEL 1
REMARK minimizedAffinity -2.62005115
REMARK minimizedRMSD -1
REMARK  0 active torsions:
REMARK  status: ('A' for Active; 'I' for Inactive)
ROOT
ATOM      1  C   UNL d   1      -0.440  -0.337   2.222  0.00  0.00     0.124 A 
ATOM      2  C1  UNL d   1       0.655   0.506   2.344  0.00  0.00     0.062 A 
ATOM      3  C2  UNL d   1       1.225   1.081   1.211  0.00  0.00     0.162 A 
ATOM      4  C3  UNL d   1       0.699   0.816  -0.053  0.00  0.00    -0.034 A 
ATOM      5  C4  UNL d   1      -0.402  -0.034  -0.167  0.00  0.00     0.162 A 
ATOM      6  C5  UNL d   1      -0.968  -0.607   0.967  0.00  0.00     0.062 A 
ATOM      7  F   UNL d   1      -2.026  -1.421   0.848  0.00  0.00    -0.097 F 
ATOM      8  F1  UNL d   1      -0.933  -0.311  -1.368  0.00  0.00    -0.096 F 
ATOM      9  I   UNL d   1       1.548   1.674  -1.749  0.00  0.00    -0.060 I 
ATOM     10  F2  UNL d   1       2.283   1.893   1.358  0.00  0.00    -0.096 F 
ATOM     11  F3  UNL d   1       1.168   0.767   3.555  0.00  0.00    -0.097 F 
ATOM     12  F4  UNL d   1      -0.986  -0.890   3.313  0.00  0.00    -0.092 F 
ENDROOT
TORSDOF 0
ENDMDL
