MODEL 1
REMARK minimizedAffinity 13.4630928
REMARK minimizedRMSD -1
REMARK  0 active torsions:
REMARK  status: ('A' for Active; 'I' for Inactive)
ROOT
ATOM      1  C   UNL d   1      -2.622  -1.790   0.645  0.00  0.00     0.124 A 
ATOM      2  C1  UNL d   1      -1.965  -2.980   0.364  0.00  0.00     0.062 A 
ATOM      3  C2  UNL d   1      -2.665  -4.182   0.362  0.00  0.00     0.162 A 
ATOM      4  C3  UNL d   1      -4.032  -4.202   0.641  0.00  0.00    -0.034 A 
ATOM      5  C4  UNL d   1      -4.686  -3.001   0.923  0.00  0.00     0.162 A 
ATOM      6  C5  UNL d   1      -3.981  -1.801   0.924  0.00  0.00     0.062 A 
ATOM      7  F   UNL d   1      -4.618  -0.653   1.196  0.00  0.00    -0.097 F 
ATOM      8  F1  UNL d   1      -5.999  -2.983   1.196  0.00  0.00    -0.096 F 
ATOM      9  I   UNL d   1      -5.083  -5.998   0.638  0.00  0.00    -0.060 I 
ATOM     10  F2  UNL d   1      -2.005  -5.317   0.087  0.00  0.00    -0.096 F 
ATOM     11  F3  UNL d   1      -0.651  -2.971   0.095  0.00  0.00    -0.097 F 
ATOM     12  F4  UNL d   1      -1.945  -0.634   0.648  0.00  0.00    -0.092 F 
ENDROOT
TORSDOF 0
ENDMDL
