MODEL 1
REMARK minimizedAffinity 4.14574862
REMARK minimizedRMSD -1
REMARK  0 active torsions:
REMARK  status: ('A' for Active; 'I' for Inactive)
ROOT
ATOM      1  C   UNL d   1      -2.489   3.443   4.560  0.00  0.00     0.124 A 
ATOM      2  C1  UNL d   1      -3.557   2.850   3.902  0.00  0.00     0.062 A 
ATOM      3  C2  UNL d   1      -3.332   2.021   2.807  0.00  0.00     0.162 A 
ATOM      4  C3  UNL d   1      -2.031   1.779   2.363  0.00  0.00    -0.034 A 
ATOM      5  C4  UNL d   1      -0.962   2.379   3.030  0.00  0.00     0.162 A 
ATOM      6  C5  UNL d   1      -1.193   3.207   4.124  0.00  0.00     0.062 A 
ATOM      7  F   UNL d   1      -0.159   3.779   4.759  0.00  0.00    -0.097 F 
ATOM      8  F1  UNL d   1       0.301   2.168   2.631  0.00  0.00    -0.096 F 
ATOM      9  I   UNL d   1      -1.690   0.540   0.726  0.00  0.00    -0.060 I 
ATOM     10  F2  UNL d   1      -4.383   1.461   2.190  0.00  0.00    -0.096 F 
ATOM     11  F3  UNL d   1      -4.811   3.077   4.321  0.00  0.00    -0.097 F 
ATOM     12  F4  UNL d   1      -2.709   4.241   5.613  0.00  0.00    -0.092 F 
ENDROOT
TORSDOF 0
ENDMDL
