MODEL 1
REMARK minimizedAffinity 9.97110367
REMARK minimizedRMSD -1
REMARK  0 active torsions:
REMARK  status: ('A' for Active; 'I' for Inactive)
ROOT
ATOM      1  C   UNL d   1      -2.169   1.122   1.804  0.00  0.00     0.124 A 
ATOM      2  C1  UNL d   1      -1.372   0.334   0.986  0.00  0.00     0.062 A 
ATOM      3  C2  UNL d   1       0.011   0.487   0.998  0.00  0.00     0.162 A 
ATOM      4  C3  UNL d   1       0.607   1.433   1.832  0.00  0.00    -0.034 A 
ATOM      5  C4  UNL d   1      -0.201   2.223   2.652  0.00  0.00     0.162 A 
ATOM      6  C5  UNL d   1      -1.583   2.066   2.636  0.00  0.00     0.062 A 
ATOM      7  F   UNL d   1      -2.351   2.828   3.428  0.00  0.00    -0.097 F 
ATOM      8  F1  UNL d   1       0.339   3.141   3.467  0.00  0.00    -0.096 F 
ATOM      9  I   UNL d   1       2.675   1.665   1.853  0.00  0.00    -0.060 I 
ATOM     10  F2  UNL d   1       0.757  -0.288   0.196  0.00  0.00    -0.096 F 
ATOM     11  F3  UNL d   1      -1.936  -0.577   0.180  0.00  0.00    -0.097 F 
ATOM     12  F4  UNL d   1      -3.500   0.973   1.790  0.00  0.00    -0.092 F 
ENDROOT
TORSDOF 0
ENDMDL
