MODEL 1
REMARK minimizedAffinity 7.4703021
REMARK minimizedRMSD -1
REMARK  0 active torsions:
REMARK  status: ('A' for Active; 'I' for Inactive)
ROOT
ATOM      1  C   UNL d   1      -2.385  -2.713   2.612  0.00  0.00     0.124 A 
ATOM      2  C1  UNL d   1      -2.632  -3.911   3.269  0.00  0.00     0.062 A 
ATOM      3  C2  UNL d   1      -3.494  -4.851   2.712  0.00  0.00     0.162 A 
ATOM      4  C3  UNL d   1      -4.116  -4.597   1.489  0.00  0.00    -0.034 A 
ATOM      5  C4  UNL d   1      -3.864  -3.390   0.835  0.00  0.00     0.162 A 
ATOM      6  C5  UNL d   1      -3.001  -2.454   1.396  0.00  0.00     0.062 A 
ATOM      7  F   UNL d   1      -2.765  -1.298   0.760  0.00  0.00    -0.097 F 
ATOM      8  F1  UNL d   1      -4.445  -3.114  -0.342  0.00  0.00    -0.096 F 
ATOM      9  I   UNL d   1      -5.406  -6.000   0.652  0.00  0.00    -0.060 I 
ATOM     10  F2  UNL d   1      -3.714  -5.999   3.369  0.00  0.00    -0.096 F 
ATOM     11  F3  UNL d   1      -2.039  -4.163   4.445  0.00  0.00    -0.097 F 
ATOM     12  F4  UNL d   1      -1.556  -1.811   3.151  0.00  0.00    -0.092 F 
ENDROOT
TORSDOF 0
ENDMDL
