MODEL 1
REMARK minimizedAffinity -1.75075579
REMARK minimizedRMSD -1
REMARK  0 active torsions:
REMARK  status: ('A' for Active; 'I' for Inactive)
ROOT
ATOM      1  C   UNL d   1       0.431   0.762   2.191  0.00  0.00     0.124 A 
ATOM      2  C1  UNL d   1      -0.269  -0.416   1.968  0.00  0.00     0.062 A 
ATOM      3  C2  UNL d   1      -0.408  -0.913   0.675  0.00  0.00     0.162 A 
ATOM      4  C3  UNL d   1       0.154  -0.233  -0.405  0.00  0.00    -0.034 A 
ATOM      5  C4  UNL d   1       0.856   0.951  -0.173  0.00  0.00     0.162 A 
ATOM      6  C5  UNL d   1       0.993   1.444   1.120  0.00  0.00     0.062 A 
ATOM      7  F   UNL d   1       1.669   2.582   1.334  0.00  0.00    -0.097 F 
ATOM      8  F1  UNL d   1       1.409   1.631  -1.189  0.00  0.00    -0.096 F 
ATOM      9  I   UNL d   1      -0.052  -0.973  -2.339  0.00  0.00    -0.060 I 
ATOM     10  F2  UNL d   1      -1.090  -2.053   0.489  0.00  0.00    -0.096 F 
ATOM     11  F3  UNL d   1      -0.813  -1.076   3.000  0.00  0.00    -0.097 F 
ATOM     12  F4  UNL d   1       0.563   1.239   3.435  0.00  0.00    -0.092 F 
ENDROOT
TORSDOF 0
ENDMDL
