MODEL 1
REMARK minimizedAffinity -3.09154868
REMARK minimizedRMSD -1
REMARK  0 active torsions:
REMARK  status: ('A' for Active; 'I' for Inactive)
ROOT
ATOM      1  C   UNL d   1       1.156  -0.703  -2.205  0.00  0.00     0.124 A 
ATOM      2  C1  UNL d   1       1.923  -1.219  -1.170  0.00  0.00     0.062 A 
ATOM      3  C2  UNL d   1       1.562  -0.984   0.154  0.00  0.00     0.162 A 
ATOM      4  C3  UNL d   1       0.426  -0.229   0.450  0.00  0.00    -0.034 A 
ATOM      5  C4  UNL d   1      -0.339   0.287  -0.596  0.00  0.00     0.162 A 
ATOM      6  C5  UNL d   1       0.026   0.050  -1.917  0.00  0.00     0.062 A 
ATOM      7  F   UNL d   1      -0.716   0.550  -2.916  0.00  0.00    -0.097 F 
ATOM      8  F1  UNL d   1      -1.437   1.017  -0.347  0.00  0.00    -0.096 F 
ATOM      9  I   UNL d   1      -0.117   0.124   2.428  0.00  0.00    -0.060 I 
ATOM     10  F2  UNL d   1       2.321  -1.495   1.134  0.00  0.00    -0.096 F 
ATOM     11  F3  UNL d   1       3.016  -1.946  -1.445  0.00  0.00    -0.097 F 
ATOM     12  F4  UNL d   1       1.506  -0.930  -3.477  0.00  0.00    -0.092 F 
ENDROOT
TORSDOF 0
ENDMDL
