MODEL 1
REMARK minimizedAffinity -3.90592694
REMARK minimizedRMSD -1
REMARK  0 active torsions:
REMARK  status: ('A' for Active; 'I' for Inactive)
ROOT
ATOM      1  C   UNL d   1       1.751  -0.876  -2.459  0.00  0.00     0.124 A 
ATOM      2  C1  UNL d   1       2.563  -1.145  -1.366  0.00  0.00     0.062 A 
ATOM      3  C2  UNL d   1       2.149  -0.795  -0.084  0.00  0.00     0.162 A 
ATOM      4  C3  UNL d   1       0.917  -0.172   0.112  0.00  0.00    -0.034 A 
ATOM      5  C4  UNL d   1       0.106   0.097  -0.992  0.00  0.00     0.162 A 
ATOM      6  C5  UNL d   1       0.524  -0.255  -2.272  0.00  0.00     0.062 A 
ATOM      7  F   UNL d   1      -0.261   0.006  -3.327  0.00  0.00    -0.097 F 
ATOM      8  F1  UNL d   1      -1.085   0.695  -0.840  0.00  0.00    -0.096 F 
ATOM      9  I   UNL d   1       0.295   0.353   2.027  0.00  0.00    -0.060 I 
ATOM     10  F2  UNL d   1       2.954  -1.068   0.954  0.00  0.00    -0.096 F 
ATOM     11  F3  UNL d   1       3.749  -1.744  -1.545  0.00  0.00    -0.097 F 
ATOM     12  F4  UNL d   1       2.152  -1.213  -3.692  0.00  0.00    -0.092 F 
ENDROOT
TORSDOF 0
ENDMDL
