MODEL 1
REMARK minimizedAffinity 2.81328344
REMARK minimizedRMSD -1
REMARK  0 active torsions:
REMARK  status: ('A' for Active; 'I' for Inactive)
ROOT
ATOM      1  C   UNL d   1       0.255  -0.314   2.948  0.00  0.00     0.124 A 
ATOM      2  C1  UNL d   1       1.385  -0.077   2.179  0.00  0.00     0.062 A 
ATOM      3  C2  UNL d   1       1.280   0.031   0.795  0.00  0.00     0.162 A 
ATOM      4  C3  UNL d   1       0.039  -0.097   0.171  0.00  0.00    -0.034 A 
ATOM      5  C4  UNL d   1      -1.094  -0.336   0.952  0.00  0.00     0.162 A 
ATOM      6  C5  UNL d   1      -0.983  -0.443   2.335  0.00  0.00     0.062 A 
ATOM      7  F   UNL d   1      -2.077  -0.672   3.077  0.00  0.00    -0.097 F 
ATOM      8  F1  UNL d   1      -2.302  -0.464   0.385  0.00  0.00    -0.096 F 
ATOM      9  I   UNL d   1      -0.123   0.064  -1.897  0.00  0.00    -0.060 I 
ATOM     10  F2  UNL d   1       2.389   0.260   0.076  0.00  0.00    -0.096 F 
ATOM     11  F3  UNL d   1       2.583   0.048   2.769  0.00  0.00    -0.097 F 
ATOM     12  F4  UNL d   1       0.359  -0.418   4.279  0.00  0.00    -0.092 F 
ENDROOT
TORSDOF 0
ENDMDL
