MODEL 1
REMARK minimizedAffinity 3.059376
REMARK minimizedRMSD -1
REMARK  0 active torsions:
REMARK  status: ('A' for Active; 'I' for Inactive)
ROOT
ATOM      1  C   UNL d   1       0.538   0.074  -2.017  0.00  0.00     0.124 A 
ATOM      2  C1  UNL d   1      -0.173   0.787  -1.061  0.00  0.00     0.062 A 
ATOM      3  C2  UNL d   1       0.157   0.673   0.286  0.00  0.00     0.162 A 
ATOM      4  C3  UNL d   1       1.205  -0.157   0.687  0.00  0.00    -0.034 A 
ATOM      5  C4  UNL d   1       1.915  -0.871  -0.280  0.00  0.00     0.162 A 
ATOM      6  C5  UNL d   1       1.581  -0.754  -1.625  0.00  0.00     0.062 A 
ATOM      7  F   UNL d   1       2.269  -1.443  -2.547  0.00  0.00    -0.097 F 
ATOM      8  F1  UNL d   1       2.928  -1.677   0.070  0.00  0.00    -0.096 F 
ATOM      9  I   UNL d   1       1.702  -0.330   2.700  0.00  0.00    -0.060 I 
ATOM     10  F2  UNL d   1      -0.547   1.373   1.188  0.00  0.00    -0.096 F 
ATOM     11  F3  UNL d   1      -1.182   1.586  -1.436  0.00  0.00    -0.097 F 
ATOM     12  F4  UNL d   1       0.218   0.185  -3.312  0.00  0.00    -0.092 F 
ENDROOT
TORSDOF 0
ENDMDL
