MODEL 1
REMARK minimizedAffinity -2.00798798
REMARK minimizedRMSD -1
REMARK  0 active torsions:
REMARK  status: ('A' for Active; 'I' for Inactive)
ROOT
ATOM      1  C   UNL d   1       0.557   0.527   2.261  0.00  0.00     0.124 A 
ATOM      2  C1  UNL d   1       1.181   1.094   1.158  0.00  0.00     0.062 A 
ATOM      3  C2  UNL d   1       0.812   0.711  -0.128  0.00  0.00     0.162 A 
ATOM      4  C3  UNL d   1      -0.186  -0.244  -0.320  0.00  0.00    -0.034 A 
ATOM      5  C4  UNL d   1      -0.808  -0.811   0.794  0.00  0.00     0.162 A 
ATOM      6  C5  UNL d   1      -0.437  -0.425   2.078  0.00  0.00     0.062 A 
ATOM      7  F   UNL d   1      -1.041  -0.974   3.142  0.00  0.00    -0.097 F 
ATOM      8  F1  UNL d   1      -1.772  -1.732   0.646  0.00  0.00    -0.096 F 
ATOM      9  I   UNL d   1      -0.740  -0.820  -2.242  0.00  0.00    -0.060 I 
ATOM     10  F2  UNL d   1       1.432   1.275  -1.176  0.00  0.00    -0.096 F 
ATOM     11  F3  UNL d   1       2.141   2.013   1.332  0.00  0.00    -0.097 F 
ATOM     12  F4  UNL d   1       0.914   0.896   3.497  0.00  0.00    -0.092 F 
ENDROOT
TORSDOF 0
ENDMDL
