MODEL 1
REMARK minimizedAffinity 19.3159466
REMARK minimizedRMSD -1
REMARK  0 active torsions:
REMARK  status: ('A' for Active; 'I' for Inactive)
ROOT
ATOM      1  C   UNL d   1       1.963  -2.434  -3.863  0.00  0.00     0.124 A 
ATOM      2  C1  UNL d   1       3.039  -1.570  -3.712  0.00  0.00     0.062 A 
ATOM      3  C2  UNL d   1       2.936  -0.462  -2.876  0.00  0.00     0.162 A 
ATOM      4  C3  UNL d   1       1.752  -0.212  -2.182  0.00  0.00    -0.034 A 
ATOM      5  C4  UNL d   1       0.673  -1.084  -2.340  0.00  0.00     0.162 A 
ATOM      6  C5  UNL d   1       0.781  -2.190  -3.176  0.00  0.00     0.062 A 
ATOM      7  F   UNL d   1      -0.259  -3.023  -3.321  0.00  0.00    -0.097 F 
ATOM      8  F1  UNL d   1      -0.480  -0.873  -1.688  0.00  0.00    -0.096 F 
ATOM      9  I   UNL d   1       1.594   1.444  -0.931  0.00  0.00    -0.060 I 
ATOM     10  F2  UNL d   1       3.992   0.355  -2.749  0.00  0.00    -0.096 F 
ATOM     11  F3  UNL d   1       4.181  -1.803  -4.374  0.00  0.00    -0.097 F 
ATOM     12  F4  UNL d   1       2.064  -3.498  -4.668  0.00  0.00    -0.092 F 
ENDROOT
TORSDOF 0
ENDMDL
