MODEL 1
REMARK minimizedAffinity 0.943902791
REMARK minimizedRMSD -1
REMARK  0 active torsions:
REMARK  status: ('A' for Active; 'I' for Inactive)
ROOT
ATOM      1  C   UNL d   1       1.844  -0.716  -2.424  0.00  0.00     0.124 A 
ATOM      2  C1  UNL d   1       2.555  -1.258  -3.485  0.00  0.00     0.062 A 
ATOM      3  C2  UNL d   1       3.717  -0.641  -3.937  0.00  0.00     0.162 A 
ATOM      4  C3  UNL d   1       4.177   0.526  -3.328  0.00  0.00    -0.034 A 
ATOM      5  C4  UNL d   1       3.456   1.067  -2.261  0.00  0.00     0.162 A 
ATOM      6  C5  UNL d   1       2.295   0.446  -1.813  0.00  0.00     0.062 A 
ATOM      7  F   UNL d   1       1.609   0.972  -0.788  0.00  0.00    -0.097 F 
ATOM      8  F1  UNL d   1       3.870   2.188  -1.652  0.00  0.00    -0.096 F 
ATOM      9  I   UNL d   1       5.915   1.452  -4.001  0.00  0.00    -0.060 I 
ATOM     10  F2  UNL d   1       4.384  -1.188  -4.965  0.00  0.00    -0.096 F 
ATOM     11  F3  UNL d   1       2.120  -2.380  -4.078  0.00  0.00    -0.097 F 
ATOM     12  F4  UNL d   1       0.725  -1.311  -1.992  0.00  0.00    -0.092 F 
ENDROOT
TORSDOF 0
ENDMDL
