MODEL 1
REMARK minimizedAffinity 26.5295372
REMARK minimizedRMSD -1
REMARK  0 active torsions:
REMARK  status: ('A' for Active; 'I' for Inactive)
ROOT
ATOM      1  C   UNL d   1       3.934   0.549  -2.800  0.00  0.00     0.124 A 
ATOM      2  C1  UNL d   1       3.001   1.285  -2.083  0.00  0.00     0.062 A 
ATOM      3  C2  UNL d   1       1.796   0.703  -1.698  0.00  0.00     0.162 A 
ATOM      4  C3  UNL d   1       1.518  -0.624  -2.029  0.00  0.00    -0.034 A 
ATOM      5  C4  UNL d   1       2.461  -1.357  -2.751  0.00  0.00     0.162 A 
ATOM      6  C5  UNL d   1       3.664  -0.771  -3.133  0.00  0.00     0.062 A 
ATOM      7  F   UNL d   1       4.564  -1.483  -3.826  0.00  0.00    -0.097 F 
ATOM      8  F1  UNL d   1       2.226  -2.634  -3.086  0.00  0.00    -0.096 F 
ATOM      9  I   UNL d   1      -0.281  -1.498  -1.456  0.00  0.00    -0.060 I 
ATOM     10  F2  UNL d   1       0.913   1.437  -1.006  0.00  0.00    -0.096 F 
ATOM     11  F3  UNL d   1       3.259   2.560  -1.760  0.00  0.00    -0.097 F 
ATOM     12  F4  UNL d   1       5.092   1.112  -3.170  0.00  0.00    -0.092 F 
ENDROOT
TORSDOF 0
ENDMDL
