MODEL 1
REMARK minimizedAffinity 28.5611229
REMARK minimizedRMSD -1
REMARK  0 active torsions:
REMARK  status: ('A' for Active; 'I' for Inactive)
ROOT
ATOM      1  C   UNL d   1       0.315  -0.582  -3.083  0.00  0.00     0.124 A 
ATOM      2  C1  UNL d   1      -0.242   0.050  -1.980  0.00  0.00     0.062 A 
ATOM      3  C2  UNL d   1       0.489   0.176  -0.803  0.00  0.00     0.162 A 
ATOM      4  C3  UNL d   1       1.786  -0.330  -0.722  0.00  0.00    -0.034 A 
ATOM      5  C4  UNL d   1       2.340  -0.965  -1.835  0.00  0.00     0.162 A 
ATOM      6  C5  UNL d   1       1.605  -1.089  -3.010  0.00  0.00     0.062 A 
ATOM      7  F   UNL d   1       2.145  -1.699  -4.075  0.00  0.00    -0.097 F 
ATOM      8  F1  UNL d   1       3.585  -1.462  -1.792  0.00  0.00    -0.096 F 
ATOM      9  I   UNL d   1       2.883  -0.143   1.037  0.00  0.00    -0.060 I 
ATOM     10  F2  UNL d   1      -0.075   0.791   0.248  0.00  0.00    -0.096 F 
ATOM     11  F3  UNL d   1      -1.489   0.539  -2.049  0.00  0.00    -0.097 F 
ATOM     12  F4  UNL d   1      -0.391  -0.703  -4.215  0.00  0.00    -0.092 F 
ENDROOT
TORSDOF 0
ENDMDL
