MODEL 1
REMARK minimizedAffinity 2.54053593
REMARK minimizedRMSD -1
REMARK  0 active torsions:
REMARK  status: ('A' for Active; 'I' for Inactive)
ROOT
ATOM      1  C1  BNZ d   1       1.081  -0.555   0.898  0.00  0.00     0.000 A 
ATOM      2  C2  BNZ d   1       1.185   0.413  -0.065  0.00  0.00     0.000 A 
ATOM      3  C3  BNZ d   1       2.185   1.343  -0.017  0.00  0.00     0.000 A 
ATOM      4  C4  BNZ d   1       3.054   1.330   1.014  0.00  0.00     0.000 A 
ATOM      5  C5  BNZ d   1       2.957   0.366   1.998  0.00  0.00     0.000 A 
ATOM      6  C6  BNZ d   1       1.973  -0.593   1.926  0.00  0.00     0.000 A 
ENDROOT
TORSDOF 0
ENDMDL
