MODEL 1
REMARK minimizedAffinity 2.21502447
REMARK minimizedRMSD -1
REMARK  0 active torsions:
REMARK  status: ('A' for Active; 'I' for Inactive)
ROOT
ATOM      1  C1  BNZ d   1      -5.995   3.732   5.077  0.00  0.00     0.000 A 
ATOM      2  C2  BNZ d   1      -5.998   3.224   3.806  0.00  0.00     0.000 A 
ATOM      3  C3  BNZ d   1      -5.133   2.228   3.448  0.00  0.00     0.000 A 
ATOM      4  C4  BNZ d   1      -4.239   1.771   4.348  0.00  0.00     0.000 A 
ATOM      5  C5  BNZ d   1      -4.217   2.280   5.632  0.00  0.00     0.000 A 
ATOM      6  C6  BNZ d   1      -5.116   3.254   6.000  0.00  0.00     0.000 A 
ENDROOT
TORSDOF 0
ENDMDL
