MODEL 1
REMARK minimizedAffinity -0.48498565
REMARK minimizedRMSD -1
REMARK  0 active torsions:
REMARK  status: ('A' for Active; 'I' for Inactive)
ROOT
ATOM      1  C1  BNZ d   1      -5.326   1.897   5.933  0.00  0.00     0.000 A 
ATOM      2  C2  BNZ d   1      -5.665   1.271   4.764  0.00  0.00     0.000 A 
ATOM      3  C3  BNZ d   1      -5.981   1.995   3.648  0.00  0.00     0.000 A 
ATOM      4  C4  BNZ d   1      -5.996   3.342   3.714  0.00  0.00     0.000 A 
ATOM      5  C5  BNZ d   1      -5.665   3.988   4.888  0.00  0.00     0.000 A 
ATOM      6  C6  BNZ d   1      -5.310   3.256   5.999  0.00  0.00     0.000 A 
ENDROOT
TORSDOF 0
ENDMDL
