MODEL 1
REMARK minimizedAffinity 5.93460274
REMARK minimizedRMSD -1
REMARK  0 active torsions:
REMARK  status: ('A' for Active; 'I' for Inactive)
ROOT
ATOM      1  C1  BNZ d   1      -1.280   1.016   2.209  0.00  0.00     0.000 A 
ATOM      2  C2  BNZ d   1      -1.261  -0.239   1.661  0.00  0.00     0.000 A 
ATOM      3  C3  BNZ d   1      -0.097  -0.781   1.193  0.00  0.00     0.000 A 
ATOM      4  C4  BNZ d   1       1.038  -0.053   1.237  0.00  0.00     0.000 A 
ATOM      5  C5  BNZ d   1       1.033   1.217   1.777  0.00  0.00     0.000 A 
ATOM      6  C6  BNZ d   1      -0.133   1.745   2.283  0.00  0.00     0.000 A 
ENDROOT
TORSDOF 0
ENDMDL
