MODEL 1
REMARK minimizedAffinity -0.335099041
REMARK minimizedRMSD -1
REMARK  0 active torsions:
REMARK  status: ('A' for Active; 'I' for Inactive)
ROOT
ATOM      1  C1  BNZ d   1      -2.172   0.247   0.503  0.00  0.00     0.000 A 
ATOM      2  C2  BNZ d   1      -0.929  -0.203   0.862  0.00  0.00     0.000 A 
ATOM      3  C3  BNZ d   1      -0.322   0.249   2.000  0.00  0.00     0.000 A 
ATOM      4  C4  BNZ d   1      -0.940   1.180   2.755  0.00  0.00     0.000 A 
ATOM      5  C5  BNZ d   1      -2.189   1.650   2.402  0.00  0.00     0.000 A 
ATOM      6  C6  BNZ d   1      -2.814   1.163   1.277  0.00  0.00     0.000 A 
ENDROOT
TORSDOF 0
ENDMDL
