MODEL 1
REMARK minimizedAffinity 1.15387464
REMARK minimizedRMSD -1
REMARK  0 active torsions:
REMARK  status: ('A' for Active; 'I' for Inactive)
ROOT
ATOM      1  C1  BNZ d   1      -3.633   1.498   2.363  0.00  0.00     0.000 A 
ATOM      2  C2  BNZ d   1      -2.408   1.166   2.879  0.00  0.00     0.000 A 
ATOM      3  C3  BNZ d   1      -1.452   0.587   2.092  0.00  0.00     0.000 A 
ATOM      4  C4  BNZ d   1      -1.734   0.305   0.804  0.00  0.00     0.000 A 
ATOM      5  C5  BNZ d   1      -2.967   0.625   0.272  0.00  0.00     0.000 A 
ATOM      6  C6  BNZ d   1      -3.914   1.244   1.056  0.00  0.00     0.000 A 
ENDROOT
TORSDOF 0
ENDMDL
