MODEL 1
REMARK minimizedAffinity 10.2068081
REMARK minimizedRMSD -1
REMARK  0 active torsions:
REMARK  status: ('A' for Active; 'I' for Inactive)
ROOT
ATOM      1  C1  BNZ d   1      -2.900   1.600  -3.772  0.00  0.00     0.000 A 
ATOM      2  C2  BNZ d   1      -3.253   0.374  -4.270  0.00  0.00     0.000 A 
ATOM      3  C3  BNZ d   1      -2.512  -0.222  -5.252  0.00  0.00     0.000 A 
ATOM      4  C4  BNZ d   1      -1.445   0.425  -5.762  0.00  0.00     0.000 A 
ATOM      5  C5  BNZ d   1      -1.082   1.666  -5.278  0.00  0.00     0.000 A 
ATOM      6  C6  BNZ d   1      -1.807   2.246  -4.262  0.00  0.00     0.000 A 
ENDROOT
TORSDOF 0
ENDMDL
