MODEL 1
REMARK minimizedAffinity 1.97886086
REMARK minimizedRMSD -1
REMARK  0 active torsions:
REMARK  status: ('A' for Active; 'I' for Inactive)
ROOT
ATOM      1  C1  BNZ d   1      -1.297   1.071   0.482  0.00  0.00     0.000 A 
ATOM      2  C2  BNZ d   1       0.069   1.096   0.394  0.00  0.00     0.000 A 
ATOM      3  C3  BNZ d   1       0.837   0.296   1.193  0.00  0.00     0.000 A 
ATOM      4  C4  BNZ d   1       0.240  -0.497   2.107  0.00  0.00     0.000 A 
ATOM      5  C5  BNZ d   1      -1.136  -0.526   2.214  0.00  0.00     0.000 A 
ATOM      6  C6  BNZ d   1      -1.907   0.251   1.381  0.00  0.00     0.000 A 
ENDROOT
TORSDOF 0
ENDMDL
