MODEL 1
REMARK minimizedAffinity 2.40997696
REMARK minimizedRMSD -1
REMARK  0 active torsions:
REMARK  status: ('A' for Active; 'I' for Inactive)
ROOT
ATOM      1  C1  BNZ d   1      -1.657   0.966   1.036  0.00  0.00     0.000 A 
ATOM      2  C2  BNZ d   1      -1.228  -0.163   0.390  0.00  0.00     0.000 A 
ATOM      3  C3  BNZ d   1      -2.111  -1.142   0.030  0.00  0.00     0.000 A 
ATOM      4  C4  BNZ d   1      -3.414  -1.009   0.351  0.00  0.00     0.000 A 
ATOM      5  C5  BNZ d   1      -3.861   0.119   1.010  0.00  0.00     0.000 A 
ATOM      6  C6  BNZ d   1      -2.975   1.120   1.336  0.00  0.00     0.000 A 
ENDROOT
TORSDOF 0
ENDMDL
