MODEL 1
REMARK minimizedAffinity 1.79144788
REMARK minimizedRMSD -1
REMARK  0 active torsions:
REMARK  status: ('A' for Active; 'I' for Inactive)
ROOT
ATOM      1  C1  BNZ d   1       2.749  -1.897  -6.000  0.00  0.00     0.000 A 
ATOM      2  C2  BNZ d   1       3.752  -0.965  -5.991  0.00  0.00     0.000 A 
ATOM      3  C3  BNZ d   1       4.479  -0.729  -4.857  0.00  0.00     0.000 A 
ATOM      4  C4  BNZ d   1       4.175  -1.396  -3.725  0.00  0.00     0.000 A 
ATOM      5  C5  BNZ d   1       3.161  -2.332  -3.715  0.00  0.00     0.000 A 
ATOM      6  C6  BNZ d   1       2.457  -2.595  -4.868  0.00  0.00     0.000 A 
ENDROOT
TORSDOF 0
ENDMDL
