MODEL 1
REMARK minimizedAffinity -0.973353267
REMARK minimizedRMSD -1
REMARK  0 active torsions:
REMARK  status: ('A' for Active; 'I' for Inactive)
ROOT
ATOM      1  C1  BNZ d   1      -1.504   1.734   3.084  0.00  0.00     0.000 A 
ATOM      2  C2  BNZ d   1      -2.739   1.434   2.573  0.00  0.00     0.000 A 
ATOM      3  C3  BNZ d   1      -2.862   0.729   1.408  0.00  0.00     0.000 A 
ATOM      4  C4  BNZ d   1      -1.753   0.361   0.736  0.00  0.00     0.000 A 
ATOM      5  C5  BNZ d   1      -0.501   0.665   1.233  0.00  0.00     0.000 A 
ATOM      6  C6  BNZ d   1      -0.381   1.340   2.425  0.00  0.00     0.000 A 
ENDROOT
TORSDOF 0
ENDMDL
