MODEL 1
REMARK minimizedAffinity 2.22917604
REMARK minimizedRMSD -1
REMARK  0 active torsions:
REMARK  status: ('A' for Active; 'I' for Inactive)
ROOT
ATOM      1  C1  BNZ d   1      -2.368   0.502   0.592  0.00  0.00     0.000 A 
ATOM      2  C2  BNZ d   1      -1.043   0.169   0.503  0.00  0.00     0.000 A 
ATOM      3  C3  BNZ d   1      -0.138   0.649   1.409  0.00  0.00     0.000 A 
ATOM      4  C4  BNZ d   1      -0.552   1.493   2.376  0.00  0.00     0.000 A 
ATOM      5  C5  BNZ d   1      -1.883   1.846   2.473  0.00  0.00     0.000 A 
ATOM      6  C6  BNZ d   1      -2.798   1.330   1.583  0.00  0.00     0.000 A 
ENDROOT
TORSDOF 0
ENDMDL
