MODEL 1
REMARK minimizedAffinity -0.246957749
REMARK minimizedRMSD -1
REMARK  0 active torsions:
REMARK  status: ('A' for Active; 'I' for Inactive)
ROOT
ATOM      1  C1  BNZ d   1      -2.146   1.305   1.608  0.00  0.00     0.000 A 
ATOM      2  C2  BNZ d   1      -1.784   2.067   2.687  0.00  0.00     0.000 A 
ATOM      3  C3  BNZ d   1      -0.496   2.067   3.143  0.00  0.00     0.000 A 
ATOM      4  C4  BNZ d   1       0.419   1.276   2.547  0.00  0.00     0.000 A 
ATOM      5  C5  BNZ d   1       0.068   0.495   1.464  0.00  0.00     0.000 A 
ATOM      6  C6  BNZ d   1      -1.221   0.527   0.983  0.00  0.00     0.000 A 
ENDROOT
TORSDOF 0
ENDMDL
