MODEL 1
REMARK minimizedAffinity -0.199054793
REMARK minimizedRMSD -1
REMARK  0 active torsions:
REMARK  status: ('A' for Active; 'I' for Inactive)
ROOT
ATOM      1  C1  BNZ d   1       0.185   2.257   3.045  0.00  0.00     0.000 A 
ATOM      2  C2  BNZ d   1      -1.111   2.398   3.465  0.00  0.00     0.000 A 
ATOM      3  C3  BNZ d   1      -2.103   1.609   2.952  0.00  0.00     0.000 A 
ATOM      4  C4  BNZ d   1      -1.805   0.709   1.992  0.00  0.00     0.000 A 
ATOM      5  C5  BNZ d   1      -0.504   0.562   1.552  0.00  0.00     0.000 A 
ATOM      6  C6  BNZ d   1       0.498   1.331   2.099  0.00  0.00     0.000 A 
ENDROOT
TORSDOF 0
ENDMDL
