MODEL 1
REMARK minimizedAffinity 0.49181515
REMARK minimizedRMSD -1
REMARK  0 active torsions:
REMARK  status: ('A' for Active; 'I' for Inactive)
ROOT
ATOM      1  C1  BNZ d   1       0.027   2.182   3.093  0.00  0.00     0.000 A 
ATOM      2  C2  BNZ d   1       0.864   1.464   2.282  0.00  0.00     0.000 A 
ATOM      3  C3  BNZ d   1       0.364   0.612   1.337  0.00  0.00     0.000 A 
ATOM      4  C4  BNZ d   1      -0.971   0.450   1.231  0.00  0.00     0.000 A 
ATOM      5  C5  BNZ d   1      -1.828   1.160   2.048  0.00  0.00     0.000 A 
ATOM      6  C6  BNZ d   1      -1.322   2.045   2.972  0.00  0.00     0.000 A 
ENDROOT
TORSDOF 0
ENDMDL
