MODEL 1
REMARK minimizedAffinity 2.88115287
REMARK minimizedRMSD -1
REMARK  0 active torsions:
REMARK  status: ('A' for Active; 'I' for Inactive)
ROOT
ATOM      1  C1  BNZ d   1      -1.356   0.674   0.808  0.00  0.00     0.000 A 
ATOM      2  C2  BNZ d   1      -2.018   1.484   1.692  0.00  0.00     0.000 A 
ATOM      3  C3  BNZ d   1      -1.477   1.778   2.912  0.00  0.00     0.000 A 
ATOM      4  C4  BNZ d   1      -0.295   1.231   3.262  0.00  0.00     0.000 A 
ATOM      5  C5  BNZ d   1       0.381   0.406   2.385  0.00  0.00     0.000 A 
ATOM      6  C6  BNZ d   1      -0.149   0.143   1.143  0.00  0.00     0.000 A 
ENDROOT
TORSDOF 0
ENDMDL
