MODEL 1
REMARK minimizedAffinity 5.62501097
REMARK minimizedRMSD -1
REMARK  0 active torsions:
REMARK  status: ('A' for Active; 'I' for Inactive)
ROOT
ATOM      1  C1  BNZ d   1      -0.566   2.016   1.978  0.00  0.00     0.000 A 
ATOM      2  C2  BNZ d   1       0.746   1.765   2.279  0.00  0.00     0.000 A 
ATOM      3  C3  BNZ d   1       1.238   0.490   2.254  0.00  0.00     0.000 A 
ATOM      4  C4  BNZ d   1       0.410  -0.535   1.968  0.00  0.00     0.000 A 
ATOM      5  C5  BNZ d   1      -0.918  -0.299   1.671  0.00  0.00     0.000 A 
ATOM      6  C6  BNZ d   1      -1.400   0.989   1.659  0.00  0.00     0.000 A 
ENDROOT
TORSDOF 0
ENDMDL
