MODEL 1
REMARK minimizedAffinity -0.70743984
REMARK minimizedRMSD -1
REMARK  0 active torsions:
REMARK  status: ('A' for Active; 'I' for Inactive)
ROOT
ATOM      1  C   UNL d   1      -5.064   3.896   1.137  0.00  0.00    -0.002 A 
ATOM      2  C1  UNL d   1      -5.185   5.278   1.099  0.00  0.00     0.010 A 
ATOM      3  C2  UNL d   1      -5.475   5.998   2.260  0.00  0.00     0.041 A 
ATOM      4  C3  UNL d   1      -5.641   5.298   3.472  0.00  0.00    -0.075 A 
ATOM      5  S   UNL d   1      -5.999   5.969   5.019  0.00  0.00     0.015 SA
ATOM      6  C4  UNL d   1      -5.998   4.437   5.766  0.00  0.00     0.022 A 
ATOM      7  C5  UNL d   1      -5.734   3.427   4.872  0.00  0.00     0.026 A 
ATOM      8  C6  UNL d   1      -5.523   3.907   3.535  0.00  0.00    -0.082 A 
ATOM      9  C7  UNL d   1      -5.229   3.206   2.340  0.00  0.00     0.045 A 
ENDROOT
TORSDOF 0
ENDMDL
