MODEL 1
REMARK minimizedAffinity -0.425235063
REMARK minimizedRMSD -1
REMARK  0 active torsions:
REMARK  status: ('A' for Active; 'I' for Inactive)
ROOT
ATOM      1  C   UNL d   1      -4.878   4.965   1.624  0.00  0.00    -0.002 A 
ATOM      2  C1  UNL d   1      -5.647   5.973   2.189  0.00  0.00     0.010 A 
ATOM      3  C2  UNL d   1      -6.000   5.924   3.539  0.00  0.00     0.041 A 
ATOM      4  C3  UNL d   1      -5.561   4.837   4.319  0.00  0.00    -0.075 A 
ATOM      5  S   UNL d   1      -5.871   4.567   5.994  0.00  0.00     0.015 SA
ATOM      6  C4  UNL d   1      -4.989   3.109   5.999  0.00  0.00     0.022 A 
ATOM      7  C5  UNL d   1      -4.465   2.819   4.761  0.00  0.00     0.026 A 
ATOM      8  C6  UNL d   1      -4.785   3.810   3.773  0.00  0.00    -0.082 A 
ATOM      9  C7  UNL d   1      -4.445   3.888   2.401  0.00  0.00     0.045 A 
ENDROOT
TORSDOF 0
ENDMDL
