MODEL 1
REMARK minimizedAffinity 1.54904318
REMARK minimizedRMSD -1
REMARK  0 active torsions:
REMARK  status: ('A' for Active; 'I' for Inactive)
ROOT
ATOM      1  C   UNL d   1      -2.995  -0.834   2.941  0.00  0.00    -0.002 A 
ATOM      2  C1  UNL d   1      -3.680  -0.870   1.735  0.00  0.00     0.010 A 
ATOM      3  C2  UNL d   1      -4.275   0.284   1.221  0.00  0.00     0.041 A 
ATOM      4  C3  UNL d   1      -4.168   1.486   1.947  0.00  0.00    -0.075 A 
ATOM      5  S   UNL d   1      -4.817   3.024   1.513  0.00  0.00     0.015 SA
ATOM      6  C4  UNL d   1      -4.199   3.764   2.918  0.00  0.00     0.022 A 
ATOM      7  C5  UNL d   1      -3.513   2.875   3.711  0.00  0.00     0.026 A 
ATOM      8  C6  UNL d   1      -3.483   1.548   3.164  0.00  0.00    -0.082 A 
ATOM      9  C7  UNL d   1      -2.891   0.360   3.658  0.00  0.00     0.045 A 
ENDROOT
TORSDOF 0
ENDMDL
