MODEL 1
REMARK minimizedAffinity -2.57602739
REMARK minimizedRMSD -1
REMARK  0 active torsions:
REMARK  status: ('A' for Active; 'I' for Inactive)
ROOT
ATOM      1  C   UNL d   1      -5.150   4.581   1.540  0.00  0.00    -0.002 A 
ATOM      2  C1  UNL d   1      -5.004   5.833   2.120  0.00  0.00     0.010 A 
ATOM      3  C2  UNL d   1      -5.156   6.000   3.498  0.00  0.00     0.041 A 
ATOM      4  C3  UNL d   1      -5.458   4.876   4.291  0.00  0.00    -0.075 A 
ATOM      5  S   UNL d   1      -5.688   4.840   5.999  0.00  0.00     0.015 SA
ATOM      6  C4  UNL d   1      -5.985   3.162   6.000  0.00  0.00     0.022 A 
ATOM      7  C5  UNL d   1      -5.915   2.626   4.736  0.00  0.00     0.026 A 
ATOM      8  C6  UNL d   1      -5.610   3.604   3.730  0.00  0.00    -0.082 A 
ATOM      9  C7  UNL d   1      -5.450   3.468   2.330  0.00  0.00     0.045 A 
ENDROOT
TORSDOF 0
ENDMDL
