MODEL 1
REMARK minimizedAffinity 13.324522
REMARK minimizedRMSD -1
REMARK  0 active torsions:
REMARK  status: ('A' for Active; 'I' for Inactive)
ROOT
ATOM      1  C   UNL d   1       1.722  -0.562   5.228  0.00  0.00    -0.002 A 
ATOM      2  C1  UNL d   1       1.871  -1.325   4.079  0.00  0.00     0.010 A 
ATOM      3  C2  UNL d   1       2.259  -0.730   2.877  0.00  0.00     0.041 A 
ATOM      4  C3  UNL d   1       2.499   0.658   2.850  0.00  0.00    -0.075 A 
ATOM      5  S   UNL d   1       2.984   1.603   1.492  0.00  0.00     0.015 SA
ATOM      6  C4  UNL d   1       3.006   3.041   2.406  0.00  0.00     0.022 A 
ATOM      7  C5  UNL d   1       2.654   2.824   3.717  0.00  0.00     0.026 A 
ATOM      8  C6  UNL d   1       2.356   1.447   3.995  0.00  0.00    -0.082 A 
ATOM      9  C7  UNL d   1       1.961   0.814   5.198  0.00  0.00     0.045 A 
ENDROOT
TORSDOF 0
ENDMDL
