MODEL 1
REMARK minimizedAffinity -1.59209538
REMARK minimizedRMSD -1
REMARK  0 active torsions:
REMARK  status: ('A' for Active; 'I' for Inactive)
ROOT
ATOM      1  C   UNL d   1      -5.490   3.677   5.892  0.00  0.00    -0.002 A 
ATOM      2  C1  UNL d   1      -5.833   5.017   5.997  0.00  0.00     0.010 A 
ATOM      3  C2  UNL d   1      -5.965   5.809   4.855  0.00  0.00     0.041 A 
ATOM      4  C3  UNL d   1      -5.747   5.224   3.592  0.00  0.00    -0.075 A 
ATOM      5  S   UNL d   1      -5.854   5.999   2.055  0.00  0.00     0.015 SA
ATOM      6  C4  UNL d   1      -5.448   4.568   1.222  0.00  0.00     0.022 A 
ATOM      7  C5  UNL d   1      -5.233   3.516   2.080  0.00  0.00     0.026 A 
ATOM      8  C6  UNL d   1      -5.402   3.876   3.460  0.00  0.00    -0.082 A 
ATOM      9  C7  UNL d   1      -5.275   3.100   4.637  0.00  0.00     0.045 A 
ENDROOT
TORSDOF 0
ENDMDL
