MODEL 1
REMARK minimizedAffinity -1.6843816
REMARK minimizedRMSD -1
REMARK  0 active torsions:
REMARK  status: ('A' for Active; 'I' for Inactive)
ROOT
ATOM      1  C   UNL d   1      -5.329   3.881   5.992  0.00  0.00    -0.002 A 
ATOM      2  C1  UNL d   1      -5.473   5.262   5.999  0.00  0.00     0.010 A 
ATOM      3  C2  UNL d   1      -5.352   5.994   4.816  0.00  0.00     0.041 A 
ATOM      4  C3  UNL d   1      -5.083   5.309   3.615  0.00  0.00    -0.075 A 
ATOM      5  S   UNL d   1      -4.895   5.997   2.045  0.00  0.00     0.015 SA
ATOM      6  C4  UNL d   1      -4.620   4.475   1.329  0.00  0.00     0.022 A 
ATOM      7  C5  UNL d   1      -4.667   3.456   2.250  0.00  0.00     0.026 A 
ATOM      8  C6  UNL d   1      -4.935   3.919   3.583  0.00  0.00    -0.082 A 
ATOM      9  C7  UNL d   1      -5.063   3.205   4.799  0.00  0.00     0.045 A 
ENDROOT
TORSDOF 0
ENDMDL
