MODEL 1
REMARK minimizedAffinity -3.44737339
REMARK minimizedRMSD -1
REMARK  0 active torsions:
REMARK  status: ('A' for Active; 'I' for Inactive)
ROOT
ATOM      1  C   UNL d   1      -5.285   4.869   1.508  0.00  0.00    -0.002 A 
ATOM      2  C1  UNL d   1      -4.885   5.998   2.207  0.00  0.00     0.010 A 
ATOM      3  C2  UNL d   1      -4.861   5.998   3.604  0.00  0.00     0.041 A 
ATOM      4  C3  UNL d   1      -5.248   4.831   4.291  0.00  0.00    -0.075 A 
ATOM      5  S   UNL d   1      -5.297   4.599   5.999  0.00  0.00     0.015 SA
ATOM      6  C4  UNL d   1      -5.850   2.994   5.840  0.00  0.00     0.022 A 
ATOM      7  C5  UNL d   1      -5.999   2.628   4.523  0.00  0.00     0.026 A 
ATOM      8  C6  UNL d   1      -5.654   3.681   3.609  0.00  0.00    -0.082 A 
ATOM      9  C7  UNL d   1      -5.668   3.713   2.194  0.00  0.00     0.045 A 
ENDROOT
TORSDOF 0
ENDMDL
