MODEL 1
REMARK minimizedAffinity -2.67040443
REMARK minimizedRMSD -1
REMARK  0 active torsions:
REMARK  status: ('A' for Active; 'I' for Inactive)
ROOT
ATOM      1  C   UNL d   1      -5.749   4.548   1.429  0.00  0.00    -0.002 A 
ATOM      2  C1  UNL d   1      -5.999   5.800   1.973  0.00  0.00     0.010 A 
ATOM      3  C2  UNL d   1      -6.000   5.987   3.356  0.00  0.00     0.041 A 
ATOM      4  C3  UNL d   1      -5.740   4.884   4.193  0.00  0.00    -0.075 A 
ATOM      5  S   UNL d   1      -5.688   4.876   5.916  0.00  0.00     0.015 SA
ATOM      6  C4  UNL d   1      -5.331   3.210   5.972  0.00  0.00     0.022 A 
ATOM      7  C5  UNL d   1      -5.250   2.658   4.716  0.00  0.00     0.026 A 
ATOM      8  C6  UNL d   1      -5.484   3.613   3.670  0.00  0.00    -0.082 A 
ATOM      9  C7  UNL d   1      -5.492   3.456   2.263  0.00  0.00     0.045 A 
ENDROOT
TORSDOF 0
ENDMDL
