MODEL 1
REMARK minimizedAffinity -0.909564376
REMARK minimizedRMSD -1
REMARK  0 active torsions:
REMARK  status: ('A' for Active; 'I' for Inactive)
ROOT
ATOM      1  C   UNL d   1      -5.999   5.210   1.142  0.00  0.00    -0.002 A 
ATOM      2  C1  UNL d   1      -6.000   3.825   1.236  0.00  0.00     0.010 A 
ATOM      3  C2  UNL d   1      -5.999   3.198   2.483  0.00  0.00     0.041 A 
ATOM      4  C3  UNL d   1      -5.999   3.993   3.646  0.00  0.00    -0.075 A 
ATOM      5  S   UNL d   1      -6.000   3.444   5.280  0.00  0.00     0.015 SA
ATOM      6  C4  UNL d   1      -6.000   5.035   5.893  0.00  0.00     0.022 A 
ATOM      7  C5  UNL d   1      -5.999   5.974   4.889  0.00  0.00     0.026 A 
ATOM      8  C6  UNL d   1      -6.000   5.389   3.577  0.00  0.00    -0.082 A 
ATOM      9  C7  UNL d   1      -6.000   5.995   2.298  0.00  0.00     0.045 A 
ENDROOT
TORSDOF 0
ENDMDL
