MODEL 1
REMARK minimizedAffinity -1.69510996
REMARK minimizedRMSD -1
REMARK  0 active torsions:
REMARK  status: ('A' for Active; 'I' for Inactive)
ROOT
ATOM      1  C   UNL d   1      -3.865   2.578   5.999  0.00  0.00    -0.002 A 
ATOM      2  C1  UNL d   1      -4.877   1.795   5.461  0.00  0.00     0.010 A 
ATOM      3  C2  UNL d   1      -5.589   2.228   4.340  0.00  0.00     0.041 A 
ATOM      4  C3  UNL d   1      -5.263   3.471   3.763  0.00  0.00    -0.075 A 
ATOM      5  S   UNL d   1      -6.000   4.203   2.387  0.00  0.00     0.015 SA
ATOM      6  C4  UNL d   1      -4.989   5.572   2.482  0.00  0.00     0.022 A 
ATOM      7  C5  UNL d   1      -4.105   5.489   3.532  0.00  0.00     0.026 A 
ATOM      8  C6  UNL d   1      -4.248   4.277   4.287  0.00  0.00    -0.082 A 
ATOM      9  C7  UNL d   1      -3.545   3.811   5.424  0.00  0.00     0.045 A 
ENDROOT
TORSDOF 0
ENDMDL
