MODEL 1
REMARK minimizedAffinity -3.71495032
REMARK minimizedRMSD -1
REMARK  0 active torsions:
REMARK  status: ('A' for Active; 'I' for Inactive)
ROOT
ATOM      1  C   UNL d   1      -5.213   2.588   5.466  0.00  0.00    -0.002 A 
ATOM      2  C1  UNL d   1      -5.732   3.760   5.998  0.00  0.00     0.010 A 
ATOM      3  C2  UNL d   1      -6.000   4.856   5.176  0.00  0.00     0.041 A 
ATOM      4  C3  UNL d   1      -5.736   4.753   3.796  0.00  0.00    -0.075 A 
ATOM      5  S   UNL d   1      -5.986   5.967   2.597  0.00  0.00     0.015 SA
ATOM      6  C4  UNL d   1      -5.412   4.958   1.349  0.00  0.00     0.022 A 
ATOM      7  C5  UNL d   1      -5.034   3.722   1.818  0.00  0.00     0.026 A 
ATOM      8  C6  UNL d   1      -5.215   3.583   3.236  0.00  0.00    -0.082 A 
ATOM      9  C7  UNL d   1      -4.954   2.490   4.096  0.00  0.00     0.045 A 
ENDROOT
TORSDOF 0
ENDMDL
