MODEL 1
REMARK minimizedAffinity 5.80455399
REMARK minimizedRMSD -1
REMARK  0 active torsions:
REMARK  status: ('A' for Active; 'I' for Inactive)
ROOT
ATOM      1  C   UNL d   1      -5.997   2.603  -0.713  0.00  0.00    -0.002 A 
ATOM      2  C1  UNL d   1      -5.998   1.217  -0.778  0.00  0.00     0.010 A 
ATOM      3  C2  UNL d   1      -5.999   0.564  -2.012  0.00  0.00     0.041 A 
ATOM      4  C3  UNL d   1      -5.998   1.335  -3.191  0.00  0.00    -0.075 A 
ATOM      5  S   UNL d   1      -5.999   0.753  -4.814  0.00  0.00     0.015 SA
ATOM      6  C4  UNL d   1      -5.997   2.330  -5.459  0.00  0.00     0.022 A 
ATOM      7  C5  UNL d   1      -5.996   3.290  -4.475  0.00  0.00     0.026 A 
ATOM      8  C6  UNL d   1      -5.996   2.732  -3.151  0.00  0.00    -0.082 A 
ATOM      9  C7  UNL d   1      -5.995   3.365  -1.885  0.00  0.00     0.045 A 
ENDROOT
TORSDOF 0
ENDMDL
