MODEL 1
REMARK minimizedAffinity 4.46244717
REMARK minimizedRMSD -1
REMARK  0 active torsions:
REMARK  status: ('A' for Active; 'I' for Inactive)
ROOT
ATOM      1  C   UNL d   1      -5.698   4.021  -2.246  0.00  0.00    -0.002 A 
ATOM      2  C1  UNL d   1      -5.216   4.655  -3.382  0.00  0.00     0.010 A 
ATOM      3  C2  UNL d   1      -5.007   3.938  -4.561  0.00  0.00     0.041 A 
ATOM      4  C3  UNL d   1      -5.295   2.559  -4.580  0.00  0.00    -0.075 A 
ATOM      5  S   UNL d   1      -5.118   1.478  -5.912  0.00  0.00     0.015 SA
ATOM      6  C4  UNL d   1      -5.680   0.149  -5.005  0.00  0.00     0.022 A 
ATOM      7  C5  UNL d   1      -5.999   0.503  -3.715  0.00  0.00     0.026 A 
ATOM      8  C6  UNL d   1      -5.783   1.898  -3.450  0.00  0.00    -0.082 A 
ATOM      9  C7  UNL d   1      -5.983   2.653  -2.269  0.00  0.00     0.045 A 
ENDROOT
TORSDOF 0
ENDMDL
