MODEL 1
REMARK minimizedAffinity 12.8621387
REMARK minimizedRMSD -1
REMARK  0 active torsions:
REMARK  status: ('A' for Active; 'I' for Inactive)
ROOT
ATOM      1  C   UNL d   1       1.521  -1.413   0.400  0.00  0.00    -0.002 A 
ATOM      2  C1  UNL d   1       2.437  -2.334   0.887  0.00  0.00     0.010 A 
ATOM      3  C2  UNL d   1       2.306  -3.692   0.588  0.00  0.00     0.041 A 
ATOM      4  C3  UNL d   1       1.230  -4.111  -0.219  0.00  0.00    -0.075 A 
ATOM      5  S   UNL d   1       0.871  -5.723  -0.716  0.00  0.00     0.015 SA
ATOM      6  C4  UNL d   1      -0.507  -5.225  -1.588  0.00  0.00     0.022 A 
ATOM      7  C5  UNL d   1      -0.702  -3.867  -1.512  0.00  0.00     0.026 A 
ATOM      8  C6  UNL d   1       0.296  -3.202  -0.722  0.00  0.00    -0.082 A 
ATOM      9  C7  UNL d   1       0.455  -1.833  -0.400  0.00  0.00     0.045 A 
ENDROOT
TORSDOF 0
ENDMDL
