MODEL 1
REMARK minimizedAffinity 1.95995855
REMARK minimizedRMSD -1
REMARK  0 active torsions:
REMARK  status: ('A' for Active; 'I' for Inactive)
ROOT
ATOM      1  C   UNL d   1      -5.181   3.751  -1.296  0.00  0.00    -0.002 A 
ATOM      2  C1  UNL d   1      -5.715   2.540  -0.880  0.00  0.00     0.010 A 
ATOM      3  C2  UNL d   1      -6.000   1.534  -1.805  0.00  0.00     0.041 A 
ATOM      4  C3  UNL d   1      -5.733   1.767  -3.168  0.00  0.00    -0.075 A 
ATOM      5  S   UNL d   1      -5.999   0.680  -4.480  0.00  0.00     0.015 SA
ATOM      6  C4  UNL d   1      -5.408   1.797  -5.623  0.00  0.00     0.022 A 
ATOM      7  C5  UNL d   1      -5.014   2.976  -5.036  0.00  0.00     0.026 A 
ATOM      8  C6  UNL d   1      -5.194   2.978  -3.612  0.00  0.00    -0.082 A 
ATOM      9  C7  UNL d   1      -4.918   3.979  -2.649  0.00  0.00     0.045 A 
ENDROOT
TORSDOF 0
ENDMDL
