MODEL 1
REMARK minimizedAffinity 10.3560104
REMARK minimizedRMSD -1
REMARK  0 active torsions:
REMARK  status: ('A' for Active; 'I' for Inactive)
ROOT
ATOM      1  C   UNL d   1      -5.687   3.386  -4.378  0.00  0.00    -0.002 A 
ATOM      2  C1  UNL d   1      -5.139   4.478  -3.720  0.00  0.00     0.010 A 
ATOM      3  C2  UNL d   1      -4.894   4.431  -2.347  0.00  0.00     0.041 A 
ATOM      4  C3  UNL d   1      -5.211   3.255  -1.638  0.00  0.00    -0.075 A 
ATOM      5  S   UNL d   1      -4.997   2.968   0.048  0.00  0.00     0.015 SA
ATOM      6  C4  UNL d   1      -5.627   1.388  -0.065  0.00  0.00     0.022 A 
ATOM      7  C5  UNL d   1      -5.997   1.071  -1.350  0.00  0.00     0.026 A 
ATOM      8  C6  UNL d   1      -5.763   2.141  -2.278  0.00  0.00    -0.082 A 
ATOM      9  C7  UNL d   1      -6.000   2.221  -3.672  0.00  0.00     0.045 A 
ENDROOT
TORSDOF 0
ENDMDL
