MODEL 1
REMARK minimizedAffinity 9.37294197
REMARK minimizedRMSD -1
REMARK  0 active torsions:
REMARK  status: ('A' for Active; 'I' for Inactive)
ROOT
ATOM      1  C   UNL d   1      -4.507  -2.550   4.100  0.00  0.00    -0.002 A 
ATOM      2  C1  UNL d   1      -5.489  -1.972   4.891  0.00  0.00     0.010 A 
ATOM      3  C2  UNL d   1      -5.999  -0.709   4.581  0.00  0.00     0.041 A 
ATOM      4  C3  UNL d   1      -5.501  -0.032   3.450  0.00  0.00    -0.075 A 
ATOM      5  S   UNL d   1      -5.977   1.522   2.876  0.00  0.00     0.015 SA
ATOM      6  C4  UNL d   1      -4.887   1.455   1.567  0.00  0.00     0.022 A 
ATOM      7  C5  UNL d   1      -4.170   0.282   1.553  0.00  0.00     0.026 A 
ATOM      8  C6  UNL d   1      -4.513  -0.595   2.637  0.00  0.00    -0.082 A 
ATOM      9  C7  UNL d   1      -4.016  -1.876   2.979  0.00  0.00     0.045 A 
ENDROOT
TORSDOF 0
ENDMDL
