MODEL 1
REMARK minimizedAffinity 11.0465202
REMARK minimizedRMSD -1
REMARK  0 active torsions:
REMARK  status: ('A' for Active; 'I' for Inactive)
ROOT
ATOM      1  C   UNL d   1      -5.276   3.091  -2.267  0.00  0.00    -0.002 A 
ATOM      2  C1  UNL d   1      -5.996   1.915  -2.426  0.00  0.00     0.010 A 
ATOM      3  C2  UNL d   1      -5.999   0.943  -1.424  0.00  0.00     0.041 A 
ATOM      4  C3  UNL d   1      -5.261   1.176  -0.247  0.00  0.00    -0.075 A 
ATOM      5  S   UNL d   1      -5.119   0.128   1.115  0.00  0.00     0.015 SA
ATOM      6  C4  UNL d   1      -4.100   1.217   1.940  0.00  0.00     0.022 A 
ATOM      7  C5  UNL d   1      -3.863   2.357   1.209  0.00  0.00     0.026 A 
ATOM      8  C6  UNL d   1      -4.529   2.352  -0.063  0.00  0.00    -0.082 A 
ATOM      9  C7  UNL d   1      -4.545   3.318  -1.098  0.00  0.00     0.045 A 
ENDROOT
TORSDOF 0
ENDMDL
