MODEL 1
REMARK minimizedAffinity 10.5619659
REMARK minimizedRMSD -1
REMARK  0 active torsions:
REMARK  status: ('A' for Active; 'I' for Inactive)
ROOT
ATOM      1  C   UNL d   1      -0.458   5.513  -2.574  0.00  0.00    -0.002 A 
ATOM      2  C1  UNL d   1      -0.913   5.998  -1.356  0.00  0.00     0.010 A 
ATOM      3  C2  UNL d   1      -0.969   5.166  -0.236  0.00  0.00     0.041 A 
ATOM      4  C3  UNL d   1      -0.555   3.825  -0.362  0.00  0.00    -0.075 A 
ATOM      5  S   UNL d   1      -0.536   2.623   0.873  0.00  0.00     0.015 SA
ATOM      6  C4  UNL d   1       0.077   1.437  -0.187  0.00  0.00     0.022 A 
ATOM      7  C5  UNL d   1       0.268   1.929  -1.456  0.00  0.00     0.026 A 
ATOM      8  C6  UNL d   1      -0.093   3.314  -1.578  0.00  0.00    -0.082 A 
ATOM      9  C7  UNL d   1      -0.049   4.183  -2.695  0.00  0.00     0.045 A 
ENDROOT
TORSDOF 0
ENDMDL
