MODEL 1
REMARK minimizedAffinity 7.99644232
REMARK minimizedRMSD -1
REMARK  0 active torsions:
REMARK  status: ('A' for Active; 'I' for Inactive)
ROOT
ATOM      1  C   UNL d   1      -0.321   2.965  -0.304  0.00  0.00     0.020 A 
ATOM      2  C1  UNL d   1       0.787   3.810  -0.324  0.00  0.00     0.020 A 
ATOM      3  C2  UNL d   1       1.561   3.974   0.827  0.00  0.00     0.034 A 
ATOM      4  C3  UNL d   1       1.228   3.292   2.003  0.00  0.00     0.017 A 
ATOM      5  C4  UNL d   1       0.115   2.444   2.022  0.00  0.00     0.017 A 
ATOM      6  C5  UNL d   1      -0.656   2.283   0.866  0.00  0.00     0.034 A 
ATOM      7 Cl   UNL d   1      -0.359   1.568   3.435  0.00  0.00    -0.070 Cl
ATOM      8 Cl1  UNL d   1       2.229   3.542   3.388  0.00  0.00    -0.070 Cl
ENDROOT
TORSDOF 0
ENDMDL
