MODEL 1
REMARK minimizedAffinity 10.0892906
REMARK minimizedRMSD -1
REMARK  0 active torsions:
REMARK  status: ('A' for Active; 'I' for Inactive)
ROOT
ATOM      1  C   UNL d   1       4.207  -5.491  -3.555  0.00  0.00     0.020 A 
ATOM      2  C1  UNL d   1       4.173  -4.115  -3.774  0.00  0.00     0.020 A 
ATOM      3  C2  UNL d   1       4.671  -3.241  -2.805  0.00  0.00     0.034 A 
ATOM      4  C3  UNL d   1       5.205  -3.742  -1.613  0.00  0.00     0.017 A 
ATOM      5  C4  UNL d   1       5.239  -5.124  -1.393  0.00  0.00     0.017 A 
ATOM      6  C5  UNL d   1       4.739  -5.995  -2.367  0.00  0.00     0.034 A 
ATOM      7 Cl   UNL d   1       5.882  -5.817   0.053  0.00  0.00    -0.070 Cl
ATOM      8 Cl1  UNL d   1       5.803  -2.603  -0.459  0.00  0.00    -0.070 Cl
ENDROOT
TORSDOF 0
ENDMDL
