MODEL 1
REMARK minimizedAffinity 5.88479471
REMARK minimizedRMSD -1
REMARK  0 active torsions:
REMARK  status: ('A' for Active; 'I' for Inactive)
ROOT
ATOM      1  C   UNL d   1      -1.433   4.506  -0.727  0.00  0.00     0.020 A 
ATOM      2  C1  UNL d   1      -1.397   3.865  -1.965  0.00  0.00     0.020 A 
ATOM      3  C2  UNL d   1      -0.534   2.786  -2.167  0.00  0.00     0.034 A 
ATOM      4  C3  UNL d   1       0.296   2.345  -1.131  0.00  0.00     0.017 A 
ATOM      5  C4  UNL d   1       0.259   2.988   0.111  0.00  0.00     0.017 A 
ATOM      6  C5  UNL d   1      -0.607   4.068   0.309  0.00  0.00     0.034 A 
ATOM      7 Cl   UNL d   1       1.253   2.500   1.438  0.00  0.00    -0.070 Cl
ATOM      8 Cl1  UNL d   1       1.338   1.004  -1.452  0.00  0.00    -0.070 Cl
ENDROOT
TORSDOF 0
ENDMDL
