MODEL 1
REMARK minimizedAffinity 1.59951401
REMARK minimizedRMSD -1
REMARK  0 active torsions:
REMARK  status: ('A' for Active; 'I' for Inactive)
ROOT
ATOM      1  C   UNL d   1       0.490  -1.465  -1.329  0.00  0.00     0.020 A 
ATOM      2  C1  UNL d   1       1.382  -0.396  -1.410  0.00  0.00     0.020 A 
ATOM      3  C2  UNL d   1       0.939   0.904  -1.156  0.00  0.00     0.034 A 
ATOM      4  C3  UNL d   1      -0.399   1.138  -0.820  0.00  0.00     0.017 A 
ATOM      5  C4  UNL d   1      -1.294   0.065  -0.739  0.00  0.00     0.017 A 
ATOM      6  C5  UNL d   1      -0.845  -1.235  -0.994  0.00  0.00     0.034 A 
ATOM      7 Cl   UNL d   1      -2.960   0.275  -0.330  0.00  0.00    -0.070 Cl
ATOM      8 Cl1  UNL d   1      -0.878   2.771  -0.519  0.00  0.00    -0.070 Cl
ENDROOT
TORSDOF 0
ENDMDL
