MODEL 1
REMARK minimizedAffinity 6.60016632
REMARK minimizedRMSD -1
REMARK  0 active torsions:
REMARK  status: ('A' for Active; 'I' for Inactive)
ROOT
ATOM      1  C   UNL d   1      -0.027   2.046   3.041  0.00  0.00     0.020 A 
ATOM      2  C1  UNL d   1       1.038   1.653   2.231  0.00  0.00     0.020 A 
ATOM      3  C2  UNL d   1       1.373   2.408   1.105  0.00  0.00     0.034 A 
ATOM      4  C3  UNL d   1       0.642   3.558   0.785  0.00  0.00     0.017 A 
ATOM      5  C4  UNL d   1      -0.427   3.951   1.599  0.00  0.00     0.017 A 
ATOM      6  C5  UNL d   1      -0.758   3.192   2.725  0.00  0.00     0.034 A 
ATOM      7 Cl   UNL d   1      -1.375   5.358   1.269  0.00  0.00    -0.070 Cl
ATOM      8 Cl1  UNL d   1       1.112   4.443  -0.623  0.00  0.00    -0.070 Cl
ENDROOT
TORSDOF 0
ENDMDL
