MODEL 1
REMARK minimizedAffinity 3.47205162
REMARK minimizedRMSD -1
REMARK  0 active torsions:
REMARK  status: ('A' for Active; 'I' for Inactive)
ROOT
ATOM      1  C   UNL d   1      -4.190   4.177  -5.942  0.00  0.00     0.020 A 
ATOM      2  C1  UNL d   1      -5.458   3.601  -5.999  0.00  0.00     0.020 A 
ATOM      3  C2  UNL d   1      -5.998   2.988  -4.866  0.00  0.00     0.034 A 
ATOM      4  C3  UNL d   1      -5.269   2.949  -3.672  0.00  0.00     0.017 A 
ATOM      5  C4  UNL d   1      -3.996   3.527  -3.616  0.00  0.00     0.017 A 
ATOM      6  C5  UNL d   1      -3.460   4.140  -4.754  0.00  0.00     0.034 A 
ATOM      7 Cl   UNL d   1      -3.036   3.519  -2.179  0.00  0.00    -0.070 Cl
ATOM      8 Cl1  UNL d   1      -5.999   2.175  -2.310  0.00  0.00    -0.070 Cl
ENDROOT
TORSDOF 0
ENDMDL
