MODEL 1
REMARK minimizedAffinity 5.29927921
REMARK minimizedRMSD -1
REMARK  0 active torsions:
REMARK  status: ('A' for Active; 'I' for Inactive)
ROOT
ATOM      1  C   UNL d   1      -0.390   5.826  -3.216  0.00  0.00     0.020 A 
ATOM      2  C1  UNL d   1       0.656   5.419  -2.389  0.00  0.00     0.020 A 
ATOM      3  C2  UNL d   1       0.444   4.424  -1.433  0.00  0.00     0.034 A 
ATOM      4  C3  UNL d   1      -0.817   3.832  -1.302  0.00  0.00     0.017 A 
ATOM      5  C4  UNL d   1      -1.867   4.241  -2.132  0.00  0.00     0.017 A 
ATOM      6  C5  UNL d   1      -1.649   5.238  -3.088  0.00  0.00     0.034 A 
ATOM      7 Cl   UNL d   1      -3.451   3.557  -2.030  0.00  0.00    -0.070 Cl
ATOM      8 Cl1  UNL d   1      -1.008   2.607  -0.098  0.00  0.00    -0.070 Cl
ENDROOT
TORSDOF 0
ENDMDL
