MODEL 1
REMARK minimizedAffinity 2.07702279
REMARK minimizedRMSD -1
REMARK  0 active torsions:
REMARK  status: ('A' for Active; 'I' for Inactive)
ROOT
ATOM      1  C   UNL d   1      -5.064   2.325  -1.978  0.00  0.00     0.020 A 
ATOM      2  C1  UNL d   1      -5.999   3.317  -2.270  0.00  0.00     0.020 A 
ATOM      3  C2  UNL d   1      -5.985   3.944  -3.517  0.00  0.00     0.034 A 
ATOM      4  C3  UNL d   1      -5.035   3.579  -4.478  0.00  0.00     0.017 A 
ATOM      5  C4  UNL d   1      -4.096   2.583  -4.184  0.00  0.00     0.017 A 
ATOM      6  C5  UNL d   1      -4.115   1.959  -2.933  0.00  0.00     0.034 A 
ATOM      7 Cl   UNL d   1      -2.893   2.080  -5.318  0.00  0.00    -0.070 Cl
ATOM      8 Cl1  UNL d   1      -5.076   4.396  -6.000  0.00  0.00    -0.070 Cl
ENDROOT
TORSDOF 0
ENDMDL
