MODEL 1
REMARK minimizedAffinity 6.7777071
REMARK minimizedRMSD -1
REMARK  0 active torsions:
REMARK  status: ('A' for Active; 'I' for Inactive)
ROOT
ATOM      1  C   UNL d   1      -0.254  -3.384  -1.878  0.00  0.00     0.020 A 
ATOM      2  C1  UNL d   1       0.321  -4.033  -0.786  0.00  0.00     0.020 A 
ATOM      3  C2  UNL d   1       1.238  -3.359   0.024  0.00  0.00     0.034 A 
ATOM      4  C3  UNL d   1       1.583  -2.032  -0.257  0.00  0.00     0.017 A 
ATOM      5  C4  UNL d   1       1.005  -1.381  -1.353  0.00  0.00     0.017 A 
ATOM      6  C5  UNL d   1       0.088  -2.061  -2.161  0.00  0.00     0.034 A 
ATOM      7 Cl   UNL d   1       1.381   0.255  -1.762  0.00  0.00    -0.070 Cl
ATOM      8 Cl1  UNL d   1       2.723  -1.260   0.787  0.00  0.00    -0.070 Cl
ENDROOT
TORSDOF 0
ENDMDL
