MODEL 1
REMARK minimizedAffinity 6.8818574
REMARK minimizedRMSD -1
REMARK  0 active torsions:
REMARK  status: ('A' for Active; 'I' for Inactive)
ROOT
ATOM      1  C   UNL d   1      -5.496   2.557  -2.494  0.00  0.00     0.020 A 
ATOM      2  C1  UNL d   1      -4.313   3.109  -2.003  0.00  0.00     0.020 A 
ATOM      3  C2  UNL d   1      -3.632   4.074  -2.748  0.00  0.00     0.034 A 
ATOM      4  C3  UNL d   1      -4.132   4.491  -3.987  0.00  0.00     0.017 A 
ATOM      5  C4  UNL d   1      -5.320   3.936  -4.478  0.00  0.00     0.017 A 
ATOM      6  C5  UNL d   1      -5.998   2.970  -3.729  0.00  0.00     0.034 A 
ATOM      7 Cl   UNL d   1      -6.000   4.400  -5.998  0.00  0.00    -0.070 Cl
ATOM      8 Cl1  UNL d   1      -3.238   5.689  -4.853  0.00  0.00    -0.070 Cl
ENDROOT
TORSDOF 0
ENDMDL
