MODEL 1
REMARK minimizedAffinity 3.84369421
REMARK minimizedRMSD -1
REMARK  0 active torsions:
REMARK  status: ('A' for Active; 'I' for Inactive)
ROOT
ATOM      1  C   UNL d   1      -6.000   3.014  -2.280  0.00  0.00     0.020 A 
ATOM      2  C1  UNL d   1      -4.950   2.174  -1.912  0.00  0.00     0.020 A 
ATOM      3  C2  UNL d   1      -3.899   1.939  -2.802  0.00  0.00     0.034 A 
ATOM      4  C3  UNL d   1      -3.896   2.546  -4.063  0.00  0.00     0.017 A 
ATOM      5  C4  UNL d   1      -4.951   3.389  -4.431  0.00  0.00     0.017 A 
ATOM      6  C5  UNL d   1      -6.000   3.621  -3.537  0.00  0.00     0.034 A 
ATOM      7 Cl   UNL d   1      -5.017   4.174  -5.970  0.00  0.00    -0.070 Cl
ATOM      8 Cl1  UNL d   1      -2.565   2.211  -5.112  0.00  0.00    -0.070 Cl
ENDROOT
TORSDOF 0
ENDMDL
