MODEL 1
REMARK minimizedAffinity -5.07016802
REMARK minimizedRMSD -1
REMARK  0 active torsions:
REMARK  status: ('A' for Active; 'I' for Inactive)
ROOT
ATOM      1  C4' PXY d   1      -0.995   1.340   2.909  0.00  0.00     0.077 C 
ATOM      2  C1' PXY d   1       0.341  -1.101  -2.157  0.00  0.00     0.077 C 
ATOM      3  C1  PXY d   1      -0.021  -0.457  -0.834  0.00  0.00    -0.082 A 
ATOM      4  C2  PXY d   1       0.939  -0.108   0.008  0.00  0.00     0.003 A 
ATOM      5  C3  PXY d   1       0.628   0.447   1.223  0.00  0.00     0.003 A 
ATOM      6  C4  PXY d   1      -0.676   0.695   1.558  0.00  0.00    -0.082 A 
ATOM      7  C5  PXY d   1      -1.661   0.352   0.700  0.00  0.00     0.003 A 
ATOM      8  C6  PXY d   1      -1.326  -0.248  -0.511  0.00  0.00     0.003 A 
ENDROOT
TORSDOF 0
ENDMDL
