MODEL 1
REMARK minimizedAffinity -4.708354
REMARK minimizedRMSD -1
REMARK  0 active torsions:
REMARK  status: ('A' for Active; 'I' for Inactive)
ROOT
ATOM      1  C4' PXY d   1      -0.690  -1.195  -1.253  0.00  0.00     0.077 C 
ATOM      2  C1' PXY d   1       0.004   1.503   3.812  0.00  0.00     0.077 C 
ATOM      3  C1  PXY d   1      -0.166   0.800   2.480  0.00  0.00    -0.082 A 
ATOM      4  C2  PXY d   1      -1.382   0.530   2.034  0.00  0.00     0.003 A 
ATOM      5  C3  PXY d   1      -1.554  -0.134   0.846  0.00  0.00     0.003 A 
ATOM      6  C4  PXY d   1      -0.471  -0.478   0.082  0.00  0.00    -0.082 A 
ATOM      7  C5  PXY d   1       0.773  -0.197   0.526  0.00  0.00     0.003 A 
ATOM      8  C6  PXY d   1       0.927   0.441   1.753  0.00  0.00     0.003 A 
ENDROOT
TORSDOF 0
ENDMDL
