MODEL 1
REMARK minimizedAffinity -4.62928438
REMARK minimizedRMSD -1
REMARK  0 active torsions:
REMARK  status: ('A' for Active; 'I' for Inactive)
ROOT
ATOM      1  C4' PXY d   1       0.043  -0.536  -1.875  0.00  0.00     0.077 C 
ATOM      2  C1' PXY d   1      -0.539   1.619   3.457  0.00  0.00     0.077 C 
ATOM      3  C1  PXY d   1      -0.397   1.047   2.060  0.00  0.00    -0.082 A 
ATOM      4  C2  PXY d   1       0.805   0.930   1.520  0.00  0.00     0.003 A 
ATOM      5  C3  PXY d   1       0.948   0.446   0.245  0.00  0.00     0.003 A 
ATOM      6  C4  PXY d   1      -0.146   0.027  -0.464  0.00  0.00    -0.082 A 
ATOM      7  C5  PXY d   1      -1.375   0.133   0.085  0.00  0.00     0.003 A 
ATOM      8  C6  PXY d   1      -1.503   0.666   1.364  0.00  0.00     0.003 A 
ENDROOT
TORSDOF 0
ENDMDL
