MODEL 1
REMARK minimizedAffinity -3.30794334
REMARK minimizedRMSD -1
REMARK  0 active torsions:
REMARK  status: ('A' for Active; 'I' for Inactive)
ROOT
ATOM      1  C4' PXY d   1      -0.635   1.263   3.482  0.00  0.00     0.077 C 
ATOM      2  C1' PXY d   1       0.939  -0.659  -1.738  0.00  0.00     0.077 C 
ATOM      3  C1  PXY d   1       0.538  -0.158  -0.364  0.00  0.00    -0.082 A 
ATOM      4  C2  PXY d   1      -0.741  -0.128  -0.027  0.00  0.00     0.003 A 
ATOM      5  C3  PXY d   1      -1.123   0.352   1.199  0.00  0.00     0.003 A 
ATOM      6  C4  PXY d   1      -0.183   0.756   2.109  0.00  0.00    -0.082 A 
ATOM      7  C5  PXY d   1       1.124   0.718   1.776  0.00  0.00     0.003 A 
ATOM      8  C6  PXY d   1       1.489   0.266   0.512  0.00  0.00     0.003 A 
ENDROOT
TORSDOF 0
ENDMDL
