MODEL 1
REMARK minimizedAffinity -4.90335131
REMARK minimizedRMSD -1
REMARK  0 active torsions:
REMARK  status: ('A' for Active; 'I' for Inactive)
ROOT
ATOM      1  C4' PXY d   1       0.003   0.983   4.177  0.00  0.00     0.077 C 
ATOM      2  C1' PXY d   1       0.507  -0.242  -1.450  0.00  0.00     0.077 C 
ATOM      3  C1  PXY d   1       0.366   0.088   0.023  0.00  0.00    -0.082 A 
ATOM      4  C2  PXY d   1       1.375  -0.146   0.846  0.00  0.00     0.003 A 
ATOM      5  C3  PXY d   1       1.253   0.117   2.186  0.00  0.00     0.003 A 
ATOM      6  C4  PXY d   1       0.104   0.674   2.680  0.00  0.00    -0.082 A 
ATOM      7  C5  PXY d   1      -0.926   0.926   1.846  0.00  0.00     0.003 A 
ATOM      8  C6  PXY d   1      -0.797   0.614   0.495  0.00  0.00     0.003 A 
ENDROOT
TORSDOF 0
ENDMDL
