MODEL 1
REMARK minimizedAffinity -4.75092983
REMARK minimizedRMSD -1
REMARK  0 active torsions:
REMARK  status: ('A' for Active; 'I' for Inactive)
ROOT
ATOM      1  C4' PXY d   1       2.220   0.428   2.227  0.00  0.00     0.077 C 
ATOM      2  C1' PXY d   1      -2.324  -1.281  -0.912  0.00  0.00     0.077 C 
ATOM      3  C1  PXY d   1      -1.139  -0.822  -0.086  0.00  0.00    -0.082 A 
ATOM      4  C2  PXY d   1       0.075  -1.253  -0.387  0.00  0.00     0.003 A 
ATOM      5  C3  PXY d   1       1.154  -0.873   0.370  0.00  0.00     0.003 A 
ATOM      6  C4  PXY d   1       0.995  -0.001   1.414  0.00  0.00    -0.082 A 
ATOM      7  C5  PXY d   1      -0.239   0.451   1.721  0.00  0.00     0.003 A 
ATOM      8  C6  PXY d   1      -1.326   0.021   0.966  0.00  0.00     0.003 A 
ENDROOT
TORSDOF 0
ENDMDL
