MODEL 1
REMARK minimizedAffinity -4.60178709
REMARK minimizedRMSD -1
REMARK  0 active torsions:
REMARK  status: ('A' for Active; 'I' for Inactive)
ROOT
ATOM      1  C4' PXY d   1      -3.026  -0.307  -0.341  0.00  0.00     0.077 C 
ATOM      2  C1' PXY d   1       1.917   0.490   2.548  0.00  0.00     0.077 C 
ATOM      3  C1  PXY d   1       0.627   0.282   1.779  0.00  0.00    -0.082 A 
ATOM      4  C2  PXY d   1      -0.526   0.616   2.334  0.00  0.00     0.003 A 
ATOM      5  C3  PXY d   1      -1.705   0.405   1.666  0.00  0.00     0.003 A 
ATOM      6  C4  PXY d   1      -1.698  -0.105   0.395  0.00  0.00    -0.082 A 
ATOM      7  C5  PXY d   1      -0.525  -0.439  -0.182  0.00  0.00     0.003 A 
ATOM      8  C6  PXY d   1       0.657  -0.255   0.529  0.00  0.00     0.003 A 
ENDROOT
TORSDOF 0
ENDMDL
