MODEL 1
REMARK minimizedAffinity -0.983231306
REMARK minimizedRMSD -1
REMARK  0 active torsions:
REMARK  status: ('A' for Active; 'I' for Inactive)
ROOT
ATOM      1  C4' PXY d   1       1.132   0.627  -3.705  0.00  0.00     0.077 C 
ATOM      2  C1' PXY d   1      -2.747  -2.993  -6.000  0.00  0.00     0.077 C 
ATOM      3  C1  PXY d   1      -1.728  -2.038  -5.410  0.00  0.00    -0.082 A 
ATOM      4  C2  PXY d   1      -1.068  -2.380  -4.315  0.00  0.00     0.003 A 
ATOM      5  C3  PXY d   1      -0.166  -1.515  -3.750  0.00  0.00     0.003 A 
ATOM      6  C4  PXY d   1       0.101  -0.310  -4.341  0.00  0.00    -0.082 A 
ATOM      7  C5  PXY d   1      -0.560   0.042  -5.464  0.00  0.00     0.003 A 
ATOM      8  C6  PXY d   1      -1.502  -0.833  -5.999  0.00  0.00     0.003 A 
ENDROOT
TORSDOF 0
ENDMDL
