MODEL 1
REMARK minimizedAffinity 11.0734921
REMARK minimizedRMSD -1
REMARK  0 active torsions:
REMARK  status: ('A' for Active; 'I' for Inactive)
ROOT
ATOM      1  C   UNL d   1      -0.295   0.985   1.146  0.00  0.00     0.077 C 
ATOM      2  C1  UNL d   1       0.700  -0.060   1.552  0.00  0.00    -0.074 A 
ATOM      3  C2  UNL d   1       1.821  -0.332   0.761  0.00  0.00    -0.005 A 
ATOM      4  C3  UNL d   1       2.743  -1.300   1.157  0.00  0.00     0.006 A 
ATOM      5  C4  UNL d   1       2.555  -2.006   2.346  0.00  0.00    -0.005 A 
ATOM      6  C5  UNL d   1       1.440  -1.748   3.150  0.00  0.00    -0.074 A 
ATOM      7  C6  UNL d   1       1.227  -2.490   4.436  0.00  0.00     0.077 C 
ATOM      8  C7  UNL d   1       0.522  -0.768   2.749  0.00  0.00    -0.001 A 
ENDROOT
TORSDOF 0
ENDMDL
