MODEL 1
REMARK minimizedAffinity 12.8135576
REMARK minimizedRMSD -1
REMARK  0 active torsions:
REMARK  status: ('A' for Active; 'I' for Inactive)
ROOT
ATOM      1  C   UNL d   1      -5.850   4.401   0.011  0.00  0.00     0.077 C 
ATOM      2  C1  UNL d   1      -4.731   3.429  -0.218  0.00  0.00    -0.074 A 
ATOM      3  C2  UNL d   1      -3.744   3.228   0.752  0.00  0.00    -0.005 A 
ATOM      4  C3  UNL d   1      -2.714   2.314   0.529  0.00  0.00     0.006 A 
ATOM      5  C4  UNL d   1      -2.661   1.594  -0.665  0.00  0.00    -0.005 A 
ATOM      6  C5  UNL d   1      -3.639   1.781  -1.646  0.00  0.00    -0.074 A 
ATOM      7  C6  UNL d   1      -3.603   1.007  -2.931  0.00  0.00     0.077 C 
ATOM      8  C7  UNL d   1      -4.675   2.696  -1.412  0.00  0.00    -0.001 A 
ENDROOT
TORSDOF 0
ENDMDL
