MODEL 1
REMARK minimizedAffinity 6.90789366
REMARK minimizedRMSD -1
REMARK  0 active torsions:
REMARK  status: ('A' for Active; 'I' for Inactive)
ROOT
ATOM      1  C   UNL d   1      -3.154   2.486  -2.573  0.00  0.00     0.077 C 
ATOM      2  C1  UNL d   1      -3.849   1.170  -2.393  0.00  0.00    -0.074 A 
ATOM      3  C2  UNL d   1      -4.800   0.991  -1.383  0.00  0.00    -0.005 A 
ATOM      4  C3  UNL d   1      -5.446  -0.237  -1.234  0.00  0.00     0.006 A 
ATOM      5  C4  UNL d   1      -5.147  -1.296  -2.091  0.00  0.00    -0.005 A 
ATOM      6  C5  UNL d   1      -4.199  -1.136  -3.108  0.00  0.00    -0.074 A 
ATOM      7  C6  UNL d   1      -3.874  -2.261  -4.044  0.00  0.00     0.077 C 
ATOM      8  C7  UNL d   1      -3.560   0.103  -3.255  0.00  0.00    -0.001 A 
ENDROOT
TORSDOF 0
ENDMDL
