MODEL 1
REMARK minimizedAffinity 17.1015701
REMARK minimizedRMSD -1
REMARK  0 active torsions:
REMARK  status: ('A' for Active; 'I' for Inactive)
ROOT
ATOM      1  C   UNL d   1      -4.482   1.518  -3.155  0.00  0.00     0.077 C 
ATOM      2  C1  UNL d   1      -3.625   1.558  -1.924  0.00  0.00    -0.074 A 
ATOM      3  C2  UNL d   1      -2.446   0.810  -1.843  0.00  0.00    -0.005 A 
ATOM      4  C3  UNL d   1      -1.655   0.865  -0.696  0.00  0.00     0.006 A 
ATOM      5  C4  UNL d   1      -2.034   1.668   0.381  0.00  0.00    -0.005 A 
ATOM      6  C5  UNL d   1      -3.209   2.424   0.318  0.00  0.00    -0.074 A 
ATOM      7  C6  UNL d   1      -3.626   3.299   1.463  0.00  0.00     0.077 C 
ATOM      8  C7  UNL d   1      -3.995   2.368  -0.841  0.00  0.00    -0.001 A 
ENDROOT
TORSDOF 0
ENDMDL
