MODEL 1
REMARK minimizedAffinity -2.5023284
REMARK minimizedRMSD -1
REMARK  0 active torsions:
REMARK  status: ('A' for Active; 'I' for Inactive)
ROOT
ATOM      1  C   UNL d   1       5.970  -0.913  -6.000  0.00  0.00     0.077 C 
ATOM      2  C1  UNL d   1       5.047   0.147  -5.476  0.00  0.00    -0.074 A 
ATOM      3  C2  UNL d   1       4.089  -0.151  -4.502  0.00  0.00    -0.005 A 
ATOM      4  C3  UNL d   1       3.244   0.848  -4.018  0.00  0.00     0.006 A 
ATOM      5  C4  UNL d   1       3.349   2.153  -4.503  0.00  0.00    -0.005 A 
ATOM      6  C5  UNL d   1       4.302   2.469  -5.476  0.00  0.00    -0.074 A 
ATOM      7  C6  UNL d   1       4.434   3.869  -6.000  0.00  0.00     0.077 C 
ATOM      8  C7  UNL d   1       5.152   1.462  -5.952  0.00  0.00    -0.001 A 
ENDROOT
TORSDOF 0
ENDMDL
