MODEL 1
REMARK minimizedAffinity 15.2570915
REMARK minimizedRMSD -1
REMARK  0 active torsions:
REMARK  status: ('A' for Active; 'I' for Inactive)
ROOT
ATOM      1  C   UNL d   1       6.000  -2.624   2.619  0.00  0.00     0.077 C 
ATOM      2  C1  UNL d   1       4.644  -3.264   2.574  0.00  0.00    -0.074 A 
ATOM      3  C2  UNL d   1       4.503  -4.632   2.319  0.00  0.00    -0.005 A 
ATOM      4  C3  UNL d   1       3.236  -5.215   2.290  0.00  0.00     0.006 A 
ATOM      5  C4  UNL d   1       2.099  -4.437   2.515  0.00  0.00    -0.005 A 
ATOM      6  C5  UNL d   1       2.221  -3.068   2.773  0.00  0.00    -0.074 A 
ATOM      7  C6  UNL d   1       1.010  -2.220   3.027  0.00  0.00     0.077 C 
ATOM      8  C7  UNL d   1       3.498  -2.491   2.807  0.00  0.00    -0.001 A 
ENDROOT
TORSDOF 0
ENDMDL
