MODEL 1
REMARK minimizedAffinity 10.6827927
REMARK minimizedRMSD -1
REMARK  0 active torsions:
REMARK  status: ('A' for Active; 'I' for Inactive)
ROOT
ATOM      1  C   UNL d   1       1.080   1.709   1.552  0.00  0.00     0.077 C 
ATOM      2  C1  UNL d   1       1.377   0.239   1.538  0.00  0.00    -0.074 A 
ATOM      3  C2  UNL d   1       2.031  -0.352   0.453  0.00  0.00    -0.005 A 
ATOM      4  C3  UNL d   1       2.309  -1.719   0.458  0.00  0.00     0.006 A 
ATOM      5  C4  UNL d   1       1.936  -2.507   1.548  0.00  0.00    -0.005 A 
ATOM      6  C5  UNL d   1       1.282  -1.933   2.643  0.00  0.00    -0.074 A 
ATOM      7  C6  UNL d   1       0.884  -2.764   3.826  0.00  0.00     0.077 C 
ATOM      8  C7  UNL d   1       1.013  -0.558   2.632  0.00  0.00    -0.001 A 
ENDROOT
TORSDOF 0
ENDMDL
