MODEL 1
REMARK minimizedAffinity 3.51463985
REMARK minimizedRMSD -1
REMARK  0 active torsions:
REMARK  status: ('A' for Active; 'I' for Inactive)
ROOT
ATOM      1  C   UNL d   1       0.896   5.961  -4.310  0.00  0.00     0.172 C 
ATOM      2  N   UNL d   1      -0.361   5.975  -3.599  0.00  0.00    -0.070 N 
ATOM      3  C1  UNL d   1      -0.507   5.981  -2.237  0.00  0.00    -0.004 A 
ATOM      4  C2  UNL d   1      -1.857   5.996  -1.958  0.00  0.00    -0.047 A 
ATOM      5  C3  UNL d   1      -2.545   5.998  -3.194  0.00  0.00    -0.047 A 
ATOM      6  C4  UNL d   1      -1.595   5.985  -4.193  0.00  0.00    -0.004 A 
ENDROOT
TORSDOF 0
ENDMDL
