MODEL 1
REMARK minimizedAffinity -2.67892981
REMARK minimizedRMSD -1
REMARK  0 active torsions:
REMARK  status: ('A' for Active; 'I' for Inactive)
ROOT
ATOM      1  C   UNL d   1      -3.746   6.000  -2.822  0.00  0.00     0.172 C 
ATOM      2  N   UNL d   1      -2.529   5.992  -3.599  0.00  0.00    -0.070 N 
ATOM      3  C1  UNL d   1      -1.257   6.000  -3.091  0.00  0.00    -0.004 A 
ATOM      4  C2  UNL d   1      -0.378   5.988  -4.153  0.00  0.00    -0.047 A 
ATOM      5  C3  UNL d   1      -1.149   5.973  -5.340  0.00  0.00    -0.047 A 
ATOM      6  C4  UNL d   1      -2.476   5.976  -4.968  0.00  0.00    -0.004 A 
ENDROOT
TORSDOF 0
ENDMDL
