MODEL 1
REMARK minimizedAffinity -2.64044261
REMARK minimizedRMSD -1
REMARK  0 active torsions:
REMARK  status: ('A' for Active; 'I' for Inactive)
ROOT
ATOM      1  C   UNL d   1      -1.882   5.997  -3.750  0.00  0.00     0.172 C 
ATOM      2  N   UNL d   1      -0.587   5.959  -4.386  0.00  0.00    -0.070 N 
ATOM      3  C1  UNL d   1      -0.361   5.928  -5.737  0.00  0.00    -0.004 A 
ATOM      4  C2  UNL d   1       1.002   5.897  -5.936  0.00  0.00    -0.047 A 
ATOM      5  C3  UNL d   1       1.617   5.909  -4.662  0.00  0.00    -0.047 A 
ATOM      6  C4  UNL d   1       0.611   5.947  -3.720  0.00  0.00    -0.004 A 
ENDROOT
TORSDOF 0
ENDMDL
