MODEL 1
REMARK minimizedAffinity 1.98302591
REMARK minimizedRMSD -1
REMARK  0 active torsions:
REMARK  status: ('A' for Active; 'I' for Inactive)
ROOT
ATOM      1  C   UNL d   1       1.362   3.434  -0.238  0.00  0.00     0.172 C 
ATOM      2  N   UNL d   1       1.077   2.022  -0.137  0.00  0.00    -0.070 N 
ATOM      3  C1  UNL d   1       0.523   1.395   0.947  0.00  0.00    -0.004 A 
ATOM      4  C2  UNL d   1       0.413   0.054   0.649  0.00  0.00    -0.047 A 
ATOM      5  C3  UNL d   1       0.920  -0.131  -0.659  0.00  0.00    -0.047 A 
ATOM      6  C4  UNL d   1       1.324   1.103  -1.122  0.00  0.00    -0.004 A 
ENDROOT
TORSDOF 0
ENDMDL
