MODEL 1
REMARK minimizedAffinity -1.08380437
REMARK minimizedRMSD -1
REMARK  0 active torsions:
REMARK  status: ('A' for Active; 'I' for Inactive)
ROOT
ATOM      1  C   UNL d   1      -0.881   5.921  -4.167  0.00  0.00     0.172 C 
ATOM      2  N   UNL d   1       0.481   5.953  -4.645  0.00  0.00    -0.070 N 
ATOM      3  C1  UNL d   1       0.866   5.969  -5.959  0.00  0.00    -0.004 A 
ATOM      4  C2  UNL d   1       2.243   5.999  -5.996  0.00  0.00    -0.047 A 
ATOM      5  C3  UNL d   1       2.702   5.999  -4.657  0.00  0.00    -0.047 A 
ATOM      6  C4  UNL d   1       1.590   5.970  -3.842  0.00  0.00    -0.004 A 
ENDROOT
TORSDOF 0
ENDMDL
