MODEL 1
REMARK minimizedAffinity -1.58502245
REMARK minimizedRMSD -1
REMARK  0 active torsions:
REMARK  status: ('A' for Active; 'I' for Inactive)
ROOT
ATOM      1  C   UNL d   1       2.756   5.938  -4.544  0.00  0.00     0.172 C 
ATOM      2  N   UNL d   1       4.052   5.439  -4.939  0.00  0.00    -0.070 N 
ATOM      3  C1  UNL d   1       4.679   4.341  -4.411  0.00  0.00    -0.004 A 
ATOM      4  C2  UNL d   1       5.890   4.199  -5.053  0.00  0.00    -0.047 A 
ATOM      5  C3  UNL d   1       5.996   5.247  -5.997  0.00  0.00    -0.047 A 
ATOM      6  C4  UNL d   1       4.844   6.000  -5.905  0.00  0.00    -0.004 A 
ENDROOT
TORSDOF 0
ENDMDL
