MODEL 1
REMARK minimizedAffinity -0.116004735
REMARK minimizedRMSD -1
REMARK  0 active torsions:
REMARK  status: ('A' for Active; 'I' for Inactive)
ROOT
ATOM      1  C   UNL d   1       2.446   5.897  -5.360  0.00  0.00     0.172 C 
ATOM      2  N   UNL d   1       3.783   5.412  -5.113  0.00  0.00    -0.070 N 
ATOM      3  C1  UNL d   1       4.939   5.991  -5.565  0.00  0.00    -0.004 A 
ATOM      4  C2  UNL d   1       5.996   5.229  -5.117  0.00  0.00    -0.047 A 
ATOM      5  C3  UNL d   1       5.458   4.154  -4.371  0.00  0.00    -0.047 A 
ATOM      6  C4  UNL d   1       4.086   4.292  -4.385  0.00  0.00    -0.004 A 
ENDROOT
TORSDOF 0
ENDMDL
