MODEL 1
REMARK minimizedAffinity 2.00997114
REMARK minimizedRMSD -1
REMARK  0 active torsions:
REMARK  status: ('A' for Active; 'I' for Inactive)
ROOT
ATOM      1  C   UNL d   1       1.673   5.900  -4.685  0.00  0.00     0.172 C 
ATOM      2  N   UNL d   1       0.235   5.930  -4.809  0.00  0.00    -0.070 N 
ATOM      3  C1  UNL d   1      -0.655   5.989  -3.770  0.00  0.00    -0.004 A 
ATOM      4  C2  UNL d   1      -1.926   6.000  -4.303  0.00  0.00    -0.047 A 
ATOM      5  C3  UNL d   1      -1.796   5.944  -5.711  0.00  0.00    -0.047 A 
ATOM      6  C4  UNL d   1      -0.447   5.901  -5.997  0.00  0.00    -0.004 A 
ENDROOT
TORSDOF 0
ENDMDL
