MODEL 1
REMARK minimizedAffinity 2.60018492
REMARK minimizedRMSD -1
REMARK  0 active torsions:
REMARK  status: ('A' for Active; 'I' for Inactive)
ROOT
ATOM      1  C   UNL d   1       1.389   3.158   0.122  0.00  0.00     0.172 C 
ATOM      2  N   UNL d   1       0.890   1.922   0.679  0.00  0.00    -0.070 N 
ATOM      3  C1  UNL d   1       0.436   1.749   1.959  0.00  0.00    -0.004 A 
ATOM      4  C2  UNL d   1       0.050   0.433   2.095  0.00  0.00    -0.047 A 
ATOM      5  C3  UNL d   1       0.281  -0.206   0.854  0.00  0.00    -0.047 A 
ATOM      6  C4  UNL d   1       0.801   0.738  -0.004  0.00  0.00    -0.004 A 
ENDROOT
TORSDOF 0
ENDMDL
