MODEL 1
REMARK minimizedAffinity -2.09011579
REMARK minimizedRMSD -1
REMARK  0 active torsions:
REMARK  status: ('A' for Active; 'I' for Inactive)
ROOT
ATOM      1  C   UNL d   1      -1.002   5.804  -4.358  0.00  0.00     0.172 C 
ATOM      2  N   UNL d   1       0.399   5.883  -4.697  0.00  0.00    -0.070 N 
ATOM      3  C1  UNL d   1       0.912   5.927  -5.966  0.00  0.00    -0.004 A 
ATOM      4  C2  UNL d   1       2.285   6.000  -5.864  0.00  0.00    -0.047 A 
ATOM      5  C3  UNL d   1       2.608   5.999  -4.487  0.00  0.00    -0.047 A 
ATOM      6  C4  UNL d   1       1.422   5.926  -3.787  0.00  0.00    -0.004 A 
ENDROOT
TORSDOF 0
ENDMDL
