MODEL 1
REMARK minimizedAffinity 2.57911158
REMARK minimizedRMSD -1
REMARK  0 active torsions:
REMARK  status: ('A' for Active; 'I' for Inactive)
ROOT
ATOM      1  C   UNL d   1       1.095   5.314  -5.990  0.00  0.00     0.172 C 
ATOM      2  N   UNL d   1       2.471   5.209  -5.567  0.00  0.00    -0.070 N 
ATOM      3  C1  UNL d   1       3.502   5.999  -6.000  0.00  0.00    -0.004 A 
ATOM      4  C2  UNL d   1       4.651   5.582  -5.362  0.00  0.00    -0.047 A 
ATOM      5  C3  UNL d   1       4.297   4.504  -4.516  0.00  0.00    -0.047 A 
ATOM      6  C4  UNL d   1       2.943   4.294  -4.663  0.00  0.00    -0.004 A 
ENDROOT
TORSDOF 0
ENDMDL
