MODEL 1
REMARK minimizedAffinity -2.25279856
REMARK minimizedRMSD -1
REMARK  0 active torsions:
REMARK  status: ('A' for Active; 'I' for Inactive)
ROOT
ATOM      1  C   UNL d   1      -0.596   5.986  -3.751  0.00  0.00     0.172 C 
ATOM      2  N   UNL d   1      -1.966   5.991  -3.293  0.00  0.00    -0.070 N 
ATOM      3  C1  UNL d   1      -2.370   5.994  -1.985  0.00  0.00    -0.004 A 
ATOM      4  C2  UNL d   1      -3.749   5.999  -1.970  0.00  0.00    -0.047 A 
ATOM      5  C3  UNL d   1      -4.187   5.999  -3.315  0.00  0.00    -0.047 A 
ATOM      6  C4  UNL d   1      -3.063   5.994  -4.114  0.00  0.00    -0.004 A 
ENDROOT
TORSDOF 0
ENDMDL
