MODEL 1
REMARK minimizedAffinity -1.7686975
REMARK minimizedRMSD -1
REMARK  0 active torsions:
REMARK  status: ('A' for Active; 'I' for Inactive)
ROOT
ATOM      1  C   UNL d   1       1.220  -0.226  -1.124  0.00  0.00     0.172 C 
ATOM      2  N   UNL d   1       1.071   0.816  -0.135  0.00  0.00    -0.070 N 
ATOM      3  C1  UNL d   1       0.394   0.701   1.050  0.00  0.00    -0.004 A 
ATOM      4  C2  UNL d   1       0.485   1.909   1.707  0.00  0.00    -0.047 A 
ATOM      5  C3  UNL d   1       1.242   2.780   0.888  0.00  0.00    -0.047 A 
ATOM      6  C4  UNL d   1       1.592   2.078  -0.245  0.00  0.00    -0.004 A 
ENDROOT
TORSDOF 0
ENDMDL
