MODEL 1
REMARK minimizedAffinity -1.21974468
REMARK minimizedRMSD -1
REMARK  0 active torsions:
REMARK  status: ('A' for Active; 'I' for Inactive)
ROOT
ATOM      1  C   UNL d   1      -0.533   1.122   3.405  0.00  0.00     0.172 C 
ATOM      2  N   UNL d   1       0.013   1.294   2.079  0.00  0.00    -0.070 N 
ATOM      3  C1  UNL d   1       0.190   0.300   1.154  0.00  0.00    -0.004 A 
ATOM      4  C2  UNL d   1       0.732   0.869   0.022  0.00  0.00    -0.047 A 
ATOM      5  C3  UNL d   1       0.888   2.253   0.277  0.00  0.00    -0.047 A 
ATOM      6  C4  UNL d   1       0.435   2.488   1.557  0.00  0.00    -0.004 A 
ENDROOT
TORSDOF 0
ENDMDL
