MODEL 1
REMARK minimizedAffinity 3.11677575
REMARK minimizedRMSD -1
REMARK  0 active torsions:
REMARK  status: ('A' for Active; 'I' for Inactive)
ROOT
ATOM      1  C   UNL d   1       0.482   4.297  -5.999  0.00  0.00     0.172 C 
ATOM      2  N   UNL d   1       1.846   4.727  -5.802  0.00  0.00    -0.070 N 
ATOM      3  C1  UNL d   1       2.318   5.998  -5.995  0.00  0.00    -0.004 A 
ATOM      4  C2  UNL d   1       3.665   5.997  -5.702  0.00  0.00    -0.047 A 
ATOM      5  C3  UNL d   1       4.014   4.680  -5.321  0.00  0.00    -0.047 A 
ATOM      6  C4  UNL d   1       2.870   3.914  -5.392  0.00  0.00    -0.004 A 
ENDROOT
TORSDOF 0
ENDMDL
