MODEL 1
REMARK minimizedAffinity 14.4909534
REMARK minimizedRMSD -1
REMARK  3 active torsions:
REMARK  status: ('A' for Active; 'I' for Inactive)
REMARK    1  A    between atoms: C3'_2  and  C2'_3 
REMARK    2  A    between atoms: C2'_3  and  C1'_4 
REMARK    3  A    between atoms: C1'_4  and  C1_5 
ROOT
ATOM      1  C1  N4B d   1       4.126   2.951  -0.462  0.00  0.00    -0.075 A 
ATOM      2  C2  N4B d   1       5.142   2.993  -1.442  0.00  0.00     0.002 A 
ATOM      3  C3  N4B d   1       5.999   4.065  -1.498  0.00  0.00     0.002 A 
ATOM      4  C4  N4B d   1       5.848   5.111  -0.600  0.00  0.00    -0.004 A 
ATOM      5  C5  N4B d   1       4.880   5.051   0.360  0.00  0.00     0.002 A 
ATOM      6  C6  N4B d   1       4.015   3.978   0.430  0.00  0.00     0.002 A 
ENDROOT
BRANCH   1   7
ATOM      7  C1' N4B d   1       3.112   1.841  -0.416  0.00  0.00     0.057 C 
BRANCH   7   8
ATOM      8  C2' N4B d   1       2.679   1.499  -1.838  0.00  0.00     0.009 C 
BRANCH   8   9
ATOM      9  C3' N4B d   1       2.523   0.002  -2.041  0.00  0.00     0.004 C 
ATOM     10  C4' N4B d   1       1.142  -0.384  -2.479  0.00  0.00     0.003 C 
ENDBRANCH   8   9
ENDBRANCH   7   8
ENDBRANCH   1   7
TORSDOF 3
ENDMDL
