MODEL 1
REMARK minimizedAffinity 13.7955694
REMARK minimizedRMSD -1
REMARK  3 active torsions:
REMARK  status: ('A' for Active; 'I' for Inactive)
REMARK    1  A    between atoms: C3'_2  and  C2'_3 
REMARK    2  A    between atoms: C2'_3  and  C1'_4 
REMARK    3  A    between atoms: C1'_4  and  C1_5 
ROOT
ATOM      1  C1  N4B d   1      -3.686   0.209   5.710  0.00  0.00    -0.075 A 
ATOM      2  C2  N4B d   1      -3.343   1.578   5.660  0.00  0.00     0.002 A 
ATOM      3  C3  N4B d   1      -4.321   2.536   5.771  0.00  0.00     0.002 A 
ATOM      4  C4  N4B d   1      -5.646   2.150   5.912  0.00  0.00    -0.004 A 
ATOM      5  C5  N4B d   1      -5.966   0.826   5.985  0.00  0.00     0.002 A 
ATOM      6  C6  N4B d   1      -4.992  -0.147   5.879  0.00  0.00     0.002 A 
ENDROOT
BRANCH   1   7
ATOM      7  C1' N4B d   1      -2.662  -0.874   5.508  0.00  0.00     0.057 C 
BRANCH   7   8
ATOM      8  C2' N4B d   1      -2.643  -1.276   4.036  0.00  0.00     0.009 C 
BRANCH   8   9
ATOM      9  C3' N4B d   1      -2.313  -2.748   3.854  0.00  0.00     0.004 C 
ATOM     10  C4' N4B d   1      -1.526  -3.016   2.606  0.00  0.00     0.003 C 
ENDBRANCH   8   9
ENDBRANCH   7   8
ENDBRANCH   1   7
TORSDOF 3
ENDMDL
