MODEL 1
REMARK minimizedAffinity 14.3371315
REMARK minimizedRMSD -1
REMARK  3 active torsions:
REMARK  status: ('A' for Active; 'I' for Inactive)
REMARK    1  A    between atoms: C3'_2  and  C2'_3 
REMARK    2  A    between atoms: C2'_3  and  C1'_4 
REMARK    3  A    between atoms: C1'_4  and  C1_5 
ROOT
ATOM      1  C1  N4B d   1       1.086   2.096  -3.583  0.00  0.00    -0.075 A 
ATOM      2  C2  N4B d   1       0.844   0.835  -4.171  0.00  0.00     0.002 A 
ATOM      3  C3  N4B d   1       1.490  -0.280  -3.696  0.00  0.00     0.002 A 
ATOM      4  C4  N4B d   1       2.393  -0.155  -2.651  0.00  0.00    -0.004 A 
ATOM      5  C5  N4B d   1       2.603   1.062  -2.072  0.00  0.00     0.002 A 
ATOM      6  C6  N4B d   1       1.957   2.190  -2.536  0.00  0.00     0.002 A 
ENDROOT
BRANCH   1   7
ATOM      7  C1' N4B d   1       0.468   3.356  -4.124  0.00  0.00     0.057 C 
BRANCH   7   8
ATOM      8  C2' N4B d   1      -0.754   2.995  -4.963  0.00  0.00     0.009 C 
BRANCH   8   9
ATOM      9  C3' N4B d   1      -2.053   3.285  -4.231  0.00  0.00     0.004 C 
ATOM     10  C4' N4B d   1      -2.639   2.067  -3.582  0.00  0.00     0.003 C 
ENDBRANCH   8   9
ENDBRANCH   7   8
ENDBRANCH   1   7
TORSDOF 3
ENDMDL
