MODEL 1
REMARK minimizedAffinity 21.5414734
REMARK minimizedRMSD -1
REMARK  3 active torsions:
REMARK  status: ('A' for Active; 'I' for Inactive)
REMARK    1  A    between atoms: C3'_2  and  C2'_3 
REMARK    2  A    between atoms: C2'_3  and  C1'_4 
REMARK    3  A    between atoms: C1'_4  and  C1_5 
ROOT
ATOM      1  C1  N4B d   1      -0.949   1.053  -3.693  0.00  0.00    -0.075 A 
ATOM      2  C2  N4B d   1      -0.280   2.112  -4.346  0.00  0.00     0.002 A 
ATOM      3  C3  N4B d   1      -0.979   3.227  -4.737  0.00  0.00     0.002 A 
ATOM      4  C4  N4B d   1      -2.344   3.298  -4.504  0.00  0.00    -0.004 A 
ATOM      5  C5  N4B d   1      -2.978   2.283  -3.850  0.00  0.00     0.002 A 
ATOM      6  C6  N4B d   1      -2.288   1.157  -3.448  0.00  0.00     0.002 A 
ENDROOT
BRANCH   1   7
ATOM      7  C1' N4B d   1      -0.244  -0.223  -3.323  0.00  0.00     0.057 C 
BRANCH   7   8
ATOM      8  C2' N4B d   1      -1.206  -1.120  -2.547  0.00  0.00     0.009 C 
BRANCH   8   9
ATOM      9  C3' N4B d   1      -0.506  -1.864  -1.423  0.00  0.00     0.004 C 
ATOM     10  C4' N4B d   1      -1.421  -2.175  -0.276  0.00  0.00     0.003 C 
ENDBRANCH   8   9
ENDBRANCH   7   8
ENDBRANCH   1   7
TORSDOF 3
ENDMDL
