MODEL 1
REMARK minimizedAffinity 12.3036833
REMARK minimizedRMSD -1
REMARK  3 active torsions:
REMARK  status: ('A' for Active; 'I' for Inactive)
REMARK    1  A    between atoms: C3'_2  and  C2'_3 
REMARK    2  A    between atoms: C2'_3  and  C1'_4 
REMARK    3  A    between atoms: C1'_4  and  C1_5 
ROOT
ATOM      1  C1  N4B d   1      -1.729   2.257  -4.090  0.00  0.00    -0.075 A 
ATOM      2  C2  N4B d   1      -2.157   2.903  -5.270  0.00  0.00     0.002 A 
ATOM      3  C3  N4B d   1      -1.272   3.660  -5.998  0.00  0.00     0.002 A 
ATOM      4  C4  N4B d   1       0.035   3.800  -5.557  0.00  0.00    -0.004 A 
ATOM      5  C5  N4B d   1       0.447   3.152  -4.429  0.00  0.00     0.002 A 
ATOM      6  C6  N4B d   1      -0.431   2.385  -3.690  0.00  0.00     0.002 A 
ENDROOT
BRANCH   1   7
ATOM      7  C1' N4B d   1      -2.682   1.489  -3.215  0.00  0.00     0.057 C 
BRANCH   7   8
ATOM      8  C2' N4B d   1      -1.951   0.297  -2.604  0.00  0.00     0.009 C 
BRANCH   8   9
ATOM      9  C3' N4B d   1      -2.735  -0.326  -1.462  0.00  0.00     0.004 C 
ATOM     10  C4' N4B d   1      -1.909  -1.266  -0.635  0.00  0.00     0.003 C 
ENDBRANCH   8   9
ENDBRANCH   7   8
ENDBRANCH   1   7
TORSDOF 3
ENDMDL
