MODEL 1
REMARK minimizedAffinity 12.2497854
REMARK minimizedRMSD -1
REMARK  3 active torsions:
REMARK  status: ('A' for Active; 'I' for Inactive)
REMARK    1  A    between atoms: C3'_2  and  C2'_3 
REMARK    2  A    between atoms: C2'_3  and  C1'_4 
REMARK    3  A    between atoms: C1'_4  and  C1_5 
ROOT
ATOM      1  C1  N4B d   1      -4.251   4.947  -1.051  0.00  0.00    -0.075 A 
ATOM      2  C2  N4B d   1      -5.150   5.999  -0.770  0.00  0.00     0.002 A 
ATOM      3  C3  N4B d   1      -5.946   5.943   0.347  0.00  0.00     0.002 A 
ATOM      4  C4  N4B d   1      -5.875   4.840   1.185  0.00  0.00    -0.004 A 
ATOM      5  C5  N4B d   1      -4.986   3.840   0.921  0.00  0.00     0.002 A 
ATOM      6  C6  N4B d   1      -4.177   3.885  -0.196  0.00  0.00     0.002 A 
ENDROOT
BRANCH   1   7
ATOM      7  C1' N4B d   1      -3.422   4.923  -2.306  0.00  0.00     0.057 C 
BRANCH   7   8
ATOM      8  C2' N4B d   1      -3.048   3.480  -2.632  0.00  0.00     0.009 C 
BRANCH   8   9
ATOM      9  C3' N4B d   1      -2.527   3.335  -4.051  0.00  0.00     0.004 C 
ATOM     10  C4' N4B d   1      -1.246   2.559  -4.123  0.00  0.00     0.003 C 
ENDBRANCH   8   9
ENDBRANCH   7   8
ENDBRANCH   1   7
TORSDOF 3
ENDMDL
