MODEL 1
REMARK minimizedAffinity 17.7869854
REMARK minimizedRMSD -1
REMARK  3 active torsions:
REMARK  status: ('A' for Active; 'I' for Inactive)
REMARK    1  A    between atoms: C3'_2  and  C2'_3 
REMARK    2  A    between atoms: C2'_3  and  C1'_4 
REMARK    3  A    between atoms: C1'_4  and  C1_5 
ROOT
ATOM      1  C1  N4B d   1      -2.569  -1.088   3.721  0.00  0.00    -0.075 A 
ATOM      2  C2  N4B d   1      -2.852  -0.742   2.382  0.00  0.00     0.002 A 
ATOM      3  C3  N4B d   1      -2.674  -1.666   1.382  0.00  0.00     0.002 A 
ATOM      4  C4  N4B d   1      -2.198  -2.931   1.693  0.00  0.00    -0.004 A 
ATOM      5  C5  N4B d   1      -1.951  -3.265   2.993  0.00  0.00     0.002 A 
ATOM      6  C6  N4B d   1      -2.129  -2.348   4.009  0.00  0.00     0.002 A 
ENDROOT
BRANCH   1   7
ATOM      7  C1' N4B d   1      -2.666  -0.085   4.838  0.00  0.00     0.057 C 
BRANCH   7   8
ATOM      8  C2' N4B d   1      -3.647   1.014   4.440  0.00  0.00     0.009 C 
BRANCH   8   9
ATOM      9  C3' N4B d   1      -3.994   1.917   5.611  0.00  0.00     0.004 C 
ATOM     10  C4' N4B d   1      -5.455   1.898   5.946  0.00  0.00     0.003 C 
ENDBRANCH   8   9
ENDBRANCH   7   8
ENDBRANCH   1   7
TORSDOF 3
ENDMDL
