MODEL 1
REMARK minimizedAffinity 9.08250809
REMARK minimizedRMSD -1
REMARK  3 active torsions:
REMARK  status: ('A' for Active; 'I' for Inactive)
REMARK    1  A    between atoms: C3'_2  and  C2'_3 
REMARK    2  A    between atoms: C2'_3  and  C1'_4 
REMARK    3  A    between atoms: C1'_4  and  C1_5 
ROOT
ATOM      1  C1  N4B d   1      -1.837  -2.506   3.424  0.00  0.00    -0.075 A 
ATOM      2  C2  N4B d   1      -0.666  -2.819   4.148  0.00  0.00     0.002 A 
ATOM      3  C3  N4B d   1      -0.351  -2.112   5.282  0.00  0.00     0.002 A 
ATOM      4  C4  N4B d   1      -1.178  -1.079   5.699  0.00  0.00    -0.004 A 
ATOM      5  C5  N4B d   1      -2.320  -0.800   5.007  0.00  0.00     0.002 A 
ATOM      6  C6  N4B d   1      -2.652  -1.505   3.868  0.00  0.00     0.002 A 
ENDROOT
BRANCH   1   7
ATOM      7  C1' N4B d   1      -2.178  -3.195   2.131  0.00  0.00     0.057 C 
BRANCH   7   8
ATOM      8  C2' N4B d   1      -0.895  -3.452   1.346  0.00  0.00     0.009 C 
BRANCH   8   9
ATOM      9  C3' N4B d   1      -0.460  -4.905   1.430  0.00  0.00     0.004 C 
ATOM     10  C4' N4B d   1      -0.560  -5.617   0.114  0.00  0.00     0.003 C 
ENDBRANCH   8   9
ENDBRANCH   7   8
ENDBRANCH   1   7
TORSDOF 3
ENDMDL
