MODEL 1
REMARK minimizedAffinity 18.0133877
REMARK minimizedRMSD -1
REMARK  3 active torsions:
REMARK  status: ('A' for Active; 'I' for Inactive)
REMARK    1  A    between atoms: C3'_2  and  C2'_3 
REMARK    2  A    between atoms: C2'_3  and  C1'_4 
REMARK    3  A    between atoms: C1'_4  and  C1_5 
ROOT
ATOM      1  C1  N4B d   1      -2.325  -0.960   5.322  0.00  0.00    -0.075 A 
ATOM      2  C2  N4B d   1      -1.089  -0.858   5.998  0.00  0.00     0.002 A 
ATOM      3  C3  N4B d   1       0.015  -1.516   5.514  0.00  0.00     0.002 A 
ATOM      4  C4  N4B d   1      -0.097  -2.293   4.371  0.00  0.00    -0.004 A 
ATOM      5  C5  N4B d   1      -1.288  -2.365   3.709  0.00  0.00     0.002 A 
ATOM      6  C6  N4B d   1      -2.405  -1.706   4.183  0.00  0.00     0.002 A 
ENDROOT
BRANCH   1   7
ATOM      7  C1' N4B d   1      -3.579  -0.328   5.861  0.00  0.00     0.057 C 
BRANCH   7   8
ATOM      8  C2' N4B d   1      -3.415   1.189   5.866  0.00  0.00     0.009 C 
BRANCH   8   9
ATOM      9  C3' N4B d   1      -4.751   1.905   5.947  0.00  0.00     0.004 C 
ATOM     10  C4' N4B d   1      -5.917   0.961   5.959  0.00  0.00     0.003 C 
ENDBRANCH   8   9
ENDBRANCH   7   8
ENDBRANCH   1   7
TORSDOF 3
ENDMDL
