MODEL 1
REMARK minimizedAffinity 18.1592083
REMARK minimizedRMSD -1
REMARK  3 active torsions:
REMARK  status: ('A' for Active; 'I' for Inactive)
REMARK    1  A    between atoms: C3'_2  and  C2'_3 
REMARK    2  A    between atoms: C2'_3  and  C1'_4 
REMARK    3  A    between atoms: C1'_4  and  C1_5 
ROOT
ATOM      1  C1  N4B d   1       4.213   3.349  -0.066  0.00  0.00    -0.075 A 
ATOM      2  C2  N4B d   1       5.202   3.116  -1.048  0.00  0.00     0.002 A 
ATOM      3  C3  N4B d   1       5.999   4.148  -1.477  0.00  0.00     0.002 A 
ATOM      4  C4  N4B d   1       5.816   5.420  -0.955  0.00  0.00    -0.004 A 
ATOM      5  C5  N4B d   1       4.876   5.631   0.011  0.00  0.00     0.002 A 
ATOM      6  C6  N4B d   1       4.070   4.602   0.455  0.00  0.00     0.002 A 
ENDROOT
BRANCH   1   7
ATOM      7  C1' N4B d   1       3.260   2.271   0.372  0.00  0.00     0.057 C 
BRANCH   7   8
ATOM      8  C2' N4B d   1       2.352   1.900  -0.797  0.00  0.00     0.009 C 
BRANCH   8   9
ATOM      9  C3' N4B d   1       2.601   0.483  -1.283  0.00  0.00     0.004 C 
ATOM     10  C4' N4B d   1       1.870   0.167  -2.554  0.00  0.00     0.003 C 
ENDBRANCH   8   9
ENDBRANCH   7   8
ENDBRANCH   1   7
TORSDOF 3
ENDMDL
