MODEL 1
REMARK minimizedAffinity -3.80746436
REMARK minimizedRMSD -1
REMARK  1 active torsions:
REMARK  status: ('A' for Active; 'I' for Inactive)
REMARK    1  A    between atoms: C1_2  and  C2_3 
ROOT
ATOM      1  C2  UNL d   1      -0.091  -1.012   0.089  0.00  0.00    -0.073 A 
ATOM      2  C3  UNL d   1       1.278  -1.202   0.304  0.00  0.00    -0.002 A 
ATOM      3  C4  UNL d   1       2.117  -0.107   0.515  0.00  0.00     0.004 A 
ATOM      4  C5  UNL d   1       1.595   1.187   0.520  0.00  0.00    -0.004 A 
ATOM      5  C6  UNL d   1       0.227   1.396   0.319  0.00  0.00    -0.075 A 
ATOM      6  C7  UNL d   1      -0.349   2.781   0.320  0.00  0.00     0.076 C 
ATOM      7  C8  UNL d   1      -0.608   0.292   0.105  0.00  0.00     0.001 A 
ENDROOT
BRANCH   1   8
ATOM      8  C1  UNL d   1      -1.002  -2.192  -0.133  0.00  0.00     0.053 C 
ATOM      9  C   UNL d   1      -1.130  -2.544  -1.606  0.00  0.00     0.018 C 
ENDBRANCH   1   8
TORSDOF 1
ENDMDL
