MODEL 1
REMARK minimizedAffinity -6.11263323
REMARK minimizedRMSD -1
REMARK  1 active torsions:
REMARK  status: ('A' for Active; 'I' for Inactive)
REMARK    1  A    between atoms: C1_2  and  C2_3 
ROOT
ATOM      1  C2  UNL d   1       0.463   1.539   0.110  0.00  0.00    -0.073 A 
ATOM      2  C3  UNL d   1       1.843   1.493   0.338  0.00  0.00    -0.002 A 
ATOM      3  C4  UNL d   1       2.500   0.266   0.438  0.00  0.00     0.004 A 
ATOM      4  C5  UNL d   1       1.787  -0.926   0.306  0.00  0.00    -0.004 A 
ATOM      5  C6  UNL d   1       0.410  -0.900   0.066  0.00  0.00    -0.075 A 
ATOM      6  C7  UNL d   1      -0.372  -2.173  -0.077  0.00  0.00     0.076 C 
ATOM      7  C8  UNL d   1      -0.244   0.336  -0.031  0.00  0.00     0.001 A 
ENDROOT
BRANCH   1   8
ATOM      8  C1  UNL d   1      -0.250   2.861  -0.006  0.00  0.00     0.053 C 
ATOM      9  C   UNL d   1       0.685   4.036   0.235  0.00  0.00     0.018 C 
ENDBRANCH   1   8
TORSDOF 1
ENDMDL
