MODEL 1
REMARK minimizedAffinity -5.47951221
REMARK minimizedRMSD -1
REMARK  1 active torsions:
REMARK  status: ('A' for Active; 'I' for Inactive)
REMARK    1  A    between atoms: C1_2  and  C2_3 
ROOT
ATOM      1  C2  UNL d   1      -0.155   0.010   0.325  0.00  0.00    -0.073 A 
ATOM      2  C3  UNL d   1       1.119  -0.559   0.428  0.00  0.00    -0.002 A 
ATOM      3  C4  UNL d   1       2.259   0.234   0.284  0.00  0.00     0.004 A 
ATOM      4  C5  UNL d   1       2.136   1.602   0.044  0.00  0.00    -0.004 A 
ATOM      5  C6  UNL d   1       0.871   2.191  -0.050  0.00  0.00    -0.075 A 
ATOM      6  C7  UNL d   1       0.722   3.662  -0.310  0.00  0.00     0.076 C 
ATOM      7  C8  UNL d   1      -0.269   1.388   0.093  0.00  0.00     0.001 A 
ENDROOT
BRANCH   1   8
ATOM      8  C1  UNL d   1      -1.388  -0.841   0.486  0.00  0.00     0.053 C 
ATOM      9  C   UNL d   1      -2.473  -0.130   1.279  0.00  0.00     0.018 C 
ENDBRANCH   1   8
TORSDOF 1
ENDMDL
