MODEL 1
REMARK minimizedAffinity -5.20209599
REMARK minimizedRMSD -1
REMARK  1 active torsions:
REMARK  status: ('A' for Active; 'I' for Inactive)
REMARK    1  A    between atoms: C1_2  and  C2_3 
ROOT
ATOM      1  C2  UNL d   1       0.062  -0.254  -0.013  0.00  0.00    -0.073 A 
ATOM      2  C3  UNL d   1      -1.226  -0.273   0.534  0.00  0.00    -0.002 A 
ATOM      3  C4  UNL d   1      -1.892   0.922   0.810  0.00  0.00     0.004 A 
ATOM      4  C5  UNL d   1      -1.280   2.146   0.538  0.00  0.00    -0.004 A 
ATOM      5  C6  UNL d   1       0.002   2.185  -0.019  0.00  0.00    -0.075 A 
ATOM      6  C7  UNL d   1       0.674   3.493  -0.316  0.00  0.00     0.076 C 
ATOM      7  C8  UNL d   1       0.665   0.981  -0.292  0.00  0.00     0.001 A 
ENDROOT
BRANCH   1   8
ATOM      8  C1  UNL d   1       0.782  -1.542  -0.319  0.00  0.00     0.053 C 
ATOM      9  C   UNL d   1      -0.050  -2.466  -1.195  0.00  0.00     0.018 C 
ENDBRANCH   1   8
TORSDOF 1
ENDMDL
