MODEL 1
REMARK minimizedAffinity -4.6350441
REMARK minimizedRMSD -1
REMARK  1 active torsions:
REMARK  status: ('A' for Active; 'I' for Inactive)
REMARK    1  A    between atoms: C1_2  and  C2_3 
ROOT
ATOM      1  C2  UNL d   1       0.130  -0.681   0.023  0.00  0.00    -0.073 A 
ATOM      2  C3  UNL d   1       1.482  -0.948   0.270  0.00  0.00    -0.002 A 
ATOM      3  C4  UNL d   1       2.383   0.100   0.463  0.00  0.00     0.004 A 
ATOM      4  C5  UNL d   1       1.942   1.422   0.419  0.00  0.00    -0.004 A 
ATOM      5  C6  UNL d   1       0.593   1.709   0.185  0.00  0.00    -0.075 A 
ATOM      6  C7  UNL d   1       0.103   3.126   0.132  0.00  0.00     0.076 C 
ATOM      7  C8  UNL d   1      -0.305   0.651  -0.011  0.00  0.00     0.001 A 
ENDROOT
BRANCH   1   8
ATOM      8  C1  UNL d   1      -0.848  -1.810  -0.179  0.00  0.00     0.053 C 
ATOM      9  C   UNL d   1      -0.379  -2.786  -1.246  0.00  0.00     0.018 C 
ENDBRANCH   1   8
TORSDOF 1
ENDMDL
