MODEL 1
REMARK minimizedAffinity -4.36429453
REMARK minimizedRMSD -1
REMARK  1 active torsions:
REMARK  status: ('A' for Active; 'I' for Inactive)
REMARK    1  A    between atoms: C1_2  and  C2_3 
ROOT
ATOM      1  C2  UNL d   1      -0.157  -0.090   0.039  0.00  0.00    -0.073 A 
ATOM      2  C3  UNL d   1      -1.513   0.074   0.343  0.00  0.00    -0.002 A 
ATOM      3  C4  UNL d   1      -2.067   1.352   0.430  0.00  0.00     0.004 A 
ATOM      4  C5  UNL d   1      -1.274   2.477   0.208  0.00  0.00    -0.004 A 
ATOM      5  C6  UNL d   1       0.081   2.334  -0.108  0.00  0.00    -0.075 A 
ATOM      6  C7  UNL d   1       0.949   3.534  -0.348  0.00  0.00     0.076 C 
ATOM      7  C8  UNL d   1       0.630   1.047  -0.191  0.00  0.00     0.001 A 
ENDROOT
BRANCH   1   8
ATOM      8  C1  UNL d   1       0.444  -1.468  -0.062  0.00  0.00     0.053 C 
ATOM      9  C   UNL d   1      -0.470  -2.436  -0.798  0.00  0.00     0.018 C 
ENDBRANCH   1   8
TORSDOF 1
ENDMDL
