MODEL 1
REMARK minimizedAffinity -3.63798761
REMARK minimizedRMSD -1
REMARK  1 active torsions:
REMARK  status: ('A' for Active; 'I' for Inactive)
REMARK    1  A    between atoms: C1_2  and  C2_3 
ROOT
ATOM      1  C2  UNL d   1       0.106  -0.465  -0.262  0.00  0.00    -0.073 A 
ATOM      2  C3  UNL d   1       1.309   0.149  -0.626  0.00  0.00    -0.002 A 
ATOM      3  C4  UNL d   1       1.439   1.537  -0.563  0.00  0.00     0.004 A 
ATOM      4  C5  UNL d   1       0.372   2.324  -0.130  0.00  0.00    -0.004 A 
ATOM      5  C6  UNL d   1      -0.835   1.727   0.249  0.00  0.00    -0.075 A 
ATOM      6  C7  UNL d   1      -1.994   2.559   0.715  0.00  0.00     0.076 C 
ATOM      7  C8  UNL d   1      -0.959   0.333   0.181  0.00  0.00     0.001 A 
ENDROOT
BRANCH   1   8
ATOM      8  C1  UNL d   1      -0.037  -1.964  -0.321  0.00  0.00     0.053 C 
ATOM      9  C   UNL d   1      -0.657  -2.426  -1.631  0.00  0.00     0.018 C 
ENDBRANCH   1   8
TORSDOF 1
ENDMDL
