MODEL 1
REMARK minimizedAffinity -2.98465943
REMARK minimizedRMSD -1
REMARK  1 active torsions:
REMARK  status: ('A' for Active; 'I' for Inactive)
REMARK    1  A    between atoms: C1_2  and  C2_3 
ROOT
ATOM      1  C2  UNL d   1      -0.001  -0.231  -0.059  0.00  0.00    -0.073 A 
ATOM      2  C3  UNL d   1      -1.070  -0.249   0.844  0.00  0.00    -0.002 A 
ATOM      3  C4  UNL d   1      -1.695   0.941   1.220  0.00  0.00     0.004 A 
ATOM      4  C5  UNL d   1      -1.263   2.158   0.693  0.00  0.00    -0.004 A 
ATOM      5  C6  UNL d   1      -0.204   2.196  -0.219  0.00  0.00    -0.075 A 
ATOM      6  C7  UNL d   1       0.275   3.497  -0.794  0.00  0.00     0.076 C 
ATOM      7  C8  UNL d   1       0.421   0.997  -0.590  0.00  0.00     0.001 A 
ENDROOT
BRANCH   1   8
ATOM      8  C1  UNL d   1       0.673  -1.513  -0.473  0.00  0.00     0.053 C 
ATOM      9  C   UNL d   1      -0.333  -2.585  -0.863  0.00  0.00     0.018 C 
ENDBRANCH   1   8
TORSDOF 1
ENDMDL
