MODEL 1
REMARK minimizedAffinity -5.61488199
REMARK minimizedRMSD -1
REMARK  1 active torsions:
REMARK  status: ('A' for Active; 'I' for Inactive)
REMARK    1  A    between atoms: C1_2  and  C2_3 
ROOT
ATOM      1  C2  UNL d   1      -0.461  -1.239  -0.207  0.00  0.00    -0.073 A 
ATOM      2  C3  UNL d   1      -1.525  -0.423   0.194  0.00  0.00    -0.002 A 
ATOM      3  C4  UNL d   1      -1.333   0.947   0.377  0.00  0.00     0.004 A 
ATOM      4  C5  UNL d   1      -0.079   1.516   0.153  0.00  0.00    -0.004 A 
ATOM      5  C6  UNL d   1       0.994   0.719  -0.260  0.00  0.00    -0.075 A 
ATOM      6  C7  UNL d   1       2.349   1.315  -0.502  0.00  0.00     0.076 C 
ATOM      7  C8  UNL d   1       0.793  -0.657  -0.438  0.00  0.00     0.001 A 
ENDROOT
BRANCH   1   8
ATOM      8  C1  UNL d   1      -0.665  -2.718  -0.412  0.00  0.00     0.053 C 
ATOM      9  C   UNL d   1      -0.690  -3.092  -1.886  0.00  0.00     0.018 C 
ENDBRANCH   1   8
TORSDOF 1
ENDMDL
