MODEL 1
REMARK minimizedAffinity -4.6046505
REMARK minimizedRMSD -1
REMARK  1 active torsions:
REMARK  status: ('A' for Active; 'I' for Inactive)
REMARK    1  A    between atoms: C1_2  and  C2_3 
ROOT
ATOM      1  C2  UNL d   1      -0.023  -0.143   0.025  0.00  0.00    -0.073 A 
ATOM      2  C3  UNL d   1      -1.383  -0.062   0.344  0.00  0.00    -0.002 A 
ATOM      3  C4  UNL d   1      -1.996   1.181   0.508  0.00  0.00     0.004 A 
ATOM      4  C5  UNL d   1      -1.259   2.354   0.347  0.00  0.00    -0.004 A 
ATOM      5  C6  UNL d   1       0.099   2.294   0.016  0.00  0.00    -0.075 A 
ATOM      6  C7  UNL d   1       0.907   3.546  -0.158  0.00  0.00     0.076 C 
ATOM      7  C8  UNL d   1       0.708   1.042  -0.144  0.00  0.00     0.001 A 
ENDROOT
BRANCH   1   8
ATOM      8  C1  UNL d   1       0.642  -1.483  -0.159  0.00  0.00     0.053 C 
ATOM      9  C   UNL d   1      -0.209  -2.432  -0.988  0.00  0.00     0.018 C 
ENDBRANCH   1   8
TORSDOF 1
ENDMDL
