MODEL 1
REMARK minimizedAffinity -4.67328882
REMARK minimizedRMSD -1
REMARK  1 active torsions:
REMARK  status: ('A' for Active; 'I' for Inactive)
REMARK    1  A    between atoms: C1_2  and  C2_3 
ROOT
ATOM      1  C2  UNL d   1       0.287  -0.925  -0.218  0.00  0.00    -0.073 A 
ATOM      2  C3  UNL d   1       1.662  -0.988   0.037  0.00  0.00    -0.002 A 
ATOM      3  C4  UNL d   1       2.409   0.183   0.167  0.00  0.00     0.004 A 
ATOM      4  C5  UNL d   1       1.789   1.427   0.051  0.00  0.00    -0.004 A 
ATOM      5  C6  UNL d   1       0.414   1.511  -0.191  0.00  0.00    -0.075 A 
ATOM      6  C7  UNL d   1      -0.267   2.842  -0.321  0.00  0.00     0.076 C 
ATOM      7  C8  UNL d   1      -0.328   0.330  -0.324  0.00  0.00     0.001 A 
ENDROOT
BRANCH   1   8
ATOM      8  C1  UNL d   1      -0.525  -2.188  -0.353  0.00  0.00     0.053 C 
ATOM      9  C   UNL d   1      -0.565  -2.689  -1.788  0.00  0.00     0.018 C 
ENDBRANCH   1   8
TORSDOF 1
ENDMDL
