MODEL 1
REMARK minimizedAffinity -3.12213373
REMARK minimizedRMSD -1
REMARK  1 active torsions:
REMARK  status: ('A' for Active; 'I' for Inactive)
REMARK    1  A    between atoms: C1_2  and  C2_3 
ROOT
ATOM      1  C2  UNL d   1      -0.205  -0.511  -0.115  0.00  0.00    -0.073 A 
ATOM      2  C3  UNL d   1      -1.528  -0.435   0.335  0.00  0.00    -0.002 A 
ATOM      3  C4  UNL d   1      -2.114   0.804   0.596  0.00  0.00     0.004 A 
ATOM      4  C5  UNL d   1      -1.388   1.979   0.403  0.00  0.00    -0.004 A 
ATOM      5  C6  UNL d   1      -0.069   1.925  -0.058  0.00  0.00    -0.075 A 
ATOM      6  C7  UNL d   1       0.727   3.179  -0.269  0.00  0.00     0.076 C 
ATOM      7  C8  UNL d   1       0.514   0.676  -0.315  0.00  0.00     0.001 A 
ENDROOT
BRANCH   1   8
ATOM      8  C1  UNL d   1       0.430  -1.846  -0.404  0.00  0.00     0.053 C 
ATOM      9  C   UNL d   1      -0.248  -2.561  -1.563  0.00  0.00     0.018 C 
ENDBRANCH   1   8
TORSDOF 1
ENDMDL
