MODEL 1
REMARK minimizedAffinity -2.34530258
REMARK minimizedRMSD -1
REMARK  1 active torsions:
REMARK  status: ('A' for Active; 'I' for Inactive)
REMARK    1  A    between atoms: C3_4  and  O_7 
ROOT
ATOM      1  C   UNL d   1      -3.042   0.066  -3.007  0.00  0.00    -0.033 A 
ATOM      2  C1  UNL d   1      -3.086   0.483  -1.676  0.00  0.00     0.039 A 
ATOM      3  C2  UNL d   1      -1.939   0.414  -0.882  0.00  0.00    -0.080 A 
ATOM      4  C3  UNL d   1      -0.756  -0.072  -1.432  0.00  0.00     0.150 A 
ATOM      5  C4  UNL d   1      -0.704  -0.485  -2.759  0.00  0.00    -0.007 A 
ATOM      6  C5  UNL d   1      -1.850  -0.417  -3.550  0.00  0.00     0.039 A 
ENDROOT
BRANCH   4   7
ATOM      7  O   UNL d   1       0.388  -0.162  -0.696  0.00  0.00    -0.526 OA
ATOM      8  H5  UNL d   1       0.194   0.132   0.210  0.00  0.00     0.418 HD
ENDBRANCH   4   7
TORSDOF 1
ENDMDL
