MODEL 1
REMARK minimizedAffinity -3.96330714
REMARK minimizedRMSD -1
REMARK  1 active torsions:
REMARK  status: ('A' for Active; 'I' for Inactive)
REMARK    1  A    between atoms: C3_4  and  O_7 
ROOT
ATOM      1  C   UNL d   1      -0.522   0.574  -0.007  0.00  0.00    -0.033 A 
ATOM      2  C1  UNL d   1       0.054  -0.629  -0.419  0.00  0.00     0.039 A 
ATOM      3  C2  UNL d   1       1.424  -0.842  -0.254  0.00  0.00    -0.080 A 
ATOM      4  C3  UNL d   1       2.205   0.153   0.325  0.00  0.00     0.150 A 
ATOM      5  C4  UNL d   1       1.638   1.353   0.742  0.00  0.00    -0.007 A 
ATOM      6  C5  UNL d   1       0.270   1.565   0.575  0.00  0.00     0.039 A 
ENDROOT
BRANCH   4   7
ATOM      7  O   UNL d   1       3.547  -0.007   0.503  0.00  0.00    -0.526 OA
ATOM      8  H5  UNL d   1       3.804  -0.872   0.142  0.00  0.00     0.418 HD
ENDBRANCH   4   7
TORSDOF 1
ENDMDL
