MODEL 1
REMARK minimizedAffinity -5.37640047
REMARK minimizedRMSD -1
REMARK  1 active torsions:
REMARK  status: ('A' for Active; 'I' for Inactive)
REMARK    1  A    between atoms: C3_4  and  O_7 
ROOT
ATOM      1  C   UNL d   1       0.016   0.665   0.105  0.00  0.00    -0.033 A 
ATOM      2  C1  UNL d   1       0.195  -0.667   0.484  0.00  0.00     0.039 A 
ATOM      3  C2  UNL d   1       1.464  -1.130   0.835  0.00  0.00    -0.080 A 
ATOM      4  C3  UNL d   1       2.545  -0.253   0.804  0.00  0.00     0.150 A 
ATOM      5  C4  UNL d   1       2.373   1.077   0.432  0.00  0.00    -0.007 A 
ATOM      6  C5  UNL d   1       1.105   1.537   0.081  0.00  0.00     0.039 A 
ENDROOT
BRANCH   4   7
ATOM      7  O   UNL d   1       3.803  -0.660   1.134  0.00  0.00    -0.526 OA
ATOM      8  H5  UNL d   1       3.775  -1.609   1.342  0.00  0.00     0.418 HD
ENDBRANCH   4   7
TORSDOF 1
ENDMDL
