MODEL 1
REMARK minimizedAffinity -4.97814417
REMARK minimizedRMSD -1
REMARK  1 active torsions:
REMARK  status: ('A' for Active; 'I' for Inactive)
REMARK    1  A    between atoms: C3_4  and  O_7 
ROOT
ATOM      1  C   UNL d   1       2.933  -1.126   1.614  0.00  0.00    -0.033 A 
ATOM      2  C1  UNL d   1       1.852  -2.002   1.736  0.00  0.00     0.039 A 
ATOM      3  C2  UNL d   1       0.635  -1.701   1.122  0.00  0.00    -0.080 A 
ATOM      4  C3  UNL d   1       0.512  -0.523   0.390  0.00  0.00     0.150 A 
ATOM      5  C4  UNL d   1       1.585   0.352   0.261  0.00  0.00    -0.007 A 
ATOM      6  C5  UNL d   1       2.800   0.050   0.876  0.00  0.00     0.039 A 
ENDROOT
BRANCH   4   7
ATOM      7  O   UNL d   1      -0.658  -0.184  -0.223  0.00  0.00    -0.526 OA
ATOM      8  H5  UNL d   1      -1.319  -0.868  -0.024  0.00  0.00     0.418 HD
ENDBRANCH   4   7
TORSDOF 1
ENDMDL
