MODEL 1
REMARK minimizedAffinity -5.29454279
REMARK minimizedRMSD -1
REMARK  1 active torsions:
REMARK  status: ('A' for Active; 'I' for Inactive)
REMARK    1  A    between atoms: C3_4  and  O_7 
ROOT
ATOM      1  C   UNL d   1      -0.631  -0.128   0.443  0.00  0.00    -0.033 A 
ATOM      2  C1  UNL d   1       0.067  -1.275   0.824  0.00  0.00     0.039 A 
ATOM      3  C2  UNL d   1       1.463  -1.268   0.851  0.00  0.00    -0.080 A 
ATOM      4  C3  UNL d   1       2.148  -0.109   0.497  0.00  0.00     0.150 A 
ATOM      5  C4  UNL d   1       1.459   1.039   0.120  0.00  0.00    -0.007 A 
ATOM      6  C5  UNL d   1       0.065   1.030   0.092  0.00  0.00     0.039 A 
ENDROOT
BRANCH   4   7
ATOM      7  O   UNL d   1       3.510  -0.056   0.503  0.00  0.00    -0.526 OA
ATOM      8  H5  UNL d   1       3.851  -0.930   0.756  0.00  0.00     0.418 HD
ENDBRANCH   4   7
TORSDOF 1
ENDMDL
