MODEL 1
REMARK minimizedAffinity -4.24621582
REMARK minimizedRMSD -1
REMARK  1 active torsions:
REMARK  status: ('A' for Active; 'I' for Inactive)
REMARK    1  A    between atoms: C3_4  and  O_7 
ROOT
ATOM      1  C   UNL d   1      -0.794  -0.001   0.707  0.00  0.00    -0.033 A 
ATOM      2  C1  UNL d   1      -0.191   1.182   0.275  0.00  0.00     0.039 A 
ATOM      3  C2  UNL d   1       1.195   1.245   0.120  0.00  0.00    -0.080 A 
ATOM      4  C3  UNL d   1       1.966   0.120   0.398  0.00  0.00     0.150 A 
ATOM      5  C4  UNL d   1       1.372  -1.063   0.825  0.00  0.00    -0.007 A 
ATOM      6  C5  UNL d   1      -0.012  -1.124   0.981  0.00  0.00     0.039 A 
ENDROOT
BRANCH   4   7
ATOM      7  O   UNL d   1       3.322   0.135   0.266  0.00  0.00    -0.526 OA
ATOM      8  H5  UNL d   1       3.595   1.027  -0.009  0.00  0.00     0.418 HD
ENDBRANCH   4   7
TORSDOF 1
ENDMDL
