MODEL 1
REMARK minimizedAffinity -4.95621061
REMARK minimizedRMSD -1
REMARK  1 active torsions:
REMARK  status: ('A' for Active; 'I' for Inactive)
REMARK    1  A    between atoms: C3_4  and  O_7 
ROOT
ATOM      1  C   UNL d   1       3.015  -1.203   1.525  0.00  0.00    -0.033 A 
ATOM      2  C1  UNL d   1       2.865  -0.051   0.750  0.00  0.00     0.039 A 
ATOM      3  C2  UNL d   1       1.640   0.230   0.143  0.00  0.00    -0.080 A 
ATOM      4  C3  UNL d   1       0.572  -0.646   0.321  0.00  0.00     0.150 A 
ATOM      5  C4  UNL d   1       0.713  -1.793   1.095  0.00  0.00    -0.007 A 
ATOM      6  C5  UNL d   1       1.938  -2.073   1.699  0.00  0.00     0.039 A 
ENDROOT
BRANCH   4   7
ATOM      7  O   UNL d   1      -0.642  -0.416  -0.255  0.00  0.00    -0.526 OA
ATOM      8  H5  UNL d   1      -0.582   0.397  -0.784  0.00  0.00     0.418 HD
ENDBRANCH   4   7
TORSDOF 1
ENDMDL
