MODEL 1
REMARK minimizedAffinity -5.34589672
REMARK minimizedRMSD -1
REMARK  1 active torsions:
REMARK  status: ('A' for Active; 'I' for Inactive)
REMARK    1  A    between atoms: C3_4  and  O_7 
ROOT
ATOM      1  C   UNL d   1       2.123   0.502   0.960  0.00  0.00    -0.033 A 
ATOM      2  C1  UNL d   1       0.910   0.512   0.269  0.00  0.00     0.039 A 
ATOM      3  C2  UNL d   1      -0.044  -0.477   0.517  0.00  0.00    -0.080 A 
ATOM      4  C3  UNL d   1       0.226  -1.467   1.457  0.00  0.00     0.150 A 
ATOM      5  C4  UNL d   1       1.431  -1.481   2.151  0.00  0.00    -0.007 A 
ATOM      6  C5  UNL d   1       2.383  -0.494   1.902  0.00  0.00     0.039 A 
ENDROOT
BRANCH   4   7
ATOM      7  O   UNL d   1      -0.673  -2.456   1.729  0.00  0.00    -0.526 OA
ATOM      8  H5  UNL d   1      -1.446  -2.335   1.154  0.00  0.00     0.418 HD
ENDBRANCH   4   7
TORSDOF 1
ENDMDL
