MODEL 1
REMARK minimizedAffinity 0.467764199
REMARK minimizedRMSD -1
REMARK  0 active torsions:
REMARK  status: ('A' for Active; 'I' for Inactive)
ROOT
ATOM      1  C   UNL d   1      -2.918   0.002  -5.999  0.00  0.00    -0.002 A 
ATOM      2  C1  UNL d   1      -4.303   0.095  -6.000  0.00  0.00     0.010 A 
ATOM      3  C2  UNL d   1      -4.931   1.342  -5.999  0.00  0.00     0.041 A 
ATOM      4  C3  UNL d   1      -4.136   2.505  -5.999  0.00  0.00    -0.075 A 
ATOM      5  S   UNL d   1      -4.686   4.139  -5.999  0.00  0.00     0.015 SA
ATOM      6  C4  UNL d   1      -3.096   4.753  -6.000  0.00  0.00     0.022 A 
ATOM      7  C5  UNL d   1      -2.156   3.749  -5.999  0.00  0.00     0.026 A 
ATOM      8  C6  UNL d   1      -2.740   2.437  -6.000  0.00  0.00    -0.082 A 
ATOM      9  C7  UNL d   1      -2.133   1.158  -6.000  0.00  0.00     0.045 A 
ENDROOT
TORSDOF 0
ENDMDL
