MODEL 1
REMARK minimizedAffinity -1.14956868
REMARK minimizedRMSD -1
REMARK  0 active torsions:
REMARK  status: ('A' for Active; 'I' for Inactive)
ROOT
ATOM      1  C   UNL d   1      -4.334   1.117  -5.999  0.00  0.00    -0.002 A 
ATOM      2  C1  UNL d   1      -3.031   0.641  -5.999  0.00  0.00     0.010 A 
ATOM      3  C2  UNL d   1      -1.951   1.526  -6.000  0.00  0.00     0.041 A 
ATOM      4  C3  UNL d   1      -2.205   2.911  -6.000  0.00  0.00    -0.075 A 
ATOM      5  S   UNL d   1      -1.040   4.182  -6.000  0.00  0.00     0.015 SA
ATOM      6  C4  UNL d   1      -2.245   5.388  -6.000  0.00  0.00     0.022 A 
ATOM      7  C5  UNL d   1      -3.511   4.851  -6.000  0.00  0.00     0.026 A 
ATOM      8  C6  UNL d   1      -3.509   3.415  -5.999  0.00  0.00    -0.082 A 
ATOM      9  C7  UNL d   1      -4.583   2.492  -5.999  0.00  0.00     0.045 A 
ENDROOT
TORSDOF 0
ENDMDL
