MODEL 1
REMARK minimizedAffinity 3.57801771
REMARK minimizedRMSD -1
REMARK  0 active torsions:
REMARK  status: ('A' for Active; 'I' for Inactive)
ROOT
ATOM      1  C   UNL d   1      -5.654  -4.133  -5.985  0.00  0.00    -0.002 A 
ATOM      2  C1  UNL d   1      -4.321  -4.516  -5.997  0.00  0.00     0.010 A 
ATOM      3  C2  UNL d   1      -3.306  -3.556  -5.999  0.00  0.00     0.041 A 
ATOM      4  C3  UNL d   1      -3.658  -2.192  -5.988  0.00  0.00    -0.075 A 
ATOM      5  S   UNL d   1      -2.587  -0.842  -5.989  0.00  0.00     0.015 SA
ATOM      6  C4  UNL d   1      -3.874   0.275  -5.972  0.00  0.00     0.022 A 
ATOM      7  C5  UNL d   1      -5.099  -0.350  -5.967  0.00  0.00     0.026 A 
ATOM      8  C6  UNL d   1      -4.995  -1.782  -5.976  0.00  0.00    -0.082 A 
ATOM      9  C7  UNL d   1      -6.000  -2.779  -5.974  0.00  0.00     0.045 A 
ENDROOT
TORSDOF 0
ENDMDL
