MODEL 1
REMARK minimizedAffinity 8.81493187
REMARK minimizedRMSD -1
REMARK  0 active torsions:
REMARK  status: ('A' for Active; 'I' for Inactive)
ROOT
ATOM      1  C   UNL d   1       0.268  -1.304  -3.050  0.00  0.00    -0.002 A 
ATOM      2  C1  UNL d   1       0.710  -0.214  -3.785  0.00  0.00     0.010 A 
ATOM      3  C2  UNL d   1       1.204   0.923  -3.143  0.00  0.00     0.041 A 
ATOM      4  C3  UNL d   1       1.248   0.946  -1.735  0.00  0.00    -0.075 A 
ATOM      5  S   UNL d   1       1.813   2.230  -0.733  0.00  0.00     0.015 SA
ATOM      6  C4  UNL d   1       1.482   1.361   0.696  0.00  0.00     0.022 A 
ATOM      7  C5  UNL d   1       0.952   0.120   0.433  0.00  0.00     0.026 A 
ATOM      8  C6  UNL d   1       0.809  -0.140  -0.972  0.00  0.00    -0.082 A 
ATOM      9  C7  UNL d   1       0.313  -1.278  -1.653  0.00  0.00     0.045 A 
ENDROOT
TORSDOF 0
ENDMDL
