MODEL 1
REMARK minimizedAffinity 14.1488934
REMARK minimizedRMSD -1
REMARK  0 active torsions:
REMARK  status: ('A' for Active; 'I' for Inactive)
ROOT
ATOM      1  C   UNL d   1      -2.736   2.369  -4.614  0.00  0.00    -0.002 A 
ATOM      2  C1  UNL d   1      -3.766   2.580  -5.519  0.00  0.00     0.010 A 
ATOM      3  C2  UNL d   1      -4.521   1.508  -6.000  0.00  0.00     0.041 A 
ATOM      4  C3  UNL d   1      -4.220   0.208  -5.549  0.00  0.00    -0.075 A 
ATOM      5  S   UNL d   1      -5.010  -1.257  -6.000  0.00  0.00     0.015 SA
ATOM      6  C4  UNL d   1      -3.999  -2.197  -5.001  0.00  0.00     0.022 A 
ATOM      7  C5  UNL d   1      -3.075  -1.429  -4.332  0.00  0.00     0.026 A 
ATOM      8  C6  UNL d   1      -3.188  -0.030  -4.637  0.00  0.00    -0.082 A 
ATOM      9  C7  UNL d   1      -2.441   1.078  -4.169  0.00  0.00     0.045 A 
ENDROOT
TORSDOF 0
ENDMDL
