MODEL 1
REMARK minimizedAffinity 2.42531085
REMARK minimizedRMSD -1
REMARK  0 active torsions:
REMARK  status: ('A' for Active; 'I' for Inactive)
ROOT
ATOM      1  C   UNL d   1      -5.109  -0.329  -5.993  0.00  0.00    -0.002 A 
ATOM      2  C1  UNL d   1      -3.725  -0.430  -5.996  0.00  0.00     0.010 A 
ATOM      3  C2  UNL d   1      -3.105  -1.681  -5.997  0.00  0.00     0.041 A 
ATOM      4  C3  UNL d   1      -3.906  -2.840  -5.997  0.00  0.00    -0.075 A 
ATOM      5  S   UNL d   1      -3.367  -4.477  -5.998  0.00  0.00     0.015 SA
ATOM      6  C4  UNL d   1      -4.961  -5.080  -5.996  0.00  0.00     0.022 A 
ATOM      7  C5  UNL d   1      -5.895  -4.071  -5.993  0.00  0.00     0.026 A 
ATOM      8  C6  UNL d   1      -5.302  -2.763  -5.994  0.00  0.00    -0.082 A 
ATOM      9  C7  UNL d   1      -5.901  -1.480  -5.992  0.00  0.00     0.045 A 
ENDROOT
TORSDOF 0
ENDMDL
