MODEL 1
REMARK minimizedAffinity 9.48338699
REMARK minimizedRMSD -1
REMARK  0 active torsions:
REMARK  status: ('A' for Active; 'I' for Inactive)
ROOT
ATOM      1  C   UNL d   1       1.364  -1.119  -2.711  0.00  0.00    -0.002 A 
ATOM      2  C1  UNL d   1       2.305  -1.339  -1.715  0.00  0.00     0.010 A 
ATOM      3  C2  UNL d   1       2.205  -0.685  -0.486  0.00  0.00     0.041 A 
ATOM      4  C3  UNL d   1       1.132   0.202  -0.271  0.00  0.00    -0.075 A 
ATOM      5  S   UNL d   1       0.807   1.113   1.156  0.00  0.00     0.015 SA
ATOM      6  C4  UNL d   1      -0.591   1.816   0.478  0.00  0.00     0.022 A 
ATOM      7  C5  UNL d   1      -0.818   1.377  -0.805  0.00  0.00     0.026 A 
ATOM      8  C6  UNL d   1       0.171   0.439  -1.257  0.00  0.00    -0.082 A 
ATOM      9  C7  UNL d   1       0.300  -0.239  -2.494  0.00  0.00     0.045 A 
ENDROOT
TORSDOF 0
ENDMDL
