MODEL 1
REMARK minimizedAffinity 7.97776413
REMARK minimizedRMSD -1
REMARK  0 active torsions:
REMARK  status: ('A' for Active; 'I' for Inactive)
ROOT
ATOM      1  C   UNL d   1      -4.552  -5.887  -5.986  0.00  0.00    -0.002 A 
ATOM      2  C1  UNL d   1      -3.174  -5.720  -5.998  0.00  0.00     0.010 A 
ATOM      3  C2  UNL d   1      -2.614  -4.441  -5.995  0.00  0.00     0.041 A 
ATOM      4  C3  UNL d   1      -3.469  -3.322  -5.978  0.00  0.00    -0.075 A 
ATOM      5  S   UNL d   1      -3.008  -1.661  -5.970  0.00  0.00     0.015 SA
ATOM      6  C4  UNL d   1      -4.629  -1.134  -5.950  0.00  0.00     0.022 A 
ATOM      7  C5  UNL d   1      -5.513  -2.187  -5.950  0.00  0.00     0.026 A 
ATOM      8  C6  UNL d   1      -4.860  -3.465  -5.965  0.00  0.00    -0.082 A 
ATOM      9  C7  UNL d   1      -5.397  -4.775  -5.969  0.00  0.00     0.045 A 
ENDROOT
TORSDOF 0
ENDMDL
