MODEL 1
REMARK minimizedAffinity -0.870211065
REMARK minimizedRMSD -1
REMARK  0 active torsions:
REMARK  status: ('A' for Active; 'I' for Inactive)
ROOT
ATOM      1  C   UNL d   1      -2.894   2.418  -5.987  0.00  0.00    -0.002 A 
ATOM      2  C1  UNL d   1      -4.224   2.816  -5.985  0.00  0.00     0.010 A 
ATOM      3  C2  UNL d   1      -5.249   1.868  -5.989  0.00  0.00     0.041 A 
ATOM      4  C3  UNL d   1      -4.913   0.500  -5.992  0.00  0.00    -0.075 A 
ATOM      5  S   UNL d   1      -6.000  -0.838  -5.996  0.00  0.00     0.015 SA
ATOM      6  C4  UNL d   1      -4.725  -1.970  -5.999  0.00  0.00     0.022 A 
ATOM      7  C5  UNL d   1      -3.494  -1.359  -5.998  0.00  0.00     0.026 A 
ATOM      8  C6  UNL d   1      -3.581   0.074  -5.993  0.00  0.00    -0.082 A 
ATOM      9  C7  UNL d   1      -2.565   1.060  -5.991  0.00  0.00     0.045 A 
ENDROOT
TORSDOF 0
ENDMDL
