MODEL 1
REMARK minimizedAffinity 2.38666129
REMARK minimizedRMSD -1
REMARK  0 active torsions:
REMARK  status: ('A' for Active; 'I' for Inactive)
ROOT
ATOM      1  C   UNL d   1      -3.794   0.836  -5.994  0.00  0.00    -0.002 A 
ATOM      2  C1  UNL d   1      -2.421   0.633  -5.996  0.00  0.00     0.010 A 
ATOM      3  C2  UNL d   1      -1.542   1.718  -5.999  0.00  0.00     0.041 A 
ATOM      4  C3  UNL d   1      -2.071   3.023  -5.997  0.00  0.00    -0.075 A 
ATOM      5  S   UNL d   1      -1.187   4.503  -5.999  0.00  0.00     0.015 SA
ATOM      6  C4  UNL d   1      -2.610   5.441  -5.995  0.00  0.00     0.022 A 
ATOM      7  C5  UNL d   1      -3.742   4.660  -5.993  0.00  0.00     0.026 A 
ATOM      8  C6  UNL d   1      -3.450   3.254  -5.994  0.00  0.00    -0.082 A 
ATOM      9  C7  UNL d   1      -4.315   2.133  -5.992  0.00  0.00     0.045 A 
ENDROOT
TORSDOF 0
ENDMDL
