MODEL 1
REMARK minimizedAffinity 10.8065987
REMARK minimizedRMSD -1
REMARK  0 active torsions:
REMARK  status: ('A' for Active; 'I' for Inactive)
ROOT
ATOM      1  C   UNL d   1       1.661  -1.130  -2.777  0.00  0.00    -0.002 A 
ATOM      2  C1  UNL d   1       0.340  -1.023  -3.187  0.00  0.00     0.010 A 
ATOM      3  C2  UNL d   1      -0.634  -0.520  -2.322  0.00  0.00     0.041 A 
ATOM      4  C3  UNL d   1      -0.253  -0.121  -1.026  0.00  0.00    -0.075 A 
ATOM      5  S   UNL d   1      -1.273   0.525   0.205  0.00  0.00     0.015 SA
ATOM      6  C4  UNL d   1       0.021   0.674   1.304  0.00  0.00     0.022 A 
ATOM      7  C5  UNL d   1       1.210   0.246   0.762  0.00  0.00     0.026 A 
ATOM      8  C6  UNL d   1       1.072  -0.219  -0.590  0.00  0.00    -0.082 A 
ATOM      9  C7  UNL d   1       2.035  -0.733  -1.491  0.00  0.00     0.045 A 
ENDROOT
TORSDOF 0
ENDMDL
