MODEL 1
REMARK minimizedAffinity -3.86925936
REMARK minimizedRMSD -1
REMARK  3 active torsions:
REMARK  status: ('A' for Active; 'I' for Inactive)
REMARK    1  A    between atoms: C3'_2  and  C2'_3 
REMARK    2  A    between atoms: C2'_3  and  C1'_4 
REMARK    3  A    between atoms: C1'_4  and  C1_5 
ROOT
ATOM      1  C1  N4B d   1       0.411  -0.004  -1.376  0.00  0.00    -0.075 A 
ATOM      2  C2  N4B d   1      -0.394  -0.470  -2.439  0.00  0.00     0.002 A 
ATOM      3  C3  N4B d   1      -0.111  -0.096  -3.730  0.00  0.00     0.002 A 
ATOM      4  C4  N4B d   1       0.957   0.754  -3.979  0.00  0.00    -0.004 A 
ATOM      5  C5  N4B d   1       1.745   1.179  -2.949  0.00  0.00     0.002 A 
ATOM      6  C6  N4B d   1       1.474   0.808  -1.647  0.00  0.00     0.002 A 
ENDROOT
BRANCH   1   7
ATOM      7  C1' N4B d   1       0.089  -0.316   0.060  0.00  0.00     0.057 C 
BRANCH   7   8
ATOM      8  C2' N4B d   1      -1.277   0.270   0.406  0.00  0.00     0.009 C 
BRANCH   8   9
ATOM      9  C3' N4B d   1      -1.459   0.441   1.904  0.00  0.00     0.004 C 
ATOM     10  C4' N4B d   1      -0.837   1.702   2.424  0.00  0.00     0.003 C 
ENDBRANCH   8   9
ENDBRANCH   7   8
ENDBRANCH   1   7
TORSDOF 3
ENDMDL
