MODEL 1
REMARK minimizedAffinity -6.28507042
REMARK minimizedRMSD -1
REMARK  3 active torsions:
REMARK  status: ('A' for Active; 'I' for Inactive)
REMARK    1  A    between atoms: C3'_2  and  C2'_3 
REMARK    2  A    between atoms: C2'_3  and  C1'_4 
REMARK    3  A    between atoms: C1'_4  and  C1_5 
ROOT
ATOM      1  C1  N4B d   1      -0.125  -0.025   0.037  0.00  0.00    -0.075 A 
ATOM      2  C2  N4B d   1      -1.477  -0.078   0.441  0.00  0.00     0.002 A 
ATOM      3  C3  N4B d   1      -1.905   0.674   1.508  0.00  0.00     0.002 A 
ATOM      4  C4  N4B d   1      -1.000   1.468   2.195  0.00  0.00    -0.004 A 
ATOM      5  C5  N4B d   1       0.299   1.533   1.783  0.00  0.00     0.002 A 
ATOM      6  C6  N4B d   1       0.743   0.786   0.710  0.00  0.00     0.002 A 
ENDROOT
BRANCH   1   7
ATOM      7  C1' N4B d   1       0.408  -0.893  -1.069  0.00  0.00     0.057 C 
BRANCH   7   8
ATOM      8  C2' N4B d   1       0.978  -0.006  -2.172  0.00  0.00     0.009 C 
BRANCH   8   9
ATOM      9  C3' N4B d   1       0.351  -0.306  -3.523  0.00  0.00     0.004 C 
ATOM     10  C4' N4B d   1      -0.149   0.926  -4.218  0.00  0.00     0.003 C 
ENDBRANCH   8   9
ENDBRANCH   7   8
ENDBRANCH   1   7
TORSDOF 3
ENDMDL
