MODEL 1
REMARK minimizedAffinity -2.66961646
REMARK minimizedRMSD -1
REMARK  1 active torsions:
REMARK  status: ('A' for Active; 'I' for Inactive)
REMARK    1  A    between atoms: C3_4  and  O_7 
ROOT
ATOM      1  C   UNL d   1       1.132   0.172   1.126  0.00  0.00    -0.033 A 
ATOM      2  C1  UNL d   1       0.361   0.346   2.277  0.00  0.00     0.039 A 
ATOM      3  C2  UNL d   1      -1.012   0.574   2.172  0.00  0.00    -0.080 A 
ATOM      4  C3  UNL d   1      -1.602   0.624   0.912  0.00  0.00     0.150 A 
ATOM      5  C4  UNL d   1      -0.840   0.447  -0.239  0.00  0.00    -0.007 A 
ATOM      6  C5  UNL d   1       0.531   0.221  -0.132  0.00  0.00     0.039 A 
ENDROOT
BRANCH   4   7
ATOM      7  O   UNL d   1      -2.938   0.848   0.759  0.00  0.00    -0.526 OA
ATOM      8  H5  UNL d   1      -3.330   0.980   1.638  0.00  0.00     0.418 HD
ENDBRANCH   4   7
TORSDOF 1
ENDMDL
