MODEL 1
REMARK minimizedAffinity -3.5606842
REMARK minimizedRMSD -1
REMARK  1 active torsions:
REMARK  status: ('A' for Active; 'I' for Inactive)
REMARK    1  A    between atoms: C3_4  and  O_7 
ROOT
ATOM      1  C   UNL d   1       1.273   0.206   0.761  0.00  0.00    -0.033 A 
ATOM      2  C1  UNL d   1       0.517   0.504  -0.375  0.00  0.00     0.039 A 
ATOM      3  C2  UNL d   1      -0.835   0.832  -0.249  0.00  0.00    -0.080 A 
ATOM      4  C3  UNL d   1      -1.417   0.859   1.015  0.00  0.00     0.150 A 
ATOM      5  C4  UNL d   1      -0.668   0.567   2.151  0.00  0.00    -0.007 A 
ATOM      6  C5  UNL d   1       0.681   0.239   2.023  0.00  0.00     0.039 A 
ENDROOT
BRANCH   4   7
ATOM      7  O   UNL d   1      -2.733   1.168   1.187  0.00  0.00    -0.526 OA
ATOM      8  H5  UNL d   1      -3.131   1.318   0.313  0.00  0.00     0.418 HD
ENDBRANCH   4   7
TORSDOF 1
ENDMDL
