MODEL 1
REMARK minimizedAffinity -1.51305759
REMARK minimizedRMSD -1
REMARK  1 active torsions:
REMARK  status: ('A' for Active; 'I' for Inactive)
REMARK    1  A    between atoms: C3_4  and  O_7 
ROOT
ATOM      1  C   UNL d   1       0.373   0.385   1.640  0.00  0.00    -0.033 A 
ATOM      2  C1  UNL d   1      -0.414   1.061   0.705  0.00  0.00     0.039 A 
ATOM      3  C2  UNL d   1      -0.375   0.691  -0.640  0.00  0.00    -0.080 A 
ATOM      4  C3  UNL d   1       0.452  -0.356  -1.038  0.00  0.00     0.150 A 
ATOM      5  C4  UNL d   1       1.235  -1.037  -0.111  0.00  0.00    -0.007 A 
ATOM      6  C5  UNL d   1       1.196  -0.665   1.232  0.00  0.00     0.039 A 
ENDROOT
BRANCH   4   7
ATOM      7  O   UNL d   1       0.527  -0.750  -2.340  0.00  0.00    -0.526 OA
ATOM      8  H5  UNL d   1      -0.046  -0.172  -2.870  0.00  0.00     0.418 HD
ENDBRANCH   4   7
TORSDOF 1
ENDMDL
