MODEL 1
REMARK minimizedAffinity -1.4392997
REMARK minimizedRMSD -1
REMARK  1 active torsions:
REMARK  status: ('A' for Active; 'I' for Inactive)
REMARK    1  A    between atoms: C3_4  and  O_7 
ROOT
ATOM      1  C   UNL d   1       0.309   0.694   1.268  0.00  0.00    -0.033 A 
ATOM      2  C1  UNL d   1       1.433  -0.134   1.230  0.00  0.00     0.039 A 
ATOM      3  C2  UNL d   1       1.751  -0.829   0.062  0.00  0.00    -0.080 A 
ATOM      4  C3  UNL d   1       0.939  -0.688  -1.060  0.00  0.00     0.150 A 
ATOM      5  C4  UNL d   1      -0.180   0.138  -1.031  0.00  0.00    -0.007 A 
ATOM      6  C5  UNL d   1      -0.496   0.831   0.137  0.00  0.00     0.039 A 
ENDROOT
BRANCH   4   7
ATOM      7  O   UNL d   1       1.207  -1.350  -2.221  0.00  0.00    -0.526 OA
ATOM      8  H5  UNL d   1       1.993  -1.905  -2.085  0.00  0.00     0.418 HD
ENDBRANCH   4   7
TORSDOF 1
ENDMDL
