MODEL 1
REMARK minimizedAffinity -2.5733614
REMARK minimizedRMSD -1
REMARK  1 active torsions:
REMARK  status: ('A' for Active; 'I' for Inactive)
REMARK    1  A    between atoms: C3_4  and  O_7 
ROOT
ATOM      1  C   UNL d   1       0.565  -0.518  -0.995  0.00  0.00    -0.033 A 
ATOM      2  C1  UNL d   1      -0.405  -1.348  -1.561  0.00  0.00     0.039 A 
ATOM      3  C2  UNL d   1      -1.747  -0.963  -1.553  0.00  0.00    -0.080 A 
ATOM      4  C3  UNL d   1      -2.104   0.254  -0.978  0.00  0.00     0.150 A 
ATOM      5  C4  UNL d   1      -1.143   1.087  -0.416  0.00  0.00    -0.007 A 
ATOM      6  C5  UNL d   1       0.197   0.700  -0.424  0.00  0.00     0.039 A 
ENDROOT
BRANCH   4   7
ATOM      7  O   UNL d   1      -3.402   0.671  -0.942  0.00  0.00    -0.526 OA
ATOM      8  H5  UNL d   1      -3.958  -0.019  -1.341  0.00  0.00     0.418 HD
ENDBRANCH   4   7
TORSDOF 1
ENDMDL
