MODEL 1
REMARK minimizedAffinity -0.35223788
REMARK minimizedRMSD -1
REMARK  1 active torsions:
REMARK  status: ('A' for Active; 'I' for Inactive)
REMARK    1  A    between atoms: C3_4  and  O_7 
ROOT
ATOM      1  C   UNL d   1       1.460  -1.708  -3.774  0.00  0.00    -0.033 A 
ATOM      2  C1  UNL d   1       0.246  -1.990  -3.146  0.00  0.00     0.039 A 
ATOM      3  C2  UNL d   1      -0.153  -1.252  -2.029  0.00  0.00    -0.080 A 
ATOM      4  C3  UNL d   1       0.671  -0.236  -1.553  0.00  0.00     0.150 A 
ATOM      5  C4  UNL d   1       1.880   0.053  -2.176  0.00  0.00    -0.007 A 
ATOM      6  C5  UNL d   1       2.277  -0.685  -3.290  0.00  0.00     0.039 A 
ENDROOT
BRANCH   4   7
ATOM      7  O   UNL d   1       0.327   0.508  -0.463  0.00  0.00    -0.526 OA
ATOM      8  H5  UNL d   1      -0.520   0.177  -0.120  0.00  0.00     0.418 HD
ENDBRANCH   4   7
TORSDOF 1
ENDMDL
