MODEL 1
REMARK minimizedAffinity -0.66286701
REMARK minimizedRMSD -1
REMARK  1 active torsions:
REMARK  status: ('A' for Active; 'I' for Inactive)
REMARK    1  A    between atoms: C3_4  and  O_7 
ROOT
ATOM      1  C   UNL d   1       1.569  -0.912   0.773  0.00  0.00    -0.033 A 
ATOM      2  C1  UNL d   1       0.926  -1.433  -0.351  0.00  0.00     0.039 A 
ATOM      3  C2  UNL d   1      -0.126  -0.732  -0.944  0.00  0.00    -0.080 A 
ATOM      4  C3  UNL d   1      -0.525   0.487  -0.403  0.00  0.00     0.150 A 
ATOM      5  C4  UNL d   1       0.114   1.014   0.715  0.00  0.00    -0.007 A 
ATOM      6  C5  UNL d   1       1.164   0.313   1.305  0.00  0.00     0.039 A 
ENDROOT
BRANCH   4   7
ATOM      7  O   UNL d   1      -1.550   1.205  -0.943  0.00  0.00    -0.526 OA
ATOM      8  H5  UNL d   1      -1.915   0.705  -1.692  0.00  0.00     0.418 HD
ENDBRANCH   4   7
TORSDOF 1
ENDMDL
