MODEL 1
REMARK minimizedAffinity -4.89153147
REMARK minimizedRMSD -1
REMARK  1 active torsions:
REMARK  status: ('A' for Active; 'I' for Inactive)
REMARK    1  A    between atoms: C3_4  and  O_7 
ROOT
ATOM      1  C   UNL d   1      -0.085   0.637  -1.760  0.00  0.00    -0.033 A 
ATOM      2  C1  UNL d   1       0.523   0.363  -2.986  0.00  0.00     0.039 A 
ATOM      3  C2  UNL d   1       0.863  -0.950  -3.320  0.00  0.00    -0.080 A 
ATOM      4  C3  UNL d   1       0.590  -1.977  -2.421  0.00  0.00     0.150 A 
ATOM      5  C4  UNL d   1      -0.019  -1.711  -1.199  0.00  0.00    -0.007 A 
ATOM      6  C5  UNL d   1      -0.357  -0.400  -0.867  0.00  0.00     0.039 A 
ENDROOT
BRANCH   4   7
ATOM      7  O   UNL d   1       0.908  -3.272  -2.701  0.00  0.00    -0.526 OA
ATOM      8  H5  UNL d   1       1.348  -3.301  -3.567  0.00  0.00     0.418 HD
ENDBRANCH   4   7
TORSDOF 1
ENDMDL
