MODEL 1
REMARK minimizedAffinity -4.7755723
REMARK minimizedRMSD -1
REMARK  1 active torsions:
REMARK  status: ('A' for Active; 'I' for Inactive)
REMARK    1  A    between atoms: C3_4  and  O_7 
ROOT
ATOM      1  C   UNL d   1      -2.431   0.323   1.736  0.00  0.00    -0.033 A 
ATOM      2  C1  UNL d   1      -2.220   0.549   0.374  0.00  0.00     0.039 A 
ATOM      3  C2  UNL d   1      -0.920   0.632  -0.128  0.00  0.00    -0.080 A 
ATOM      4  C3  UNL d   1       0.159   0.486   0.739  0.00  0.00     0.150 A 
ATOM      5  C4  UNL d   1      -0.044   0.256   2.096  0.00  0.00    -0.007 A 
ATOM      6  C5  UNL d   1      -1.343   0.174   2.597  0.00  0.00     0.039 A 
ENDROOT
BRANCH   4   7
ATOM      7  O   UNL d   1       1.446   0.564   0.296  0.00  0.00    -0.526 OA
ATOM      8  H5  UNL d   1       1.432   0.755  -0.657  0.00  0.00     0.418 HD
ENDBRANCH   4   7
TORSDOF 1
ENDMDL
