MODEL 1
REMARK minimizedAffinity -4.14143896
REMARK minimizedRMSD -1
REMARK  1 active torsions:
REMARK  status: ('A' for Active; 'I' for Inactive)
REMARK    1  A    between atoms: C3_4  and  O_7 
ROOT
ATOM      1  C   UNL d   1      -0.003   0.193   1.946  0.00  0.00    -0.033 A 
ATOM      2  C1  UNL d   1       0.412   0.353   0.623  0.00  0.00     0.039 A 
ATOM      3  C2  UNL d   1      -0.523   0.627  -0.376  0.00  0.00    -0.080 A 
ATOM      4  C3  UNL d   1      -1.869   0.740  -0.040  0.00  0.00     0.150 A 
ATOM      5  C4  UNL d   1      -2.290   0.586   1.277  0.00  0.00    -0.007 A 
ATOM      6  C5  UNL d   1      -1.354   0.311   2.273  0.00  0.00     0.039 A 
ENDROOT
BRANCH   4   7
ATOM      7  O   UNL d   1      -2.820   1.003  -0.981  0.00  0.00    -0.526 OA
ATOM      8  H5  UNL d   1      -2.386   1.056  -1.849  0.00  0.00     0.418 HD
ENDBRANCH   4   7
TORSDOF 1
ENDMDL
