MODEL 1
REMARK minimizedAffinity 0.386746615
REMARK minimizedRMSD -1
REMARK  1 active torsions:
REMARK  status: ('A' for Active; 'I' for Inactive)
REMARK    1  A    between atoms: C3_4  and  O_7 
ROOT
ATOM      1  C   UNL d   1       1.662   0.052   1.007  0.00  0.00    -0.033 A 
ATOM      2  C1  UNL d   1       0.721   0.382   1.985  0.00  0.00     0.039 A 
ATOM      3  C2  UNL d   1      -0.610   0.607   1.629  0.00  0.00    -0.080 A 
ATOM      4  C3  UNL d   1      -0.987   0.499   0.293  0.00  0.00     0.150 A 
ATOM      5  C4  UNL d   1      -0.056   0.166  -0.686  0.00  0.00    -0.007 A 
ATOM      6  C5  UNL d   1       1.273  -0.058  -0.328  0.00  0.00     0.039 A 
ENDROOT
BRANCH   4   7
ATOM      7  O   UNL d   1      -2.273   0.715  -0.104  0.00  0.00    -0.526 OA
ATOM      8  H5  UNL d   1      -2.798   0.964   0.675  0.00  0.00     0.418 HD
ENDBRANCH   4   7
TORSDOF 1
ENDMDL
