MODEL 1
REMARK minimizedAffinity -3.26795435
REMARK minimizedRMSD -1
REMARK  1 active torsions:
REMARK  status: ('A' for Active; 'I' for Inactive)
REMARK    1  A    between atoms: C3_4  and  O_7 
ROOT
ATOM      1  C   UNL d   1      -1.880   0.412   2.989  0.00  0.00    -0.033 A 
ATOM      2  C1  UNL d   1      -2.256  -0.628   2.137  0.00  0.00     0.039 A 
ATOM      3  C2  UNL d   1      -1.313  -1.218   1.293  0.00  0.00    -0.080 A 
ATOM      4  C3  UNL d   1       0.001  -0.759   1.311  0.00  0.00     0.150 A 
ATOM      5  C4  UNL d   1       0.384   0.274   2.160  0.00  0.00    -0.007 A 
ATOM      6  C5  UNL d   1      -0.560   0.862   3.002  0.00  0.00     0.039 A 
ENDROOT
BRANCH   4   7
ATOM      7  O   UNL d   1       0.956  -1.300   0.502  0.00  0.00    -0.526 OA
ATOM      8  H5  UNL d   1       0.541  -1.984  -0.049  0.00  0.00     0.418 HD
ENDBRANCH   4   7
TORSDOF 1
ENDMDL
