MODEL 1
REMARK minimizedAffinity -5.2833395
REMARK minimizedRMSD -1
REMARK  1 active torsions:
REMARK  status: ('A' for Active; 'I' for Inactive)
REMARK    1  A    between atoms: C3_4  and  O_7 
ROOT
ATOM      1  C   UNL d   1      -0.149   0.157   0.354  0.00  0.00    -0.033 A 
ATOM      2  C1  UNL d   1       0.607   0.094   1.527  0.00  0.00     0.039 A 
ATOM      3  C2  UNL d   1       0.008  -0.297   2.726  0.00  0.00    -0.080 A 
ATOM      4  C3  UNL d   1      -1.345  -0.624   2.739  0.00  0.00     0.150 A 
ATOM      5  C4  UNL d   1      -2.103  -0.567   1.574  0.00  0.00    -0.007 A 
ATOM      6  C5  UNL d   1      -1.504  -0.176   0.378  0.00  0.00     0.039 A 
ENDROOT
BRANCH   4   7
ATOM      7  O   UNL d   1      -1.975  -1.006   3.886  0.00  0.00    -0.526 OA
ATOM      8  H5  UNL d   1      -1.333  -0.971   4.615  0.00  0.00     0.418 HD
ENDBRANCH   4   7
TORSDOF 1
ENDMDL
