MODEL 1
REMARK minimizedAffinity -5.67927885
REMARK minimizedRMSD -1
REMARK  1 active torsions:
REMARK  status: ('A' for Active; 'I' for Inactive)
REMARK    1  A    between atoms: C3_4  and  O_7 
ROOT
ATOM      1  C   UNL d   1      -0.578  -0.940   2.946  0.00  0.00    -0.033 A 
ATOM      2  C1  UNL d   1      -1.813  -0.358   3.241  0.00  0.00     0.039 A 
ATOM      3  C2  UNL d   1      -2.664   0.039   2.207  0.00  0.00    -0.080 A 
ATOM      4  C3  UNL d   1      -2.270  -0.152   0.886  0.00  0.00     0.150 A 
ATOM      5  C4  UNL d   1      -1.043  -0.735   0.585  0.00  0.00    -0.007 A 
ATOM      6  C5  UNL d   1      -0.194  -1.130   1.619  0.00  0.00     0.039 A 
ENDROOT
BRANCH   4   7
ATOM      7  O   UNL d   1      -3.064   0.223  -0.156  0.00  0.00    -0.526 OA
ATOM      8  H5  UNL d   1      -3.867   0.637   0.203  0.00  0.00     0.418 HD
ENDBRANCH   4   7
TORSDOF 1
ENDMDL
