MODEL 1
REMARK minimizedAffinity -3.68537903
REMARK minimizedRMSD -1
REMARK  1 active torsions:
REMARK  status: ('A' for Active; 'I' for Inactive)
REMARK    1  A    between atoms: C3_4  and  O_7 
ROOT
ATOM      1  C   UNL d   1       1.443  -1.398  -0.024  0.00  0.00    -0.033 A 
ATOM      2  C1  UNL d   1       1.911  -0.106   0.227  0.00  0.00     0.039 A 
ATOM      3  C2  UNL d   1       1.387   0.633   1.290  0.00  0.00    -0.080 A 
ATOM      4  C3  UNL d   1       0.399   0.070   2.093  0.00  0.00     0.150 A 
ATOM      5  C4  UNL d   1      -0.068  -1.218   1.850  0.00  0.00    -0.007 A 
ATOM      6  C5  UNL d   1       0.455  -1.954   0.788  0.00  0.00     0.039 A 
ENDROOT
BRANCH   4   7
ATOM      7  O   UNL d   1      -0.146   0.754   3.138  0.00  0.00    -0.526 OA
ATOM      8  H5  UNL d   1       0.253   1.640   3.167  0.00  0.00     0.418 HD
ENDBRANCH   4   7
TORSDOF 1
ENDMDL
