MODEL 1
REMARK minimizedAffinity 3.65516853
REMARK minimizedRMSD -1
REMARK  1 active torsions:
REMARK  status: ('A' for Active; 'I' for Inactive)
REMARK    1  A    between atoms: C1_2  and  C2_3 
ROOT
ATOM      1  C2  UNL d   1       2.698   3.564  -5.934  0.00  0.00    -0.077 A 
ATOM      2  C3  UNL d   1       4.081   3.343  -5.998  0.00  0.00     0.002 A 
ATOM      3  C4  UNL d   1       4.590   2.043  -5.987  0.00  0.00     0.002 A 
ATOM      4  C5  UNL d   1       3.724   0.955  -5.915  0.00  0.00    -0.004 A 
ATOM      5  C6  UNL d   1       2.347   1.163  -5.848  0.00  0.00     0.002 A 
ATOM      6  C7  UNL d   1       1.836   2.462  -5.859  0.00  0.00     0.002 A 
ENDROOT
BRANCH   1   7
ATOM      7  C1  UNL d   1       2.144   4.963  -5.996  0.00  0.00     0.055 C 
ATOM      8  C   UNL d   1       3.258   6.000  -5.999  0.00  0.00     0.019 C 
ENDBRANCH   1   7
TORSDOF 1
ENDMDL
