MODEL 1
REMARK minimizedAffinity 6.15534878
REMARK minimizedRMSD -1
REMARK  1 active torsions:
REMARK  status: ('A' for Active; 'I' for Inactive)
REMARK    1  A    between atoms: C1_2  and  C2_3 
ROOT
ATOM      1  C2  UNL d   1       2.064   5.476   4.829  0.00  0.00    -0.077 A 
ATOM      2  C3  UNL d   1       2.607   4.505   3.976  0.00  0.00     0.002 A 
ATOM      3  C4  UNL d   1       1.886   4.055   2.869  0.00  0.00     0.002 A 
ATOM      4  C5  UNL d   1       0.620   4.572   2.602  0.00  0.00    -0.004 A 
ATOM      5  C6  UNL d   1       0.071   5.537   3.446  0.00  0.00     0.002 A 
ATOM      6  C7  UNL d   1       0.790   5.988   4.554  0.00  0.00     0.002 A 
ENDROOT
BRANCH   1   7
ATOM      7  C1  UNL d   1       2.861   5.999   5.996  0.00  0.00     0.055 C 
ATOM      8  C   UNL d   1       4.353   5.995   5.694  0.00  0.00     0.019 C 
ENDBRANCH   1   7
TORSDOF 1
ENDMDL
