MODEL 1
REMARK minimizedAffinity -2.61256433
REMARK minimizedRMSD -1
REMARK  1 active torsions:
REMARK  status: ('A' for Active; 'I' for Inactive)
REMARK    1  A    between atoms: C1_2  and  C2_3 
ROOT
ATOM      1  C2  UNL d   1       1.135   4.867   3.548  0.00  0.00    -0.077 A 
ATOM      2  C3  UNL d   1       2.082   5.058   4.564  0.00  0.00     0.002 A 
ATOM      3  C4  UNL d   1       1.706   5.625   5.783  0.00  0.00     0.002 A 
ATOM      4  C5  UNL d   1       0.382   6.000   6.000  0.00  0.00    -0.004 A 
ATOM      5  C6  UNL d   1      -0.568   5.815   4.995  0.00  0.00     0.002 A 
ATOM      6  C7  UNL d   1      -0.193   5.250   3.775  0.00  0.00     0.002 A 
ENDROOT
BRANCH   1   7
ATOM      7  C1  UNL d   1       1.529   4.211   2.251  0.00  0.00     0.055 C 
ATOM      8  C   UNL d   1       2.430   3.008   2.490  0.00  0.00     0.019 C 
ENDBRANCH   1   7
TORSDOF 1
ENDMDL
