MODEL 1
REMARK minimizedAffinity -1.55981398
REMARK minimizedRMSD -1
REMARK  1 active torsions:
REMARK  status: ('A' for Active; 'I' for Inactive)
REMARK    1  A    between atoms: C1_2  and  C2_3 
ROOT
ATOM      1  C2  UNL d   1       4.533  -4.387   3.196  0.00  0.00    -0.077 A 
ATOM      2  C3  UNL d   1       4.539  -3.154   3.863  0.00  0.00     0.002 A 
ATOM      3  C4  UNL d   1       4.525  -3.106   5.258  0.00  0.00     0.002 A 
ATOM      4  C5  UNL d   1       4.509  -4.286   5.998  0.00  0.00    -0.004 A 
ATOM      5  C6  UNL d   1       4.500  -5.518   5.344  0.00  0.00     0.002 A 
ATOM      6  C7  UNL d   1       4.513  -5.568   3.949  0.00  0.00     0.002 A 
ENDROOT
BRANCH   1   7
ATOM      7  C1  UNL d   1       4.598  -4.442   1.692  0.00  0.00     0.055 C 
ATOM      8  C   UNL d   1       3.461  -3.652   1.059  0.00  0.00     0.019 C 
ENDBRANCH   1   7
TORSDOF 1
ENDMDL
