MODEL 1
REMARK minimizedAffinity -2.64367628
REMARK minimizedRMSD -1
REMARK  1 active torsions:
REMARK  status: ('A' for Active; 'I' for Inactive)
REMARK    1  A    between atoms: C1_2  and  C2_3 
ROOT
ATOM      1  C2  UNL d   1       2.608   3.262  -5.929  0.00  0.00    -0.077 A 
ATOM      2  C3  UNL d   1       1.583   4.216  -5.863  0.00  0.00     0.002 A 
ATOM      3  C4  UNL d   1       1.885   5.579  -5.864  0.00  0.00     0.002 A 
ATOM      4  C5  UNL d   1       3.211   6.000  -5.935  0.00  0.00    -0.004 A 
ATOM      5  C6  UNL d   1       4.238   5.059  -5.999  0.00  0.00     0.002 A 
ATOM      6  C7  UNL d   1       3.938   3.696  -5.997  0.00  0.00     0.002 A 
ENDROOT
BRANCH   1   7
ATOM      7  C1  UNL d   1       2.282   1.792  -5.978  0.00  0.00     0.055 C 
ATOM      8  C   UNL d   1       0.778   1.560  -6.000  0.00  0.00     0.019 C 
ENDBRANCH   1   7
TORSDOF 1
ENDMDL
