MODEL 1
REMARK minimizedAffinity 2.16458035
REMARK minimizedRMSD -1
REMARK  1 active torsions:
REMARK  status: ('A' for Active; 'I' for Inactive)
REMARK    1  A    between atoms: C1_2  and  C2_3 
ROOT
ATOM      1  C2  UNL d   1       4.783  -4.667   3.290  0.00  0.00    -0.077 A 
ATOM      2  C3  UNL d   1       5.023  -3.408   3.859  0.00  0.00     0.002 A 
ATOM      3  C4  UNL d   1       5.361  -3.297   5.209  0.00  0.00     0.002 A 
ATOM      4  C5  UNL d   1       5.466  -4.439   6.000  0.00  0.00    -0.004 A 
ATOM      5  C6  UNL d   1       5.227  -5.695   5.444  0.00  0.00     0.002 A 
ATOM      6  C7  UNL d   1       4.888  -5.809   4.095  0.00  0.00     0.002 A 
ENDROOT
BRANCH   1   7
ATOM      7  C1  UNL d   1       4.467  -4.794   1.823  0.00  0.00     0.055 C 
ATOM      8  C   UNL d   1       3.565  -3.662   1.351  0.00  0.00     0.019 C 
ENDBRANCH   1   7
TORSDOF 1
ENDMDL
