MODEL 1
REMARK minimizedAffinity -3.00504923
REMARK minimizedRMSD -1
REMARK  1 active torsions:
REMARK  status: ('A' for Active; 'I' for Inactive)
REMARK    1  A    between atoms: C1_2  and  C2_3 
ROOT
ATOM      1  C2  UNL d   1       4.596   3.769  -5.879  0.00  0.00    -0.077 A 
ATOM      2  C3  UNL d   1       4.618   5.170  -5.938  0.00  0.00     0.002 A 
ATOM      3  C4  UNL d   1       3.426   5.894  -6.000  0.00  0.00     0.002 A 
ATOM      4  C5  UNL d   1       2.203   5.226  -6.000  0.00  0.00    -0.004 A 
ATOM      5  C6  UNL d   1       2.170   3.834  -5.944  0.00  0.00     0.002 A 
ATOM      6  C7  UNL d   1       3.361   3.108  -5.883  0.00  0.00     0.002 A 
ENDROOT
BRANCH   1   7
ATOM      7  C1  UNL d   1       5.879   2.989  -5.762  0.00  0.00     0.055 C 
ATOM      8  C   UNL d   1       5.999   2.322  -4.400  0.00  0.00     0.019 C 
ENDBRANCH   1   7
TORSDOF 1
ENDMDL
