MODEL 1
REMARK minimizedAffinity -1.8132515
REMARK minimizedRMSD -1
REMARK  1 active torsions:
REMARK  status: ('A' for Active; 'I' for Inactive)
REMARK    1  A    between atoms: C1_2  and  C2_3 
ROOT
ATOM      1  C2  UNL d   1      -3.034   0.839  -2.918  0.00  0.00    -0.077 A 
ATOM      2  C3  UNL d   1      -3.480   0.280  -4.124  0.00  0.00     0.002 A 
ATOM      3  C4  UNL d   1      -4.330  -0.828  -4.117  0.00  0.00     0.002 A 
ATOM      4  C5  UNL d   1      -4.744  -1.383  -2.908  0.00  0.00    -0.004 A 
ATOM      5  C6  UNL d   1      -4.305  -0.835  -1.704  0.00  0.00     0.002 A 
ATOM      6  C7  UNL d   1      -3.454   0.271  -1.708  0.00  0.00     0.002 A 
ENDROOT
BRANCH   1   7
ATOM      7  C1  UNL d   1      -2.157   2.064  -2.923  0.00  0.00     0.055 C 
ATOM      8  C   UNL d   1      -2.368   2.891  -4.183  0.00  0.00     0.019 C 
ENDBRANCH   1   7
TORSDOF 1
ENDMDL
