MODEL 1
REMARK minimizedAffinity -3.33408737
REMARK minimizedRMSD -1
REMARK  1 active torsions:
REMARK  status: ('A' for Active; 'I' for Inactive)
REMARK    1  A    between atoms: C1_2  and  C2_3 
ROOT
ATOM      1  C2  UNL d   1       3.757  -3.022   1.862  0.00  0.00    -0.077 A 
ATOM      2  C3  UNL d   1       2.509  -2.415   1.668  0.00  0.00     0.002 A 
ATOM      3  C4  UNL d   1       2.004  -2.235   0.379  0.00  0.00     0.002 A 
ATOM      4  C5  UNL d   1       2.738  -2.662  -0.725  0.00  0.00    -0.004 A 
ATOM      5  C6  UNL d   1       3.982  -3.265  -0.543  0.00  0.00     0.002 A 
ATOM      6  C7  UNL d   1       4.489  -3.445   0.745  0.00  0.00     0.002 A 
ENDROOT
BRANCH   1   7
ATOM      7  C1  UNL d   1       4.282  -3.262   3.254  0.00  0.00     0.055 C 
ATOM      8  C   UNL d   1       4.481  -4.747   3.521  0.00  0.00     0.019 C 
ENDBRANCH   1   7
TORSDOF 1
ENDMDL
