MODEL 1
REMARK minimizedAffinity 0.108802147
REMARK minimizedRMSD -1
REMARK  0 active torsions:
REMARK  status: ('A' for Active; 'I' for Inactive)
ROOT
ATOM      1  C   UNL d   1      -0.024   0.802  -4.863  0.00  0.00     0.023 A 
ATOM      2  C1  UNL d   1      -0.769   0.037  -3.966  0.00  0.00     0.003 A 
ATOM      3  C2  UNL d   1      -0.791  -1.354  -4.084  0.00  0.00     0.048 A 
ATOM      4  C3  UNL d   1      -0.063  -1.974  -5.099  0.00  0.00     0.023 A 
ATOM      5  C4  UNL d   1       0.685  -1.212  -5.998  0.00  0.00     0.048 A 
ATOM      6  C5  UNL d   1       0.703   0.179  -5.878  0.00  0.00     0.003 A 
ATOM      7  I   UNL d   1      -0.093  -4.045  -5.275  0.00  0.00    -0.146 I 
ENDROOT
TORSDOF 0
ENDMDL
