MODEL 1
REMARK minimizedAffinity 2.38821125
REMARK minimizedRMSD -1
REMARK  0 active torsions:
REMARK  status: ('A' for Active; 'I' for Inactive)
ROOT
ATOM      1  C   UNL d   1      -2.303  -1.029   1.828  0.00  0.00     0.023 A 
ATOM      2  C1  UNL d   1      -1.378   0.016   1.841  0.00  0.00     0.003 A 
ATOM      3  C2  UNL d   1      -0.125  -0.168   2.428  0.00  0.00     0.048 A 
ATOM      4  C3  UNL d   1       0.198  -1.398   2.999  0.00  0.00     0.023 A 
ATOM      5  C4  UNL d   1      -0.723  -2.446   2.987  0.00  0.00     0.048 A 
ATOM      6  C5  UNL d   1      -1.976  -2.258   2.400  0.00  0.00     0.003 A 
ATOM      7  I   UNL d   1       2.064  -1.673   3.873  0.00  0.00    -0.146 I 
ENDROOT
TORSDOF 0
ENDMDL
