MODEL 1
REMARK minimizedAffinity 4.01627111
REMARK minimizedRMSD -1
REMARK  0 active torsions:
REMARK  status: ('A' for Active; 'I' for Inactive)
ROOT
ATOM      1  C   UNL d   1       5.541  -0.400  -4.534  0.00  0.00     0.023 A 
ATOM      2  C1  UNL d   1       4.707  -0.642  -3.442  0.00  0.00     0.003 A 
ATOM      3  C2  UNL d   1       3.327  -0.746  -3.626  0.00  0.00     0.048 A 
ATOM      4  C3  UNL d   1       2.787  -0.609  -4.904  0.00  0.00     0.023 A 
ATOM      5  C4  UNL d   1       3.618  -0.367  -6.000  0.00  0.00     0.048 A 
ATOM      6  C5  UNL d   1       4.997  -0.263  -5.811  0.00  0.00     0.003 A 
ATOM      7  I   UNL d   1       0.733  -0.763  -5.180  0.00  0.00    -0.146 I 
ENDROOT
TORSDOF 0
ENDMDL
