MODEL 1
REMARK minimizedAffinity -0.638083518
REMARK minimizedRMSD -1
REMARK  0 active torsions:
REMARK  status: ('A' for Active; 'I' for Inactive)
ROOT
ATOM      1  C   UNL d   1      -2.476  -0.067   1.502  0.00  0.00     0.023 A 
ATOM      2  C1  UNL d   1      -3.153  -0.524   0.371  0.00  0.00     0.003 A 
ATOM      3  C2  UNL d   1      -2.465  -1.227  -0.620  0.00  0.00     0.048 A 
ATOM      4  C3  UNL d   1      -1.099  -1.469  -0.473  0.00  0.00     0.023 A 
ATOM      5  C4  UNL d   1      -0.418  -1.014   0.657  0.00  0.00     0.048 A 
ATOM      6  C5  UNL d   1      -1.111  -0.312   1.645  0.00  0.00     0.003 A 
ATOM      7  I   UNL d   1      -0.072  -2.514  -1.947  0.00  0.00    -0.146 I 
ENDROOT
TORSDOF 0
ENDMDL
