MODEL 1
REMARK minimizedAffinity -3.49031544
REMARK minimizedRMSD -1
REMARK  0 active torsions:
REMARK  status: ('A' for Active; 'I' for Inactive)
ROOT
ATOM      1  C   UNL d   1      -3.331  -0.163   2.042  0.00  0.00     0.023 A 
ATOM      2  C1  UNL d   1      -2.064  -0.584   2.446  0.00  0.00     0.003 A 
ATOM      3  C2  UNL d   1      -1.112  -0.950   1.493  0.00  0.00     0.048 A 
ATOM      4  C3  UNL d   1      -1.432  -0.892   0.137  0.00  0.00     0.023 A 
ATOM      5  C4  UNL d   1      -2.699  -0.471  -0.272  0.00  0.00     0.048 A 
ATOM      6  C5  UNL d   1      -3.648  -0.107   0.684  0.00  0.00     0.003 A 
ATOM      7  I   UNL d   1      -0.016  -1.436  -1.283  0.00  0.00    -0.146 I 
ENDROOT
TORSDOF 0
ENDMDL
