MODEL 1
REMARK minimizedAffinity -0.590586841
REMARK minimizedRMSD -1
REMARK  0 active torsions:
REMARK  status: ('A' for Active; 'I' for Inactive)
ROOT
ATOM      1  C   UNL d   1      -0.622  -0.554   2.158  0.00  0.00     0.023 A 
ATOM      2  C1  UNL d   1      -1.470   0.368   2.771  0.00  0.00     0.003 A 
ATOM      3  C2  UNL d   1      -2.689   0.701   2.176  0.00  0.00     0.048 A 
ATOM      4  C3  UNL d   1      -3.054   0.107   0.968  0.00  0.00     0.023 A 
ATOM      5  C4  UNL d   1      -2.208  -0.817   0.352  0.00  0.00     0.048 A 
ATOM      6  C5  UNL d   1      -0.990  -1.146   0.950  0.00  0.00     0.003 A 
ATOM      7  I   UNL d   1      -4.867   0.600   0.081  0.00  0.00    -0.146 I 
ENDROOT
TORSDOF 0
ENDMDL
