MODEL 1
REMARK minimizedAffinity -2.5477345
REMARK minimizedRMSD -1
REMARK  0 active torsions:
REMARK  status: ('A' for Active; 'I' for Inactive)
ROOT
ATOM      1  C   UNL d   1       0.671   1.396   2.163  0.00  0.00     0.172 C 
ATOM      2  N   UNL d   1      -0.212   1.187   1.040  0.00  0.00    -0.070 N 
ATOM      3  C1  UNL d   1       0.168   0.773  -0.209  0.00  0.00    -0.004 A 
ATOM      4  C2  UNL d   1      -0.964   0.695  -0.991  0.00  0.00    -0.047 A 
ATOM      5  C3  UNL d   1      -2.063   1.077  -0.185  0.00  0.00    -0.047 A 
ATOM      6  C4  UNL d   1      -1.569   1.376   1.067  0.00  0.00    -0.004 A 
ENDROOT
TORSDOF 0
ENDMDL
