MODEL 1
REMARK minimizedAffinity 2.47958851
REMARK minimizedRMSD -1
REMARK  0 active torsions:
REMARK  status: ('A' for Active; 'I' for Inactive)
ROOT
ATOM      1  C   UNL d   1      -0.433   1.377  -0.775  0.00  0.00     0.172 C 
ATOM      2  N   UNL d   1       0.123   0.479   0.210  0.00  0.00    -0.070 N 
ATOM      3  C1  UNL d   1      -0.238   0.419   1.530  0.00  0.00    -0.004 A 
ATOM      4  C2  UNL d   1       0.520  -0.563   2.130  0.00  0.00    -0.047 A 
ATOM      5  C3  UNL d   1       1.366  -1.111   1.137  0.00  0.00    -0.047 A 
ATOM      6  C4  UNL d   1       1.100  -0.448  -0.042  0.00  0.00    -0.004 A 
ENDROOT
TORSDOF 0
ENDMDL
