MODEL 1
REMARK minimizedAffinity 1.56070483
REMARK minimizedRMSD -1
REMARK  0 active torsions:
REMARK  status: ('A' for Active; 'I' for Inactive)
ROOT
ATOM      1  C   UNL d   1      -4.896   4.895  -2.577  0.00  0.00     0.172 C 
ATOM      2  N   UNL d   1      -5.329   4.882  -3.955  0.00  0.00    -0.070 N 
ATOM      3  C1  UNL d   1      -5.510   3.764  -4.724  0.00  0.00    -0.004 A 
ATOM      4  C2  UNL d   1      -5.927   4.173  -5.972  0.00  0.00    -0.047 A 
ATOM      5  C3  UNL d   1      -5.997   5.586  -5.953  0.00  0.00    -0.047 A 
ATOM      6  C4  UNL d   1      -5.622   5.999  -4.692  0.00  0.00    -0.004 A 
ENDROOT
TORSDOF 0
ENDMDL
