MODEL 1
REMARK minimizedAffinity -0.79374063
REMARK minimizedRMSD -1
REMARK  0 active torsions:
REMARK  status: ('A' for Active; 'I' for Inactive)
ROOT
ATOM      1  C   UNL d   1      -0.074   1.104  -1.010  0.00  0.00     0.172 C 
ATOM      2  N   UNL d   1       0.205   0.686   0.344  0.00  0.00    -0.070 N 
ATOM      3  C1  UNL d   1      -0.033   1.425   1.472  0.00  0.00    -0.004 A 
ATOM      4  C2  UNL d   1       0.368   0.678   2.558  0.00  0.00    -0.047 A 
ATOM      5  C3  UNL d   1       0.864  -0.553   2.066  0.00  0.00    -0.047 A 
ATOM      6  C4  UNL d   1       0.751  -0.521   0.692  0.00  0.00    -0.004 A 
ENDROOT
TORSDOF 0
ENDMDL
