MODEL 1
REMARK minimizedAffinity 1.79459143
REMARK minimizedRMSD -1
REMARK  0 active torsions:
REMARK  status: ('A' for Active; 'I' for Inactive)
ROOT
ATOM      1  C   UNL d   1      -0.179   2.156   1.942  0.00  0.00     0.172 C 
ATOM      2  N   UNL d   1      -0.272   2.602   0.572  0.00  0.00    -0.070 N 
ATOM      3  C1  UNL d   1      -0.329   3.907   0.160  0.00  0.00    -0.004 A 
ATOM      4  C2  UNL d   1      -0.410   3.912  -1.216  0.00  0.00    -0.047 A 
ATOM      5  C3  UNL d   1      -0.402   2.563  -1.645  0.00  0.00    -0.047 A 
ATOM      6  C4  UNL d   1      -0.316   1.774  -0.518  0.00  0.00    -0.004 A 
ENDROOT
TORSDOF 0
ENDMDL
