MODEL 1
REMARK minimizedAffinity 9.3640871
REMARK minimizedRMSD -1
REMARK  0 active torsions:
REMARK  status: ('A' for Active; 'I' for Inactive)
ROOT
ATOM      1  C   UNL d   1       1.253   2.106   1.704  0.00  0.00     0.172 C 
ATOM      2  N   UNL d   1       0.098   2.105   0.837  0.00  0.00    -0.070 N 
ATOM      3  C1  UNL d   1      -1.142   2.586   1.160  0.00  0.00    -0.004 A 
ATOM      4  C2  UNL d   1      -1.963   2.403   0.068  0.00  0.00    -0.047 A 
ATOM      5  C3  UNL d   1      -1.189   1.789  -0.945  0.00  0.00    -0.047 A 
ATOM      6  C4  UNL d   1       0.083   1.616  -0.442  0.00  0.00    -0.004 A 
ENDROOT
TORSDOF 0
ENDMDL
