MODEL 1
REMARK minimizedAffinity 3.95412183
REMARK minimizedRMSD -1
REMARK  0 active torsions:
REMARK  status: ('A' for Active; 'I' for Inactive)
ROOT
ATOM      1  C   UNL d   1      -3.551  -0.925  -1.334  0.00  0.00     0.172 C 
ATOM      2  N   UNL d   1      -2.335  -0.150  -1.402  0.00  0.00    -0.070 N 
ATOM      3  C1  UNL d   1      -2.260   1.217  -1.431  0.00  0.00    -0.004 A 
ATOM      4  C2  UNL d   1      -0.929   1.566  -1.495  0.00  0.00    -0.047 A 
ATOM      5  C3  UNL d   1      -0.177   0.367  -1.506  0.00  0.00    -0.047 A 
ATOM      6  C4  UNL d   1      -1.073  -0.680  -1.448  0.00  0.00    -0.004 A 
ENDROOT
TORSDOF 0
ENDMDL
