MODEL 1
REMARK minimizedAffinity 1.68858063
REMARK minimizedRMSD -1
REMARK  0 active torsions:
REMARK  status: ('A' for Active; 'I' for Inactive)
ROOT
ATOM      1  C   UNL d   1       0.747  -0.628   3.965  0.00  0.00     0.172 C 
ATOM      2  N   UNL d   1       0.626   0.367   2.925  0.00  0.00    -0.070 N 
ATOM      3  C1  UNL d   1       1.469   0.510   1.856  0.00  0.00    -0.004 A 
ATOM      4  C2  UNL d   1       1.014   1.568   1.098  0.00  0.00    -0.047 A 
ATOM      5  C3  UNL d   1      -0.143   2.078   1.734  0.00  0.00    -0.047 A 
ATOM      6  C4  UNL d   1      -0.360   1.316   2.863  0.00  0.00    -0.004 A 
ENDROOT
TORSDOF 0
ENDMDL
