MODEL 1
REMARK minimizedAffinity 2.95656514
REMARK minimizedRMSD -1
REMARK  0 active torsions:
REMARK  status: ('A' for Active; 'I' for Inactive)
ROOT
ATOM      1  C   UNL d   1       1.843  -2.225  -1.831  0.00  0.00     0.172 C 
ATOM      2  N   UNL d   1       2.070  -3.411  -2.623  0.00  0.00    -0.070 N 
ATOM      3  C1  UNL d   1       2.002  -3.485  -3.989  0.00  0.00    -0.004 A 
ATOM      4  C2  UNL d   1       2.281  -4.783  -4.356  0.00  0.00    -0.047 A 
ATOM      5  C3  UNL d   1       2.525  -5.516  -3.170  0.00  0.00    -0.047 A 
ATOM      6  C4  UNL d   1       2.387  -4.642  -2.112  0.00  0.00    -0.004 A 
ENDROOT
TORSDOF 0
ENDMDL
