MODEL 1
REMARK minimizedAffinity -1.52539873
REMARK minimizedRMSD -1
REMARK  0 active torsions:
REMARK  status: ('A' for Active; 'I' for Inactive)
ROOT
ATOM      1  C   UNL d   1       0.394   0.821  -1.011  0.00  0.00     0.172 C 
ATOM      2  N   UNL d   1       0.396   2.039  -0.235  0.00  0.00    -0.070 N 
ATOM      3  C1  UNL d   1       0.441   3.310  -0.742  0.00  0.00    -0.004 A 
ATOM      4  C2  UNL d   1       0.426   4.189   0.319  0.00  0.00    -0.047 A 
ATOM      5  C3  UNL d   1       0.371   3.419   1.506  0.00  0.00    -0.047 A 
ATOM      6  C4  UNL d   1       0.353   2.092   1.134  0.00  0.00    -0.004 A 
ENDROOT
TORSDOF 0
ENDMDL
