MODEL 1
REMARK minimizedAffinity 10.9153023
REMARK minimizedRMSD -1
REMARK  3 active torsions:
REMARK  status: ('A' for Active; 'I' for Inactive)
REMARK    1  A    between atoms: C3'_2  and  C2'_3 
REMARK    2  A    between atoms: C2'_3  and  C1'_4 
REMARK    3  A    between atoms: C1'_4  and  C1_5 
ROOT
ATOM      1  C1  N4B d   1      -3.094  -1.562   1.321  0.00  0.00    -0.075 A 
ATOM      2  C2  N4B d   1      -2.673  -0.217   1.423  0.00  0.00     0.002 A 
ATOM      3  C3  N4B d   1      -3.404   0.778   0.822  0.00  0.00     0.002 A 
ATOM      4  C4  N4B d   1      -4.544   0.453   0.103  0.00  0.00    -0.004 A 
ATOM      5  C5  N4B d   1      -4.958  -0.845   0.031  0.00  0.00     0.002 A 
ATOM      6  C6  N4B d   1      -4.235  -1.855   0.632  0.00  0.00     0.002 A 
ENDROOT
BRANCH   1   7
ATOM      7  C1' N4B d   1      -2.281  -2.693   1.888  0.00  0.00     0.057 C 
BRANCH   7   8
ATOM      8  C2' N4B d   1      -2.656  -3.987   1.171  0.00  0.00     0.009 C 
BRANCH   8   9
ATOM      9  C3' N4B d   1      -1.481  -4.945   1.075  0.00  0.00     0.004 C 
ATOM     10  C4' N4B d   1      -1.122  -5.284  -0.340  0.00  0.00     0.003 C 
ENDBRANCH   8   9
ENDBRANCH   7   8
ENDBRANCH   1   7
TORSDOF 3
ENDMDL
