MODEL 1
REMARK minimizedAffinity 5.54770756
REMARK minimizedRMSD -1
REMARK  3 active torsions:
REMARK  status: ('A' for Active; 'I' for Inactive)
REMARK    1  A    between atoms: C3'_2  and  C2'_3 
REMARK    2  A    between atoms: C2'_3  and  C1'_4 
REMARK    3  A    between atoms: C1'_4  and  C1_5 
ROOT
ATOM      1  C1  N4B d   1       1.051  -2.162  -0.595  0.00  0.00    -0.075 A 
ATOM      2  C2  N4B d   1       1.268  -2.569   0.740  0.00  0.00     0.002 A 
ATOM      3  C3  N4B d   1       2.040  -1.800   1.575  0.00  0.00     0.002 A 
ATOM      4  C4  N4B d   1       2.619  -0.634   1.095  0.00  0.00    -0.004 A 
ATOM      5  C5  N4B d   1       2.384  -0.235  -0.189  0.00  0.00     0.002 A 
ATOM      6  C6  N4B d   1       1.606  -0.997  -1.038  0.00  0.00     0.002 A 
ENDROOT
BRANCH   1   7
ATOM      7  C1' N4B d   1       0.285  -3.014  -1.570  0.00  0.00     0.057 C 
BRANCH   7   8
ATOM      8  C2' N4B d   1      -1.186  -3.039  -1.166  0.00  0.00     0.009 C 
BRANCH   8   9
ATOM      9  C3' N4B d   1      -1.976  -1.923  -1.826  0.00  0.00     0.004 C 
ATOM     10  C4' N4B d   1      -3.329  -1.727  -1.211  0.00  0.00     0.003 C 
ENDBRANCH   8   9
ENDBRANCH   7   8
ENDBRANCH   1   7
TORSDOF 3
ENDMDL
