MODEL 1
REMARK minimizedAffinity 4.90219688
REMARK minimizedRMSD -1
REMARK  3 active torsions:
REMARK  status: ('A' for Active; 'I' for Inactive)
REMARK    1  A    between atoms: C3'_2  and  C2'_3 
REMARK    2  A    between atoms: C2'_3  and  C1'_4 
REMARK    3  A    between atoms: C1'_4  and  C1_5 
ROOT
ATOM      1  C1  N4B d   1      -0.103  -3.237   6.000  0.00  0.00    -0.075 A 
ATOM      2  C2  N4B d   1      -1.347  -3.905   6.000  0.00  0.00     0.002 A 
ATOM      3  C3  N4B d   1      -1.389  -5.277   5.988  0.00  0.00     0.002 A 
ATOM      4  C4  N4B d   1      -0.206  -6.000   5.958  0.00  0.00    -0.004 A 
ATOM      5  C5  N4B d   1       0.992  -5.347   5.984  0.00  0.00     0.002 A 
ATOM      6  C6  N4B d   1       1.050  -3.968   6.000  0.00  0.00     0.002 A 
ENDROOT
BRANCH   1   7
ATOM      7  C1' N4B d   1      -0.006  -1.737   5.925  0.00  0.00     0.057 C 
BRANCH   7   8
ATOM      8  C2' N4B d   1       1.002  -1.354   4.846  0.00  0.00     0.009 C 
BRANCH   8   9
ATOM      9  C3' N4B d   1       0.948   0.129   4.519  0.00  0.00     0.004 C 
ATOM     10  C4' N4B d   1       1.211   0.414   3.071  0.00  0.00     0.003 C 
ENDBRANCH   8   9
ENDBRANCH   7   8
ENDBRANCH   1   7
TORSDOF 3
ENDMDL
