MODEL 1
REMARK minimizedAffinity 7.43024731
REMARK minimizedRMSD -1
REMARK  3 active torsions:
REMARK  status: ('A' for Active; 'I' for Inactive)
REMARK    1  A    between atoms: C3'_2  and  C2'_3 
REMARK    2  A    between atoms: C2'_3  and  C1'_4 
REMARK    3  A    between atoms: C1'_4  and  C1_5 
ROOT
ATOM      1  C1  N4B d   1       0.472  -1.764   5.930  0.00  0.00    -0.075 A 
ATOM      2  C2  N4B d   1       1.658  -2.531   5.888  0.00  0.00     0.002 A 
ATOM      3  C3  N4B d   1       1.590  -3.902   5.906  0.00  0.00     0.002 A 
ATOM      4  C4  N4B d   1       0.354  -4.527   5.984  0.00  0.00    -0.004 A 
ATOM      5  C5  N4B d   1      -0.787  -3.780   5.999  0.00  0.00     0.002 A 
ATOM      6  C6  N4B d   1      -0.734  -2.401   5.978  0.00  0.00     0.002 A 
ENDROOT
BRANCH   1   7
ATOM      7  C1' N4B d   1       0.500  -0.262   5.999  0.00  0.00     0.057 C 
BRANCH   7   8
ATOM      8  C2' N4B d   1       1.118   0.287   4.717  0.00  0.00     0.009 C 
BRANCH   8   9
ATOM      9  C3' N4B d   1       0.681  -0.499   3.493  0.00  0.00     0.004 C 
ATOM     10  C4' N4B d   1       0.622   0.342   2.253  0.00  0.00     0.003 C 
ENDBRANCH   8   9
ENDBRANCH   7   8
ENDBRANCH   1   7
TORSDOF 3
ENDMDL
