MODEL 1
REMARK minimizedAffinity -1.28224003
REMARK minimizedRMSD -1
REMARK  1 active torsions:
REMARK  status: ('A' for Active; 'I' for Inactive)
REMARK    1  A    between atoms: C1_2  and  C2_3 
ROOT
ATOM      1  C2  UNL d   1       0.415   0.593  -1.254  0.00  0.00    -0.073 A 
ATOM      2  C3  UNL d   1      -0.166  -0.571  -1.768  0.00  0.00    -0.002 A 
ATOM      3  C4  UNL d   1      -1.013  -1.346  -0.973  0.00  0.00     0.004 A 
ATOM      4  C5  UNL d   1      -1.292  -0.960   0.338  0.00  0.00    -0.004 A 
ATOM      5  C6  UNL d   1      -0.730   0.207   0.865  0.00  0.00    -0.075 A 
ATOM      6  C7  UNL d   1      -1.018   0.634   2.274  0.00  0.00     0.076 C 
ATOM      7  C8  UNL d   1       0.121   0.978   0.062  0.00  0.00     0.001 A 
ENDROOT
BRANCH   1   8
ATOM      8  C1  UNL d   1       1.325   1.436  -2.110  0.00  0.00     0.053 C 
ATOM      9  C   UNL d   1       1.352   0.959  -3.554  0.00  0.00     0.018 C 
ENDBRANCH   1   8
TORSDOF 1
ENDMDL
