MODEL 1
REMARK minimizedAffinity -1.449386
REMARK minimizedRMSD -1
REMARK  1 active torsions:
REMARK  status: ('A' for Active; 'I' for Inactive)
REMARK    1  A    between atoms: C1_2  and  C2_3 
ROOT
ATOM      1  C2  UNL d   1       0.160   0.223  -0.332  0.00  0.00    -0.073 A 
ATOM      2  C3  UNL d   1       0.369  -0.995  -0.989  0.00  0.00    -0.002 A 
ATOM      3  C4  UNL d   1       0.892  -1.018  -2.282  0.00  0.00     0.004 A 
ATOM      4  C5  UNL d   1       1.217   0.174  -2.929  0.00  0.00    -0.004 A 
ATOM      5  C6  UNL d   1       1.027   1.401  -2.285  0.00  0.00    -0.075 A 
ATOM      6  C7  UNL d   1       1.369   2.692  -2.968  0.00  0.00     0.076 C 
ATOM      7  C8  UNL d   1       0.499   1.416  -0.987  0.00  0.00     0.001 A 
ENDROOT
BRANCH   1   8
ATOM      8  C1  UNL d   1      -0.398   0.253   1.067  0.00  0.00     0.053 C 
ATOM      9  C   UNL d   1       0.658  -0.079   2.109  0.00  0.00     0.018 C 
ENDBRANCH   1   8
TORSDOF 1
ENDMDL
