MODEL 1
REMARK minimizedAffinity -0.336357892
REMARK minimizedRMSD -1
REMARK  0 active torsions:
REMARK  status: ('A' for Active; 'I' for Inactive)
ROOT
ATOM      1  O1  BZF d   1      -0.015  -0.866  -2.111  0.00  0.00    -0.204 OA
ATOM      2  C2  BZF d   1       0.317   0.435  -1.786  0.00  0.00     0.174 A 
ATOM      3  C3  BZF d   1       0.041   0.691  -0.491  0.00  0.00    -0.012 A 
ATOM      4  C3A BZF d   1      -0.411  -0.554   0.050  0.00  0.00    -0.107 A 
ATOM      5  C4  BZF d   1      -0.818  -0.945   1.294  0.00  0.00     0.055 A 
ATOM      6  C5  BZF d   1      -1.266  -2.215   1.473  0.00  0.00    -0.016 A 
ATOM      7  C6  BZF d   1      -1.325  -3.118   0.432  0.00  0.00     0.022 A 
ATOM      8  C7  BZF d   1      -0.927  -2.778  -0.818  0.00  0.00     0.029 A 
ATOM      9  C7A BZF d   1      -0.443  -1.505  -0.996  0.00  0.00     0.058 A 
ENDROOT
TORSDOF 0
ENDMDL
