MODEL 1
REMARK minimizedAffinity -1.92260814
REMARK minimizedRMSD -1
REMARK  0 active torsions:
REMARK  status: ('A' for Active; 'I' for Inactive)
ROOT
ATOM      1  O1  BZF d   1       1.224   0.374  -0.622  0.00  0.00    -0.204 OA
ATOM      2  C2  BZF d   1      -0.132   0.193  -0.431  0.00  0.00     0.174 A 
ATOM      3  C3  BZF d   1      -0.641   1.172   0.345  0.00  0.00    -0.012 A 
ATOM      4  C3A BZF d   1       0.448   2.069   0.581  0.00  0.00    -0.107 A 
ATOM      5  C4  BZF d   1       0.566   3.242   1.270  0.00  0.00     0.055 A 
ATOM      6  C5  BZF d   1       1.787   3.831   1.369  0.00  0.00    -0.016 A 
ATOM      7  C6  BZF d   1       2.910   3.272   0.796  0.00  0.00     0.022 A 
ATOM      8  C7  BZF d   1       2.843   2.112   0.098  0.00  0.00     0.029 A 
ATOM      9  C7A BZF d   1       1.605   1.532  -0.031  0.00  0.00     0.058 A 
ENDROOT
TORSDOF 0
ENDMDL
