MODEL 1
REMARK minimizedAffinity 3.50199342
REMARK minimizedRMSD -1
REMARK  0 active torsions:
REMARK  status: ('A' for Active; 'I' for Inactive)
ROOT
ATOM      1  O1  BZF d   1      -1.749  -0.315   0.142  0.00  0.00    -0.204 OA
ATOM      2  C2  BZF d   1      -1.558  -0.025   1.479  0.00  0.00     0.174 A 
ATOM      3  C3  BZF d   1      -0.285   0.356   1.709  0.00  0.00    -0.012 A 
ATOM      4  C3A BZF d   1       0.336   0.389   0.420  0.00  0.00    -0.107 A 
ATOM      5  C4  BZF d   1       1.593   0.709  -0.008  0.00  0.00     0.055 A 
ATOM      6  C5  BZF d   1       1.897   0.567  -1.325  0.00  0.00    -0.016 A 
ATOM      7  C6  BZF d   1       0.972   0.105  -2.239  0.00  0.00     0.022 A 
ATOM      8  C7  BZF d   1      -0.288  -0.220  -1.862  0.00  0.00     0.029 A 
ATOM      9  C7A BZF d   1      -0.609  -0.047  -0.537  0.00  0.00     0.058 A 
ENDROOT
TORSDOF 0
ENDMDL
