MODEL 1
REMARK minimizedAffinity 0.632569432
REMARK minimizedRMSD -1
REMARK  0 active torsions:
REMARK  status: ('A' for Active; 'I' for Inactive)
ROOT
ATOM      1  O1  BZF d   1       1.141   0.712  -0.995  0.00  0.00    -0.204 OA
ATOM      2  C2  BZF d   1      -0.062   0.166  -0.594  0.00  0.00     0.174 A 
ATOM      3  C3  BZF d   1      -0.531   0.794   0.504  0.00  0.00    -0.012 A 
ATOM      4  C3A BZF d   1       0.395   1.856   0.754  0.00  0.00    -0.107 A 
ATOM      5  C4  BZF d   1       0.462   2.840   1.698  0.00  0.00     0.055 A 
ATOM      6  C5  BZF d   1       1.535   3.674   1.708  0.00  0.00    -0.016 A 
ATOM      7  C6  BZF d   1       2.560   3.549   0.792  0.00  0.00     0.022 A 
ATOM      8  C7  BZF d   1       2.534   2.592  -0.167  0.00  0.00     0.029 A 
ATOM      9  C7A BZF d   1       1.436   1.769  -0.200  0.00  0.00     0.058 A 
ENDROOT
TORSDOF 0
ENDMDL
