MODEL 1
REMARK minimizedAffinity 5.54688072
REMARK minimizedRMSD -1
REMARK  0 active torsions:
REMARK  status: ('A' for Active; 'I' for Inactive)
ROOT
ATOM      1  O1  BZF d   1       2.799   3.040   1.067  0.00  0.00    -0.204 OA
ATOM      2  C2  BZF d   1       2.061   3.777   1.973  0.00  0.00     0.174 A 
ATOM      3  C3  BZF d   1       0.810   3.286   2.082  0.00  0.00    -0.012 A 
ATOM      4  C3A BZF d   1       0.791   2.118   1.256  0.00  0.00    -0.107 A 
ATOM      5  C4  BZF d   1      -0.168   1.190   0.965  0.00  0.00     0.055 A 
ATOM      6  C5  BZF d   1       0.112   0.212   0.064  0.00  0.00    -0.016 A 
ATOM      7  C6  BZF d   1       1.336   0.135  -0.567  0.00  0.00     0.022 A 
ATOM      8  C7  BZF d   1       2.320   1.030  -0.307  0.00  0.00     0.029 A 
ATOM      9  C7A BZF d   1       2.052   2.000   0.628  0.00  0.00     0.058 A 
ENDROOT
TORSDOF 0
ENDMDL
