MODEL 1
REMARK minimizedAffinity -0.353296757
REMARK minimizedRMSD -1
REMARK  0 active torsions:
REMARK  status: ('A' for Active; 'I' for Inactive)
ROOT
ATOM      1  O1  BZF d   1       1.499   0.641   0.200  0.00  0.00    -0.204 OA
ATOM      2  C2  BZF d   1       0.232   0.195  -0.122  0.00  0.00     0.174 A 
ATOM      3  C3  BZF d   1      -0.692   1.140   0.149  0.00  0.00    -0.012 A 
ATOM      4  C3A BZF d   1       0.054   2.280   0.588  0.00  0.00    -0.107 A 
ATOM      5  C4  BZF d   1      -0.301   3.537   0.986  0.00  0.00     0.055 A 
ATOM      6  C5  BZF d   1       0.665   4.388   1.423  0.00  0.00    -0.016 A 
ATOM      7  C6  BZF d   1       1.991   4.014   1.479  0.00  0.00     0.022 A 
ATOM      8  C7  BZF d   1       2.392   2.779   1.090  0.00  0.00     0.029 A 
ATOM      9  C7A BZF d   1       1.423   1.928   0.618  0.00  0.00     0.058 A 
ENDROOT
TORSDOF 0
ENDMDL
