MODEL 1
REMARK minimizedAffinity -2.57964659
REMARK minimizedRMSD -1
REMARK  0 active torsions:
REMARK  status: ('A' for Active; 'I' for Inactive)
ROOT
ATOM      1  O1  BZF d   1       3.137   2.196   0.181  0.00  0.00    -0.204 OA
ATOM      2  C2  BZF d   1       2.967   3.241   1.069  0.00  0.00     0.174 A 
ATOM      3  C3  BZF d   1       1.670   3.369   1.415  0.00  0.00    -0.012 A 
ATOM      4  C3A BZF d   1       1.000   2.282   0.770  0.00  0.00    -0.107 A 
ATOM      5  C4  BZF d   1      -0.300   1.863   0.744  0.00  0.00     0.055 A 
ATOM      6  C5  BZF d   1      -0.638   0.807  -0.042  0.00  0.00    -0.016 A 
ATOM      7  C6  BZF d   1       0.296   0.152  -0.819  0.00  0.00     0.022 A 
ATOM      8  C7  BZF d   1       1.598   0.528  -0.822  0.00  0.00     0.029 A 
ATOM      9  C7A BZF d   1       1.949   1.573  -0.003  0.00  0.00     0.058 A 
ENDROOT
TORSDOF 0
ENDMDL
