MODEL 1
REMARK minimizedAffinity 4.00102758
REMARK minimizedRMSD -1
REMARK  0 active torsions:
REMARK  status: ('A' for Active; 'I' for Inactive)
ROOT
ATOM      1  O1  BZF d   1      -0.306  -1.142  -1.948  0.00  0.00    -0.204 OA
ATOM      2  C2  BZF d   1       0.216   0.125  -2.131  0.00  0.00     0.174 A 
ATOM      3  C3  BZF d   1       0.239   0.805  -0.967  0.00  0.00    -0.012 A 
ATOM      4  C3A BZF d   1      -0.215  -0.124   0.021  0.00  0.00    -0.107 A 
ATOM      5  C4  BZF d   1      -0.396  -0.043   1.372  0.00  0.00     0.055 A 
ATOM      6  C5  BZF d   1      -0.923  -1.108   2.033  0.00  0.00    -0.016 A 
ATOM      7  C6  BZF d   1      -1.286  -2.264   1.373  0.00  0.00     0.022 A 
ATOM      8  C7  BZF d   1      -1.121  -2.392   0.034  0.00  0.00     0.029 A 
ATOM      9  C7A BZF d   1      -0.558  -1.331  -0.631  0.00  0.00     0.058 A 
ENDROOT
TORSDOF 0
ENDMDL
