MODEL 1
REMARK minimizedAffinity -0.343227088
REMARK minimizedRMSD -1
REMARK  0 active torsions:
REMARK  status: ('A' for Active; 'I' for Inactive)
ROOT
ATOM      1  O1  BZF d   1       1.795   0.347  -0.893  0.00  0.00    -0.204 OA
ATOM      2  C2  BZF d   1       0.454   0.017  -0.881  0.00  0.00     0.174 A 
ATOM      3  C3  BZF d   1      -0.250   0.902  -0.146  0.00  0.00    -0.012 A 
ATOM      4  C3A BZF d   1       0.698   1.896   0.255  0.00  0.00    -0.107 A 
ATOM      5  C4  BZF d   1       0.602   3.043   0.990  0.00  0.00     0.055 A 
ATOM      6  C5  BZF d   1       1.730   3.750   1.261  0.00  0.00    -0.016 A 
ATOM      7  C6  BZF d   1       2.969   3.338   0.818  0.00  0.00     0.022 A 
ATOM      8  C7  BZF d   1       3.114   2.210   0.081  0.00  0.00     0.029 A 
ATOM      9  C7A BZF d   1       1.972   1.511  -0.223  0.00  0.00     0.058 A 
ENDROOT
TORSDOF 0
ENDMDL
