MODEL 1
REMARK minimizedAffinity -4.37323618
REMARK minimizedRMSD -1
REMARK  0 active torsions:
REMARK  status: ('A' for Active; 'I' for Inactive)
ROOT
ATOM      1  O1  BZF d   1      -0.687  -2.591  -0.551  0.00  0.00    -0.204 OA
ATOM      2  C2  BZF d   1      -1.141  -2.470   0.748  0.00  0.00     0.174 A 
ATOM      3  C3  BZF d   1      -1.041  -1.194   1.173  0.00  0.00    -0.012 A 
ATOM      4  C3A BZF d   1      -0.577  -0.455   0.039  0.00  0.00    -0.107 A 
ATOM      5  C4  BZF d   1      -0.299   0.865  -0.172  0.00  0.00     0.055 A 
ATOM      6  C5  BZF d   1       0.207   1.250  -1.373  0.00  0.00    -0.016 A 
ATOM      7  C6  BZF d   1       0.451   0.342  -2.383  0.00  0.00     0.022 A 
ATOM      8  C7  BZF d   1       0.186  -0.977  -2.222  0.00  0.00     0.029 A 
ATOM      9  C7A BZF d   1      -0.356  -1.365  -1.021  0.00  0.00     0.058 A 
ENDROOT
TORSDOF 0
ENDMDL
