MODEL 1
REMARK minimizedAffinity -2.91799283
REMARK minimizedRMSD -1
REMARK  0 active torsions:
REMARK  status: ('A' for Active; 'I' for Inactive)
ROOT
ATOM      1  O1  BZF d   1      -0.317   0.065  -1.752  0.00  0.00    -0.204 OA
ATOM      2  C2  BZF d   1      -0.017   1.316  -1.247  0.00  0.00     0.174 A 
ATOM      3  C3  BZF d   1      -0.134   1.331   0.096  0.00  0.00    -0.012 A 
ATOM      4  C3A BZF d   1      -0.443  -0.017   0.462  0.00  0.00    -0.107 A 
ATOM      5  C4  BZF d   1      -0.663  -0.639   1.658  0.00  0.00     0.055 A 
ATOM      6  C5  BZF d   1      -1.014  -1.951   1.666  0.00  0.00    -0.016 A 
ATOM      7  C6  BZF d   1      -1.159  -2.671   0.498  0.00  0.00     0.022 A 
ATOM      8  C7  BZF d   1      -0.947  -2.099  -0.713  0.00  0.00     0.029 A 
ATOM      9  C7A BZF d   1      -0.560  -0.781  -0.722  0.00  0.00     0.058 A 
ENDROOT
TORSDOF 0
ENDMDL
