MODEL 1
REMARK minimizedAffinity -4.92891264
REMARK minimizedRMSD -1
REMARK  0 active torsions:
REMARK  status: ('A' for Active; 'I' for Inactive)
ROOT
ATOM      1  O1  BZF d   1       0.130   0.373  -1.803  0.00  0.00    -0.204 OA
ATOM      2  C2  BZF d   1       0.138   1.097  -0.627  0.00  0.00     0.174 A 
ATOM      3  C3  BZF d   1      -0.018   0.283   0.437  0.00  0.00    -0.012 A 
ATOM      4  C3A BZF d   1      -0.039  -1.042  -0.103  0.00  0.00    -0.107 A 
ATOM      5  C4  BZF d   1      -0.153  -2.282   0.457  0.00  0.00     0.055 A 
ATOM      6  C5  BZF d   1      -0.212  -3.370  -0.355  0.00  0.00    -0.016 A 
ATOM      7  C6  BZF d   1      -0.165  -3.254  -1.729  0.00  0.00     0.022 A 
ATOM      8  C7  BZF d   1      -0.047  -2.046  -2.330  0.00  0.00     0.029 A 
ATOM      9  C7A BZF d   1       0.046  -0.947  -1.511  0.00  0.00     0.058 A 
ENDROOT
TORSDOF 0
ENDMDL
