MODEL 1
REMARK minimizedAffinity -5.98925018
REMARK minimizedRMSD -1
REMARK  0 active torsions:
REMARK  status: ('A' for Active; 'I' for Inactive)
ROOT
ATOM      1  O1  BZF d   1      -0.180   0.570  -0.837  0.00  0.00    -0.204 OA
ATOM      2  C2  BZF d   1      -0.340   1.136   0.413  0.00  0.00     0.174 A 
ATOM      3  C3  BZF d   1      -0.414   0.182   1.364  0.00  0.00    -0.012 A 
ATOM      4  C3A BZF d   1      -0.201  -1.053   0.675  0.00  0.00    -0.107 A 
ATOM      5  C4  BZF d   1      -0.143  -2.356   1.079  0.00  0.00     0.055 A 
ATOM      6  C5  BZF d   1       0.007  -3.332   0.146  0.00  0.00    -0.016 A 
ATOM      7  C6  BZF d   1       0.098  -3.042  -1.200  0.00  0.00     0.022 A 
ATOM      8  C7  BZF d   1       0.051  -1.764  -1.649  0.00  0.00     0.029 A 
ATOM      9  C7A BZF d   1      -0.068  -0.773  -0.705  0.00  0.00     0.058 A 
ENDROOT
TORSDOF 0
ENDMDL
