MODEL 1
REMARK minimizedAffinity 9.53868771
REMARK minimizedRMSD -1
REMARK  0 active torsions:
REMARK  status: ('A' for Active; 'I' for Inactive)
ROOT
ATOM      1  O1  BZF d   1       0.280   3.037   0.153  0.00  0.00    -0.204 OA
ATOM      2  C2  BZF d   1       1.317   3.632   0.844  0.00  0.00     0.174 A 
ATOM      3  C3  BZF d   1       1.660   2.896   1.920  0.00  0.00    -0.012 A 
ATOM      4  C3A BZF d   1       0.844   1.723   1.849  0.00  0.00    -0.107 A 
ATOM      5  C4  BZF d   1       0.734   0.607   2.629  0.00  0.00     0.055 A 
ATOM      6  C5  BZF d   1      -0.212  -0.320   2.325  0.00  0.00    -0.016 A 
ATOM      7  C6  BZF d   1      -1.068  -0.161   1.255  0.00  0.00     0.022 A 
ATOM      8  C7  BZF d   1      -0.994   0.927   0.450  0.00  0.00     0.029 A 
ATOM      9  C7A BZF d   1      -0.017   1.850   0.734  0.00  0.00     0.058 A 
ENDROOT
TORSDOF 0
ENDMDL
