MODEL 1
REMARK minimizedAffinity 1.64262128
REMARK minimizedRMSD -1
REMARK  0 active torsions:
REMARK  status: ('A' for Active; 'I' for Inactive)
ROOT
ATOM      1  O1  BZF d   1      -0.549  -2.545  -0.687  0.00  0.00    -0.204 OA
ATOM      2  C2  BZF d   1      -1.259  -3.157   0.328  0.00  0.00     0.174 A 
ATOM      3  C3  BZF d   1      -1.482  -2.296   1.342  0.00  0.00    -0.012 A 
ATOM      4  C3A BZF d   1      -0.953  -1.044   0.896  0.00  0.00    -0.107 A 
ATOM      5  C4  BZF d   1      -0.889   0.201   1.455  0.00  0.00     0.055 A 
ATOM      6  C5  BZF d   1      -0.242   1.192   0.787  0.00  0.00    -0.016 A 
ATOM      7  C6  BZF d   1       0.357   0.973  -0.436  0.00  0.00     0.022 A 
ATOM      8  C7  BZF d   1       0.315  -0.244  -1.033  0.00  0.00     0.029 A 
ATOM      9  C7A BZF d   1      -0.367  -1.239  -0.376  0.00  0.00     0.058 A 
ENDROOT
TORSDOF 0
ENDMDL
