MODEL 1
REMARK minimizedAffinity -3.99984217
REMARK minimizedRMSD -1
REMARK  0 active torsions:
REMARK  status: ('A' for Active; 'I' for Inactive)
ROOT
ATOM      1  O1  BZF d   1      -0.022   0.492  -0.633  0.00  0.00    -0.204 OA
ATOM      2  C2  BZF d   1       0.648  -0.328  -1.520  0.00  0.00     0.174 A 
ATOM      3  C3  BZF d   1       1.931   0.065  -1.658  0.00  0.00    -0.012 A 
ATOM      4  C3A BZF d   1       2.096   1.144  -0.733  0.00  0.00    -0.107 A 
ATOM      5  C4  BZF d   1       3.155   1.938  -0.396  0.00  0.00     0.055 A 
ATOM      6  C5  BZF d   1       2.965   2.949   0.492  0.00  0.00    -0.016 A 
ATOM      7  C6  BZF d   1       1.732   3.198   1.057  0.00  0.00     0.022 A 
ATOM      8  C7  BZF d   1       0.653   2.434   0.757  0.00  0.00     0.029 A 
ATOM      9  C7A BZF d   1       0.849   1.391  -0.115  0.00  0.00     0.058 A 
ENDROOT
TORSDOF 0
ENDMDL
