MODEL 1
REMARK minimizedAffinity -1.31766856
REMARK minimizedRMSD -1
REMARK  0 active torsions:
REMARK  status: ('A' for Active; 'I' for Inactive)
ROOT
ATOM      1  O1  BZF d   1      -0.024  -0.162  -1.974  0.00  0.00    -0.204 OA
ATOM      2  C2  BZF d   1      -0.122  -1.492  -2.333  0.00  0.00     0.174 A 
ATOM      3  C3  BZF d   1      -0.323  -2.267  -1.247  0.00  0.00    -0.012 A 
ATOM      4  C3A BZF d   1      -0.445  -1.355  -0.152  0.00  0.00    -0.107 A 
ATOM      5  C4  BZF d   1      -0.669  -1.519   1.186  0.00  0.00     0.055 A 
ATOM      6  C5  BZF d   1      -0.658  -0.428   1.996  0.00  0.00    -0.016 A 
ATOM      7  C6  BZF d   1      -0.421   0.839   1.504  0.00  0.00     0.022 A 
ATOM      8  C7  BZF d   1      -0.199   1.052   0.184  0.00  0.00     0.029 A 
ATOM      9  C7A BZF d   1      -0.242  -0.045  -0.642  0.00  0.00     0.058 A 
ENDROOT
TORSDOF 0
ENDMDL
