MODEL 1
REMARK minimizedAffinity -1.26610041
REMARK minimizedRMSD -1
REMARK  0 active torsions:
REMARK  status: ('A' for Active; 'I' for Inactive)
ROOT
ATOM      1  O1  BZF d   1      -0.384  -1.130  -2.142  0.00  0.00    -0.204 OA
ATOM      2  C2  BZF d   1       0.225   0.044  -2.543  0.00  0.00     0.174 A 
ATOM      3  C3  BZF d   1       0.305   0.915  -1.516  0.00  0.00    -0.012 A 
ATOM      4  C3A BZF d   1      -0.207   0.209  -0.382  0.00  0.00    -0.107 A 
ATOM      5  C4  BZF d   1      -0.372   0.538   0.933  0.00  0.00     0.055 A 
ATOM      6  C5  BZF d   1      -0.969  -0.353   1.767  0.00  0.00    -0.016 A 
ATOM      7  C6  BZF d   1      -1.417  -1.579   1.320  0.00  0.00     0.022 A 
ATOM      8  C7  BZF d   1      -1.272  -1.952   0.025  0.00  0.00     0.029 A 
ATOM      9  C7A BZF d   1      -0.639  -1.067  -0.813  0.00  0.00     0.058 A 
ENDROOT
TORSDOF 0
ENDMDL
