MODEL 1
REMARK minimizedAffinity -3.26683617
REMARK minimizedRMSD -1
REMARK  0 active torsions:
REMARK  status: ('A' for Active; 'I' for Inactive)
ROOT
ATOM      1  C4' PXY d   1       0.007  -1.134  -1.355  0.00  0.00     0.077 C 
ATOM      2  C1' PXY d   1      -2.242  -2.221   3.858  0.00  0.00     0.077 C 
ATOM      3  C1  PXY d   1      -1.658  -1.924   2.491  0.00  0.00    -0.082 A 
ATOM      4  C2  PXY d   1      -1.332  -2.924   1.688  0.00  0.00     0.003 A 
ATOM      5  C3  PXY d   1      -0.773  -2.674   0.461  0.00  0.00     0.003 A 
ATOM      6  C4  PXY d   1      -0.595  -1.387   0.030  0.00  0.00    -0.082 A 
ATOM      7  C5  PXY d   1      -0.935  -0.361   0.839  0.00  0.00     0.003 A 
ATOM      8  C6  PXY d   1      -1.463  -0.636   2.097  0.00  0.00     0.003 A 
ENDROOT
TORSDOF 0
ENDMDL
