MODEL 1
REMARK minimizedAffinity -3.12373781
REMARK minimizedRMSD -1
REMARK  0 active torsions:
REMARK  status: ('A' for Active; 'I' for Inactive)
ROOT
ATOM      1  C4' PXY d   1      -0.732  -1.818  -0.525  0.00  0.00     0.077 C 
ATOM      2  C1' PXY d   1       1.222   3.211   1.551  0.00  0.00     0.077 C 
ATOM      3  C1  PXY d   1       0.715   1.894   0.995  0.00  0.00    -0.082 A 
ATOM      4  C2  PXY d   1      -0.349   1.323   1.535  0.00  0.00     0.003 A 
ATOM      5  C3  PXY d   1      -0.802   0.117   1.065  0.00  0.00     0.003 A 
ATOM      6  C4  PXY d   1      -0.191  -0.485  -0.002  0.00  0.00    -0.082 A 
ATOM      7  C5  PXY d   1       0.889   0.097  -0.565  0.00  0.00     0.003 A 
ATOM      8  C6  PXY d   1       1.358   1.301  -0.047  0.00  0.00     0.003 A 
ENDROOT
TORSDOF 0
ENDMDL
