MODEL 1
REMARK minimizedAffinity -3.05983138
REMARK minimizedRMSD -1
REMARK  0 active torsions:
REMARK  status: ('A' for Active; 'I' for Inactive)
ROOT
ATOM      1  C4' PXY d   1      -1.009  -2.067   0.404  0.00  0.00     0.077 C 
ATOM      2  C1' PXY d   1       1.588   3.037   1.187  0.00  0.00     0.077 C 
ATOM      3  C1  PXY d   1       0.910   1.699   0.969  0.00  0.00    -0.082 A 
ATOM      4  C2  PXY d   1      -0.021   1.291   1.817  0.00  0.00     0.003 A 
ATOM      5  C3  PXY d   1      -0.621   0.070   1.653  0.00  0.00     0.003 A 
ATOM      6  C4  PXY d   1      -0.304  -0.719   0.580  0.00  0.00    -0.082 A 
ATOM      7  C5  PXY d   1       0.636  -0.306  -0.296  0.00  0.00     0.003 A 
ATOM      8  C6  PXY d   1       1.263   0.919  -0.088  0.00  0.00     0.003 A 
ENDROOT
TORSDOF 0
ENDMDL
