MODEL 1
REMARK minimizedAffinity -4.02220821
REMARK minimizedRMSD -1
REMARK  0 active torsions:
REMARK  status: ('A' for Active; 'I' for Inactive)
ROOT
ATOM      1  C4' PXY d   1      -0.672  -2.129  -0.088  0.00  0.00     0.077 C 
ATOM      2  C1' PXY d   1       1.679   2.955   1.341  0.00  0.00     0.077 C 
ATOM      3  C1  PXY d   1       1.071   1.620   0.956  0.00  0.00    -0.082 A 
ATOM      4  C2  PXY d   1      -0.167   1.335   1.325  0.00  0.00     0.003 A 
ATOM      5  C3  PXY d   1      -0.722   0.121   1.013  0.00  0.00     0.003 A 
ATOM      6  C4  PXY d   1      -0.020  -0.791   0.270  0.00  0.00    -0.082 A 
ATOM      7  C5  PXY d   1       1.240  -0.503  -0.119  0.00  0.00     0.003 A 
ATOM      8  C6  PXY d   1       1.799   0.719   0.243  0.00  0.00     0.003 A 
ENDROOT
TORSDOF 0
ENDMDL
