MODEL 1
REMARK minimizedAffinity -1.50435555
REMARK minimizedRMSD -1
REMARK  0 active torsions:
REMARK  status: ('A' for Active; 'I' for Inactive)
ROOT
ATOM      1  C4' PXY d   1       1.702   3.052   1.534  0.00  0.00     0.077 C 
ATOM      2  C1' PXY d   1      -0.568  -1.303  -1.515  0.00  0.00     0.077 C 
ATOM      3  C1  PXY d   1       0.039  -0.164  -0.720  0.00  0.00    -0.082 A 
ATOM      4  C2  PXY d   1      -0.583   0.286   0.358  0.00  0.00     0.003 A 
ATOM      5  C3  PXY d   1      -0.064   1.337   1.071  0.00  0.00     0.003 A 
ATOM      6  C4  PXY d   1       1.131   1.898   0.707  0.00  0.00    -0.082 A 
ATOM      7  C5  PXY d   1       1.777   1.438  -0.386  0.00  0.00     0.003 A 
ATOM      8  C6  PXY d   1       1.213   0.398  -1.119  0.00  0.00     0.003 A 
ENDROOT
TORSDOF 0
ENDMDL
