MODEL 1
REMARK minimizedAffinity -1.73208928
REMARK minimizedRMSD -1
REMARK  0 active torsions:
REMARK  status: ('A' for Active; 'I' for Inactive)
ROOT
ATOM      1  C4' PXY d   1      -0.933  -1.694  -0.438  0.00  0.00     0.077 C 
ATOM      2  C1' PXY d   1       1.716   3.251   0.958  0.00  0.00     0.077 C 
ATOM      3  C1  PXY d   1       1.026   1.955   0.579  0.00  0.00    -0.082 A 
ATOM      4  C2  PXY d   1       0.021   1.511   1.316  0.00  0.00     0.003 A 
ATOM      5  C3  PXY d   1      -0.594   0.325   1.007  0.00  0.00     0.003 A 
ATOM      6  C4  PXY d   1      -0.212  -0.386  -0.099  0.00  0.00    -0.082 A 
ATOM      7  C5  PXY d   1       0.805   0.067  -0.862  0.00  0.00     0.003 A 
ATOM      8  C6  PXY d   1       1.444   1.251  -0.507  0.00  0.00     0.003 A 
ENDROOT
TORSDOF 0
ENDMDL
