MODEL 1
REMARK minimizedAffinity -4.70849705
REMARK minimizedRMSD -1
REMARK  0 active torsions:
REMARK  status: ('A' for Active; 'I' for Inactive)
ROOT
ATOM      1  C4' PXY d   1      -0.929  -2.851   1.071  0.00  0.00     0.077 C 
ATOM      2  C1' PXY d   1       0.584   2.717   0.731  0.00  0.00     0.077 C 
ATOM      3  C1  PXY d   1       0.190   1.256   0.807  0.00  0.00    -0.082 A 
ATOM      4  C2  PXY d   1      -0.634   0.849   1.759  0.00  0.00     0.003 A 
ATOM      5  C3  PXY d   1      -0.976  -0.475   1.863  0.00  0.00     0.003 A 
ATOM      6  C4  PXY d   1      -0.511  -1.383   0.949  0.00  0.00    -0.082 A 
ATOM      7  C5  PXY d   1       0.321  -0.974  -0.032  0.00  0.00     0.003 A 
ATOM      8  C6  PXY d   1       0.688   0.367  -0.094  0.00  0.00     0.003 A 
ENDROOT
TORSDOF 0
ENDMDL
