MODEL 1
REMARK minimizedAffinity -3.66110468
REMARK minimizedRMSD -1
REMARK  0 active torsions:
REMARK  status: ('A' for Active; 'I' for Inactive)
ROOT
ATOM      1  C4' PXY d   1      -1.566   1.383   2.192  0.00  0.00     0.077 C 
ATOM      2  C1' PXY d   1       3.246   0.838  -0.964  0.00  0.00     0.077 C 
ATOM      3  C1  PXY d   1       1.990   0.989  -0.128  0.00  0.00    -0.082 A 
ATOM      4  C2  PXY d   1       1.078   0.030  -0.139  0.00  0.00     0.003 A 
ATOM      5  C3  PXY d   1      -0.078   0.165   0.586  0.00  0.00     0.003 A 
ATOM      6  C4  PXY d   1      -0.279   1.268   1.371  0.00  0.00    -0.082 A 
ATOM      7  C5  PXY d   1       0.652   2.246   1.396  0.00  0.00     0.003 A 
ATOM      8  C6  PXY d   1       1.800   2.109   0.621  0.00  0.00     0.003 A 
ENDROOT
TORSDOF 0
ENDMDL
