MODEL 1
REMARK minimizedAffinity -2.15134192
REMARK minimizedRMSD -1
REMARK  0 active torsions:
REMARK  status: ('A' for Active; 'I' for Inactive)
ROOT
ATOM      1  C4' PXY d   1      -1.670  -1.629  -4.140  0.00  0.00     0.077 C 
ATOM      2  C1' PXY d   1      -1.201  -3.698   1.237  0.00  0.00     0.077 C 
ATOM      3  C1  PXY d   1      -1.334  -3.163  -0.175  0.00  0.00    -0.082 A 
ATOM      4  C2  PXY d   1      -0.293  -2.593  -0.760  0.00  0.00     0.003 A 
ATOM      5  C3  PXY d   1      -0.404  -2.076  -2.025  0.00  0.00     0.003 A 
ATOM      6  C4  PXY d   1      -1.579  -2.191  -2.719  0.00  0.00    -0.082 A 
ATOM      7  C5  PXY d   1      -2.643  -2.780  -2.133  0.00  0.00     0.003 A 
ATOM      8  C6  PXY d   1      -2.521  -3.262  -0.833  0.00  0.00     0.003 A 
ENDROOT
TORSDOF 0
ENDMDL
