MODEL 1
REMARK minimizedAffinity -4.16403961
REMARK minimizedRMSD -1
REMARK  0 active torsions:
REMARK  status: ('A' for Active; 'I' for Inactive)
ROOT
ATOM      1  C4' PXY d   1      -0.516  -1.714  -0.854  0.00  0.00     0.077 C 
ATOM      2  C1' PXY d   1       1.561   3.155   1.468  0.00  0.00     0.077 C 
ATOM      3  C1  PXY d   1       1.022   1.881   0.848  0.00  0.00    -0.082 A 
ATOM      4  C2  PXY d   1      -0.069   1.321   1.346  0.00  0.00     0.003 A 
ATOM      5  C3  PXY d   1      -0.551   0.152   0.818  0.00  0.00     0.003 A 
ATOM      6  C4  PXY d   1       0.058  -0.422  -0.266  0.00  0.00    -0.082 A 
ATOM      7  C5  PXY d   1       1.165   0.148  -0.787  0.00  0.00     0.003 A 
ATOM      8  C6  PXY d   1       1.663   1.313  -0.210  0.00  0.00     0.003 A 
ENDROOT
TORSDOF 0
ENDMDL
