MODEL 1
REMARK minimizedAffinity -0.913341284
REMARK minimizedRMSD -1
REMARK  0 active torsions:
REMARK  status: ('A' for Active; 'I' for Inactive)
ROOT
ATOM      1  C4' PXY d   1      -5.071  -3.445  -1.661  0.00  0.00     0.077 C 
ATOM      2  C1' PXY d   1       0.058  -0.824  -1.178  0.00  0.00     0.077 C 
ATOM      3  C1  PXY d   1      -1.291  -1.501  -1.311  0.00  0.00    -0.082 A 
ATOM      4  C2  PXY d   1      -1.647  -2.429  -0.438  0.00  0.00     0.003 A 
ATOM      5  C3  PXY d   1      -2.850  -3.074  -0.562  0.00  0.00     0.003 A 
ATOM      6  C4  PXY d   1      -3.722  -2.728  -1.559  0.00  0.00    -0.082 A 
ATOM      7  C5  PXY d   1      -3.371  -1.774  -2.448  0.00  0.00     0.003 A 
ATOM      8  C6  PXY d   1      -2.128  -1.161  -2.329  0.00  0.00     0.003 A 
ENDROOT
TORSDOF 0
ENDMDL
