MODEL 1
REMARK minimizedAffinity -3.47822928
REMARK minimizedRMSD -1
REMARK  0 active torsions:
REMARK  status: ('A' for Active; 'I' for Inactive)
ROOT
ATOM      1  C4' PXY d   1       0.102  -2.097  -0.721  0.00  0.00     0.077 C 
ATOM      2  C1' PXY d   1       1.033   3.308   1.105  0.00  0.00     0.077 C 
ATOM      3  C1  PXY d   1       0.795   1.893   0.615  0.00  0.00    -0.082 A 
ATOM      4  C2  PXY d   1      -0.179   1.172   1.146  0.00  0.00     0.003 A 
ATOM      5  C3  PXY d   1      -0.388  -0.120   0.737  0.00  0.00     0.003 A 
ATOM      6  C4  PXY d   1       0.373  -0.661  -0.264  0.00  0.00    -0.082 A 
ATOM      7  C5  PXY d   1       1.362   0.072  -0.819  0.00  0.00     0.003 A 
ATOM      8  C6  PXY d   1       1.584   1.367  -0.360  0.00  0.00     0.003 A 
ENDROOT
TORSDOF 0
ENDMDL
