MODEL 1
REMARK minimizedAffinity -3.90087819
REMARK minimizedRMSD -1
REMARK  0 active torsions:
REMARK  status: ('A' for Active; 'I' for Inactive)
ROOT
ATOM      1  C4' PXY d   1       1.308   3.014   1.311  0.00  0.00     0.077 C 
ATOM      2  C1' PXY d   1      -0.018  -2.032  -1.179  0.00  0.00     0.077 C 
ATOM      3  C1  PXY d   1       0.342  -0.711  -0.528  0.00  0.00    -0.082 A 
ATOM      4  C2  PXY d   1      -0.504  -0.146   0.318  0.00  0.00     0.003 A 
ATOM      5  C3  PXY d   1      -0.208   1.064   0.891  0.00  0.00     0.003 A 
ATOM      6  C4  PXY d   1       0.990   1.676   0.637  0.00  0.00    -0.082 A 
ATOM      7  C5  PXY d   1       1.863   1.101  -0.216  0.00  0.00     0.003 A 
ATOM      8  C6  PXY d   1       1.526  -0.108  -0.820  0.00  0.00     0.003 A 
ENDROOT
TORSDOF 0
ENDMDL
