MODEL 1
REMARK minimizedAffinity -5.12138796
REMARK minimizedRMSD -1
REMARK  0 active torsions:
REMARK  status: ('A' for Active; 'I' for Inactive)
ROOT
ATOM      1  C4' PXY d   1      -0.438  -1.256  -0.992  0.00  0.00     0.077 C 
ATOM      2  C1' PXY d   1       2.371   3.029   1.685  0.00  0.00     0.077 C 
ATOM      3  C1  PXY d   1       1.626   1.904   0.993  0.00  0.00    -0.082 A 
ATOM      4  C2  PXY d   1       2.229   1.209   0.043  0.00  0.00     0.003 A 
ATOM      5  C3  PXY d   1       1.559   0.209  -0.615  0.00  0.00     0.003 A 
ATOM      6  C4  PXY d   1       0.278  -0.117  -0.260  0.00  0.00    -0.082 A 
ATOM      7  C5  PXY d   1      -0.340   0.581   0.716  0.00  0.00     0.003 A 
ATOM      8  C6  PXY d   1       0.343   1.619   1.343  0.00  0.00     0.003 A 
ENDROOT
TORSDOF 0
ENDMDL
