MODEL 1
REMARK minimizedAffinity -4.14304733
REMARK minimizedRMSD -1
REMARK  0 active torsions:
REMARK  status: ('A' for Active; 'I' for Inactive)
ROOT
ATOM      1  C4' PXY d   1       1.724   2.877   0.622  0.00  0.00     0.077 C 
ATOM      2  C1' PXY d   1      -0.922  -2.263   0.628  0.00  0.00     0.077 C 
ATOM      3  C1  PXY d   1      -0.217  -0.920   0.620  0.00  0.00    -0.082 A 
ATOM      4  C2  PXY d   1      -0.535  -0.010   1.527  0.00  0.00     0.003 A 
ATOM      5  C3  PXY d   1       0.069   1.221   1.514  0.00  0.00     0.003 A 
ATOM      6  C4  PXY d   1       1.046   1.504   0.598  0.00  0.00    -0.082 A 
ATOM      7  C5  PXY d   1       1.383   0.577  -0.323  0.00  0.00     0.003 A 
ATOM      8  C6  PXY d   1       0.729  -0.652  -0.320  0.00  0.00     0.003 A 
ENDROOT
TORSDOF 0
ENDMDL
