MODEL 1
REMARK minimizedAffinity -3.40671897
REMARK minimizedRMSD -1
REMARK  0 active torsions:
REMARK  status: ('A' for Active; 'I' for Inactive)
ROOT
ATOM      1  C4' PXY d   1      -1.027  -3.439   1.653  0.00  0.00     0.077 C 
ATOM      2  C1' PXY d   1      -1.989  -1.353  -3.652  0.00  0.00     0.077 C 
ATOM      3  C1  PXY d   1      -1.725  -1.896  -2.261  0.00  0.00    -0.082 A 
ATOM      4  C2  PXY d   1      -2.461  -2.892  -1.796  0.00  0.00     0.003 A 
ATOM      5  C3  PXY d   1      -2.257  -3.373  -0.529  0.00  0.00     0.003 A 
ATOM      6  C4  PXY d   1      -1.253  -2.865   0.251  0.00  0.00    -0.082 A 
ATOM      7  C5  PXY d   1      -0.490  -1.856  -0.220  0.00  0.00     0.003 A 
ATOM      8  C6  PXY d   1      -0.741  -1.354  -1.493  0.00  0.00     0.003 A 
ENDROOT
TORSDOF 0
ENDMDL
