MODEL 1
REMARK minimizedAffinity -4.71690416
REMARK minimizedRMSD -1
REMARK  0 active torsions:
REMARK  status: ('A' for Active; 'I' for Inactive)
ROOT
ATOM      1  C4' PXY d   1       1.268   3.214   1.258  0.00  0.00     0.077 C 
ATOM      2  C1' PXY d   1      -0.175  -2.062  -0.612  0.00  0.00     0.077 C 
ATOM      3  C1  PXY d   1       0.191  -0.677  -0.118  0.00  0.00    -0.082 A 
ATOM      4  C2  PXY d   1       1.231  -0.049  -0.642  0.00  0.00     0.003 A 
ATOM      5  C3  PXY d   1       1.595   1.191  -0.184  0.00  0.00     0.003 A 
ATOM      6  C4  PXY d   1       0.856   1.818   0.783  0.00  0.00    -0.082 A 
ATOM      7  C5  PXY d   1      -0.213   1.188   1.315  0.00  0.00     0.003 A 
ATOM      8  C6  PXY d   1      -0.542  -0.088   0.866  0.00  0.00     0.003 A 
ENDROOT
TORSDOF 0
ENDMDL
