MODEL 1
REMARK minimizedAffinity -3.22598195
REMARK minimizedRMSD -1
REMARK  0 active torsions:
REMARK  status: ('A' for Active; 'I' for Inactive)
ROOT
ATOM      1  C4' PXY d   1      -0.654  -2.683   0.694  0.00  0.00     0.077 C 
ATOM      2  C1' PXY d   1       0.369   3.005   0.800  0.00  0.00     0.077 C 
ATOM      3  C1  PXY d   1       0.102   1.514   0.759  0.00  0.00    -0.082 A 
ATOM      4  C2  PXY d   1      -0.532   0.935   1.766  0.00  0.00     0.003 A 
ATOM      5  C3  PXY d   1      -0.754  -0.418   1.760  0.00  0.00     0.003 A 
ATOM      6  C4  PXY d   1      -0.370  -1.178   0.688  0.00  0.00    -0.082 A 
ATOM      7  C5  PXY d   1       0.267  -0.593  -0.348  0.00  0.00     0.003 A 
ATOM      8  C6  PXY d   1       0.519   0.775  -0.304  0.00  0.00     0.003 A 
ENDROOT
TORSDOF 0
ENDMDL
