MODEL 1
REMARK minimizedAffinity -4.01432753
REMARK minimizedRMSD -1
REMARK  0 active torsions:
REMARK  status: ('A' for Active; 'I' for Inactive)
ROOT
ATOM      1  C4' PXY d   1      -2.729  -1.639  -2.614  0.00  0.00     0.077 C 
ATOM      2  C1' PXY d   1      -1.079  -3.126   2.722  0.00  0.00     0.077 C 
ATOM      3  C1  PXY d   1      -1.507  -2.724   1.325  0.00  0.00    -0.082 A 
ATOM      4  C2  PXY d   1      -2.459  -3.408   0.710  0.00  0.00     0.003 A 
ATOM      5  C3  PXY d   1      -2.836  -3.078  -0.566  0.00  0.00     0.003 A 
ATOM      6  C4  PXY d   1      -2.271  -2.003  -1.199  0.00  0.00    -0.082 A 
ATOM      7  C5  PXY d   1      -1.307  -1.294  -0.575  0.00  0.00     0.003 A 
ATOM      8  C6  PXY d   1      -0.910  -1.671   0.705  0.00  0.00     0.003 A 
ENDROOT
TORSDOF 0
ENDMDL
