MODEL 1
REMARK minimizedAffinity -3.9371388
REMARK minimizedRMSD -1
REMARK  2 active torsions:
REMARK  status: ('A' for Active; 'I' for Inactive)
REMARK    1  A    between atoms: C2'_3  and  C1'_4 
REMARK    2  A    between atoms: C1'_4  and  C1_5 
ROOT
ATOM      1  C1  I4B d   1      -0.497   0.009   0.841  0.00  0.00    -0.075 A 
ATOM      2  C2  I4B d   1      -1.749   0.226   1.360  0.00  0.00     0.003 A 
ATOM      3  C3  I4B d   1      -2.018  -0.068   2.719  0.00  0.00     0.002 A 
ATOM      4  C4  I4B d   1      -1.026  -0.620   3.504  0.00  0.00    -0.004 A 
ATOM      5  C5  I4B d   1       0.249  -0.818   2.982  0.00  0.00     0.002 A 
ATOM      6  C6  I4B d   1       0.519  -0.489   1.645  0.00  0.00     0.003 A 
ENDROOT
BRANCH   1   7
ATOM      7  C1' I4B d   1      -0.257   0.300  -0.607  0.00  0.00     0.060 C 
BRANCH   7   8
ATOM      8  C2' I4B d   1       0.594  -0.819  -1.173  0.00  0.00    -0.013 C 
ATOM      9  C4' I4B d   1      -0.095  -2.151  -1.034  0.00  0.00     0.013 C 
ATOM     10  C3' I4B d   1       0.877  -0.503  -2.611  0.00  0.00     0.013 C 
ENDBRANCH   7   8
ENDBRANCH   1   7
TORSDOF 2
ENDMDL
