MODEL 1
REMARK minimizedAffinity -3.43095994
REMARK minimizedRMSD -1
REMARK  2 active torsions:
REMARK  status: ('A' for Active; 'I' for Inactive)
REMARK    1  A    between atoms: C2'_3  and  C1'_4 
REMARK    2  A    between atoms: C1'_4  and  C1_5 
ROOT
ATOM      1  C1  I4B d   1       0.644   0.031  -2.346  0.00  0.00    -0.075 A 
ATOM      2  C2  I4B d   1       2.014  -0.054  -2.337  0.00  0.00     0.003 A 
ATOM      3  C3  I4B d   1       2.684  -0.861  -3.289  0.00  0.00     0.002 A 
ATOM      4  C4  I4B d   1       1.947  -1.600  -4.192  0.00  0.00    -0.004 A 
ATOM      5  C5  I4B d   1       0.560  -1.494  -4.214  0.00  0.00     0.002 A 
ATOM      6  C6  I4B d   1      -0.096  -0.664  -3.294  0.00  0.00     0.003 A 
ENDROOT
BRANCH   1   7
ATOM      7  C1' I4B d   1      -0.033   0.867  -1.306  0.00  0.00     0.060 C 
BRANCH   7   8
ATOM      8  C2' I4B d   1      -0.623  -0.067  -0.269  0.00  0.00    -0.013 C 
ATOM      9  C4' I4B d   1       0.202  -0.073   0.991  0.00  0.00     0.013 C 
ATOM     10  C3' I4B d   1      -2.029   0.376   0.007  0.00  0.00     0.013 C 
ENDBRANCH   7   8
ENDBRANCH   1   7
TORSDOF 2
ENDMDL
