MODEL 1
REMARK minimizedAffinity -6.14365959
REMARK minimizedRMSD -1
REMARK  2 active torsions:
REMARK  status: ('A' for Active; 'I' for Inactive)
REMARK    1  A    between atoms: C2'_3  and  C1'_4 
REMARK    2  A    between atoms: C1'_4  and  C1_5 
ROOT
ATOM      1  C1  I4B d   1      -0.197   0.110   0.046  0.00  0.00    -0.075 A 
ATOM      2  C2  I4B d   1      -1.303  -0.094   0.832  0.00  0.00     0.003 A 
ATOM      3  C3  I4B d   1      -1.169  -0.194   2.238  0.00  0.00     0.002 A 
ATOM      4  C4  I4B d   1       0.087  -0.136   2.807  0.00  0.00    -0.004 A 
ATOM      5  C5  I4B d   1       1.204   0.094   2.010  0.00  0.00     0.002 A 
ATOM      6  C6  I4B d   1       1.061   0.230   0.622  0.00  0.00     0.003 A 
ENDROOT
BRANCH   1   7
ATOM      7  C1' I4B d   1      -0.371   0.178  -1.439  0.00  0.00     0.060 C 
BRANCH   7   8
ATOM      8  C2' I4B d   1       0.615  -0.785  -2.069  0.00  0.00    -0.013 C 
ATOM      9  C4' I4B d   1      -0.088  -1.984  -2.646  0.00  0.00     0.013 C 
ATOM     10  C3' I4B d   1       1.376  -0.042  -3.126  0.00  0.00     0.013 C 
ENDBRANCH   7   8
ENDBRANCH   1   7
TORSDOF 2
ENDMDL
