MODEL 1
REMARK minimizedAffinity -5.24614143
REMARK minimizedRMSD -1
REMARK  2 active torsions:
REMARK  status: ('A' for Active; 'I' for Inactive)
REMARK    1  A    between atoms: C2'_3  and  C1'_4 
REMARK    2  A    between atoms: C1'_4  and  C1_5 
ROOT
ATOM      1  C1  I4B d   1       0.207  -0.268   1.019  0.00  0.00    -0.075 A 
ATOM      2  C2  I4B d   1       0.717   0.451   2.071  0.00  0.00     0.003 A 
ATOM      3  C3  I4B d   1      -0.032   0.601   3.263  0.00  0.00     0.002 A 
ATOM      4  C4  I4B d   1      -1.300   0.060   3.341  0.00  0.00    -0.004 A 
ATOM      5  C5  I4B d   1      -1.806  -0.688   2.283  0.00  0.00     0.002 A 
ATOM      6  C6  I4B d   1      -1.044  -0.864   1.119  0.00  0.00     0.003 A 
ENDROOT
BRANCH   1   7
ATOM      7  C1' I4B d   1       1.011  -0.378  -0.237  0.00  0.00     0.060 C 
BRANCH   7   8
ATOM      8  C2' I4B d   1       0.051  -0.369  -1.409  0.00  0.00    -0.013 C 
ATOM      9  C4' I4B d   1      -0.594   0.982  -1.575  0.00  0.00     0.013 C 
ATOM     10  C3' I4B d   1       0.816  -0.759  -2.638  0.00  0.00     0.013 C 
ENDBRANCH   7   8
ENDBRANCH   1   7
TORSDOF 2
ENDMDL
