MODEL 1
REMARK minimizedAffinity -5.48407793
REMARK minimizedRMSD -1
REMARK  2 active torsions:
REMARK  status: ('A' for Active; 'I' for Inactive)
REMARK    1  A    between atoms: C2'_3  and  C1'_4 
REMARK    2  A    between atoms: C1'_4  and  C1_5 
ROOT
ATOM      1  C1  I4B d   1      -0.505   0.056   0.027  0.00  0.00    -0.075 A 
ATOM      2  C2  I4B d   1       0.588  -0.303   0.777  0.00  0.00     0.003 A 
ATOM      3  C3  I4B d   1       0.450  -0.555   2.163  0.00  0.00     0.002 A 
ATOM      4  C4  I4B d   1      -0.781  -0.389   2.765  0.00  0.00    -0.004 A 
ATOM      5  C5  I4B d   1      -1.892  -0.048   1.999  0.00  0.00     0.002 A 
ATOM      6  C6  I4B d   1      -1.756   0.164   0.620  0.00  0.00     0.003 A 
ENDROOT
BRANCH   1   7
ATOM      7  C1' I4B d   1      -0.317   0.347  -1.428  0.00  0.00     0.060 C 
BRANCH   7   8
ATOM      8  C2' I4B d   1       0.743  -0.597  -1.959  0.00  0.00    -0.013 C 
ATOM      9  C4' I4B d   1       0.121  -1.779  -2.655  0.00  0.00     0.013 C 
ATOM     10  C3' I4B d   1       1.626   0.177  -2.893  0.00  0.00     0.013 C 
ENDBRANCH   7   8
ENDBRANCH   1   7
TORSDOF 2
ENDMDL
