MODEL 1
REMARK minimizedAffinity -5.04921722
REMARK minimizedRMSD -1
REMARK  2 active torsions:
REMARK  status: ('A' for Active; 'I' for Inactive)
REMARK    1  A    between atoms: C2'_3  and  C1'_4 
REMARK    2  A    between atoms: C1'_4  and  C1_5 
ROOT
ATOM      1  C1  I4B d   1       0.443  -0.241  -0.424  0.00  0.00    -0.075 A 
ATOM      2  C2  I4B d   1       0.429   0.787  -1.332  0.00  0.00     0.003 A 
ATOM      3  C3  I4B d   1       0.698   0.534  -2.700  0.00  0.00     0.002 A 
ATOM      4  C4  I4B d   1       1.023  -0.745  -3.103  0.00  0.00    -0.004 A 
ATOM      5  C5  I4B d   1       1.013  -1.790  -2.185  0.00  0.00     0.002 A 
ATOM      6  C6  I4B d   1       0.710  -1.540  -0.838  0.00  0.00     0.003 A 
ENDROOT
BRANCH   1   7
ATOM      7  C1' I4B d   1       0.187   0.067   1.017  0.00  0.00     0.060 C 
BRANCH   7   8
ATOM      8  C2' I4B d   1      -0.840  -0.922   1.531  0.00  0.00    -0.013 C 
ATOM      9  C4' I4B d   1      -0.529  -1.348   2.941  0.00  0.00     0.013 C 
ATOM     10  C3' I4B d   1      -2.189  -0.273   1.447  0.00  0.00     0.013 C 
ENDBRANCH   7   8
ENDBRANCH   1   7
TORSDOF 2
ENDMDL
