MODEL 1
REMARK minimizedAffinity -0.643342078
REMARK minimizedRMSD -1
REMARK  2 active torsions:
REMARK  status: ('A' for Active; 'I' for Inactive)
REMARK    1  A    between atoms: C2'_3  and  C1'_4 
REMARK    2  A    between atoms: C1'_4  and  C1_5 
ROOT
ATOM      1  C1  I4B d   1       0.629   0.704  -0.021  0.00  0.00    -0.075 A 
ATOM      2  C2  I4B d   1       0.656   1.583   1.033  0.00  0.00     0.003 A 
ATOM      3  C3  I4B d   1       1.571   1.392   2.097  0.00  0.00     0.002 A 
ATOM      4  C4  I4B d   1       2.399   0.289   2.092  0.00  0.00    -0.004 A 
ATOM      5  C5  I4B d   1       2.386  -0.589   1.011  0.00  0.00     0.002 A 
ATOM      6  C6  I4B d   1       1.505  -0.373  -0.058  0.00  0.00     0.003 A 
ENDROOT
BRANCH   1   7
ATOM      7  C1' I4B d   1      -0.371   0.918  -1.112  0.00  0.00     0.060 C 
BRANCH   7   8
ATOM      8  C2' I4B d   1      -1.504  -0.067  -0.906  0.00  0.00    -0.013 C 
ATOM      9  C4' I4B d   1      -2.840   0.627  -0.926  0.00  0.00     0.013 C 
ATOM     10  C3' I4B d   1      -1.417  -1.105  -1.985  0.00  0.00     0.013 C 
ENDBRANCH   7   8
ENDBRANCH   1   7
TORSDOF 2
ENDMDL
