MODEL 1
REMARK minimizedAffinity 1.34779501
REMARK minimizedRMSD -1
REMARK  2 active torsions:
REMARK  status: ('A' for Active; 'I' for Inactive)
REMARK    1  A    between atoms: C2'_3  and  C1'_4 
REMARK    2  A    between atoms: C1'_4  and  C1_5 
ROOT
ATOM      1  C1  I4B d   1       1.359   0.016  -1.330  0.00  0.00    -0.075 A 
ATOM      2  C2  I4B d   1       1.054  -1.320  -1.411  0.00  0.00     0.003 A 
ATOM      3  C3  I4B d   1       1.396  -2.061  -2.568  0.00  0.00     0.002 A 
ATOM      4  C4  I4B d   1       1.993  -1.418  -3.634  0.00  0.00    -0.004 A 
ATOM      5  C5  I4B d   1       2.322  -0.069  -3.541  0.00  0.00     0.002 A 
ATOM      6  C6  I4B d   1       2.014   0.650  -2.377  0.00  0.00     0.003 A 
ENDROOT
BRANCH   1   7
ATOM      7  C1' I4B d   1       0.954   0.775  -0.106  0.00  0.00     0.060 C 
BRANCH   7   8
ATOM      8  C2' I4B d   1       1.920   0.419   1.005  0.00  0.00    -0.013 C 
ATOM      9  C4' I4B d   1       3.126   1.321   0.989  0.00  0.00     0.013 C 
ATOM     10  C3' I4B d   1       1.185   0.521   2.308  0.00  0.00     0.013 C 
ENDBRANCH   7   8
ENDBRANCH   1   7
TORSDOF 2
ENDMDL
