MODEL 1
REMARK minimizedAffinity 7.87000847
REMARK minimizedRMSD -1
REMARK  2 active torsions:
REMARK  status: ('A' for Active; 'I' for Inactive)
REMARK    1  A    between atoms: C2'_3  and  C1'_4 
REMARK    2  A    between atoms: C1'_4  and  C1_5 
ROOT
ATOM      1  C1  I4B d   1       0.638   0.405  -0.798  0.00  0.00    -0.075 A 
ATOM      2  C2  I4B d   1      -0.311  -0.582  -0.898  0.00  0.00     0.003 A 
ATOM      3  C3  I4B d   1      -0.241  -1.535  -1.944  0.00  0.00     0.002 A 
ATOM      4  C4  I4B d   1       0.758  -1.434  -2.890  0.00  0.00    -0.004 A 
ATOM      5  C5  I4B d   1       1.733  -0.447  -2.774  0.00  0.00     0.002 A 
ATOM      6  C6  I4B d   1       1.680   0.471  -1.714  0.00  0.00     0.003 A 
ENDROOT
BRANCH   1   7
ATOM      7  C1' I4B d   1       0.516   1.414   0.299  0.00  0.00     0.060 C 
BRANCH   7   8
ATOM      8  C2' I4B d   1       1.421   0.981   1.434  0.00  0.00    -0.013 C 
ATOM      9  C4' I4B d   1       2.704   1.769   1.440  0.00  0.00     0.013 C 
ATOM     10  C3' I4B d   1       0.670   1.161   2.720  0.00  0.00     0.013 C 
ENDBRANCH   7   8
ENDBRANCH   1   7
TORSDOF 2
ENDMDL
