MODEL 1
REMARK minimizedAffinity -3.77132368
REMARK minimizedRMSD -1
REMARK  0 active torsions:
REMARK  status: ('A' for Active; 'I' for Inactive)
ROOT
ATOM      1  C1  DEN d   1      -0.425  -2.259  -1.378  0.00  0.00     0.130 A 
ATOM      2  C2  DEN d   1      -0.739  -3.151  -0.265  0.00  0.00    -0.031 A 
ATOM      3  C3  DEN d   1      -0.628  -2.376   0.987  0.00  0.00     0.027 A 
ATOM      4  C4  DEN d   1      -0.009   0.108   1.308  0.00  0.00     0.027 A 
ATOM      5  C5  DEN d   1       0.352   1.268   0.659  0.00  0.00    -0.003 A 
ATOM      6  C6  DEN d   1       0.511   1.324  -0.700  0.00  0.00     0.001 A 
ATOM      7  C7  DEN d   1       0.265   0.211  -1.460  0.00  0.00     0.017 A 
ATOM      8  C8  DEN d   1      -0.092  -0.964  -0.812  0.00  0.00    -0.094 A 
ATOM      9  C9  DEN d   1      -0.260  -0.998   0.562  0.00  0.00    -0.072 A 
ENDROOT
TORSDOF 0
ENDMDL
