MODEL 1
REMARK minimizedAffinity -2.07870936
REMARK minimizedRMSD -1
REMARK  0 active torsions:
REMARK  status: ('A' for Active; 'I' for Inactive)
ROOT
ATOM      1  C1  DEN d   1       0.065   0.381  -1.281  0.00  0.00     0.130 A 
ATOM      2  C2  DEN d   1       0.232   1.410  -0.258  0.00  0.00    -0.031 A 
ATOM      3  C3  DEN d   1      -0.129   0.820   1.047  0.00  0.00     0.027 A 
ATOM      4  C4  DEN d   1      -0.922  -1.576   1.581  0.00  0.00     0.027 A 
ATOM      5  C5  DEN d   1      -1.228  -2.804   1.037  0.00  0.00    -0.003 A 
ATOM      6  C6  DEN d   1      -1.158  -3.045  -0.309  0.00  0.00     0.001 A 
ATOM      7  C7  DEN d   1      -0.729  -2.056  -1.154  0.00  0.00     0.017 A 
ATOM      8  C8  DEN d   1      -0.426  -0.813  -0.615  0.00  0.00    -0.094 A 
ATOM      9  C9  DEN d   1      -0.491  -0.592   0.750  0.00  0.00    -0.072 A 
ENDROOT
TORSDOF 0
ENDMDL
