MODEL 1
REMARK minimizedAffinity -2.72435832
REMARK minimizedRMSD -1
REMARK  0 active torsions:
REMARK  status: ('A' for Active; 'I' for Inactive)
ROOT
ATOM      1  C1  DEN d   1      -0.568  -2.368   0.161  0.00  0.00     0.130 A 
ATOM      2  C2  DEN d   1      -0.682  -3.102  -1.096  0.00  0.00    -0.031 A 
ATOM      3  C3  DEN d   1      -0.474  -2.147  -2.203  0.00  0.00     0.027 A 
ATOM      4  C4  DEN d   1       0.017   0.382  -2.093  0.00  0.00     0.027 A 
ATOM      5  C5  DEN d   1       0.195   1.456  -1.248  0.00  0.00    -0.003 A 
ATOM      6  C6  DEN d   1       0.098   1.338   0.113  0.00  0.00     0.001 A 
ATOM      7  C7  DEN d   1      -0.140   0.110   0.672  0.00  0.00     0.017 A 
ATOM      8  C8  DEN d   1      -0.327  -0.976  -0.173  0.00  0.00    -0.094 A 
ATOM      9  C9  DEN d   1      -0.213  -0.838  -1.546  0.00  0.00    -0.072 A 
ENDROOT
TORSDOF 0
ENDMDL
