MODEL 1
REMARK minimizedAffinity -5.0623641
REMARK minimizedRMSD -1
REMARK  0 active torsions:
REMARK  status: ('A' for Active; 'I' for Inactive)
ROOT
ATOM      1  C1  DEN d   1       0.287  -0.680  -2.419  0.00  0.00     0.130 A 
ATOM      2  C2  DEN d   1       0.036   0.742  -2.197  0.00  0.00    -0.031 A 
ATOM      3  C3  DEN d   1      -0.474   0.906  -0.821  0.00  0.00     0.027 A 
ATOM      4  C4  DEN d   1      -0.892  -0.892   0.980  0.00  0.00     0.027 A 
ATOM      5  C5  DEN d   1      -0.837  -2.241   1.253  0.00  0.00    -0.003 A 
ATOM      6  C6  DEN d   1      -0.440  -3.160   0.319  0.00  0.00     0.001 A 
ATOM      7  C7  DEN d   1      -0.038  -2.737  -0.921  0.00  0.00     0.017 A 
ATOM      8  C8  DEN d   1      -0.097  -1.379  -1.206  0.00  0.00    -0.094 A 
ATOM      9  C9  DEN d   1      -0.490  -0.465  -0.244  0.00  0.00    -0.072 A 
ENDROOT
TORSDOF 0
ENDMDL
