MODEL 1
REMARK minimizedAffinity -3.7559793
REMARK minimizedRMSD -1
REMARK  0 active torsions:
REMARK  status: ('A' for Active; 'I' for Inactive)
ROOT
ATOM      1  C1  DEN d   1      -0.143   0.668  -1.375  0.00  0.00     0.130 A 
ATOM      2  C2  DEN d   1       0.232  -0.136  -2.535  0.00  0.00    -0.031 A 
ATOM      3  C3  DEN d   1       0.013  -1.556  -2.197  0.00  0.00     0.027 A 
ATOM      4  C4  DEN d   1      -0.870  -2.584  -0.002  0.00  0.00     0.027 A 
ATOM      5  C5  DEN d   1      -1.310  -2.302   1.272  0.00  0.00    -0.003 A 
ATOM      6  C6  DEN d   1      -1.359  -1.023   1.761  0.00  0.00     0.001 A 
ATOM      7  C7  DEN d   1      -1.004   0.026   0.955  0.00  0.00     0.017 A 
ATOM      8  C8  DEN d   1      -0.553  -0.251  -0.328  0.00  0.00    -0.094 A 
ATOM      9  C9  DEN d   1      -0.522  -1.549  -0.808  0.00  0.00    -0.072 A 
ENDROOT
TORSDOF 0
ENDMDL
