MODEL 1
REMARK minimizedAffinity -1.50526536
REMARK minimizedRMSD -1
REMARK  0 active torsions:
REMARK  status: ('A' for Active; 'I' for Inactive)
ROOT
ATOM      1  C1  DEN d   1       0.586   0.379  -1.495  0.00  0.00     0.130 A 
ATOM      2  C2  DEN d   1       0.379   1.465  -0.541  0.00  0.00    -0.031 A 
ATOM      3  C3  DEN d   1      -0.205   0.888   0.687  0.00  0.00     0.027 A 
ATOM      4  C4  DEN d   1      -0.801  -1.568   1.201  0.00  0.00     0.027 A 
ATOM      5  C5  DEN d   1      -0.817  -2.849   0.695  0.00  0.00    -0.003 A 
ATOM      6  C6  DEN d   1      -0.402  -3.136  -0.579  0.00  0.00     0.001 A 
ATOM      7  C7  DEN d   1       0.090  -2.135  -1.374  0.00  0.00     0.017 A 
ATOM      8  C8  DEN d   1       0.102  -0.840  -0.873  0.00  0.00    -0.094 A 
ATOM      9  C9  DEN d   1      -0.311  -0.572   0.421  0.00  0.00    -0.072 A 
ENDROOT
TORSDOF 0
ENDMDL
