MODEL 1
REMARK minimizedAffinity -2.83004236
REMARK minimizedRMSD -1
REMARK  0 active torsions:
REMARK  status: ('A' for Active; 'I' for Inactive)
ROOT
ATOM      1  C1  DEN d   1      -0.972  -2.795  -1.356  0.00  0.00     0.130 A 
ATOM      2  C2  DEN d   1      -1.389  -3.438  -0.113  0.00  0.00    -0.031 A 
ATOM      3  C3  DEN d   1      -1.326  -2.431   0.965  0.00  0.00     0.027 A 
ATOM      4  C4  DEN d   1      -0.632   0.049   0.831  0.00  0.00     0.027 A 
ATOM      5  C5  DEN d   1      -0.186   1.046  -0.008  0.00  0.00    -0.003 A 
ATOM      6  C6  DEN d   1       0.060   0.826  -1.337  0.00  0.00     0.001 A 
ATOM      7  C7  DEN d   1      -0.182  -0.410  -1.877  0.00  0.00     0.017 A 
ATOM      8  C8  DEN d   1      -0.625  -1.422  -1.035  0.00  0.00    -0.094 A 
ATOM      9  C9  DEN d   1      -0.879  -1.176   0.303  0.00  0.00    -0.072 A 
ENDROOT
TORSDOF 0
ENDMDL
