MODEL 1
REMARK minimizedAffinity -3.79241204
REMARK minimizedRMSD -1
REMARK  0 active torsions:
REMARK  status: ('A' for Active; 'I' for Inactive)
ROOT
ATOM      1  C1  DEN d   1      -1.302  -1.336   1.560  0.00  0.00     0.130 A 
ATOM      2  C2  DEN d   1      -1.359  -2.732   1.136  0.00  0.00    -0.031 A 
ATOM      3  C3  DEN d   1      -0.855  -2.809  -0.251  0.00  0.00     0.027 A 
ATOM      4  C4  DEN d   1       0.005  -0.912  -1.771  0.00  0.00     0.027 A 
ATOM      5  C5  DEN d   1       0.233   0.444  -1.855  0.00  0.00    -0.003 A 
ATOM      6  C6  DEN d   1      -0.065   1.299  -0.827  0.00  0.00     0.001 A 
ATOM      7  C7  DEN d   1      -0.565   0.801   0.347  0.00  0.00     0.017 A 
ATOM      8  C8  DEN d   1      -0.804  -0.564   0.436  0.00  0.00    -0.094 A 
ATOM      9  C9  DEN d   1      -0.485  -1.413  -0.610  0.00  0.00    -0.072 A 
ENDROOT
TORSDOF 0
ENDMDL
