MODEL 1
REMARK minimizedAffinity -2.65206409
REMARK minimizedRMSD -1
REMARK  0 active torsions:
REMARK  status: ('A' for Active; 'I' for Inactive)
ROOT
ATOM      1  C1  DEN d   1      -0.862  -2.664  -0.002  0.00  0.00     0.130 A 
ATOM      2  C2  DEN d   1      -1.234  -2.359   1.377  0.00  0.00    -0.031 A 
ATOM      3  C3  DEN d   1      -1.072  -0.905   1.583  0.00  0.00     0.027 A 
ATOM      4  C4  DEN d   1      -0.292   0.894  -0.093  0.00  0.00     0.027 A 
ATOM      5  C5  DEN d   1       0.145   1.114  -1.380  0.00  0.00    -0.003 A 
ATOM      6  C6  DEN d   1       0.308   0.095  -2.281  0.00  0.00     0.001 A 
ATOM      7  C7  DEN d   1      -0.011  -1.187  -1.920  0.00  0.00     0.017 A 
ATOM      8  C8  DEN d   1      -0.445  -1.419  -0.621  0.00  0.00    -0.094 A 
ATOM      9  C9  DEN d   1      -0.615  -0.373   0.271  0.00  0.00    -0.072 A 
ENDROOT
TORSDOF 0
ENDMDL
