MODEL 1
REMARK minimizedAffinity -1.79441595
REMARK minimizedRMSD -1
REMARK  0 active torsions:
REMARK  status: ('A' for Active; 'I' for Inactive)
ROOT
ATOM      1  C1  DEN d   1      -0.506  -1.988  -1.114  0.00  0.00     0.130 A 
ATOM      2  C2  DEN d   1      -0.819  -3.016  -0.125  0.00  0.00    -0.031 A 
ATOM      3  C3  DEN d   1      -0.869  -2.372   1.202  0.00  0.00     0.027 A 
ATOM      4  C4  DEN d   1      -0.500   0.106   1.819  0.00  0.00     0.027 A 
ATOM      5  C5  DEN d   1      -0.198   1.353   1.320  0.00  0.00    -0.003 A 
ATOM      6  C6  DEN d   1       0.054   1.567  -0.009  0.00  0.00     0.001 A 
ATOM      7  C7  DEN d   1      -0.035   0.524  -0.893  0.00  0.00     0.017 A 
ATOM      8  C8  DEN d   1      -0.332  -0.738  -0.397  0.00  0.00    -0.094 A 
ATOM      9  C9  DEN d   1      -0.596  -0.931   0.948  0.00  0.00    -0.072 A 
ENDROOT
TORSDOF 0
ENDMDL
