MODEL 1
REMARK minimizedAffinity -4.64152002
REMARK minimizedRMSD -1
REMARK  0 active torsions:
REMARK  status: ('A' for Active; 'I' for Inactive)
ROOT
ATOM      1  C1  DEN d   1       0.432  -0.137  -1.874  0.00  0.00     0.130 A 
ATOM      2  C2  DEN d   1       0.109   1.206  -1.397  0.00  0.00    -0.031 A 
ATOM      3  C3  DEN d   1      -0.370   1.093  -0.005  0.00  0.00     0.027 A 
ATOM      4  C4  DEN d   1      -0.638  -1.018   1.452  0.00  0.00     0.027 A 
ATOM      5  C5  DEN d   1      -0.502  -2.389   1.479  0.00  0.00    -0.003 A 
ATOM      6  C6  DEN d   1      -0.082  -3.102   0.388  0.00  0.00     0.001 A 
ATOM      7  C7  DEN d   1       0.262  -2.443  -0.763  0.00  0.00     0.017 A 
ATOM      8  C8  DEN d   1       0.120  -1.062  -0.800  0.00  0.00    -0.094 A 
ATOM      9  C9  DEN d   1      -0.295  -0.358   0.318  0.00  0.00    -0.072 A 
ENDROOT
TORSDOF 0
ENDMDL
