MODEL 1
REMARK minimizedAffinity -4.23874712
REMARK minimizedRMSD -1
REMARK  0 active torsions:
REMARK  status: ('A' for Active; 'I' for Inactive)
ROOT
ATOM      1  C1  DEN d   1       0.411  -2.024  -2.391  0.00  0.00     0.130 A 
ATOM      2  C2  DEN d   1       0.480  -3.149  -1.463  0.00  0.00    -0.031 A 
ATOM      3  C3  DEN d   1       0.542  -2.606  -0.091  0.00  0.00     0.027 A 
ATOM      4  C4  DEN d   1       0.532  -0.146   0.682  0.00  0.00     0.027 A 
ATOM      5  C5  DEN d   1       0.497   1.164   0.257  0.00  0.00    -0.003 A 
ATOM      6  C6  DEN d   1       0.465   1.501  -1.070  0.00  0.00     0.001 A 
ATOM      7  C7  DEN d   1       0.422   0.514  -2.020  0.00  0.00     0.017 A 
ATOM      8  C8  DEN d   1       0.465  -0.808  -1.599  0.00  0.00    -0.094 A 
ATOM      9  C9  DEN d   1       0.485  -1.129  -0.253  0.00  0.00    -0.072 A 
ENDROOT
TORSDOF 0
ENDMDL
