MODEL 1
REMARK minimizedAffinity -2.3569355
REMARK minimizedRMSD -1
REMARK  0 active torsions:
REMARK  status: ('A' for Active; 'I' for Inactive)
ROOT
ATOM      1  C1  DEN d   1      -1.017  -2.524  -0.063  0.00  0.00     0.130 A 
ATOM      2  C2  DEN d   1      -1.366  -2.139   1.302  0.00  0.00    -0.031 A 
ATOM      3  C3  DEN d   1      -1.166  -0.682   1.430  0.00  0.00     0.027 A 
ATOM      4  C4  DEN d   1      -0.357   1.008  -0.343  0.00  0.00     0.027 A 
ATOM      5  C5  DEN d   1       0.071   1.150  -1.644  0.00  0.00    -0.003 A 
ATOM      6  C6  DEN d   1       0.198   0.083  -2.493  0.00  0.00     0.001 A 
ATOM      7  C7  DEN d   1      -0.150  -1.171  -2.063  0.00  0.00     0.017 A 
ATOM      8  C8  DEN d   1      -0.575  -1.324  -0.750  0.00  0.00    -0.094 A 
ATOM      9  C9  DEN d   1      -0.709  -0.230   0.088  0.00  0.00    -0.072 A 
ENDROOT
TORSDOF 0
ENDMDL
