MODEL 1
REMARK minimizedAffinity -3.15735149
REMARK minimizedRMSD -1
REMARK  0 active torsions:
REMARK  status: ('A' for Active; 'I' for Inactive)
ROOT
ATOM      1  C1  DEN d   1       0.142   0.958  -1.022  0.00  0.00     0.130 A 
ATOM      2  C2  DEN d   1       0.714   1.924  -0.088  0.00  0.00    -0.031 A 
ATOM      3  C3  DEN d   1       0.639   1.348   1.269  0.00  0.00     0.027 A 
ATOM      4  C4  DEN d   1      -0.300  -0.937   2.012  0.00  0.00     0.027 A 
ATOM      5  C5  DEN d   1      -0.903  -2.097   1.580  0.00  0.00    -0.003 A 
ATOM      6  C6  DEN d   1      -1.229  -2.304   0.266  0.00  0.00     0.001 A 
ATOM      7  C7  DEN d   1      -0.912  -1.355  -0.670  0.00  0.00     0.017 A 
ATOM      8  C8  DEN d   1      -0.310  -0.180  -0.241  0.00  0.00    -0.094 A 
ATOM      9  C9  DEN d   1       0.023   0.006   1.090  0.00  0.00    -0.072 A 
ENDROOT
TORSDOF 0
ENDMDL
