MODEL 1
REMARK minimizedAffinity -0.357086182
REMARK minimizedRMSD -1
REMARK  0 active torsions:
REMARK  status: ('A' for Active; 'I' for Inactive)
ROOT
ATOM      1  C1  DEN d   1      -1.170  -2.564   0.435  0.00  0.00     0.130 A 
ATOM      2  C2  DEN d   1      -1.462  -2.167   1.810  0.00  0.00    -0.031 A 
ATOM      3  C3  DEN d   1      -1.205  -0.718   1.931  0.00  0.00     0.027 A 
ATOM      4  C4  DEN d   1      -0.392   0.942   0.132  0.00  0.00     0.027 A 
ATOM      5  C5  DEN d   1      -0.000   1.070  -1.182  0.00  0.00    -0.003 A 
ATOM      6  C6  DEN d   1       0.062  -0.002  -2.033  0.00  0.00     0.001 A 
ATOM      7  C7  DEN d   1      -0.317  -1.242  -1.592  0.00  0.00     0.017 A 
ATOM      8  C8  DEN d   1      -0.707  -1.380  -0.266  0.00  0.00    -0.094 A 
ATOM      9  C9  DEN d   1      -0.774  -0.283   0.575  0.00  0.00    -0.072 A 
ENDROOT
TORSDOF 0
ENDMDL
