MODEL 1
REMARK minimizedAffinity -1.30977631
REMARK minimizedRMSD -1
REMARK  0 active torsions:
REMARK  status: ('A' for Active; 'I' for Inactive)
ROOT
ATOM      1  C1  DEN d   1       0.097   0.881  -1.174  0.00  0.00     0.130 A 
ATOM      2  C2  DEN d   1       0.339   2.012  -0.282  0.00  0.00    -0.031 A 
ATOM      3  C3  DEN d   1       0.043   1.577   1.098  0.00  0.00     0.027 A 
ATOM      4  C4  DEN d   1      -0.757  -0.727   1.936  0.00  0.00     0.027 A 
ATOM      5  C5  DEN d   1      -1.113  -2.001   1.550  0.00  0.00    -0.003 A 
ATOM      6  C6  DEN d   1      -1.124  -2.389   0.236  0.00  0.00     0.001 A 
ATOM      7  C7  DEN d   1      -0.728  -1.508  -0.735  0.00  0.00     0.017 A 
ATOM      8  C8  DEN d   1      -0.374  -0.221  -0.354  0.00  0.00    -0.094 A 
ATOM      9  C9  DEN d   1      -0.358   0.149   0.980  0.00  0.00    -0.072 A 
ENDROOT
TORSDOF 0
ENDMDL
