MODEL 1
REMARK minimizedAffinity -3.72535634
REMARK minimizedRMSD -1
REMARK  0 active torsions:
REMARK  status: ('A' for Active; 'I' for Inactive)
ROOT
ATOM      1  C1  DEN d   1       1.539   3.082   1.967  0.00  0.00     0.130 A 
ATOM      2  C2  DEN d   1       1.795   4.357   1.303  0.00  0.00    -0.031 A 
ATOM      3  C3  DEN d   1       1.301   4.256  -0.085  0.00  0.00     0.027 A 
ATOM      4  C4  DEN d   1       0.167   2.261  -1.263  0.00  0.00     0.027 A 
ATOM      5  C5  DEN d   1      -0.255   0.959  -1.109  0.00  0.00    -0.003 A 
ATOM      6  C6  DEN d   1      -0.079   0.268   0.060  0.00  0.00     0.001 A 
ATOM      7  C7  DEN d   1       0.494   0.890   1.137  0.00  0.00     0.017 A 
ATOM      8  C8  DEN d   1       0.928   2.201   0.988  0.00  0.00    -0.094 A 
ATOM      9  C9  DEN d   1       0.731   2.887  -0.198  0.00  0.00    -0.072 A 
ENDROOT
TORSDOF 0
ENDMDL
