MODEL 1
REMARK minimizedAffinity -2.34698272
REMARK minimizedRMSD -1
REMARK  0 active torsions:
REMARK  status: ('A' for Active; 'I' for Inactive)
ROOT
ATOM      1  C   UNL d   1      -0.116  -0.805   0.041  0.00  0.00     0.172 C 
ATOM      2  N   UNL d   1      -0.338  -1.641  -1.116  0.00  0.00    -0.070 N 
ATOM      3  C1  UNL d   1      -0.565  -2.991  -1.092  0.00  0.00    -0.004 A 
ATOM      4  C2  UNL d   1      -0.727  -3.414  -2.394  0.00  0.00    -0.047 A 
ATOM      5  C3  UNL d   1      -0.591  -2.279  -3.228  0.00  0.00    -0.047 A 
ATOM      6  C4  UNL d   1      -0.351  -1.195  -2.411  0.00  0.00    -0.004 A 
ENDROOT
TORSDOF 0
ENDMDL
