MODEL 1
REMARK minimizedAffinity -2.63236666
REMARK minimizedRMSD -1
REMARK  0 active torsions:
REMARK  status: ('A' for Active; 'I' for Inactive)
ROOT
ATOM      1  C   UNL d   1       0.981   1.901  -0.729  0.00  0.00     0.172 C 
ATOM      2  N   UNL d   1       0.087   0.928  -0.149  0.00  0.00    -0.070 N 
ATOM      3  C1  UNL d   1      -1.157   1.190   0.361  0.00  0.00    -0.004 A 
ATOM      4  C2  UNL d   1      -1.686   0.002   0.816  0.00  0.00    -0.047 A 
ATOM      5  C3  UNL d   1      -0.727  -1.010   0.572  0.00  0.00    -0.047 A 
ATOM      6  C4  UNL d   1       0.360  -0.409  -0.026  0.00  0.00    -0.004 A 
ENDROOT
TORSDOF 0
ENDMDL
