MODEL 1
REMARK minimizedAffinity -1.60335231
REMARK minimizedRMSD -1
REMARK  0 active torsions:
REMARK  status: ('A' for Active; 'I' for Inactive)
ROOT
ATOM      1  C   UNL d   1      -0.476  -1.999  -1.214  0.00  0.00     0.172 C 
ATOM      2  N   UNL d   1      -0.509  -0.794  -0.419  0.00  0.00    -0.070 N 
ATOM      3  C1  UNL d   1      -1.498   0.153  -0.444  0.00  0.00    -0.004 A 
ATOM      4  C2  UNL d   1      -1.160   1.141   0.455  0.00  0.00    -0.047 A 
ATOM      5  C3  UNL d   1       0.076   0.776   1.041  0.00  0.00    -0.047 A 
ATOM      6  C4  UNL d   1       0.456  -0.426   0.482  0.00  0.00    -0.004 A 
ENDROOT
TORSDOF 0
ENDMDL
