MODEL 1
REMARK minimizedAffinity -3.44519758
REMARK minimizedRMSD -1
REMARK  0 active torsions:
REMARK  status: ('A' for Active; 'I' for Inactive)
ROOT
ATOM      1  C   UNL d   1       0.147  -1.044   0.535  0.00  0.00     0.172 C 
ATOM      2  N   UNL d   1       0.040   0.381   0.327  0.00  0.00    -0.070 N 
ATOM      3  C1  UNL d   1       1.071   1.219  -0.004  0.00  0.00    -0.004 A 
ATOM      4  C2  UNL d   1       0.560   2.494  -0.112  0.00  0.00    -0.047 A 
ATOM      5  C3  UNL d   1      -0.826   2.420   0.163  0.00  0.00    -0.047 A 
ATOM      6  C4  UNL d   1      -1.121   1.100   0.432  0.00  0.00    -0.004 A 
ENDROOT
TORSDOF 0
ENDMDL
