MODEL 1
REMARK minimizedAffinity -2.50450754
REMARK minimizedRMSD -1
REMARK  0 active torsions:
REMARK  status: ('A' for Active; 'I' for Inactive)
ROOT
ATOM      1  C   UNL d   1       0.411  -1.956   0.249  0.00  0.00     0.172 C 
ATOM      2  N   UNL d   1       0.031  -0.563   0.258  0.00  0.00    -0.070 N 
ATOM      3  C1  UNL d   1      -1.183  -0.069   0.655  0.00  0.00    -0.004 A 
ATOM      4  C2  UNL d   1      -1.147   1.302   0.515  0.00  0.00    -0.047 A 
ATOM      5  C3  UNL d   1       0.132   1.643   0.017  0.00  0.00    -0.047 A 
ATOM      6  C4  UNL d   1       0.841   0.470  -0.133  0.00  0.00    -0.004 A 
ENDROOT
TORSDOF 0
ENDMDL
