MODEL 1
REMARK minimizedAffinity -1.76832068
REMARK minimizedRMSD -1
REMARK  0 active torsions:
REMARK  status: ('A' for Active; 'I' for Inactive)
ROOT
ATOM      1  C   UNL d   1      -6.000   3.630  -5.977  0.00  0.00     0.172 C 
ATOM      2  N   UNL d   1      -4.599   3.980  -5.967  0.00  0.00    -0.070 N 
ATOM      3  C1  UNL d   1      -3.555   3.095  -5.925  0.00  0.00    -0.004 A 
ATOM      4  C2  UNL d   1      -2.385   3.822  -5.930  0.00  0.00    -0.047 A 
ATOM      5  C3  UNL d   1      -2.737   5.192  -5.975  0.00  0.00    -0.047 A 
ATOM      6  C4  UNL d   1      -4.114   5.261  -5.998  0.00  0.00    -0.004 A 
ENDROOT
TORSDOF 0
ENDMDL
