MODEL 1
REMARK minimizedAffinity -3.90880656
REMARK minimizedRMSD -1
REMARK  0 active torsions:
REMARK  status: ('A' for Active; 'I' for Inactive)
ROOT
ATOM      1  C   UNL d   1      -0.092  -0.816   0.502  0.00  0.00     0.172 C 
ATOM      2  N   UNL d   1      -0.214   0.609   0.299  0.00  0.00    -0.070 N 
ATOM      3  C1  UNL d   1       0.639   1.386  -0.439  0.00  0.00    -0.004 A 
ATOM      4  C2  UNL d   1       0.179   2.684  -0.386  0.00  0.00    -0.047 A 
ATOM      5  C3  UNL d   1      -0.989   2.688   0.412  0.00  0.00    -0.047 A 
ATOM      6  C4  UNL d   1      -1.210   1.390   0.823  0.00  0.00    -0.004 A 
ENDROOT
TORSDOF 0
ENDMDL
