MODEL 1
REMARK minimizedAffinity -0.842226863
REMARK minimizedRMSD -1
REMARK  0 active torsions:
REMARK  status: ('A' for Active; 'I' for Inactive)
ROOT
ATOM      1  C   UNL d   1      -3.837  -5.205  -0.029  0.00  0.00     0.172 C 
ATOM      2  N   UNL d   1      -2.824  -4.594  -0.858  0.00  0.00    -0.070 N 
ATOM      3  C1  UNL d   1      -1.858  -3.725  -0.428  0.00  0.00    -0.004 A 
ATOM      4  C2  UNL d   1      -1.092  -3.372  -1.518  0.00  0.00    -0.047 A 
ATOM      5  C3  UNL d   1      -1.617  -4.053  -2.642  0.00  0.00    -0.047 A 
ATOM      6  C4  UNL d   1      -2.689  -4.802  -2.205  0.00  0.00    -0.004 A 
ENDROOT
TORSDOF 0
ENDMDL
