MODEL 1
REMARK minimizedAffinity -3.03205729
REMARK minimizedRMSD -1
REMARK  0 active torsions:
REMARK  status: ('A' for Active; 'I' for Inactive)
ROOT
ATOM      1  C   UNL d   1       0.088  -1.144   0.148  0.00  0.00     0.172 C 
ATOM      2  N   UNL d   1      -0.455  -2.144  -0.741  0.00  0.00    -0.070 N 
ATOM      3  C1  UNL d   1       0.087  -2.526  -1.939  0.00  0.00    -0.004 A 
ATOM      4  C2  UNL d   1      -0.725  -3.500  -2.479  0.00  0.00    -0.047 A 
ATOM      5  C3  UNL d   1      -1.792  -3.711  -1.574  0.00  0.00    -0.047 A 
ATOM      6  C4  UNL d   1      -1.600  -2.859  -0.507  0.00  0.00    -0.004 A 
ENDROOT
TORSDOF 0
ENDMDL
