MODEL 1
REMARK minimizedAffinity -3.06343555
REMARK minimizedRMSD -1
REMARK  0 active torsions:
REMARK  status: ('A' for Active; 'I' for Inactive)
ROOT
ATOM      1  C   UNL d   1      -0.009  -1.230  -0.106  0.00  0.00     0.172 C 
ATOM      2  N   UNL d   1      -0.220   0.195  -0.000  0.00  0.00    -0.070 N 
ATOM      3  C1  UNL d   1       0.691   1.164  -0.328  0.00  0.00    -0.004 A 
ATOM      4  C2  UNL d   1       0.109   2.389  -0.085  0.00  0.00    -0.047 A 
ATOM      5  C3  UNL d   1      -1.197   2.149   0.405  0.00  0.00    -0.047 A 
ATOM      6  C4  UNL d   1      -1.374   0.782   0.448  0.00  0.00    -0.004 A 
ENDROOT
TORSDOF 0
ENDMDL
