MODEL 1
REMARK minimizedAffinity -3.91114855
REMARK minimizedRMSD -1
REMARK  0 active torsions:
REMARK  status: ('A' for Active; 'I' for Inactive)
ROOT
ATOM      1  C   UNL d   1       3.236   1.585   0.591  0.00  0.00     0.172 C 
ATOM      2  N   UNL d   1       1.819   1.800   0.415  0.00  0.00    -0.070 N 
ATOM      3  C1  UNL d   1       0.903   0.843   0.066  0.00  0.00    -0.004 A 
ATOM      4  C2  UNL d   1      -0.334   1.447   0.003  0.00  0.00    -0.047 A 
ATOM      5  C3  UNL d   1      -0.156   2.813   0.324  0.00  0.00    -0.047 A 
ATOM      6  C4  UNL d   1       1.186   3.005   0.575  0.00  0.00    -0.004 A 
ENDROOT
TORSDOF 0
ENDMDL
