MODEL 1
REMARK minimizedAffinity -3.49475193
REMARK minimizedRMSD -1
REMARK  0 active torsions:
REMARK  status: ('A' for Active; 'I' for Inactive)
ROOT
ATOM      1  C   UNL d   1       1.458   3.755   3.318  0.00  0.00     0.172 C 
ATOM      2  N   UNL d   1       1.553   3.290   1.954  0.00  0.00    -0.070 N 
ATOM      3  C1  UNL d   1       2.293   2.221   1.524  0.00  0.00    -0.004 A 
ATOM      4  C2  UNL d   1       2.117   2.106   0.162  0.00  0.00    -0.047 A 
ATOM      5  C3  UNL d   1       1.242   3.142  -0.241  0.00  0.00    -0.047 A 
ATOM      6  C4  UNL d   1       0.908   3.860   0.888  0.00  0.00    -0.004 A 
ENDROOT
TORSDOF 0
ENDMDL
