MODEL 1
REMARK minimizedAffinity -2.84454727
REMARK minimizedRMSD -1
REMARK  0 active torsions:
REMARK  status: ('A' for Active; 'I' for Inactive)
ROOT
ATOM      1  C   UNL d   1       0.210  -1.656  -0.016  0.00  0.00     0.172 C 
ATOM      2  N   UNL d   1       0.065  -0.221   0.053  0.00  0.00    -0.070 N 
ATOM      3  C1  UNL d   1      -0.966   0.449   0.656  0.00  0.00    -0.004 A 
ATOM      4  C2  UNL d   1      -0.738   1.799   0.505  0.00  0.00    -0.047 A 
ATOM      5  C3  UNL d   1       0.472   1.946  -0.214  0.00  0.00    -0.047 A 
ATOM      6  C4  UNL d   1       0.948   0.680  -0.481  0.00  0.00    -0.004 A 
ENDROOT
TORSDOF 0
ENDMDL
