MODEL 1
REMARK minimizedAffinity -3.54709244
REMARK minimizedRMSD -1
REMARK  0 active torsions:
REMARK  status: ('A' for Active; 'I' for Inactive)
ROOT
ATOM      1  C   UNL d   1       0.041  -1.401  -0.006  0.00  0.00     0.172 C 
ATOM      2  N   UNL d   1      -0.037   0.035   0.128  0.00  0.00    -0.070 N 
ATOM      3  C1  UNL d   1      -1.185   0.779   0.086  0.00  0.00    -0.004 A 
ATOM      4  C2  UNL d   1      -0.837   2.102   0.253  0.00  0.00    -0.047 A 
ATOM      5  C3  UNL d   1       0.569   2.155   0.399  0.00  0.00    -0.047 A 
ATOM      6  C4  UNL d   1       1.039   0.861   0.317  0.00  0.00    -0.004 A 
ENDROOT
TORSDOF 0
ENDMDL
