MODEL 1
REMARK minimizedAffinity -3.19420743
REMARK minimizedRMSD -1
REMARK  0 active torsions:
REMARK  status: ('A' for Active; 'I' for Inactive)
ROOT
ATOM      1  C   UNL d   1       0.062  -0.731   0.004  0.00  0.00     0.172 C 
ATOM      2  N   UNL d   1       0.066   0.712  -0.028  0.00  0.00    -0.070 N 
ATOM      3  C1  UNL d   1       1.097   1.498  -0.469  0.00  0.00    -0.004 A 
ATOM      4  C2  UNL d   1       0.711   2.814  -0.337  0.00  0.00    -0.047 A 
ATOM      5  C3  UNL d   1      -0.597   2.820   0.204  0.00  0.00    -0.047 A 
ATOM      6  C4  UNL d   1      -0.972   1.505   0.385  0.00  0.00    -0.004 A 
ENDROOT
TORSDOF 0
ENDMDL
