MODEL 1
REMARK minimizedAffinity -3.10783815
REMARK minimizedRMSD -1
REMARK  0 active torsions:
REMARK  status: ('A' for Active; 'I' for Inactive)
ROOT
ATOM      1  C   UNL d   1       0.305   2.543  -1.108  0.00  0.00     0.172 C 
ATOM      2  N   UNL d   1       0.327   1.249  -0.466  0.00  0.00    -0.070 N 
ATOM      3  C1  UNL d   1      -0.724   0.666   0.190  0.00  0.00    -0.004 A 
ATOM      4  C2  UNL d   1      -0.301  -0.559   0.659  0.00  0.00    -0.047 A 
ATOM      5  C3  UNL d   1       1.051  -0.717   0.272  0.00  0.00    -0.047 A 
ATOM      6  C4  UNL d   1       1.414   0.417  -0.423  0.00  0.00    -0.004 A 
ENDROOT
TORSDOF 0
ENDMDL
