MODEL 1
REMARK minimizedAffinity 3.46616364
REMARK minimizedRMSD -1
REMARK  1 active torsions:
REMARK  status: ('A' for Active; 'I' for Inactive)
REMARK    1  A    between atoms: C1_2  and  C2_3 
ROOT
ATOM      1  C2  UNL d   1       3.701  -2.700  -0.660  0.00  0.00    -0.081 A 
ATOM      2  C3  UNL d   1       4.965  -2.349  -1.151  0.00  0.00     0.006 A 
ATOM      3  C4  UNL d   1       5.561  -3.095  -2.170  0.00  0.00     0.002 A 
ATOM      4  C5  UNL d   1       4.901  -4.199  -2.720  0.00  0.00    -0.080 A 
ATOM      5  C6  UNL d   1       5.517  -4.991  -3.836  0.00  0.00     0.076 C 
ATOM      6  C7  UNL d   1       3.646  -4.560  -2.218  0.00  0.00     0.002 A 
ATOM      7  C8  UNL d   1       3.050  -3.815  -1.199  0.00  0.00     0.006 A 
ENDROOT
BRANCH   1   8
ATOM      8  C1  UNL d   1       3.027  -1.859   0.394  0.00  0.00     0.054 C 
ATOM      9  C   UNL d   1       1.875  -1.055  -0.193  0.00  0.00     0.018 C 
ENDBRANCH   1   8
TORSDOF 1
ENDMDL
