MODEL 1
REMARK minimizedAffinity 14.2656412
REMARK minimizedRMSD -1
REMARK  1 active torsions:
REMARK  status: ('A' for Active; 'I' for Inactive)
REMARK    1  A    between atoms: C1_2  and  C2_3 
ROOT
ATOM      1  C2  UNL d   1       3.797  -1.398   0.067  0.00  0.00    -0.081 A 
ATOM      2  C3  UNL d   1       4.945  -1.593  -0.710  0.00  0.00     0.006 A 
ATOM      3  C4  UNL d   1       5.572  -2.840  -0.747  0.00  0.00     0.002 A 
ATOM      4  C5  UNL d   1       5.058  -3.915  -0.014  0.00  0.00    -0.080 A 
ATOM      5  C6  UNL d   1       5.704  -5.268  -0.069  0.00  0.00     0.076 C 
ATOM      6  C7  UNL d   1       3.921  -3.716   0.776  0.00  0.00     0.002 A 
ATOM      7  C8  UNL d   1       3.294  -2.469   0.814  0.00  0.00     0.006 A 
ENDROOT
BRANCH   1   8
ATOM      8  C1  UNL d   1       3.080  -0.072   0.058  0.00  0.00     0.054 C 
ATOM      9  C   UNL d   1       1.630  -0.229  -0.375  0.00  0.00     0.018 C 
ENDBRANCH   1   8
TORSDOF 1
ENDMDL
