MODEL 1
REMARK minimizedAffinity 9.46995449
REMARK minimizedRMSD -1
REMARK  1 active torsions:
REMARK  status: ('A' for Active; 'I' for Inactive)
REMARK    1  A    between atoms: C1_2  and  C2_3 
ROOT
ATOM      1  C2  UNL d   1      -0.232   3.169   0.881  0.00  0.00    -0.081 A 
ATOM      2  C3  UNL d   1       1.141   3.255   0.616  0.00  0.00     0.006 A 
ATOM      3  C4  UNL d   1       1.624   4.161  -0.330  0.00  0.00     0.002 A 
ATOM      4  C5  UNL d   1       0.746   5.001  -1.022  0.00  0.00    -0.080 A 
ATOM      5  C6  UNL d   1       1.255   6.000  -2.019  0.00  0.00     0.076 C 
ATOM      6  C7  UNL d   1      -0.627   4.904  -0.771  0.00  0.00     0.002 A 
ATOM      7  C8  UNL d   1      -1.111   3.997   0.175  0.00  0.00     0.006 A 
ENDROOT
BRANCH   1   8
ATOM      8  C1  UNL d   1      -0.750   2.238   1.947  0.00  0.00     0.054 C 
ATOM      9  C   UNL d   1       0.328   1.916   2.972  0.00  0.00     0.018 C 
ENDBRANCH   1   8
TORSDOF 1
ENDMDL
