MODEL 1
REMARK minimizedAffinity 1.01355708
REMARK minimizedRMSD -1
REMARK  1 active torsions:
REMARK  status: ('A' for Active; 'I' for Inactive)
REMARK    1  A    between atoms: C1_2  and  C2_3 
ROOT
ATOM      1  C2  UNL d   1       1.429  -4.603  -1.475  0.00  0.00    -0.081 A 
ATOM      2  C3  UNL d   1       2.361  -5.162  -2.358  0.00  0.00     0.006 A 
ATOM      3  C4  UNL d   1       3.729  -4.952  -2.169  0.00  0.00     0.002 A 
ATOM      4  C5  UNL d   1       4.188  -4.187  -1.092  0.00  0.00    -0.080 A 
ATOM      5  C6  UNL d   1       5.656  -3.979  -0.861  0.00  0.00     0.076 C 
ATOM      6  C7  UNL d   1       3.257  -3.614  -0.220  0.00  0.00     0.002 A 
ATOM      7  C8  UNL d   1       1.889  -3.823  -0.408  0.00  0.00     0.006 A 
ENDROOT
BRANCH   1   8
ATOM      8  C1  UNL d   1      -0.043  -4.881  -1.637  0.00  0.00     0.054 C 
ATOM      9  C   UNL d   1      -0.857  -3.595  -1.601  0.00  0.00     0.018 C 
ENDBRANCH   1   8
TORSDOF 1
ENDMDL
