MODEL 1
REMARK minimizedAffinity 11.5772734
REMARK minimizedRMSD -1
REMARK  1 active torsions:
REMARK  status: ('A' for Active; 'I' for Inactive)
REMARK    1  A    between atoms: C1_2  and  C2_3 
ROOT
ATOM      1  C2  UNL d   1       4.937  -3.995   0.231  0.00  0.00    -0.081 A 
ATOM      2  C3  UNL d   1       5.320  -2.879  -0.522  0.00  0.00     0.006 A 
ATOM      3  C4  UNL d   1       4.741  -1.630  -0.282  0.00  0.00     0.002 A 
ATOM      4  C5  UNL d   1       3.776  -1.476   0.719  0.00  0.00    -0.080 A 
ATOM      5  C6  UNL d   1       3.169  -0.135   1.008  0.00  0.00     0.076 C 
ATOM      6  C7  UNL d   1       3.381  -2.595   1.460  0.00  0.00     0.002 A 
ATOM      7  C8  UNL d   1       3.959  -3.844   1.219  0.00  0.00     0.006 A 
ENDROOT
BRANCH   1   8
ATOM      8  C1  UNL d   1       5.606  -5.329   0.018  0.00  0.00     0.054 C 
ATOM      9  C   UNL d   1       5.938  -6.000   1.343  0.00  0.00     0.018 C 
ENDBRANCH   1   8
TORSDOF 1
ENDMDL
