MODEL 1
REMARK minimizedAffinity 14.2392769
REMARK minimizedRMSD -1
REMARK  1 active torsions:
REMARK  status: ('A' for Active; 'I' for Inactive)
REMARK    1  A    between atoms: C1_2  and  C2_3 
ROOT
ATOM      1  C2  UNL d   1       5.655  -3.432  -2.778  0.00  0.00    -0.081 A 
ATOM      2  C3  UNL d   1       5.676  -4.116  -1.556  0.00  0.00     0.006 A 
ATOM      3  C4  UNL d   1       5.299  -3.470  -0.377  0.00  0.00     0.002 A 
ATOM      4  C5  UNL d   1       4.887  -2.134  -0.400  0.00  0.00    -0.080 A 
ATOM      5  C6  UNL d   1       4.451  -1.438   0.855  0.00  0.00     0.076 C 
ATOM      6  C7  UNL d   1       4.882  -1.445  -1.618  0.00  0.00     0.002 A 
ATOM      7  C8  UNL d   1       5.260  -2.090  -2.797  0.00  0.00     0.006 A 
ENDROOT
BRANCH   1   8
ATOM      8  C1  UNL d   1       5.999  -4.145  -4.061  0.00  0.00     0.054 C 
ATOM      9  C   UNL d   1       5.229  -5.451  -4.193  0.00  0.00     0.018 C 
ENDBRANCH   1   8
TORSDOF 1
ENDMDL
