MODEL 1
REMARK minimizedAffinity 9.04612637
REMARK minimizedRMSD -1
REMARK  1 active torsions:
REMARK  status: ('A' for Active; 'I' for Inactive)
REMARK    1  A    between atoms: C1_2  and  C2_3 
ROOT
ATOM      1  C2  UNL d   1       0.232   4.915  -1.149  0.00  0.00    -0.081 A 
ATOM      2  C3  UNL d   1       0.771   5.516  -0.005  0.00  0.00     0.006 A 
ATOM      3  C4  UNL d   1       0.796   4.828   1.211  0.00  0.00     0.002 A 
ATOM      4  C5  UNL d   1       0.290   3.527   1.301  0.00  0.00    -0.080 A 
ATOM      5  C6  UNL d   1       0.339   2.767   2.593  0.00  0.00     0.076 C 
ATOM      6  C7  UNL d   1      -0.264   2.933   0.162  0.00  0.00     0.002 A 
ATOM      7  C8  UNL d   1      -0.290   3.620  -1.054  0.00  0.00     0.006 A 
ENDROOT
BRANCH   1   8
ATOM      8  C1  UNL d   1       0.262   5.629  -2.476  0.00  0.00     0.054 C 
ATOM      9  C   UNL d   1      -1.142   5.826  -3.031  0.00  0.00     0.018 C 
ENDBRANCH   1   8
TORSDOF 1
ENDMDL
