MODEL 1
REMARK minimizedAffinity -3.93578362
REMARK minimizedRMSD -1
REMARK  1 active torsions:
REMARK  status: ('A' for Active; 'I' for Inactive)
REMARK    1  A    between atoms: C3_4  and  O_7 
ROOT
ATOM      1  C   UNL d   1       1.214   2.548   1.535  0.00  0.00    -0.033 A 
ATOM      2  C1  UNL d   1       1.634   2.273   0.233  0.00  0.00     0.039 A 
ATOM      3  C2  UNL d   1       0.977   1.302  -0.525  0.00  0.00    -0.080 A 
ATOM      4  C3  UNL d   1      -0.099   0.615   0.030  0.00  0.00     0.150 A 
ATOM      5  C4  UNL d   1      -0.525   0.886   1.326  0.00  0.00    -0.007 A 
ATOM      6  C5  UNL d   1       0.133   1.855   2.082  0.00  0.00     0.039 A 
ENDROOT
BRANCH   4   7
ATOM      7  O   UNL d   1      -0.769  -0.345  -0.669  0.00  0.00    -0.526 OA
ATOM      8  H5  UNL d   1      -0.345  -0.445  -1.537  0.00  0.00     0.418 HD
ENDBRANCH   4   7
TORSDOF 1
ENDMDL
