MODEL 1
REMARK minimizedAffinity -4.48155642
REMARK minimizedRMSD -1
REMARK  1 active torsions:
REMARK  status: ('A' for Active; 'I' for Inactive)
REMARK    1  A    between atoms: C3_4  and  O_7 
ROOT
ATOM      1  C   UNL d   1      -0.187  -0.411   0.492  0.00  0.00    -0.033 A 
ATOM      2  C1  UNL d   1       0.851   0.197  -0.217  0.00  0.00     0.039 A 
ATOM      3  C2  UNL d   1       1.263   1.489   0.115  0.00  0.00    -0.080 A 
ATOM      4  C3  UNL d   1       0.630   2.161   1.158  0.00  0.00     0.150 A 
ATOM      5  C4  UNL d   1      -0.401   1.560   1.871  0.00  0.00    -0.007 A 
ATOM      6  C5  UNL d   1      -0.812   0.270   1.537  0.00  0.00     0.039 A 
ENDROOT
BRANCH   4   7
ATOM      7  O   UNL d   1       0.994   3.425   1.515  0.00  0.00    -0.526 OA
ATOM      8  H5  UNL d   1       1.700   3.723   0.917  0.00  0.00     0.418 HD
ENDBRANCH   4   7
TORSDOF 1
ENDMDL
