MODEL 1
REMARK minimizedAffinity -3.28736877
REMARK minimizedRMSD -1
REMARK  1 active torsions:
REMARK  status: ('A' for Active; 'I' for Inactive)
REMARK    1  A    between atoms: C3_4  and  O_7 
ROOT
ATOM      1  C   UNL d   1      -0.380  -0.154   0.589  0.00  0.00    -0.033 A 
ATOM      2  C1  UNL d   1      -0.555   0.472   1.825  0.00  0.00     0.039 A 
ATOM      3  C2  UNL d   1       0.027   1.717   2.068  0.00  0.00    -0.080 A 
ATOM      4  C3  UNL d   1       0.781   2.326   1.069  0.00  0.00     0.150 A 
ATOM      5  C4  UNL d   1       0.957   1.711  -0.166  0.00  0.00    -0.007 A 
ATOM      6  C5  UNL d   1       0.375   0.467  -0.407  0.00  0.00     0.039 A 
ENDROOT
BRANCH   4   7
ATOM      7  O   UNL d   1       1.372   3.539   1.261  0.00  0.00    -0.526 OA
ATOM      8  H5  UNL d   1       1.189   3.830   2.170  0.00  0.00     0.418 HD
ENDBRANCH   4   7
TORSDOF 1
ENDMDL
