MODEL 1
REMARK minimizedAffinity -3.45385623
REMARK minimizedRMSD -1
REMARK  1 active torsions:
REMARK  status: ('A' for Active; 'I' for Inactive)
REMARK    1  A    between atoms: C3_4  and  O_7 
ROOT
ATOM      1  C   UNL d   1      -0.278  -0.571   0.405  0.00  0.00    -0.033 A 
ATOM      2  C1  UNL d   1      -0.827   0.065   1.521  0.00  0.00     0.039 A 
ATOM      3  C2  UNL d   1      -0.452   1.372   1.836  0.00  0.00    -0.080 A 
ATOM      4  C3  UNL d   1       0.470   2.032   1.029  0.00  0.00     0.150 A 
ATOM      5  C4  UNL d   1       1.018   1.407  -0.086  0.00  0.00    -0.007 A 
ATOM      6  C5  UNL d   1       0.643   0.101  -0.399  0.00  0.00     0.039 A 
ENDROOT
BRANCH   4   7
ATOM      7  O   UNL d   1       0.871   3.307   1.300  0.00  0.00    -0.526 OA
ATOM      8  H5  UNL d   1       0.431   3.600   2.116  0.00  0.00     0.418 HD
ENDBRANCH   4   7
TORSDOF 1
ENDMDL
