MODEL 1
REMARK minimizedAffinity -4.59243107
REMARK minimizedRMSD -1
REMARK  1 active torsions:
REMARK  status: ('A' for Active; 'I' for Inactive)
REMARK    1  A    between atoms: C3_4  and  O_7 
ROOT
ATOM      1  C   UNL d   1       0.173  -0.296   0.189  0.00  0.00    -0.033 A 
ATOM      2  C1  UNL d   1       1.450   0.097  -0.215  0.00  0.00     0.039 A 
ATOM      3  C2  UNL d   1       1.979   1.313   0.221  0.00  0.00    -0.080 A 
ATOM      4  C3  UNL d   1       1.222   2.126   1.060  0.00  0.00     0.150 A 
ATOM      5  C4  UNL d   1      -0.050   1.739   1.469  0.00  0.00    -0.007 A 
ATOM      6  C5  UNL d   1      -0.577   0.525   1.032  0.00  0.00     0.039 A 
ENDROOT
BRANCH   4   7
ATOM      7  O   UNL d   1       1.694   3.324   1.507  0.00  0.00    -0.526 OA
ATOM      8  H5  UNL d   1       2.573   3.473   1.120  0.00  0.00     0.418 HD
ENDBRANCH   4   7
TORSDOF 1
ENDMDL
