MODEL 1
REMARK minimizedAffinity -5.16897917
REMARK minimizedRMSD -1
REMARK  1 active torsions:
REMARK  status: ('A' for Active; 'I' for Inactive)
REMARK    1  A    between atoms: C3_4  and  O_7 
ROOT
ATOM      1  C   UNL d   1       0.026  -0.641   0.717  0.00  0.00    -0.033 A 
ATOM      2  C1  UNL d   1      -0.514   0.071   1.790  0.00  0.00     0.039 A 
ATOM      3  C2  UNL d   1      -0.403   1.462   1.833  0.00  0.00    -0.080 A 
ATOM      4  C3  UNL d   1       0.247   2.128   0.798  0.00  0.00     0.150 A 
ATOM      5  C4  UNL d   1       0.783   1.426  -0.276  0.00  0.00    -0.007 A 
ATOM      6  C5  UNL d   1       0.673   0.036  -0.317  0.00  0.00     0.039 A 
ENDROOT
BRANCH   4   7
ATOM      7  O   UNL d   1       0.383   3.485   0.799  0.00  0.00    -0.526 OA
ATOM      8  H5  UNL d   1      -0.010   3.833   1.616  0.00  0.00     0.418 HD
ENDBRANCH   4   7
TORSDOF 1
ENDMDL
