MODEL 1
REMARK minimizedAffinity -4.64877701
REMARK minimizedRMSD -1
REMARK  1 active torsions:
REMARK  status: ('A' for Active; 'I' for Inactive)
REMARK    1  A    between atoms: C3_4  and  O_7 
ROOT
ATOM      1  C   UNL d   1      -0.450  -0.525   0.334  0.00  0.00    -0.033 A 
ATOM      2  C1  UNL d   1      -0.624  -0.000   1.616  0.00  0.00     0.039 A 
ATOM      3  C2  UNL d   1      -0.103   1.255   1.936  0.00  0.00    -0.080 A 
ATOM      4  C3  UNL d   1       0.589   1.975   0.965  0.00  0.00     0.150 A 
ATOM      5  C4  UNL d   1       0.763   1.460  -0.315  0.00  0.00    -0.007 A 
ATOM      6  C5  UNL d   1       0.242   0.206  -0.632  0.00  0.00     0.039 A 
ENDROOT
BRANCH   4   7
ATOM      7  O   UNL d   1       1.120   3.202   1.232  0.00  0.00    -0.526 OA
ATOM      8  H5  UNL d   1       0.946   3.417   2.163  0.00  0.00     0.418 HD
ENDBRANCH   4   7
TORSDOF 1
ENDMDL
