MODEL 1
REMARK minimizedAffinity -4.67294836
REMARK minimizedRMSD -1
REMARK  1 active torsions:
REMARK  status: ('A' for Active; 'I' for Inactive)
REMARK    1  A    between atoms: C3_4  and  O_7 
ROOT
ATOM      1  C   UNL d   1      -0.390  -0.056  -0.048  0.00  0.00    -0.033 A 
ATOM      2  C1  UNL d   1       0.561   0.717  -0.716  0.00  0.00     0.039 A 
ATOM      3  C2  UNL d   1       0.985   1.930  -0.171  0.00  0.00    -0.080 A 
ATOM      4  C3  UNL d   1       0.451   2.358   1.042  0.00  0.00     0.150 A 
ATOM      5  C4  UNL d   1      -0.494   1.591   1.714  0.00  0.00    -0.007 A 
ATOM      6  C5  UNL d   1      -0.917   0.380   1.168  0.00  0.00     0.039 A 
ENDROOT
BRANCH   4   7
ATOM      7  O   UNL d   1       0.831   3.538   1.611  0.00  0.00    -0.526 OA
ATOM      8  H5  UNL d   1       1.468   3.973   1.020  0.00  0.00     0.418 HD
ENDBRANCH   4   7
TORSDOF 1
ENDMDL
