MODEL 1
REMARK minimizedAffinity -0.735304773
REMARK minimizedRMSD -1
REMARK  1 active torsions:
REMARK  status: ('A' for Active; 'I' for Inactive)
REMARK    1  A    between atoms: C3_4  and  O_7 
ROOT
ATOM      1  C   UNL d   1       1.170  -0.807  -0.692  0.00  0.00    -0.033 A 
ATOM      2  C1  UNL d   1       1.590   0.289   0.063  0.00  0.00     0.039 A 
ATOM      3  C2  UNL d   1       0.720   0.880   0.982  0.00  0.00    -0.080 A 
ATOM      4  C3  UNL d   1      -0.564   0.365   1.137  0.00  0.00     0.150 A 
ATOM      5  C4  UNL d   1      -0.987  -0.730   0.390  0.00  0.00    -0.007 A 
ATOM      6  C5  UNL d   1      -0.118  -1.318  -0.528  0.00  0.00     0.039 A 
ENDROOT
BRANCH   4   7
ATOM      7  O   UNL d   1      -1.450   0.911   2.017  0.00  0.00    -0.526 OA
ATOM      8  H5  UNL d   1      -1.029   1.677   2.442  0.00  0.00     0.418 HD
ENDBRANCH   4   7
TORSDOF 1
ENDMDL
