MODEL 1
REMARK minimizedAffinity -3.78124428
REMARK minimizedRMSD -1
REMARK  1 active torsions:
REMARK  status: ('A' for Active; 'I' for Inactive)
REMARK    1  A    between atoms: C3_4  and  O_7 
ROOT
ATOM      1  C   UNL d   1       0.281  -1.533  -0.535  0.00  0.00    -0.033 A 
ATOM      2  C1  UNL d   1      -0.615  -0.961   0.370  0.00  0.00     0.039 A 
ATOM      3  C2  UNL d   1      -0.318   0.264   0.970  0.00  0.00    -0.080 A 
ATOM      4  C3  UNL d   1       0.877   0.907   0.657  0.00  0.00     0.150 A 
ATOM      5  C4  UNL d   1       1.773   0.345  -0.247  0.00  0.00    -0.007 A 
ATOM      6  C5  UNL d   1       1.474  -0.879  -0.845  0.00  0.00     0.039 A 
ENDROOT
BRANCH   4   7
ATOM      7  O   UNL d   1       1.213   2.102   1.221  0.00  0.00    -0.526 OA
ATOM      8  H5  UNL d   1       0.513   2.354   1.846  0.00  0.00     0.418 HD
ENDBRANCH   4   7
TORSDOF 1
ENDMDL
