MODEL 1
REMARK minimizedAffinity -3.29380155
REMARK minimizedRMSD -1
REMARK  1 active torsions:
REMARK  status: ('A' for Active; 'I' for Inactive)
REMARK    1  A    between atoms: C3_4  and  O_7 
ROOT
ATOM      1  C   UNL d   1       0.188   1.217   1.018  0.00  0.00    -0.033 A 
ATOM      2  C1  UNL d   1       1.046   1.212  -0.083  0.00  0.00     0.039 A 
ATOM      3  C2  UNL d   1       0.919   0.228  -1.065  0.00  0.00    -0.080 A 
ATOM      4  C3  UNL d   1      -0.069  -0.744  -0.935  0.00  0.00     0.150 A 
ATOM      5  C4  UNL d   1      -0.930  -0.744   0.158  0.00  0.00    -0.007 A 
ATOM      6  C5  UNL d   1      -0.801   0.240   1.138  0.00  0.00     0.039 A 
ENDROOT
BRANCH   4   7
ATOM      7  O   UNL d   1      -0.228  -1.728  -1.865  0.00  0.00    -0.526 OA
ATOM      8  H5  UNL d   1       0.455  -1.619  -2.548  0.00  0.00     0.418 HD
ENDBRANCH   4   7
TORSDOF 1
ENDMDL
