MODEL 1
REMARK minimizedAffinity -2.2278955
REMARK minimizedRMSD -1
REMARK  1 active torsions:
REMARK  status: ('A' for Active; 'I' for Inactive)
REMARK    1  A    between atoms: C3_4  and  O_7 
ROOT
ATOM      1  C   UNL d   1       0.380   1.847   1.599  0.00  0.00    -0.033 A 
ATOM      2  C1  UNL d   1       1.126   1.638   0.437  0.00  0.00     0.039 A 
ATOM      3  C2  UNL d   1       0.847   0.547  -0.387  0.00  0.00    -0.080 A 
ATOM      4  C3  UNL d   1      -0.181  -0.326  -0.041  0.00  0.00     0.150 A 
ATOM      5  C4  UNL d   1      -0.931  -0.121   1.112  0.00  0.00    -0.007 A 
ATOM      6  C5  UNL d   1      -0.650   0.968   1.935  0.00  0.00     0.039 A 
ENDROOT
BRANCH   4   7
ATOM      7  O   UNL d   1      -0.488  -1.407  -0.812  0.00  0.00    -0.526 OA
ATOM      8  H5  UNL d   1       0.132  -1.437  -1.560  0.00  0.00     0.418 HD
ENDBRANCH   4   7
TORSDOF 1
ENDMDL
