MODEL 1
REMARK minimizedAffinity -4.37593794
REMARK minimizedRMSD -1
REMARK  1 active torsions:
REMARK  status: ('A' for Active; 'I' for Inactive)
REMARK    1  A    between atoms: C3_4  and  O_7 
ROOT
ATOM      1  C   UNL d   1      -0.322  -0.537   0.704  0.00  0.00    -0.033 A 
ATOM      2  C1  UNL d   1      -0.730   0.216   1.806  0.00  0.00     0.039 A 
ATOM      3  C2  UNL d   1      -0.274   1.526   1.966  0.00  0.00    -0.080 A 
ATOM      4  C3  UNL d   1       0.587   2.070   1.017  0.00  0.00     0.150 A 
ATOM      5  C4  UNL d   1       0.995   1.326  -0.085  0.00  0.00    -0.007 A 
ATOM      6  C5  UNL d   1       0.539   0.018  -0.242  0.00  0.00     0.039 A 
ENDROOT
BRANCH   4   7
ATOM      7  O   UNL d   1       1.063   3.343   1.133  0.00  0.00    -0.526 OA
ATOM      8  H5  UNL d   1       0.720   3.726   1.958  0.00  0.00     0.418 HD
ENDBRANCH   4   7
TORSDOF 1
ENDMDL
