MODEL 1
REMARK minimizedAffinity -2.45499039
REMARK minimizedRMSD -1
REMARK  1 active torsions:
REMARK  status: ('A' for Active; 'I' for Inactive)
REMARK    1  A    between atoms: C3_4  and  O_7 
ROOT
ATOM      1  C   UNL d   1      -2.311  -1.196  -3.393  0.00  0.00    -0.033 A 
ATOM      2  C1  UNL d   1      -0.962  -0.861  -3.259  0.00  0.00     0.039 A 
ATOM      3  C2  UNL d   1      -0.354  -0.896  -2.003  0.00  0.00    -0.080 A 
ATOM      4  C3  UNL d   1      -1.105  -1.268  -0.891  0.00  0.00     0.150 A 
ATOM      5  C4  UNL d   1      -2.448  -1.607  -1.018  0.00  0.00    -0.007 A 
ATOM      6  C5  UNL d   1      -3.053  -1.571  -2.273  0.00  0.00     0.039 A 
ENDROOT
BRANCH   4   7
ATOM      7  O   UNL d   1      -0.556  -1.312   0.357  0.00  0.00    -0.526 OA
ATOM      8  H5  UNL d   1       0.370  -1.025   0.296  0.00  0.00     0.418 HD
ENDBRANCH   4   7
TORSDOF 1
ENDMDL
