MODEL 1
REMARK minimizedAffinity -4.76903486
REMARK minimizedRMSD -1
REMARK  1 active torsions:
REMARK  status: ('A' for Active; 'I' for Inactive)
REMARK    1  A    between atoms: C3_4  and  O_7 
ROOT
ATOM      1  C   UNL d   1       0.099  -0.474   0.083  0.00  0.00    -0.033 A 
ATOM      2  C1  UNL d   1      -0.680   0.036   1.123  0.00  0.00     0.039 A 
ATOM      3  C2  UNL d   1      -0.411   1.305   1.641  0.00  0.00    -0.080 A 
ATOM      4  C3  UNL d   1       0.637   2.051   1.111  0.00  0.00     0.150 A 
ATOM      5  C4  UNL d   1       1.415   1.551   0.073  0.00  0.00    -0.007 A 
ATOM      6  C5  UNL d   1       1.146   0.284  -0.443  0.00  0.00     0.039 A 
ENDROOT
BRANCH   4   7
ATOM      7  O   UNL d   1       0.941   3.292   1.588  0.00  0.00    -0.526 OA
ATOM      8  H5  UNL d   1       0.338   3.495   2.323  0.00  0.00     0.418 HD
ENDBRANCH   4   7
TORSDOF 1
ENDMDL
