MODEL 1
REMARK minimizedAffinity -5.0539465
REMARK minimizedRMSD -1
REMARK  1 active torsions:
REMARK  status: ('A' for Active; 'I' for Inactive)
REMARK    1  A    between atoms: C3_4  and  O_7 
ROOT
ATOM      1  C   UNL d   1      -0.401  -0.256  -0.171  0.00  0.00    -0.033 A 
ATOM      2  C1  UNL d   1       0.748   0.252  -0.781  0.00  0.00     0.039 A 
ATOM      3  C2  UNL d   1       1.390   1.369  -0.243  0.00  0.00    -0.080 A 
ATOM      4  C3  UNL d   1       0.875   1.968   0.903  0.00  0.00     0.150 A 
ATOM      5  C4  UNL d   1      -0.267   1.465   1.518  0.00  0.00    -0.007 A 
ATOM      6  C5  UNL d   1      -0.907   0.350   0.980  0.00  0.00     0.039 A 
ENDROOT
BRANCH   4   7
ATOM      7  O   UNL d   1       1.465   3.063   1.461  0.00  0.00    -0.526 OA
ATOM      8  H5  UNL d   1       2.226   3.315   0.913  0.00  0.00     0.418 HD
ENDBRANCH   4   7
TORSDOF 1
ENDMDL
