MODEL 1
REMARK minimizedAffinity -3.18532228
REMARK minimizedRMSD -1
REMARK  1 active torsions:
REMARK  status: ('A' for Active; 'I' for Inactive)
REMARK    1  A    between atoms: C3_4  and  O_7 
ROOT
ATOM      1  C   UNL d   1      -2.592  -1.629  -2.748  0.00  0.00    -0.033 A 
ATOM      2  C1  UNL d   1      -1.592  -1.001  -3.493  0.00  0.00     0.039 A 
ATOM      3  C2  UNL d   1      -0.338  -0.768  -2.925  0.00  0.00    -0.080 A 
ATOM      4  C3  UNL d   1      -0.097  -1.168  -1.613  0.00  0.00     0.150 A 
ATOM      5  C4  UNL d   1      -1.087  -1.797  -0.867  0.00  0.00    -0.007 A 
ATOM      6  C5  UNL d   1      -2.339  -2.029  -1.435  0.00  0.00     0.039 A 
ENDROOT
BRANCH   4   7
ATOM      7  O   UNL d   1       1.110  -0.958  -1.015  0.00  0.00    -0.526 OA
ATOM      8  H5  UNL d   1       1.686  -0.488  -1.640  0.00  0.00     0.418 HD
ENDBRANCH   4   7
TORSDOF 1
ENDMDL
