MODEL 1
REMARK minimizedAffinity 9.96542168
REMARK minimizedRMSD -1
REMARK  1 active torsions:
REMARK  status: ('A' for Active; 'I' for Inactive)
REMARK    1  A    between atoms: C1_2  and  C2_3 
ROOT
ATOM      1  C2  UNL d   1       4.732   5.414  -3.622  0.00  0.00    -0.076 A 
ATOM      2  C3  UNL d   1       3.655   4.868  -4.342  0.00  0.00     0.004 A 
ATOM      3  C4  UNL d   1       2.562   4.307  -3.683  0.00  0.00    -0.003 A 
ATOM      4  C5  UNL d   1       2.529   4.283  -2.293  0.00  0.00     0.000 A 
ATOM      5  C6  UNL d   1       3.580   4.836  -1.563  0.00  0.00     0.000 A 
ATOM      6  C7  UNL d   1       4.682   5.420  -2.212  0.00  0.00    -0.073 A 
ATOM      7  C8  UNL d   1       5.791   5.996  -1.375  0.00  0.00     0.078 C 
ENDROOT
BRANCH   1   8
ATOM      8  C1  UNL d   1       5.902   5.984  -4.391  0.00  0.00     0.053 C 
ATOM      9  C   UNL d   1       5.666   5.986  -5.894  0.00  0.00     0.018 C 
ENDBRANCH   1   8
TORSDOF 1
ENDMDL
