MODEL 1
REMARK minimizedAffinity 4.05821133
REMARK minimizedRMSD -1
REMARK  1 active torsions:
REMARK  status: ('A' for Active; 'I' for Inactive)
REMARK    1  A    between atoms: C1_2  and  C2_3 
ROOT
ATOM      1  C2  UNL d   1       3.740   4.782  -3.472  0.00  0.00    -0.076 A 
ATOM      2  C3  UNL d   1       2.630   4.481  -2.663  0.00  0.00     0.004 A 
ATOM      3  C4  UNL d   1       2.563   4.925  -1.343  0.00  0.00    -0.003 A 
ATOM      4  C5  UNL d   1       3.605   5.677  -0.812  0.00  0.00     0.000 A 
ATOM      5  C6  UNL d   1       4.705   6.000  -1.605  0.00  0.00     0.000 A 
ATOM      6  C7  UNL d   1       4.781   5.574  -2.943  0.00  0.00    -0.073 A 
ATOM      7  C8  UNL d   1       5.994   5.945  -3.751  0.00  0.00     0.078 C 
ENDROOT
BRANCH   1   8
ATOM      8  C1  UNL d   1       3.769   4.250  -4.887  0.00  0.00     0.053 C 
ATOM      9  C   UNL d   1       4.328   2.838  -4.968  0.00  0.00     0.018 C 
ENDBRANCH   1   8
TORSDOF 1
ENDMDL
