MODEL 1
REMARK minimizedAffinity 6.78381252
REMARK minimizedRMSD -1
REMARK  1 active torsions:
REMARK  status: ('A' for Active; 'I' for Inactive)
REMARK    1  A    between atoms: C1_2  and  C2_3 
ROOT
ATOM      1  C2  UNL d   1       4.422   5.136  -4.027  0.00  0.00    -0.076 A 
ATOM      2  C3  UNL d   1       5.638   5.746  -3.672  0.00  0.00     0.004 A 
ATOM      3  C4  UNL d   1       5.975   5.951  -2.336  0.00  0.00    -0.003 A 
ATOM      4  C5  UNL d   1       5.101   5.550  -1.331  0.00  0.00     0.000 A 
ATOM      5  C6  UNL d   1       3.898   4.928  -1.664  0.00  0.00     0.000 A 
ATOM      6  C7  UNL d   1       3.551   4.698  -3.007  0.00  0.00    -0.073 A 
ATOM      7  C8  UNL d   1       2.238   4.028  -3.308  0.00  0.00     0.078 C 
ENDROOT
BRANCH   1   8
ATOM      8  C1  UNL d   1       4.099   4.964  -5.494  0.00  0.00     0.053 C 
ATOM      9  C   UNL d   1       3.103   5.998  -5.996  0.00  0.00     0.018 C 
ENDBRANCH   1   8
TORSDOF 1
ENDMDL
