MODEL 1
REMARK minimizedAffinity -0.464854836
REMARK minimizedRMSD -1
REMARK  1 active torsions:
REMARK  status: ('A' for Active; 'I' for Inactive)
REMARK    1  A    between atoms: C1_2  and  C2_3 
ROOT
ATOM      1  C2  UNL d   1       4.322   4.411  -2.952  0.00  0.00    -0.076 A 
ATOM      2  C3  UNL d   1       3.849   3.765  -4.107  0.00  0.00     0.004 A 
ATOM      3  C4  UNL d   1       4.435   3.998  -5.350  0.00  0.00    -0.003 A 
ATOM      4  C5  UNL d   1       5.503   4.881  -5.459  0.00  0.00     0.000 A 
ATOM      5  C6  UNL d   1       5.997   5.517  -4.321  0.00  0.00     0.000 A 
ATOM      6  C7  UNL d   1       5.429   5.281  -3.057  0.00  0.00    -0.073 A 
ATOM      7  C8  UNL d   1       5.998   5.999  -1.864  0.00  0.00     0.078 C 
ENDROOT
BRANCH   1   8
ATOM      8  C1  UNL d   1       3.630   4.140  -1.635  0.00  0.00     0.053 C 
ATOM      9  C   UNL d   1       2.229   4.730  -1.581  0.00  0.00     0.018 C 
ENDBRANCH   1   8
TORSDOF 1
ENDMDL
