MODEL 1
REMARK minimizedAffinity 2.71405578
REMARK minimizedRMSD -1
REMARK  1 active torsions:
REMARK  status: ('A' for Active; 'I' for Inactive)
REMARK    1  A    between atoms: C1_2  and  C2_3 
ROOT
ATOM      1  C2  UNL d   1       5.082   4.914  -3.762  0.00  0.00    -0.076 A 
ATOM      2  C3  UNL d   1       4.249   5.999  -4.087  0.00  0.00     0.004 A 
ATOM      3  C4  UNL d   1       3.408   5.949  -5.197  0.00  0.00    -0.003 A 
ATOM      4  C5  UNL d   1       3.385   4.814  -6.000  0.00  0.00     0.000 A 
ATOM      5  C6  UNL d   1       4.192   3.722  -5.682  0.00  0.00     0.000 A 
ATOM      6  C7  UNL d   1       5.034   3.749  -4.557  0.00  0.00    -0.073 A 
ATOM      7  C8  UNL d   1       5.887   2.545  -4.264  0.00  0.00     0.078 C 
ENDROOT
BRANCH   1   8
ATOM      8  C1  UNL d   1       5.994   5.036  -2.562  0.00  0.00     0.053 C 
ATOM      9  C   UNL d   1       5.241   5.407  -1.294  0.00  0.00     0.018 C 
ENDBRANCH   1   8
TORSDOF 1
ENDMDL
