MODEL 1
REMARK minimizedAffinity 0.39946565
REMARK minimizedRMSD -1
REMARK  1 active torsions:
REMARK  status: ('A' for Active; 'I' for Inactive)
REMARK    1  A    between atoms: C1_2  and  C2_3 
ROOT
ATOM      1  C2  UNL d   1       4.112   4.864  -2.427  0.00  0.00    -0.076 A 
ATOM      2  C3  UNL d   1       3.574   4.444  -3.656  0.00  0.00     0.004 A 
ATOM      3  C4  UNL d   1       4.233   4.706  -4.855  0.00  0.00    -0.003 A 
ATOM      4  C5  UNL d   1       5.442   5.393  -4.846  0.00  0.00     0.000 A 
ATOM      5  C6  UNL d   1       6.000   5.802  -3.635  0.00  0.00     0.000 A 
ATOM      6  C7  UNL d   1       5.356   5.531  -2.415  0.00  0.00    -0.073 A 
ATOM      7  C8  UNL d   1       6.000   6.000  -1.139  0.00  0.00     0.078 C 
ENDROOT
BRANCH   1   8
ATOM      8  C1  UNL d   1       3.339   4.574  -1.160  0.00  0.00     0.053 C 
ATOM      9  C   UNL d   1       2.339   5.670  -0.825  0.00  0.00     0.018 C 
ENDBRANCH   1   8
TORSDOF 1
ENDMDL
