MODEL 1
REMARK minimizedAffinity 3.21261334
REMARK minimizedRMSD -1
REMARK  1 active torsions:
REMARK  status: ('A' for Active; 'I' for Inactive)
REMARK    1  A    between atoms: C1_2  and  C2_3 
ROOT
ATOM      1  C2  UNL d   1       3.993   5.170  -3.630  0.00  0.00    -0.076 A 
ATOM      2  C3  UNL d   1       2.678   4.692  -3.765  0.00  0.00     0.004 A 
ATOM      3  C4  UNL d   1       1.986   4.175  -2.671  0.00  0.00    -0.003 A 
ATOM      4  C5  UNL d   1       2.598   4.129  -1.423  0.00  0.00     0.000 A 
ATOM      5  C6  UNL d   1       3.895   4.615  -1.267  0.00  0.00     0.000 A 
ATOM      6  C7  UNL d   1       4.601   5.155  -2.356  0.00  0.00    -0.073 A 
ATOM      7  C8  UNL d   1       6.000   5.659  -2.132  0.00  0.00     0.078 C 
ENDROOT
BRANCH   1   8
ATOM      8  C1  UNL d   1       4.703   5.694  -4.857  0.00  0.00     0.053 C 
ATOM      9  C   UNL d   1       3.745   5.999  -5.999  0.00  0.00     0.018 C 
ENDBRANCH   1   8
TORSDOF 1
ENDMDL
