MODEL 1
REMARK minimizedAffinity -0.00592073333
REMARK minimizedRMSD -1
REMARK  1 active torsions:
REMARK  status: ('A' for Active; 'I' for Inactive)
REMARK    1  A    between atoms: C1_2  and  C2_3 
ROOT
ATOM      1  C2  UNL d   1       4.944   4.461  -4.357  0.00  0.00    -0.076 A 
ATOM      2  C3  UNL d   1       5.991   5.334  -4.015  0.00  0.00     0.004 A 
ATOM      3  C4  UNL d   1       6.000   5.999  -2.790  0.00  0.00    -0.003 A 
ATOM      4  C5  UNL d   1       4.962   5.801  -1.886  0.00  0.00     0.000 A 
ATOM      5  C6  UNL d   1       3.924   4.924  -2.201  0.00  0.00     0.000 A 
ATOM      6  C7  UNL d   1       3.909   4.234  -3.425  0.00  0.00    -0.073 A 
ATOM      7  C8  UNL d   1       2.762   3.305  -3.715  0.00  0.00     0.078 C 
ENDROOT
BRANCH   1   8
ATOM      8  C1  UNL d   1       4.975   3.788  -5.710  0.00  0.00     0.053 C 
ATOM      9  C   UNL d   1       6.000   2.667  -5.781  0.00  0.00     0.018 C 
ENDBRANCH   1   8
TORSDOF 1
ENDMDL
