MODEL 1
REMARK minimizedAffinity 0.227797821
REMARK minimizedRMSD -1
REMARK  1 active torsions:
REMARK  status: ('A' for Active; 'I' for Inactive)
REMARK    1  A    between atoms: C1_2  and  C2_3 
ROOT
ATOM      1  C2  UNL d   1       4.200   4.343  -3.510  0.00  0.00    -0.076 A 
ATOM      2  C3  UNL d   1       4.088   3.749  -4.779  0.00  0.00     0.004 A 
ATOM      3  C4  UNL d   1       4.912   4.144  -5.831  0.00  0.00    -0.003 A 
ATOM      4  C5  UNL d   1       5.863   5.139  -5.631  0.00  0.00     0.000 A 
ATOM      5  C6  UNL d   1       6.000   5.726  -4.373  0.00  0.00     0.000 A 
ATOM      6  C7  UNL d   1       5.188   5.328  -3.298  0.00  0.00    -0.073 A 
ATOM      7  C8  UNL d   1       5.374   6.000  -1.965  0.00  0.00     0.078 C 
ENDROOT
BRANCH   1   8
ATOM      8  C1  UNL d   1       3.260   3.893  -2.414  0.00  0.00     0.053 C 
ATOM      9  C   UNL d   1       2.088   4.844  -2.224  0.00  0.00     0.018 C 
ENDBRANCH   1   8
TORSDOF 1
ENDMDL
