MODEL 1
REMARK minimizedAffinity 4.42828178
REMARK minimizedRMSD -1
REMARK  1 active torsions:
REMARK  status: ('A' for Active; 'I' for Inactive)
REMARK    1  A    between atoms: C1_2  and  C2_3 
ROOT
ATOM      1  C2  UNL d   1       4.009   4.520  -2.463  0.00  0.00    -0.076 A 
ATOM      2  C3  UNL d   1       3.552   3.775  -3.564  0.00  0.00     0.004 A 
ATOM      3  C4  UNL d   1       4.292   3.709  -4.743  0.00  0.00    -0.003 A 
ATOM      4  C5  UNL d   1       5.503   4.385  -4.839  0.00  0.00     0.000 A 
ATOM      5  C6  UNL d   1       5.981   5.114  -3.751  0.00  0.00     0.000 A 
ATOM      6  C7  UNL d   1       5.255   5.178  -2.549  0.00  0.00    -0.073 A 
ATOM      7  C8  UNL d   1       5.815   5.983  -1.409  0.00  0.00     0.078 C 
ENDROOT
BRANCH   1   8
ATOM      8  C1  UNL d   1       3.150   4.577  -1.220  0.00  0.00     0.053 C 
ATOM      9  C   UNL d   1       1.958   3.635  -1.291  0.00  0.00     0.018 C 
ENDBRANCH   1   8
TORSDOF 1
ENDMDL
