MODEL 1
REMARK minimizedAffinity -0.600993752
REMARK minimizedRMSD -1
REMARK  1 active torsions:
REMARK  status: ('A' for Active; 'I' for Inactive)
REMARK    1  A    between atoms: C1_2  and  C2_3 
ROOT
ATOM      1  C2  UNL d   1       4.389   4.568  -3.067  0.00  0.00    -0.076 A 
ATOM      2  C3  UNL d   1       3.944   4.133  -4.327  0.00  0.00     0.004 A 
ATOM      3  C4  UNL d   1       4.510   4.629  -5.499  0.00  0.00    -0.003 A 
ATOM      4  C5  UNL d   1       5.532   5.570  -5.431  0.00  0.00     0.000 A 
ATOM      5  C6  UNL d   1       5.999   6.000  -4.189  0.00  0.00     0.000 A 
ATOM      6  C7  UNL d   1       5.450   5.497  -2.997  0.00  0.00    -0.073 A 
ATOM      7  C8  UNL d   1       5.988   6.000  -1.686  0.00  0.00     0.078 C 
ENDROOT
BRANCH   1   8
ATOM      8  C1  UNL d   1       3.719   4.014  -1.830  0.00  0.00     0.053 C 
ATOM      9  C   UNL d   1       2.287   4.504  -1.674  0.00  0.00     0.018 C 
ENDBRANCH   1   8
TORSDOF 1
ENDMDL
