MODEL 1
REMARK minimizedAffinity 2.00239801
REMARK minimizedRMSD -1
REMARK  1 active torsions:
REMARK  status: ('A' for Active; 'I' for Inactive)
REMARK    1  A    between atoms: C1_2  and  C2_3 
ROOT
ATOM      1  C2  UNL d   1       4.467   4.749  -3.884  0.00  0.00    -0.076 A 
ATOM      2  C3  UNL d   1       3.715   3.607  -3.560  0.00  0.00     0.004 A 
ATOM      3  C4  UNL d   1       3.623   2.534  -4.444  0.00  0.00    -0.003 A 
ATOM      4  C5  UNL d   1       4.282   2.585  -5.667  0.00  0.00     0.000 A 
ATOM      5  C6  UNL d   1       5.047   3.703  -5.999  0.00  0.00     0.000 A 
ATOM      6  C7  UNL d   1       5.164   4.787  -5.111  0.00  0.00    -0.073 A 
ATOM      7  C8  UNL d   1       5.997   5.969  -5.523  0.00  0.00     0.078 C 
ENDROOT
BRANCH   1   8
ATOM      8  C1  UNL d   1       4.509   5.894  -2.897  0.00  0.00     0.053 C 
ATOM      9  C   UNL d   1       5.628   5.744  -1.878  0.00  0.00     0.018 C 
ENDBRANCH   1   8
TORSDOF 1
ENDMDL
