MODEL 1
REMARK minimizedAffinity 6.55652571
REMARK minimizedRMSD -1
REMARK  1 active torsions:
REMARK  status: ('A' for Active; 'I' for Inactive)
REMARK    1  A    between atoms: C1_2  and  C2_3 
ROOT
ATOM      1  C2  UNL d   1       4.771   5.026  -2.820  0.00  0.00    -0.076 A 
ATOM      2  C3  UNL d   1       5.928   4.454  -3.376  0.00  0.00     0.004 A 
ATOM      3  C4  UNL d   1       6.000   4.157  -4.736  0.00  0.00    -0.003 A 
ATOM      4  C5  UNL d   1       4.915   4.429  -5.562  0.00  0.00     0.000 A 
ATOM      5  C6  UNL d   1       3.766   5.013  -5.031  0.00  0.00     0.000 A 
ATOM      6  C7  UNL d   1       3.683   5.333  -3.665  0.00  0.00    -0.073 A 
ATOM      7  C8  UNL d   1       2.417   5.956  -3.145  0.00  0.00     0.078 C 
ENDROOT
BRANCH   1   8
ATOM      8  C1  UNL d   1       4.741   5.301  -1.333  0.00  0.00     0.053 C 
ATOM      9  C   UNL d   1       6.000   6.000  -0.844  0.00  0.00     0.018 C 
ENDBRANCH   1   8
TORSDOF 1
ENDMDL
