MODEL 1
REMARK minimizedAffinity -1.58167994
REMARK minimizedRMSD -1
REMARK  1 active torsions:
REMARK  status: ('A' for Active; 'I' for Inactive)
REMARK    1  A    between atoms: C1_2  and  C2_3 
ROOT
ATOM      1  C2  UNL d   1       4.197   4.502  -3.143  0.00  0.00    -0.076 A 
ATOM      2  C3  UNL d   1       4.141   4.047  -4.472  0.00  0.00     0.004 A 
ATOM      3  C4  UNL d   1       4.995   4.566  -5.444  0.00  0.00    -0.003 A 
ATOM      4  C5  UNL d   1       5.919   5.548  -5.102  0.00  0.00     0.000 A 
ATOM      5  C6  UNL d   1       6.000   5.998  -3.785  0.00  0.00     0.000 A 
ATOM      6  C7  UNL d   1       5.158   5.473  -2.790  0.00  0.00    -0.073 A 
ATOM      7  C8  UNL d   1       5.284   6.000  -1.386  0.00  0.00     0.078 C 
ENDROOT
BRANCH   1   8
ATOM      8  C1  UNL d   1       3.227   3.921  -2.138  0.00  0.00     0.053 C 
ATOM      9  C   UNL d   1       2.069   4.860  -1.837  0.00  0.00     0.018 C 
ENDBRANCH   1   8
TORSDOF 1
ENDMDL
