MODEL 1
REMARK minimizedAffinity 10.9029455
REMARK minimizedRMSD -1
REMARK  1 active torsions:
REMARK  status: ('A' for Active; 'I' for Inactive)
REMARK    1  A    between atoms: C1_2  and  C2_3 
ROOT
ATOM      1  C2  UNL d   1       3.692   5.608  -2.312  0.00  0.00    -0.076 A 
ATOM      2  C3  UNL d   1       3.293   5.466  -3.652  0.00  0.00     0.004 A 
ATOM      3  C4  UNL d   1       4.212   5.589  -4.692  0.00  0.00    -0.003 A 
ATOM      4  C5  UNL d   1       5.547   5.856  -4.409  0.00  0.00     0.000 A 
ATOM      5  C6  UNL d   1       5.965   5.983  -3.084  0.00  0.00     0.000 A 
ATOM      6  C7  UNL d   1       5.053   5.845  -2.023  0.00  0.00    -0.073 A 
ATOM      7  C8  UNL d   1       5.557   5.998  -0.614  0.00  0.00     0.078 C 
ENDROOT
BRANCH   1   8
ATOM      8  C1  UNL d   1       2.645   5.491  -1.228  0.00  0.00     0.053 C 
ATOM      9  C   UNL d   1       2.454   4.058  -0.755  0.00  0.00     0.018 C 
ENDBRANCH   1   8
TORSDOF 1
ENDMDL
