MODEL 1
REMARK minimizedAffinity 0.0605125092
REMARK minimizedRMSD -1
REMARK  1 active torsions:
REMARK  status: ('A' for Active; 'I' for Inactive)
REMARK    1  A    between atoms: C1_2  and  C2_3 
ROOT
ATOM      1  C2  UNL d   1       3.666   4.393  -2.681  0.00  0.00    -0.076 A 
ATOM      2  C3  UNL d   1       3.478   3.438  -3.695  0.00  0.00     0.004 A 
ATOM      3  C4  UNL d   1       4.532   3.056  -4.524  0.00  0.00    -0.003 A 
ATOM      4  C5  UNL d   1       5.790   3.622  -4.351  0.00  0.00     0.000 A 
ATOM      5  C6  UNL d   1       5.998   4.558  -3.338  0.00  0.00     0.000 A 
ATOM      6  C7  UNL d   1       4.951   4.942  -2.484  0.00  0.00    -0.073 A 
ATOM      7  C8  UNL d   1       5.230   5.960  -1.413  0.00  0.00     0.078 C 
ENDROOT
BRANCH   1   8
ATOM      8  C1  UNL d   1       2.480   4.789  -1.831  0.00  0.00     0.053 C 
ATOM      9  C   UNL d   1       2.245   3.829  -0.674  0.00  0.00     0.018 C 
ENDBRANCH   1   8
TORSDOF 1
ENDMDL
