MODEL 1
REMARK minimizedAffinity 9.33147526
REMARK minimizedRMSD -1
REMARK  0 active torsions:
REMARK  status: ('A' for Active; 'I' for Inactive)
ROOT
ATOM      1  C1  DEN d   1      -5.799  -2.096  -4.482  0.00  0.00     0.130 A 
ATOM      2  C2  DEN d   1      -5.007  -1.758  -3.302  0.00  0.00    -0.031 A 
ATOM      3  C3  DEN d   1      -4.191  -2.937  -2.948  0.00  0.00     0.027 A 
ATOM      4  C4  DEN d   1      -4.074  -5.237  -4.108  0.00  0.00     0.027 A 
ATOM      5  C5  DEN d   1      -4.571  -6.000  -5.142  0.00  0.00    -0.003 A 
ATOM      6  C6  DEN d   1      -5.530  -5.530  -6.000  0.00  0.00     0.001 A 
ATOM      7  C7  DEN d   1      -5.989  -4.246  -5.868  0.00  0.00     0.017 A 
ATOM      8  C8  DEN d   1      -5.498  -3.474  -4.824  0.00  0.00    -0.094 A 
ATOM      9  C9  DEN d   1      -4.520  -3.962  -3.974  0.00  0.00    -0.072 A 
ENDROOT
TORSDOF 0
ENDMDL
