MODEL 1
REMARK minimizedAffinity 9.6886797
REMARK minimizedRMSD -1
REMARK  0 active torsions:
REMARK  status: ('A' for Active; 'I' for Inactive)
ROOT
ATOM      1  C1  DEN d   1       0.463  -3.727   5.991  0.00  0.00     0.130 A 
ATOM      2  C2  DEN d   1       0.794  -5.139   5.820  0.00  0.00    -0.031 A 
ATOM      3  C3  DEN d   1       1.361  -5.314   4.468  0.00  0.00     0.027 A 
ATOM      4  C4  DEN d   1       1.761  -3.546   2.633  0.00  0.00     0.027 A 
ATOM      5  C5  DEN d   1       1.627  -2.213   2.311  0.00  0.00    -0.003 A 
ATOM      6  C6  DEN d   1       1.070  -1.306   3.172  0.00  0.00     0.001 A 
ATOM      7  C7  DEN d   1       0.666  -1.710   4.417  0.00  0.00     0.017 A 
ATOM      8  C8  DEN d   1       0.791  -3.054   4.747  0.00  0.00    -0.094 A 
ATOM      9  C9  DEN d   1       1.368  -3.953   3.867  0.00  0.00    -0.072 A 
ENDROOT
TORSDOF 0
ENDMDL
