MODEL 1
REMARK minimizedAffinity -1.3178885
REMARK minimizedRMSD -1
REMARK  0 active torsions:
REMARK  status: ('A' for Active; 'I' for Inactive)
ROOT
ATOM      1  C1  DEN d   1       2.774   4.354  -2.873  0.00  0.00     0.130 A 
ATOM      2  C2  DEN d   1       3.184   4.576  -1.489  0.00  0.00    -0.031 A 
ATOM      3  C3  DEN d   1       4.495   5.255  -1.504  0.00  0.00     0.027 A 
ATOM      4  C4  DEN d   1       5.921   5.984  -3.526  0.00  0.00     0.027 A 
ATOM      5  C5  DEN d   1       5.993   6.000  -4.901  0.00  0.00    -0.003 A 
ATOM      6  C6  DEN d   1       5.022   5.442  -5.690  0.00  0.00     0.001 A 
ATOM      7  C7  DEN d   1       3.913   4.885  -5.109  0.00  0.00     0.017 A 
ATOM      8  C8  DEN d   1       3.837   4.859  -3.723  0.00  0.00    -0.094 A 
ATOM      9  C9  DEN d   1       4.823   5.439  -2.943  0.00  0.00    -0.072 A 
ENDROOT
TORSDOF 0
ENDMDL
