MODEL 1
REMARK minimizedAffinity 7.03924322
REMARK minimizedRMSD -1
REMARK  0 active torsions:
REMARK  status: ('A' for Active; 'I' for Inactive)
ROOT
ATOM      1  C1  DEN d   1       1.329   0.345   2.294  0.00  0.00     0.130 A 
ATOM      2  C2  DEN d   1       2.081   0.525   1.055  0.00  0.00    -0.031 A 
ATOM      3  C3  DEN d   1       2.575  -0.798   0.625  0.00  0.00     0.027 A 
ATOM      4  C4  DEN d   1       2.247  -3.097   1.749  0.00  0.00     0.027 A 
ATOM      5  C5  DEN d   1       1.691  -3.750   2.826  0.00  0.00    -0.003 A 
ATOM      6  C6  DEN d   1       1.009  -3.086   3.811  0.00  0.00     0.001 A 
ATOM      7  C7  DEN d   1       0.828  -1.731   3.715  0.00  0.00     0.017 A 
ATOM      8  C8  DEN d   1       1.393  -1.064   2.636  0.00  0.00    -0.094 A 
ATOM      9  C9  DEN d   1       2.067  -1.756   1.644  0.00  0.00    -0.072 A 
ENDROOT
TORSDOF 0
ENDMDL
