MODEL 1
REMARK minimizedAffinity 15.5201406
REMARK minimizedRMSD -1
REMARK  0 active torsions:
REMARK  status: ('A' for Active; 'I' for Inactive)
ROOT
ATOM      1  C1  DEN d   1      -1.018   3.392   1.156  0.00  0.00     0.130 A 
ATOM      2  C2  DEN d   1      -2.209   2.694   0.682  0.00  0.00    -0.031 A 
ATOM      3  C3  DEN d   1      -1.878   1.261   0.552  0.00  0.00     0.027 A 
ATOM      4  C4  DEN d   1       0.352   0.060   1.042  0.00  0.00     0.027 A 
ATOM      5  C5  DEN d   1       1.654   0.236   1.454  0.00  0.00    -0.003 A 
ATOM      6  C6  DEN d   1       2.163   1.470   1.762  0.00  0.00     0.001 A 
ATOM      7  C7  DEN d   1       1.351   2.572   1.704  0.00  0.00     0.017 A 
ATOM      8  C8  DEN d   1       0.039   2.404   1.282  0.00  0.00    -0.094 A 
ATOM      9  C9  DEN d   1      -0.460   1.146   0.987  0.00  0.00    -0.072 A 
ENDROOT
TORSDOF 0
ENDMDL
