MODEL 1
REMARK minimizedAffinity 3.58044291
REMARK minimizedRMSD -1
REMARK  0 active torsions:
REMARK  status: ('A' for Active; 'I' for Inactive)
ROOT
ATOM      1  C1  DEN d   1       0.719  -1.481   4.616  0.00  0.00     0.130 A 
ATOM      2  C2  DEN d   1       0.747  -2.927   4.817  0.00  0.00    -0.031 A 
ATOM      3  C3  DEN d   1       1.042  -3.563   3.517  0.00  0.00     0.027 A 
ATOM      4  C4  DEN d   1       1.459  -2.455   1.226  0.00  0.00     0.027 A 
ATOM      5  C5  DEN d   1       1.526  -1.253   0.556  0.00  0.00    -0.003 A 
ATOM      6  C6  DEN d   1       1.298  -0.055   1.180  0.00  0.00     0.001 A 
ATOM      7  C7  DEN d   1       1.035  -0.029   2.524  0.00  0.00     0.017 A 
ATOM      8  C8  DEN d   1       0.958  -1.237   3.205  0.00  0.00    -0.094 A 
ATOM      9  C9  DEN d   1       1.205  -2.437   2.559  0.00  0.00    -0.072 A 
ENDROOT
TORSDOF 0
ENDMDL
