MODEL 1
REMARK minimizedAffinity 0.251067847
REMARK minimizedRMSD -1
REMARK  0 active torsions:
REMARK  status: ('A' for Active; 'I' for Inactive)
ROOT
ATOM      1  C1  DEN d   1      -2.743  -0.729  -2.353  0.00  0.00     0.130 A 
ATOM      2  C2  DEN d   1      -3.900  -0.103  -2.988  0.00  0.00    -0.031 A 
ATOM      3  C3  DEN d   1      -4.068   1.243  -2.403  0.00  0.00     0.027 A 
ATOM      4  C4  DEN d   1      -2.656   2.412  -0.589  0.00  0.00     0.027 A 
ATOM      5  C5  DEN d   1      -1.578   2.272   0.258  0.00  0.00    -0.003 A 
ATOM      6  C6  DEN d   1      -0.841   1.120   0.318  0.00  0.00     0.001 A 
ATOM      7  C7  DEN d   1      -1.143   0.076  -0.516  0.00  0.00     0.017 A 
ATOM      8  C8  DEN d   1      -2.233   0.207  -1.368  0.00  0.00    -0.094 A 
ATOM      9  C9  DEN d   1      -2.958   1.384  -1.422  0.00  0.00    -0.072 A 
ENDROOT
TORSDOF 0
ENDMDL
