MODEL 1
REMARK minimizedAffinity 9.72560978
REMARK minimizedRMSD -1
REMARK  0 active torsions:
REMARK  status: ('A' for Active; 'I' for Inactive)
ROOT
ATOM      1  C1  DEN d   1      -4.494  -2.932  -2.906  0.00  0.00     0.130 A 
ATOM      2  C2  DEN d   1      -5.423  -1.915  -3.393  0.00  0.00    -0.031 A 
ATOM      3  C3  DEN d   1      -5.950  -2.366  -4.697  0.00  0.00     0.027 A 
ATOM      4  C4  DEN d   1      -5.424  -4.529  -6.000  0.00  0.00     0.027 A 
ATOM      5  C5  DEN d   1      -4.687  -5.692  -5.993  0.00  0.00    -0.003 A 
ATOM      6  C6  DEN d   1      -3.814  -5.998  -4.982  0.00  0.00     0.001 A 
ATOM      7  C7  DEN d   1      -3.692  -5.151  -3.912  0.00  0.00     0.017 A 
ATOM      8  C8  DEN d   1      -4.427  -3.973  -3.915  0.00  0.00    -0.094 A 
ATOM      9  C9  DEN d   1      -5.312  -3.688  -4.941  0.00  0.00    -0.072 A 
ENDROOT
TORSDOF 0
ENDMDL
