MODEL 1
REMARK minimizedAffinity 1.64391911
REMARK minimizedRMSD -1
REMARK  0 active torsions:
REMARK  status: ('A' for Active; 'I' for Inactive)
ROOT
ATOM      1  C1  DEN d   1       2.685  -1.208   3.013  0.00  0.00     0.130 A 
ATOM      2  C2  DEN d   1       1.346  -1.329   2.442  0.00  0.00    -0.031 A 
ATOM      3  C3  DEN d   1       1.469  -1.987   1.125  0.00  0.00     0.027 A 
ATOM      4  C4  DEN d   1       3.590  -2.830  -0.076  0.00  0.00     0.027 A 
ATOM      5  C5  DEN d   1       4.961  -2.937   0.010  0.00  0.00    -0.003 A 
ATOM      6  C6  DEN d   1       5.666  -2.450   1.078  0.00  0.00     0.001 A 
ATOM      7  C7  DEN d   1       4.999  -1.872   2.125  0.00  0.00     0.017 A 
ATOM      8  C8  DEN d   1       3.618  -1.753   2.043  0.00  0.00    -0.094 A 
ATOM      9  C9  DEN d   1       2.921  -2.263   0.960  0.00  0.00    -0.072 A 
ENDROOT
TORSDOF 0
ENDMDL
