MODEL 1
REMARK minimizedAffinity -1.92933095
REMARK minimizedRMSD -1
REMARK  0 active torsions:
REMARK  status: ('A' for Active; 'I' for Inactive)
ROOT
ATOM      1  C2' OXE d   1      -0.094  -4.739  -0.773  0.00  0.00     0.078 C 
ATOM      2  C1' OXE d   1      -2.252  -4.734   1.021  0.00  0.00     0.078 C 
ATOM      3  C1  OXE d   1      -2.513  -5.195  -0.391  0.00  0.00    -0.078 A 
ATOM      4  C2  OXE d   1      -1.461  -5.150  -1.274  0.00  0.00    -0.078 A 
ATOM      5  C3  OXE d   1      -1.633  -5.616  -2.575  0.00  0.00     0.003 A 
ATOM      6  C4  OXE d   1      -2.904  -5.985  -3.034  0.00  0.00    -0.002 A 
ATOM      7  C5  OXE d   1      -3.997  -6.000  -2.161  0.00  0.00    -0.002 A 
ATOM      8  C6  OXE d   1      -3.810  -5.649  -0.828  0.00  0.00     0.003 A 
ENDROOT
TORSDOF 0
ENDMDL
