MODEL 1
REMARK minimizedAffinity -3.93564606
REMARK minimizedRMSD -1
REMARK  0 active torsions:
REMARK  status: ('A' for Active; 'I' for Inactive)
ROOT
ATOM      1  C2' OXE d   1       0.399  -5.947  -4.104  0.00  0.00     0.078 C 
ATOM      2  C1' OXE d   1      -1.876  -5.964  -5.748  0.00  0.00     0.078 C 
ATOM      3  C1  OXE d   1      -2.088  -5.960  -4.254  0.00  0.00    -0.078 A 
ATOM      4  C2  OXE d   1      -0.969  -5.999  -3.457  0.00  0.00    -0.078 A 
ATOM      5  C3  OXE d   1      -1.106  -5.941  -2.073  0.00  0.00     0.003 A 
ATOM      6  C4  OXE d   1      -2.374  -5.999  -1.484  0.00  0.00    -0.002 A 
ATOM      7  C5  OXE d   1      -3.527  -6.000  -2.277  0.00  0.00    -0.002 A 
ATOM      8  C6  OXE d   1      -3.401  -5.938  -3.661  0.00  0.00     0.003 A 
ENDROOT
TORSDOF 0
ENDMDL
