MODEL 1
REMARK minimizedAffinity -0.804732203
REMARK minimizedRMSD -1
REMARK  0 active torsions:
REMARK  status: ('A' for Active; 'I' for Inactive)
ROOT
ATOM      1  C2' OXE d   1       1.499  -4.661   5.999  0.00  0.00     0.078 C 
ATOM      2  C1' OXE d   1       2.821  -6.000   3.916  0.00  0.00     0.078 C 
ATOM      3  C1  OXE d   1       2.356  -4.588   3.661  0.00  0.00    -0.078 A 
ATOM      4  C2  OXE d   1       1.668  -3.957   4.670  0.00  0.00    -0.078 A 
ATOM      5  C3  OXE d   1       1.264  -2.635   4.507  0.00  0.00     0.003 A 
ATOM      6  C4  OXE d   1       1.416  -1.995   3.271  0.00  0.00    -0.002 A 
ATOM      7  C5  OXE d   1       2.078  -2.634   2.217  0.00  0.00    -0.002 A 
ATOM      8  C6  OXE d   1       2.590  -3.912   2.409  0.00  0.00     0.003 A 
ENDROOT
TORSDOF 0
ENDMDL
