MODEL 1
REMARK minimizedAffinity -3.69808865
REMARK minimizedRMSD -1
REMARK  0 active torsions:
REMARK  status: ('A' for Active; 'I' for Inactive)
ROOT
ATOM      1  C2' OXE d   1       2.695  -1.832   3.372  0.00  0.00     0.078 C 
ATOM      2  C1' OXE d   1       0.522  -3.151   2.182  0.00  0.00     0.078 C 
ATOM      3  C1  OXE d   1       1.068  -3.716   3.469  0.00  0.00    -0.078 A 
ATOM      4  C2  OXE d   1       2.161  -3.091   4.020  0.00  0.00    -0.078 A 
ATOM      5  C3  OXE d   1       2.671  -3.539   5.236  0.00  0.00     0.003 A 
ATOM      6  C4  OXE d   1       2.178  -4.710   5.823  0.00  0.00    -0.002 A 
ATOM      7  C5  OXE d   1       1.090  -5.384   5.258  0.00  0.00    -0.002 A 
ATOM      8  C6  OXE d   1       0.498  -4.877   4.107  0.00  0.00     0.003 A 
ENDROOT
TORSDOF 0
ENDMDL
