MODEL 1
REMARK minimizedAffinity -1.09751999
REMARK minimizedRMSD -1
REMARK  0 active torsions:
REMARK  status: ('A' for Active; 'I' for Inactive)
ROOT
ATOM      1  C2' OXE d   1      -1.856  -5.957  -5.293  0.00  0.00     0.078 C 
ATOM      2  C1' OXE d   1      -2.663  -5.966  -2.604  0.00  0.00     0.078 C 
ATOM      3  C1  OXE d   1      -1.190  -5.824  -2.896  0.00  0.00    -0.078 A 
ATOM      4  C2  OXE d   1      -0.800  -5.867  -4.213  0.00  0.00    -0.078 A 
ATOM      5  C3  OXE d   1       0.541  -5.685  -4.541  0.00  0.00     0.003 A 
ATOM      6  C4  OXE d   1       1.513  -5.612  -3.536  0.00  0.00    -0.002 A 
ATOM      7  C5  OXE d   1       1.140  -5.606  -2.187  0.00  0.00    -0.002 A 
ATOM      8  C6  OXE d   1      -0.208  -5.668  -1.852  0.00  0.00     0.003 A 
ENDROOT
TORSDOF 0
ENDMDL
