MODEL 1
REMARK minimizedAffinity -2.71699357
REMARK minimizedRMSD -1
REMARK  0 active torsions:
REMARK  status: ('A' for Active; 'I' for Inactive)
ROOT
ATOM      1  C2' OXE d   1       2.633  -5.835   3.382  0.00  0.00     0.078 C 
ATOM      2  C1' OXE d   1       2.314  -4.858   5.994  0.00  0.00     0.078 C 
ATOM      3  C1  OXE d   1       2.030  -3.916   4.851  0.00  0.00    -0.078 A 
ATOM      4  C2  OXE d   1       2.234  -4.388   3.577  0.00  0.00    -0.078 A 
ATOM      5  C3  OXE d   1       1.934  -3.578   2.486  0.00  0.00     0.003 A 
ATOM      6  C4  OXE d   1       1.575  -2.238   2.675  0.00  0.00    -0.002 A 
ATOM      7  C5  OXE d   1       1.400  -1.725   3.965  0.00  0.00    -0.002 A 
ATOM      8  C6  OXE d   1       1.582  -2.561   5.061  0.00  0.00     0.003 A 
ENDROOT
TORSDOF 0
ENDMDL
