MODEL 1
REMARK minimizedAffinity -3.74905634
REMARK minimizedRMSD -1
REMARK  0 active torsions:
REMARK  status: ('A' for Active; 'I' for Inactive)
ROOT
ATOM      1  C2' OXE d   1      -1.828  -5.999  -3.288  0.00  0.00     0.078 C 
ATOM      2  C1' OXE d   1      -1.085  -5.981  -5.995  0.00  0.00     0.078 C 
ATOM      3  C1  OXE d   1       0.011  -5.886  -4.964  0.00  0.00    -0.078 A 
ATOM      4  C2  OXE d   1      -0.365  -5.848  -3.642  0.00  0.00    -0.078 A 
ATOM      5  C3  OXE d   1       0.610  -5.816  -2.649  0.00  0.00     0.003 A 
ATOM      6  C4  OXE d   1       1.961  -5.667  -2.986  0.00  0.00    -0.002 A 
ATOM      7  C5  OXE d   1       2.362  -5.664  -4.326  0.00  0.00    -0.002 A 
ATOM      8  C6  OXE d   1       1.406  -5.815  -5.324  0.00  0.00     0.003 A 
ENDROOT
TORSDOF 0
ENDMDL
