MODEL 1
REMARK minimizedAffinity -5.97587585
REMARK minimizedRMSD -1
REMARK  0 active torsions:
REMARK  status: ('A' for Active; 'I' for Inactive)
ROOT
ATOM      1  C2' OXE d   1       1.223  -1.329   1.484  0.00  0.00     0.078 C 
ATOM      2  C1' OXE d   1      -0.212  -3.603   0.675  0.00  0.00     0.078 C 
ATOM      3  C1  OXE d   1       0.343  -3.583   2.078  0.00  0.00    -0.078 A 
ATOM      4  C2  OXE d   1       1.083  -2.487   2.449  0.00  0.00    -0.078 A 
ATOM      5  C3  OXE d   1       1.572  -2.393   3.749  0.00  0.00     0.003 A 
ATOM      6  C4  OXE d   1       1.447  -3.472   4.633  0.00  0.00    -0.002 A 
ATOM      7  C5  OXE d   1       0.731  -4.615   4.261  0.00  0.00    -0.002 A 
ATOM      8  C6  OXE d   1       0.138  -4.669   3.005  0.00  0.00     0.003 A 
ENDROOT
TORSDOF 0
ENDMDL
