MODEL 1
REMARK minimizedAffinity -3.24089289
REMARK minimizedRMSD -1
REMARK  0 active torsions:
REMARK  status: ('A' for Active; 'I' for Inactive)
ROOT
ATOM      1  C2' OXE d   1       0.142  -4.723   4.802  0.00  0.00     0.078 C 
ATOM      2  C1' OXE d   1       2.652  -3.836   5.692  0.00  0.00     0.078 C 
ATOM      3  C1  OXE d   1       2.045  -3.145   4.496  0.00  0.00    -0.078 A 
ATOM      4  C2  OXE d   1       0.838  -3.617   4.039  0.00  0.00    -0.078 A 
ATOM      5  C3  OXE d   1       0.208  -2.980   2.974  0.00  0.00     0.003 A 
ATOM      6  C4  OXE d   1       0.863  -1.964   2.267  0.00  0.00    -0.002 A 
ATOM      7  C5  OXE d   1       2.111  -1.496   2.692  0.00  0.00    -0.002 A 
ATOM      8  C6  OXE d   1       2.695  -2.045   3.828  0.00  0.00     0.003 A 
ENDROOT
TORSDOF 0
ENDMDL
