MODEL 1
REMARK minimizedAffinity -2.60575199
REMARK minimizedRMSD -1
REMARK  0 active torsions:
REMARK  status: ('A' for Active; 'I' for Inactive)
ROOT
ATOM      1  C2' OXE d   1      -1.353  -5.999  -1.626  0.00  0.00     0.078 C 
ATOM      2  C1' OXE d   1      -3.724  -5.997  -3.129  0.00  0.00     0.078 C 
ATOM      3  C1  OXE d   1      -2.415  -5.984  -3.879  0.00  0.00    -0.078 A 
ATOM      4  C2  OXE d   1      -1.261  -5.938  -3.136  0.00  0.00    -0.078 A 
ATOM      5  C3  OXE d   1      -0.026  -5.980  -3.777  0.00  0.00     0.003 A 
ATOM      6  C4  OXE d   1       0.050  -5.913  -5.173  0.00  0.00    -0.002 A 
ATOM      7  C5  OXE d   1      -1.114  -5.920  -5.949  0.00  0.00    -0.002 A 
ATOM      8  C6  OXE d   1      -2.351  -5.998  -5.320  0.00  0.00     0.003 A 
ENDROOT
TORSDOF 0
ENDMDL
