MODEL 1
REMARK minimizedAffinity -2.79935741
REMARK minimizedRMSD -1
REMARK  0 active torsions:
REMARK  status: ('A' for Active; 'I' for Inactive)
ROOT
ATOM      1  C2' OXE d   1      -1.745  -5.960  -4.555  0.00  0.00     0.078 C 
ATOM      2  C1' OXE d   1      -0.093  -5.938  -2.285  0.00  0.00     0.078 C 
ATOM      3  C1  OXE d   1      -1.586  -5.961  -2.069  0.00  0.00    -0.078 A 
ATOM      4  C2  OXE d   1      -2.387  -5.925  -3.185  0.00  0.00    -0.078 A 
ATOM      5  C3  OXE d   1      -3.769  -6.000  -3.044  0.00  0.00     0.003 A 
ATOM      6  C4  OXE d   1      -4.355  -5.957  -1.773  0.00  0.00    -0.002 A 
ATOM      7  C5  OXE d   1      -3.558  -5.954  -0.623  0.00  0.00    -0.002 A 
ATOM      8  C6  OXE d   1      -2.175  -5.999  -0.753  0.00  0.00     0.003 A 
ENDROOT
TORSDOF 0
ENDMDL
