MODEL 1
REMARK minimizedAffinity 0.825044453
REMARK minimizedRMSD -1
REMARK  0 active torsions:
REMARK  status: ('A' for Active; 'I' for Inactive)
ROOT
ATOM      1  C2' OXE d   1      -3.419  -4.228   2.964  0.00  0.00     0.078 C 
ATOM      2  C1' OXE d   1      -2.169  -4.090   0.454  0.00  0.00     0.078 C 
ATOM      3  C1  OXE d   1      -3.522  -4.753   0.531  0.00  0.00    -0.078 A 
ATOM      4  C2  OXE d   1      -4.105  -4.858   1.770  0.00  0.00    -0.078 A 
ATOM      5  C3  OXE d   1      -5.377  -5.411   1.889  0.00  0.00     0.003 A 
ATOM      6  C4  OXE d   1      -6.000  -6.000   0.782  0.00  0.00    -0.002 A 
ATOM      7  C5  OXE d   1      -5.405  -5.939  -0.482  0.00  0.00    -0.002 A 
ATOM      8  C6  OXE d   1      -4.189  -5.283  -0.633  0.00  0.00     0.003 A 
ENDROOT
TORSDOF 0
ENDMDL
