MODEL 1
REMARK minimizedAffinity 5.33461142
REMARK minimizedRMSD -1
REMARK  0 active torsions:
REMARK  status: ('A' for Active; 'I' for Inactive)
ROOT
ATOM      1  C2' OXE d   1      -0.377  -0.299  -1.911  0.00  0.00     0.078 C 
ATOM      2  C1' OXE d   1      -0.821  -2.801  -0.719  0.00  0.00     0.078 C 
ATOM      3  C1  OXE d   1       0.117  -1.847  -0.023  0.00  0.00    -0.078 A 
ATOM      4  C2  OXE d   1       0.365  -0.643  -0.637  0.00  0.00    -0.078 A 
ATOM      5  C3  OXE d   1       1.179   0.296  -0.011  0.00  0.00     0.003 A 
ATOM      6  C4  OXE d   1       1.869  -0.034   1.162  0.00  0.00    -0.002 A 
ATOM      7  C5  OXE d   1       1.662  -1.270   1.783  0.00  0.00    -0.002 A 
ATOM      8  C6  OXE d   1       0.759  -2.170   1.228  0.00  0.00     0.003 A 
ENDROOT
TORSDOF 0
ENDMDL
