MODEL 1
REMARK minimizedAffinity 2.76609612
REMARK minimizedRMSD -1
REMARK  0 active torsions:
REMARK  status: ('A' for Active; 'I' for Inactive)
ROOT
ATOM      1  C2' OXE d   1       2.371  -4.444  -3.499  0.00  0.00     0.078 C 
ATOM      2  C1' OXE d   1       2.496  -5.715  -5.999  0.00  0.00     0.078 C 
ATOM      3  C1  OXE d   1       1.140  -5.552  -5.360  0.00  0.00    -0.078 A 
ATOM      4  C2  OXE d   1       1.093  -4.971  -4.115  0.00  0.00    -0.078 A 
ATOM      5  C3  OXE d   1      -0.137  -4.748  -3.505  0.00  0.00     0.003 A 
ATOM      6  C4  OXE d   1      -1.313  -5.247  -4.076  0.00  0.00    -0.002 A 
ATOM      7  C5  OXE d   1      -1.284  -5.878  -5.325  0.00  0.00    -0.002 A 
ATOM      8  C6  OXE d   1      -0.073  -6.000  -5.998  0.00  0.00     0.003 A 
ENDROOT
TORSDOF 0
ENDMDL
