MODEL 1
REMARK minimizedAffinity 9.86042118
REMARK minimizedRMSD -1
REMARK  0 active torsions:
REMARK  status: ('A' for Active; 'I' for Inactive)
ROOT
ATOM      1  C2' OXE d   1       1.450  -1.503   3.751  0.00  0.00     0.078 C 
ATOM      2  C1' OXE d   1       1.879  -0.783   1.072  0.00  0.00     0.078 C 
ATOM      3  C1  OXE d   1       3.083  -0.879   1.976  0.00  0.00    -0.078 A 
ATOM      4  C2  OXE d   1       2.859  -1.187   3.296  0.00  0.00    -0.078 A 
ATOM      5  C3  OXE d   1       3.938  -1.342   4.161  0.00  0.00     0.003 A 
ATOM      6  C4  OXE d   1       5.237  -1.037   3.735  0.00  0.00    -0.002 A 
ATOM      7  C5  OXE d   1       5.483  -0.684   2.404  0.00  0.00    -0.002 A 
ATOM      8  C6  OXE d   1       4.424  -0.641   1.503  0.00  0.00     0.003 A 
ENDROOT
TORSDOF 0
ENDMDL
