MODEL 1
REMARK minimizedAffinity 9.53757954
REMARK minimizedRMSD -1
REMARK  0 active torsions:
REMARK  status: ('A' for Active; 'I' for Inactive)
ROOT
ATOM      1  C2' OXE d   1      -3.359  -1.684  -0.005  0.00  0.00     0.078 C 
ATOM      2  C1' OXE d   1      -5.500  -0.300   1.170  0.00  0.00     0.078 C 
ATOM      3  C1  OXE d   1      -5.208  -0.038  -0.287  0.00  0.00    -0.078 A 
ATOM      4  C2  OXE d   1      -4.129  -0.685  -0.841  0.00  0.00    -0.078 A 
ATOM      5  C3  OXE d   1      -3.848  -0.520  -2.194  0.00  0.00     0.003 A 
ATOM      6  C4  OXE d   1      -4.559   0.414  -2.958  0.00  0.00    -0.002 A 
ATOM      7  C5  OXE d   1      -5.636   1.112  -2.402  0.00  0.00    -0.002 A 
ATOM      8  C6  OXE d   1      -6.000   0.867  -1.083  0.00  0.00     0.003 A 
ENDROOT
TORSDOF 0
ENDMDL
