MODEL 1
REMARK minimizedAffinity -0.63676995
REMARK minimizedRMSD -1
REMARK  0 active torsions:
REMARK  status: ('A' for Active; 'I' for Inactive)
ROOT
ATOM      1  C2' OXE d   1      -4.111  -2.097  -1.198  0.00  0.00     0.078 C 
ATOM      2  C1' OXE d   1      -5.388  -0.203   0.434  0.00  0.00     0.078 C 
ATOM      3  C1  OXE d   1      -4.835   0.267  -0.889  0.00  0.00    -0.078 A 
ATOM      4  C2  OXE d   1      -4.171  -0.657  -1.660  0.00  0.00    -0.078 A 
ATOM      5  C3  OXE d   1      -3.689  -0.289  -2.913  0.00  0.00     0.003 A 
ATOM      6  C4  OXE d   1      -3.740   1.047  -3.328  0.00  0.00    -0.002 A 
ATOM      7  C5  OXE d   1      -4.377   2.011  -2.540  0.00  0.00    -0.002 A 
ATOM      8  C6  OXE d   1      -4.966   1.630  -1.340  0.00  0.00     0.003 A 
ENDROOT
TORSDOF 0
ENDMDL
