MODEL 1
REMARK minimizedAffinity -4.3743434
REMARK minimizedRMSD -1
REMARK  0 active torsions:
REMARK  status: ('A' for Active; 'I' for Inactive)
ROOT
ATOM      1  C   UNL d   1      -1.124   0.327   0.825  0.00  0.00     0.078 C 
ATOM      2  C1  UNL d   1       0.117  -0.461   1.120  0.00  0.00    -0.077 A 
ATOM      3  C2  UNL d   1       0.425  -0.858   2.427  0.00  0.00    -0.001 A 
ATOM      4  C3  UNL d   1       1.589  -1.582   2.689  0.00  0.00     0.003 A 
ATOM      5  C4  UNL d   1       2.454  -1.916   1.649  0.00  0.00    -0.005 A 
ATOM      6  C5  UNL d   1       2.157  -1.525   0.346  0.00  0.00     0.003 A 
ATOM      7  C6  UNL d   1       0.994  -0.800   0.082  0.00  0.00    -0.001 A 
ENDROOT
TORSDOF 0
ENDMDL
