MODEL 1
REMARK minimizedAffinity -5.02092505
REMARK minimizedRMSD -1
REMARK  0 active torsions:
REMARK  status: ('A' for Active; 'I' for Inactive)
ROOT
ATOM      1  C   UNL d   1      -0.383   0.209  -1.088  0.00  0.00     0.078 C 
ATOM      2  C1  UNL d   1       0.254  -0.108   0.232  0.00  0.00    -0.077 A 
ATOM      3  C2  UNL d   1      -0.523  -0.293   1.382  0.00  0.00    -0.001 A 
ATOM      4  C3  UNL d   1       0.084  -0.579   2.606  0.00  0.00     0.003 A 
ATOM      5  C4  UNL d   1       1.471  -0.681   2.692  0.00  0.00    -0.005 A 
ATOM      6  C5  UNL d   1       2.253  -0.497   1.554  0.00  0.00     0.003 A 
ATOM      7  C6  UNL d   1       1.648  -0.211   0.329  0.00  0.00    -0.001 A 
ENDROOT
TORSDOF 0
ENDMDL
