MODEL 1
REMARK minimizedAffinity -5.1708498
REMARK minimizedRMSD -1
REMARK  0 active torsions:
REMARK  status: ('A' for Active; 'I' for Inactive)
ROOT
ATOM      1  C   UNL d   1       0.110   0.146  -0.919  0.00  0.00     0.078 C 
ATOM      2  C1  UNL d   1       0.880  -0.445   0.223  0.00  0.00    -0.077 A 
ATOM      3  C2  UNL d   1       1.945  -1.326  -0.004  0.00  0.00    -0.001 A 
ATOM      4  C3  UNL d   1       2.648  -1.876   1.069  0.00  0.00     0.003 A 
ATOM      5  C4  UNL d   1       2.292  -1.553   2.377  0.00  0.00    -0.005 A 
ATOM      6  C5  UNL d   1       1.233  -0.679   2.613  0.00  0.00     0.003 A 
ATOM      7  C6  UNL d   1       0.529  -0.128   1.541  0.00  0.00    -0.001 A 
ENDROOT
TORSDOF 0
ENDMDL
