MODEL 1
REMARK minimizedAffinity -5.31907654
REMARK minimizedRMSD -1
REMARK  0 active torsions:
REMARK  status: ('A' for Active; 'I' for Inactive)
ROOT
ATOM      1  C   UNL d   1      -0.241   0.038  -1.112  0.00  0.00     0.078 C 
ATOM      2  C1  UNL d   1       0.603  -0.567  -0.030  0.00  0.00    -0.077 A 
ATOM      3  C2  UNL d   1       1.787  -1.249  -0.336  0.00  0.00    -0.001 A 
ATOM      4  C3  UNL d   1       2.558  -1.815   0.681  0.00  0.00     0.003 A 
ATOM      5  C4  UNL d   1       2.153  -1.706   2.010  0.00  0.00    -0.005 A 
ATOM      6  C5  UNL d   1       0.976  -1.030   2.323  0.00  0.00     0.003 A 
ATOM      7  C6  UNL d   1       0.203  -0.463   1.308  0.00  0.00    -0.001 A 
ENDROOT
TORSDOF 0
ENDMDL
