MODEL 1
REMARK minimizedAffinity -5.64837503
REMARK minimizedRMSD -1
REMARK  0 active torsions:
REMARK  status: ('A' for Active; 'I' for Inactive)
ROOT
ATOM      1  C   UNL d   1      -0.038   0.323  -1.269  0.00  0.00     0.078 C 
ATOM      2  C1  UNL d   1       0.509  -0.207   0.023  0.00  0.00    -0.077 A 
ATOM      3  C2  UNL d   1       1.827  -0.673   0.110  0.00  0.00    -0.001 A 
ATOM      4  C3  UNL d   1       2.321  -1.173   1.317  0.00  0.00     0.003 A 
ATOM      5  C4  UNL d   1       1.503  -1.212   2.444  0.00  0.00    -0.005 A 
ATOM      6  C5  UNL d   1       0.190  -0.753   2.366  0.00  0.00     0.003 A 
ATOM      7  C6  UNL d   1      -0.305  -0.253   1.161  0.00  0.00    -0.001 A 
ENDROOT
TORSDOF 0
ENDMDL
