MODEL 1
REMARK minimizedAffinity -5.8326931
REMARK minimizedRMSD -1
REMARK  0 active torsions:
REMARK  status: ('A' for Active; 'I' for Inactive)
ROOT
ATOM      1  C   UNL d   1      -0.084   0.218  -0.892  0.00  0.00     0.078 C 
ATOM      2  C1  UNL d   1       0.437  -0.243   0.436  0.00  0.00    -0.077 A 
ATOM      3  C2  UNL d   1       1.727  -0.774   0.561  0.00  0.00    -0.001 A 
ATOM      4  C3  UNL d   1       2.195  -1.208   1.802  0.00  0.00     0.003 A 
ATOM      5  C4  UNL d   1       1.379  -1.116   2.928  0.00  0.00    -0.005 A 
ATOM      6  C5  UNL d   1       0.094  -0.591   2.814  0.00  0.00     0.003 A 
ATOM      7  C6  UNL d   1      -0.376  -0.157   1.573  0.00  0.00    -0.001 A 
ENDROOT
TORSDOF 0
ENDMDL
