MODEL 1
REMARK minimizedAffinity -5.39085627
REMARK minimizedRMSD -1
REMARK  0 active torsions:
REMARK  status: ('A' for Active; 'I' for Inactive)
ROOT
ATOM      1  C   UNL d   1      -0.412   0.431  -0.978  0.00  0.00     0.078 C 
ATOM      2  C1  UNL d   1       0.115  -0.053   0.339  0.00  0.00    -0.077 A 
ATOM      3  C2  UNL d   1      -0.625   0.112   1.517  0.00  0.00    -0.001 A 
ATOM      4  C3  UNL d   1      -0.117  -0.335   2.738  0.00  0.00     0.003 A 
ATOM      5  C4  UNL d   1       1.133  -0.948   2.793  0.00  0.00    -0.005 A 
ATOM      6  C5  UNL d   1       1.877  -1.114   1.628  0.00  0.00     0.003 A 
ATOM      7  C6  UNL d   1       1.371  -0.668   0.406  0.00  0.00    -0.001 A 
ENDROOT
TORSDOF 0
ENDMDL
