MODEL 1
REMARK minimizedAffinity -5.56629419
REMARK minimizedRMSD -1
REMARK  0 active torsions:
REMARK  status: ('A' for Active; 'I' for Inactive)
ROOT
ATOM      1  C   UNL d   1       0.093   0.263  -0.879  0.00  0.00     0.078 C 
ATOM      2  C1  UNL d   1       0.925  -0.445   0.148  0.00  0.00    -0.077 A 
ATOM      3  C2  UNL d   1       1.978  -1.286  -0.231  0.00  0.00    -0.001 A 
ATOM      4  C3  UNL d   1       2.737  -1.947   0.735  0.00  0.00     0.003 A 
ATOM      5  C4  UNL d   1       2.451  -1.775   2.088  0.00  0.00    -0.005 A 
ATOM      6  C5  UNL d   1       1.403  -0.942   2.476  0.00  0.00     0.003 A 
ATOM      7  C6  UNL d   1       0.643  -0.280   1.510  0.00  0.00    -0.001 A 
ENDROOT
TORSDOF 0
ENDMDL
