MODEL 1
REMARK minimizedAffinity -4.88800097
REMARK minimizedRMSD -1
REMARK  0 active torsions:
REMARK  status: ('A' for Active; 'I' for Inactive)
ROOT
ATOM      1  C   UNL d   1      -0.481   0.701  -0.807  0.00  0.00     0.078 C 
ATOM      2  C1  UNL d   1       0.058  -0.002   0.403  0.00  0.00    -0.077 A 
ATOM      3  C2  UNL d   1       1.358  -0.521   0.416  0.00  0.00    -0.001 A 
ATOM      4  C3  UNL d   1       1.843  -1.182   1.546  0.00  0.00     0.003 A 
ATOM      5  C4  UNL d   1       1.034  -1.331   2.671  0.00  0.00    -0.005 A 
ATOM      6  C5  UNL d   1      -0.262  -0.819   2.666  0.00  0.00     0.003 A 
ATOM      7  C6  UNL d   1      -0.749  -0.158   1.537  0.00  0.00    -0.001 A 
ENDROOT
TORSDOF 0
ENDMDL
