MODEL 1
REMARK minimizedAffinity -4.4949646
REMARK minimizedRMSD -1
REMARK  2 active torsions:
REMARK  status: ('A' for Active; 'I' for Inactive)
REMARK    1  A    between atoms: C1_2  and  C2_3 
REMARK    2  A    between atoms: C2_3  and  C3_4 
ROOT
ATOM      1  C3  UNL d   1      -1.546  -0.302  -0.257  0.00  0.00    -0.075 A 
ATOM      2  C4  UNL d   1      -0.900   0.281  -1.356  0.00  0.00     0.002 A 
ATOM      3  C5  UNL d   1       0.475   0.515  -1.328  0.00  0.00     0.002 A 
ATOM      4  C6  UNL d   1       1.219   0.179  -0.199  0.00  0.00    -0.004 A 
ATOM      5  C7  UNL d   1       0.585  -0.386   0.906  0.00  0.00     0.002 A 
ATOM      6  C8  UNL d   1      -0.790  -0.625   0.878  0.00  0.00     0.002 A 
ENDROOT
BRANCH   1   7
ATOM      7  C2  UNL d   1      -3.029  -0.585  -0.293  0.00  0.00     0.056 C 
BRANCH   7   8
ATOM      8  C1  UNL d   1      -3.391  -2.050  -0.025  0.00  0.00     0.007 C 
ATOM      9  C   UNL d   1      -2.699  -3.022  -0.972  0.00  0.00     0.009 C 
ENDBRANCH   7   8
ENDBRANCH   1   7
TORSDOF 2
ENDMDL
