MODEL 1
REMARK minimizedAffinity -5.19641781
REMARK minimizedRMSD -1
REMARK  2 active torsions:
REMARK  status: ('A' for Active; 'I' for Inactive)
REMARK    1  A    between atoms: C1_2  and  C2_3 
REMARK    2  A    between atoms: C2_3  and  C3_4 
ROOT
ATOM      1  C3  UNL d   1       0.898   0.935   0.485  0.00  0.00    -0.075 A 
ATOM      2  C4  UNL d   1       0.379   2.150   0.954  0.00  0.00     0.002 A 
ATOM      3  C5  UNL d   1       1.233   3.188   1.328  0.00  0.00     0.002 A 
ATOM      4  C6  UNL d   1       2.614   3.021   1.247  0.00  0.00    -0.004 A 
ATOM      5  C7  UNL d   1       3.141   1.812   0.798  0.00  0.00     0.002 A 
ATOM      6  C8  UNL d   1       2.288   0.774   0.419  0.00  0.00     0.002 A 
ENDROOT
BRANCH   1   7
ATOM      7  C2  UNL d   1      -0.022  -0.182   0.051  0.00  0.00     0.056 C 
BRANCH   7   8
ATOM      8  C1  UNL d   1      -1.163   0.271  -0.865  0.00  0.00     0.007 C 
ATOM      9  C   UNL d   1      -2.026  -0.881  -1.363  0.00  0.00     0.009 C 
ENDBRANCH   7   8
ENDBRANCH   1   7
TORSDOF 2
ENDMDL
