MODEL 1
REMARK minimizedAffinity -4.9165206
REMARK minimizedRMSD -1
REMARK  2 active torsions:
REMARK  status: ('A' for Active; 'I' for Inactive)
REMARK    1  A    between atoms: C1_2  and  C2_3 
REMARK    2  A    between atoms: C2_3  and  C3_4 
ROOT
ATOM      1  C3  UNL d   1       0.073   0.131  -0.076  0.00  0.00    -0.075 A 
ATOM      2  C4  UNL d   1      -0.307   0.169  -1.425  0.00  0.00     0.002 A 
ATOM      3  C5  UNL d   1      -1.616  -0.134  -1.801  0.00  0.00     0.002 A 
ATOM      4  C6  UNL d   1      -2.557  -0.488  -0.837  0.00  0.00    -0.004 A 
ATOM      5  C7  UNL d   1      -2.186  -0.546   0.505  0.00  0.00     0.002 A 
ATOM      6  C8  UNL d   1      -0.878  -0.239   0.884  0.00  0.00     0.002 A 
ENDROOT
BRANCH   1   7
ATOM      7  C2  UNL d   1       1.480   0.486   0.341  0.00  0.00     0.056 C 
BRANCH   7   8
ATOM      8  C1  UNL d   1       1.561   1.646   1.339  0.00  0.00     0.007 C 
ATOM      9  C   UNL d   1       2.615   2.682   0.972  0.00  0.00     0.009 C 
ENDBRANCH   7   8
ENDBRANCH   1   7
TORSDOF 2
ENDMDL
