MODEL 1
REMARK minimizedAffinity 2.16351295
REMARK minimizedRMSD -1
REMARK  2 active torsions:
REMARK  status: ('A' for Active; 'I' for Inactive)
REMARK    1  A    between atoms: C1_2  and  C2_3 
REMARK    2  A    between atoms: C2_3  and  C3_4 
ROOT
ATOM      1  C3  UNL d   1      -0.549  -0.600  -0.220  0.00  0.00    -0.075 A 
ATOM      2  C4  UNL d   1      -1.608  -0.090  -0.985  0.00  0.00     0.002 A 
ATOM      3  C5  UNL d   1      -1.371   0.455  -2.248  0.00  0.00     0.002 A 
ATOM      4  C6  UNL d   1      -0.075   0.505  -2.756  0.00  0.00    -0.004 A 
ATOM      5  C7  UNL d   1       0.987   0.016  -1.997  0.00  0.00     0.002 A 
ATOM      6  C8  UNL d   1       0.752  -0.533  -0.736  0.00  0.00     0.002 A 
ENDROOT
BRANCH   1   7
ATOM      7  C2  UNL d   1      -0.803  -1.218   1.135  0.00  0.00     0.056 C 
BRANCH   7   8
ATOM      8  C1  UNL d   1      -1.023  -0.196   2.255  0.00  0.00     0.007 C 
ATOM      9  C   UNL d   1      -2.230  -0.513   3.128  0.00  0.00     0.009 C 
ENDBRANCH   7   8
ENDBRANCH   1   7
TORSDOF 2
ENDMDL
