MODEL 1
REMARK minimizedAffinity 1.82897496
REMARK minimizedRMSD -1
REMARK  2 active torsions:
REMARK  status: ('A' for Active; 'I' for Inactive)
REMARK    1  A    between atoms: C1_2  and  C2_3 
REMARK    2  A    between atoms: C2_3  and  C3_4 
ROOT
ATOM      1  C3  UNL d   1      -2.428  -0.227   3.501  0.00  0.00    -0.075 A 
ATOM      2  C4  UNL d   1      -3.108   0.794   4.179  0.00  0.00     0.002 A 
ATOM      3  C5  UNL d   1      -3.690   0.552   5.424  0.00  0.00     0.002 A 
ATOM      4  C6  UNL d   1      -3.609  -0.714   6.000  0.00  0.00    -0.004 A 
ATOM      5  C7  UNL d   1      -2.950  -1.740   5.327  0.00  0.00     0.002 A 
ATOM      6  C8  UNL d   1      -2.363  -1.500   4.084  0.00  0.00     0.002 A 
ENDROOT
BRANCH   1   7
ATOM      7  C2  UNL d   1      -1.771   0.036   2.167  0.00  0.00     0.056 C 
BRANCH   7   8
ATOM      8  C1  UNL d   1      -0.887  -1.113   1.670  0.00  0.00     0.007 C 
ATOM      9  C   UNL d   1      -0.176  -0.800   0.360  0.00  0.00     0.009 C 
ENDBRANCH   7   8
ENDBRANCH   1   7
TORSDOF 2
ENDMDL
