MODEL 1
REMARK minimizedAffinity -5.27730513
REMARK minimizedRMSD -1
REMARK  2 active torsions:
REMARK  status: ('A' for Active; 'I' for Inactive)
REMARK    1  A    between atoms: C1_2  and  C2_3 
REMARK    2  A    between atoms: C2_3  and  C3_4 
ROOT
ATOM      1  C3  UNL d   1      -0.234  -0.746  -0.044  0.00  0.00    -0.075 A 
ATOM      2  C4  UNL d   1       0.110  -1.630   0.988  0.00  0.00     0.002 A 
ATOM      3  C5  UNL d   1      -0.786  -2.617   1.403  0.00  0.00     0.002 A 
ATOM      4  C6  UNL d   1      -2.037  -2.724   0.800  0.00  0.00    -0.004 A 
ATOM      5  C7  UNL d   1      -2.395  -1.840  -0.215  0.00  0.00     0.002 A 
ATOM      6  C8  UNL d   1      -1.499  -0.855  -0.635  0.00  0.00     0.002 A 
ENDROOT
BRANCH   1   7
ATOM      7  C2  UNL d   1       0.742   0.305  -0.518  0.00  0.00     0.056 C 
BRANCH   7   8
ATOM      8  C1  UNL d   1       2.098   0.263   0.195  0.00  0.00     0.007 C 
ATOM      9  C   UNL d   1       2.928   1.522  -0.020  0.00  0.00     0.009 C 
ENDBRANCH   7   8
ENDBRANCH   1   7
TORSDOF 2
ENDMDL
