MODEL 1
REMARK minimizedAffinity -5.07289457
REMARK minimizedRMSD -1
REMARK  2 active torsions:
REMARK  status: ('A' for Active; 'I' for Inactive)
REMARK    1  A    between atoms: C1_2  and  C2_3 
REMARK    2  A    between atoms: C2_3  and  C3_4 
ROOT
ATOM      1  C3  UNL d   1      -0.059  -0.002  -0.257  0.00  0.00    -0.075 A 
ATOM      2  C4  UNL d   1      -0.750  -0.856   0.615  0.00  0.00     0.002 A 
ATOM      3  C5  UNL d   1      -2.120  -1.069   0.461  0.00  0.00     0.002 A 
ATOM      4  C6  UNL d   1      -2.818  -0.424  -0.558  0.00  0.00    -0.004 A 
ATOM      5  C7  UNL d   1      -2.145   0.440  -1.420  0.00  0.00     0.002 A 
ATOM      6  C8  UNL d   1      -0.773   0.651  -1.270  0.00  0.00     0.002 A 
ENDROOT
BRANCH   1   7
ATOM      7  C2  UNL d   1       1.429   0.210  -0.114  0.00  0.00     0.056 C 
BRANCH   7   8
ATOM      8  C1  UNL d   1       1.824   1.067   1.093  0.00  0.00     0.007 C 
ATOM      9  C   UNL d   1       2.811   2.174   0.746  0.00  0.00     0.009 C 
ENDBRANCH   7   8
ENDBRANCH   1   7
TORSDOF 2
ENDMDL
