MODEL 1
REMARK minimizedAffinity -5.50635147
REMARK minimizedRMSD -1
REMARK  2 active torsions:
REMARK  status: ('A' for Active; 'I' for Inactive)
REMARK    1  A    between atoms: C1_2  and  C2_3 
REMARK    2  A    between atoms: C2_3  and  C3_4 
ROOT
ATOM      1  C3  UNL d   1      -0.969  -0.809   0.345  0.00  0.00    -0.075 A 
ATOM      2  C4  UNL d   1      -0.638  -1.609   1.447  0.00  0.00     0.002 A 
ATOM      3  C5  UNL d   1      -1.460  -2.672   1.823  0.00  0.00     0.002 A 
ATOM      4  C6  UNL d   1      -2.625  -2.942   1.109  0.00  0.00    -0.004 A 
ATOM      5  C7  UNL d   1      -2.972  -2.142   0.021  0.00  0.00     0.002 A 
ATOM      6  C8  UNL d   1      -2.149  -1.081  -0.359  0.00  0.00     0.002 A 
ENDROOT
BRANCH   1   7
ATOM      7  C2  UNL d   1      -0.068   0.325  -0.085  0.00  0.00     0.056 C 
BRANCH   7   8
ATOM      8  C1  UNL d   1       1.425  -0.018  -0.053  0.00  0.00     0.007 C 
ATOM      9  C   UNL d   1       2.323   1.212  -0.038  0.00  0.00     0.009 C 
ENDBRANCH   7   8
ENDBRANCH   1   7
TORSDOF 2
ENDMDL
