MODEL 1
REMARK minimizedAffinity -6.24489069
REMARK minimizedRMSD -1
REMARK  2 active torsions:
REMARK  status: ('A' for Active; 'I' for Inactive)
REMARK    1  A    between atoms: C1_2  and  C2_3 
REMARK    2  A    between atoms: C2_3  and  C3_4 
ROOT
ATOM      1  C3  UNL d   1      -0.634  -0.368   0.294  0.00  0.00    -0.075 A 
ATOM      2  C4  UNL d   1      -1.658  -0.130  -0.634  0.00  0.00     0.002 A 
ATOM      3  C5  UNL d   1      -2.789  -0.947  -0.666  0.00  0.00     0.002 A 
ATOM      4  C6  UNL d   1      -2.905  -2.016   0.220  0.00  0.00    -0.004 A 
ATOM      5  C7  UNL d   1      -1.886  -2.271   1.135  0.00  0.00     0.002 A 
ATOM      6  C8  UNL d   1      -0.756  -1.453   1.172  0.00  0.00     0.002 A 
ENDROOT
BRANCH   1   7
ATOM      7  C2  UNL d   1       0.578   0.531   0.354  0.00  0.00     0.056 C 
BRANCH   7   8
ATOM      8  C1  UNL d   1       1.895  -0.175   0.012  0.00  0.00     0.007 C 
ATOM      9  C   UNL d   1       3.079   0.777  -0.083  0.00  0.00     0.009 C 
ENDBRANCH   7   8
ENDBRANCH   1   7
TORSDOF 2
ENDMDL
