MODEL 1
REMARK minimizedAffinity -1.23998797
REMARK minimizedRMSD -1
REMARK  2 active torsions:
REMARK  status: ('A' for Active; 'I' for Inactive)
REMARK    1  A    between atoms: C1_2  and  C2_3 
REMARK    2  A    between atoms: C2_3  and  C3_4 
ROOT
ATOM      1  C3  UNL d   1       1.820   1.343   0.513  0.00  0.00    -0.075 A 
ATOM      2  C4  UNL d   1       1.818   1.727   1.862  0.00  0.00     0.002 A 
ATOM      3  C5  UNL d   1       2.528   2.853   2.279  0.00  0.00     0.002 A 
ATOM      4  C6  UNL d   1       3.255   3.603   1.357  0.00  0.00    -0.004 A 
ATOM      5  C7  UNL d   1       3.276   3.222   0.017  0.00  0.00     0.002 A 
ATOM      6  C8  UNL d   1       2.564   2.098  -0.403  0.00  0.00     0.002 A 
ENDROOT
BRANCH   1   7
ATOM      7  C2  UNL d   1       1.030   0.142   0.051  0.00  0.00     0.056 C 
BRANCH   7   8
ATOM      8  C1  UNL d   1       0.097   0.427  -1.131  0.00  0.00     0.007 C 
ATOM      9  C   UNL d   1      -1.372   0.195  -0.805  0.00  0.00     0.009 C 
ENDBRANCH   7   8
ENDBRANCH   1   7
TORSDOF 2
ENDMDL
