MODEL 1
REMARK minimizedAffinity -4.48352671
REMARK minimizedRMSD -1
REMARK  2 active torsions:
REMARK  status: ('A' for Active; 'I' for Inactive)
REMARK    1  A    between atoms: C1_2  and  C2_3 
REMARK    2  A    between atoms: C2_3  and  C3_4 
ROOT
ATOM      1  C3  UNL d   1      -0.418  -0.869   0.431  0.00  0.00    -0.075 A 
ATOM      2  C4  UNL d   1      -0.952  -1.852   1.276  0.00  0.00     0.002 A 
ATOM      3  C5  UNL d   1      -2.279  -2.261   1.138  0.00  0.00     0.002 A 
ATOM      4  C6  UNL d   1      -3.090  -1.687   0.161  0.00  0.00    -0.004 A 
ATOM      5  C7  UNL d   1      -2.574  -0.698  -0.673  0.00  0.00     0.002 A 
ATOM      6  C8  UNL d   1      -1.246  -0.289  -0.540  0.00  0.00     0.002 A 
ENDROOT
BRANCH   1   7
ATOM      7  C2  UNL d   1       1.025  -0.443   0.556  0.00  0.00     0.056 C 
BRANCH   7   8
ATOM      8  C1  UNL d   1       1.426   0.691  -0.394  0.00  0.00     0.007 C 
ATOM      9  C   UNL d   1       2.194   1.810   0.297  0.00  0.00     0.009 C 
ENDBRANCH   7   8
ENDBRANCH   1   7
TORSDOF 2
ENDMDL
