MODEL 1
REMARK minimizedAffinity -2.09519625
REMARK minimizedRMSD -1
REMARK  1 active torsions:
REMARK  status: ('A' for Active; 'I' for Inactive)
REMARK    1  A    between atoms: N_2  and  C1_3 
ROOT
ATOM      1  C1  UNL d   1       0.337   0.614  -0.563  0.00  0.00     0.143 A 
ATOM      2  C2  UNL d   1       1.462   1.440  -0.468  0.00  0.00    -0.057 A 
ATOM      3  C3  UNL d   1       1.875   2.230  -1.548  0.00  0.00     0.033 A 
ATOM      4  C4  UNL d   1       1.184   2.187  -2.754  0.00  0.00    -0.042 A 
ATOM      5  C5  UNL d   1       0.077   1.355  -2.879  0.00  0.00     0.033 A 
ATOM      6  C6  UNL d   1      -0.334   0.573  -1.795  0.00  0.00    -0.057 A 
ENDROOT
BRANCH   1   7
ATOM      7  N   UNL d   1      -0.066  -0.269   0.442  0.00  0.00    -0.732 N 
ATOM      8  C   UNL d   1       0.611  -1.534   0.626  0.00  0.00     0.284 C 
ATOM      9  H3  UNL d   1      -0.298   0.209   1.310  0.00  0.00     0.395 HD
ENDBRANCH   1   7
TORSDOF 1
ENDMDL
