MODEL 1
REMARK minimizedAffinity 0.762815714
REMARK minimizedRMSD -1
REMARK  1 active torsions:
REMARK  status: ('A' for Active; 'I' for Inactive)
REMARK    1  A    between atoms: N_2  and  C1_3 
ROOT
ATOM      1  C1  UNL d   1       0.271   0.471  -0.148  0.00  0.00     0.143 A 
ATOM      2  C2  UNL d   1       0.742   1.773   0.052  0.00  0.00    -0.057 A 
ATOM      3  C3  UNL d   1       1.066   2.603  -1.028  0.00  0.00     0.033 A 
ATOM      4  C4  UNL d   1       0.951   2.133  -2.333  0.00  0.00    -0.042 A 
ATOM      5  C5  UNL d   1       0.509   0.834  -2.555  0.00  0.00     0.033 A 
ATOM      6  C6  UNL d   1       0.181   0.012  -1.472  0.00  0.00    -0.057 A 
ENDROOT
BRANCH   1   7
ATOM      7  N   UNL d   1       0.027  -0.435   0.886  0.00  0.00    -0.732 N 
ATOM      8  C   UNL d   1       0.701  -1.715   0.919  0.00  0.00     0.284 C 
ATOM      9  H3  UNL d   1      -0.046   0.020   1.793  0.00  0.00     0.395 HD
ENDBRANCH   1   7
TORSDOF 1
ENDMDL
