MODEL 1
REMARK minimizedAffinity -3.77993131
REMARK minimizedRMSD -1
REMARK  1 active torsions:
REMARK  status: ('A' for Active; 'I' for Inactive)
REMARK    1  A    between atoms: N_2  and  C1_3 
ROOT
ATOM      1  C1  UNL d   1      -0.188  -0.090   0.789  0.00  0.00     0.143 A 
ATOM      2  C2  UNL d   1       0.162  -1.408   1.103  0.00  0.00    -0.057 A 
ATOM      3  C3  UNL d   1      -0.576  -2.155   2.029  0.00  0.00     0.033 A 
ATOM      4  C4  UNL d   1      -1.666  -1.585   2.680  0.00  0.00    -0.042 A 
ATOM      5  C5  UNL d   1      -2.017  -0.269   2.402  0.00  0.00     0.033 A 
ATOM      6  C6  UNL d   1      -1.280   0.469   1.471  0.00  0.00    -0.057 A 
ENDROOT
BRANCH   1   7
ATOM      7  N   UNL d   1       0.565   0.736  -0.049  0.00  0.00    -0.732 N 
ATOM      8  C   UNL d   1       0.445   0.633  -1.487  0.00  0.00     0.284 C 
ATOM      9  H3  UNL d   1       0.621   1.692   0.296  0.00  0.00     0.395 HD
ENDBRANCH   1   7
TORSDOF 1
ENDMDL
