MODEL 1
REMARK minimizedAffinity -2.43877649
REMARK minimizedRMSD -1
REMARK  1 active torsions:
REMARK  status: ('A' for Active; 'I' for Inactive)
REMARK    1  A    between atoms: N_2  and  C1_3 
ROOT
ATOM      1  C1  UNL d   1      -0.027  -1.913   1.856  0.00  0.00     0.143 A 
ATOM      2  C2  UNL d   1       0.525  -0.947   1.008  0.00  0.00    -0.057 A 
ATOM      3  C3  UNL d   1      -0.240  -0.337   0.007  0.00  0.00     0.033 A 
ATOM      4  C4  UNL d   1      -1.568  -0.704  -0.183  0.00  0.00    -0.042 A 
ATOM      5  C5  UNL d   1      -2.131  -1.679   0.632  0.00  0.00     0.033 A 
ATOM      6  C6  UNL d   1      -1.364  -2.280   1.634  0.00  0.00    -0.057 A 
ENDROOT
BRANCH   1   7
ATOM      7  N   UNL d   1       0.708  -2.627   2.805  0.00  0.00    -0.732 N 
ATOM      8  C   UNL d   1       0.281  -2.671   4.187  0.00  0.00     0.284 C 
ATOM      9  H3  UNL d   1       1.046  -3.517   2.446  0.00  0.00     0.395 HD
ENDBRANCH   1   7
TORSDOF 1
ENDMDL
