MODEL 1
REMARK minimizedAffinity -4.12112379
REMARK minimizedRMSD -1
REMARK  1 active torsions:
REMARK  status: ('A' for Active; 'I' for Inactive)
REMARK    1  A    between atoms: N_2  and  C1_3 
ROOT
ATOM      1  C1  UNL d   1       0.509   0.879  -1.032  0.00  0.00     0.143 A 
ATOM      2  C2  UNL d   1       1.397   1.955  -1.139  0.00  0.00    -0.057 A 
ATOM      3  C3  UNL d   1       1.758   2.477  -2.387  0.00  0.00     0.033 A 
ATOM      4  C4  UNL d   1       1.258   1.911  -3.556  0.00  0.00    -0.042 A 
ATOM      5  C5  UNL d   1       0.394   0.825  -3.474  0.00  0.00     0.033 A 
ATOM      6  C6  UNL d   1       0.031   0.313  -2.225  0.00  0.00    -0.057 A 
ENDROOT
BRANCH   1   7
ATOM      7  N   UNL d   1       0.188   0.253   0.174  0.00  0.00    -0.732 N 
ATOM      8  C   UNL d   1       0.785  -1.018   0.527  0.00  0.00     0.284 C 
ATOM      9  H3  UNL d   1       0.122   0.910   0.948  0.00  0.00     0.395 HD
ENDBRANCH   1   7
TORSDOF 1
ENDMDL
