MODEL 1
REMARK minimizedAffinity -1.61262286
REMARK minimizedRMSD -1
REMARK  1 active torsions:
REMARK  status: ('A' for Active; 'I' for Inactive)
REMARK    1  A    between atoms: N_2  and  C1_3 
ROOT
ATOM      1  C1  UNL d   1       0.146  -0.301  -0.645  0.00  0.00     0.143 A 
ATOM      2  C2  UNL d   1      -0.371  -0.134   0.644  0.00  0.00    -0.057 A 
ATOM      3  C3  UNL d   1      -0.243  -1.137   1.613  0.00  0.00     0.033 A 
ATOM      4  C4  UNL d   1       0.382  -2.340   1.300  0.00  0.00    -0.042 A 
ATOM      5  C5  UNL d   1       0.881  -2.537   0.017  0.00  0.00     0.033 A 
ATOM      6  C6  UNL d   1       0.755  -1.529  -0.944  0.00  0.00    -0.057 A 
ENDROOT
BRANCH   1   7
ATOM      7  N   UNL d   1      -0.036   0.619  -1.681  0.00  0.00    -0.732 N 
ATOM      8  C   UNL d   1       0.821   1.779  -1.796  0.00  0.00     0.284 C 
ATOM      9  H3  UNL d   1      -0.247   0.168  -2.568  0.00  0.00     0.395 HD
ENDBRANCH   1   7
TORSDOF 1
ENDMDL
