MODEL 1
REMARK minimizedAffinity -3.41090155
REMARK minimizedRMSD -1
REMARK  1 active torsions:
REMARK  status: ('A' for Active; 'I' for Inactive)
REMARK    1  A    between atoms: N_2  and  C1_3 
ROOT
ATOM      1  C1  UNL d   1       0.642  -0.063  -0.324  0.00  0.00     0.143 A 
ATOM      2  C2  UNL d   1       0.652  -0.688  -1.576  0.00  0.00    -0.057 A 
ATOM      3  C3  UNL d   1       1.159  -0.038  -2.708  0.00  0.00     0.033 A 
ATOM      4  C4  UNL d   1       1.640   1.264  -2.613  0.00  0.00    -0.042 A 
ATOM      5  C5  UNL d   1       1.616   1.913  -1.384  0.00  0.00     0.033 A 
ATOM      6  C6  UNL d   1       1.115   1.256  -0.256  0.00  0.00    -0.057 A 
ENDROOT
BRANCH   1   7
ATOM      7  N   UNL d   1       0.061  -0.620   0.818  0.00  0.00    -0.732 N 
ATOM      8  C   UNL d   1       0.358  -1.982   1.207  0.00  0.00     0.284 C 
ATOM      9  H3  UNL d   1       0.026   0.036   1.595  0.00  0.00     0.395 HD
ENDBRANCH   1   7
TORSDOF 1
ENDMDL
