MODEL 1
REMARK minimizedAffinity -3.22272539
REMARK minimizedRMSD -1
REMARK  1 active torsions:
REMARK  status: ('A' for Active; 'I' for Inactive)
REMARK    1  A    between atoms: N_2  and  C1_3 
ROOT
ATOM      1  C1  UNL d   1       0.762   0.546  -0.384  0.00  0.00     0.143 A 
ATOM      2  C2  UNL d   1      -0.142  -0.408  -0.863  0.00  0.00    -0.057 A 
ATOM      3  C3  UNL d   1      -0.086  -1.740  -0.436  0.00  0.00     0.033 A 
ATOM      4  C4  UNL d   1       0.898  -2.150   0.458  0.00  0.00    -0.042 A 
ATOM      5  C5  UNL d   1       1.823  -1.224   0.928  0.00  0.00     0.033 A 
ATOM      6  C6  UNL d   1       1.757   0.107   0.504  0.00  0.00    -0.057 A 
ENDROOT
BRANCH   1   7
ATOM      7  N   UNL d   1       0.819   1.864  -0.844  0.00  0.00    -0.732 N 
ATOM      8  C   UNL d   1       0.987   2.145  -2.254  0.00  0.00     0.284 C 
ATOM      9  H3  UNL d   1       0.147   2.468  -0.377  0.00  0.00     0.395 HD
ENDBRANCH   1   7
TORSDOF 1
ENDMDL
