MODEL 1
REMARK minimizedAffinity -2.60445595
REMARK minimizedRMSD -1
REMARK  1 active torsions:
REMARK  status: ('A' for Active; 'I' for Inactive)
REMARK    1  A    between atoms: N_2  and  C1_3 
ROOT
ATOM      1  C1  UNL d   1       0.320   0.232  -0.666  0.00  0.00     0.143 A 
ATOM      2  C2  UNL d   1       0.721   1.572  -0.627  0.00  0.00    -0.057 A 
ATOM      3  C3  UNL d   1       1.175   2.228  -1.778  0.00  0.00     0.033 A 
ATOM      4  C4  UNL d   1       1.263   1.544  -2.987  0.00  0.00    -0.042 A 
ATOM      5  C5  UNL d   1       0.893   0.205  -3.043  0.00  0.00     0.033 A 
ATOM      6  C6  UNL d   1       0.434  -0.442  -1.892  0.00  0.00    -0.057 A 
ENDROOT
BRANCH   1   7
ATOM      7  N   UNL d   1      -0.047  -0.503   0.464  0.00  0.00    -0.732 N 
ATOM      8  C   UNL d   1       0.503  -1.822   0.695  0.00  0.00     0.284 C 
ATOM      9  H3  UNL d   1      -0.109   0.074   1.299  0.00  0.00     0.395 HD
ENDBRANCH   1   7
TORSDOF 1
ENDMDL
