MODEL 1
REMARK minimizedAffinity -2.35118461
REMARK minimizedRMSD -1
REMARK  1 active torsions:
REMARK  status: ('A' for Active; 'I' for Inactive)
REMARK    1  A    between atoms: N_2  and  C1_3 
ROOT
ATOM      1  C1  UNL d   1       0.651   0.213  -0.545  0.00  0.00     0.143 A 
ATOM      2  C2  UNL d   1       0.015  -0.834  -1.221  0.00  0.00    -0.057 A 
ATOM      3  C3  UNL d   1      -0.121  -2.099  -0.637  0.00  0.00     0.033 A 
ATOM      4  C4  UNL d   1       0.404  -2.349   0.626  0.00  0.00    -0.042 A 
ATOM      5  C5  UNL d   1       1.062  -1.331   1.307  0.00  0.00     0.033 A 
ATOM      6  C6  UNL d   1       1.189  -0.068   0.721  0.00  0.00    -0.057 A 
ENDROOT
BRANCH   1   7
ATOM      7  N   UNL d   1       0.904   1.464  -1.111  0.00  0.00    -0.732 N 
ATOM      8  C   UNL d   1       1.850   1.604  -2.197  0.00  0.00     0.284 C 
ATOM      9  H3  UNL d   1       0.058   2.019  -1.222  0.00  0.00     0.395 HD
ENDBRANCH   1   7
TORSDOF 1
ENDMDL
