MODEL 1
REMARK minimizedAffinity 0.410437793
REMARK minimizedRMSD -1
REMARK  0 active torsions:
REMARK  status: ('A' for Active; 'I' for Inactive)
ROOT
ATOM      1  C   UNL d   1      -2.452   0.735   4.067  0.00  0.00     0.124 A 
ATOM      2  C1  UNL d   1      -3.097  -0.244   3.325  0.00  0.00     0.062 A 
ATOM      3  C2  UNL d   1      -2.542  -0.699   2.132  0.00  0.00     0.162 A 
ATOM      4  C3  UNL d   1      -1.334  -0.175   1.674  0.00  0.00    -0.034 A 
ATOM      5  C4  UNL d   1      -0.690   0.810   2.426  0.00  0.00     0.162 A 
ATOM      6  C5  UNL d   1      -1.249   1.261   3.617  0.00  0.00     0.062 A 
ATOM      7  F   UNL d   1      -0.624   2.207   4.333  0.00  0.00    -0.097 F 
ATOM      8  F1  UNL d   1       0.473   1.336   2.014  0.00  0.00    -0.096 F 
ATOM      9  I   UNL d   1      -0.500  -0.852  -0.109  0.00  0.00    -0.060 I 
ATOM     10  F2  UNL d   1      -3.188  -1.646   1.436  0.00  0.00    -0.096 F 
ATOM     11  F3  UNL d   1      -4.260  -0.754   3.758  0.00  0.00    -0.097 F 
ATOM     12  F4  UNL d   1      -2.989   1.171   5.214  0.00  0.00    -0.092 F 
ENDROOT
TORSDOF 0
ENDMDL
