MODEL 1
REMARK minimizedAffinity 2.31053948
REMARK minimizedRMSD -1
REMARK  0 active torsions:
REMARK  status: ('A' for Active; 'I' for Inactive)
ROOT
ATOM      1  C   UNL d   1       2.186  -0.560  -0.579  0.00  0.00     0.124 A 
ATOM      2  C1  UNL d   1       1.200   0.013   0.213  0.00  0.00     0.062 A 
ATOM      3  C2  UNL d   1      -0.076  -0.540   0.250  0.00  0.00     0.162 A 
ATOM      4  C3  UNL d   1      -0.375  -1.674  -0.506  0.00  0.00    -0.034 A 
ATOM      5  C4  UNL d   1       0.622  -2.244  -1.301  0.00  0.00     0.162 A 
ATOM      6  C5  UNL d   1       1.897  -1.688  -1.334  0.00  0.00     0.062 A 
ATOM      7  F   UNL d   1       2.848  -2.242  -2.099  0.00  0.00    -0.097 F 
ATOM      8  F1  UNL d   1       0.369  -3.334  -2.040  0.00  0.00    -0.096 F 
ATOM      9  I   UNL d   1      -2.282  -2.504  -0.454  0.00  0.00    -0.060 I 
ATOM     10  F2  UNL d   1      -1.010   0.034   1.023  0.00  0.00    -0.096 F 
ATOM     11  F3  UNL d   1       1.478   1.102   0.943  0.00  0.00    -0.097 F 
ATOM     12  F4  UNL d   1       3.414  -0.026  -0.613  0.00  0.00    -0.092 F 
ENDROOT
TORSDOF 0
ENDMDL
