MODEL 1
REMARK minimizedAffinity 0.64297837
REMARK minimizedRMSD -1
REMARK  0 active torsions:
REMARK  status: ('A' for Active; 'I' for Inactive)
ROOT
ATOM      1  C   UNL d   1       1.263   1.532  -0.923  0.00  0.00     0.124 A 
ATOM      2  C1  UNL d   1       2.223   0.538  -1.041  0.00  0.00     0.062 A 
ATOM      3  C2  UNL d   1       1.882  -0.795  -0.827  0.00  0.00     0.162 A 
ATOM      4  C3  UNL d   1       0.572  -1.140  -0.493  0.00  0.00    -0.034 A 
ATOM      5  C4  UNL d   1      -0.388  -0.134  -0.375  0.00  0.00     0.162 A 
ATOM      6  C5  UNL d   1      -0.041   1.196  -0.589  0.00  0.00     0.062 A 
ATOM      7  F   UNL d   1      -0.971   2.156  -0.474  0.00  0.00    -0.097 F 
ATOM      8  F1  UNL d   1      -1.656  -0.431  -0.055  0.00  0.00    -0.096 F 
ATOM      9  I   UNL d   1       0.057  -3.131  -0.172  0.00  0.00    -0.060 I 
ATOM     10  F2  UNL d   1       2.830  -1.735  -0.949  0.00  0.00    -0.096 F 
ATOM     11  F3  UNL d   1       3.485   0.860  -1.362  0.00  0.00    -0.097 F 
ATOM     12  F4  UNL d   1       1.595   2.814  -1.128  0.00  0.00    -0.092 F 
ENDROOT
TORSDOF 0
ENDMDL
