MODEL 1
REMARK minimizedAffinity 0.657659948
REMARK minimizedRMSD -1
REMARK  0 active torsions:
REMARK  status: ('A' for Active; 'I' for Inactive)
ROOT
ATOM      1  C   UNL d   1       1.640  -0.294  -1.751  0.00  0.00     0.124 A 
ATOM      2  C1  UNL d   1       1.334  -1.395  -0.962  0.00  0.00     0.062 A 
ATOM      3  C2  UNL d   1       0.218  -1.372  -0.130  0.00  0.00     0.162 A 
ATOM      4  C3  UNL d   1      -0.601  -0.244  -0.083  0.00  0.00    -0.034 A 
ATOM      5  C4  UNL d   1      -0.287   0.860  -0.878  0.00  0.00     0.162 A 
ATOM      6  C5  UNL d   1       0.829   0.832  -1.708  0.00  0.00     0.062 A 
ATOM      7  F   UNL d   1       1.123   1.896  -2.469  0.00  0.00    -0.097 F 
ATOM      8  F1  UNL d   1      -1.053   1.960  -0.857  0.00  0.00    -0.096 F 
ATOM      9  I   UNL d   1      -2.270  -0.205   1.160  0.00  0.00    -0.060 I 
ATOM     10  F2  UNL d   1      -0.053  -2.449   0.621  0.00  0.00    -0.096 F 
ATOM     11  F3  UNL d   1       2.116  -2.483  -1.001  0.00  0.00    -0.097 F 
ATOM     12  F4  UNL d   1       2.714  -0.319  -2.550  0.00  0.00    -0.092 F 
ENDROOT
TORSDOF 0
ENDMDL
