MODEL 1
REMARK minimizedAffinity 0.709574699
REMARK minimizedRMSD -1
REMARK  0 active torsions:
REMARK  status: ('A' for Active; 'I' for Inactive)
ROOT
ATOM      1  C   UNL d   1      -2.247   0.999   3.611  0.00  0.00     0.124 A 
ATOM      2  C1  UNL d   1      -1.071   1.463   3.038  0.00  0.00     0.062 A 
ATOM      3  C2  UNL d   1      -0.628   0.938   1.828  0.00  0.00     0.162 A 
ATOM      4  C3  UNL d   1      -1.361  -0.057   1.181  0.00  0.00    -0.034 A 
ATOM      5  C4  UNL d   1      -2.542  -0.520   1.764  0.00  0.00     0.162 A 
ATOM      6  C5  UNL d   1      -2.981   0.008   2.973  0.00  0.00     0.062 A 
ATOM      7  F   UNL d   1      -4.118  -0.441   3.525  0.00  0.00    -0.097 F 
ATOM      8  F1  UNL d   1      -3.272  -1.475   1.169  0.00  0.00    -0.096 F 
ATOM      9  I   UNL d   1      -0.701  -0.845  -0.629  0.00  0.00    -0.060 I 
ATOM     10  F2  UNL d   1       0.512   1.405   1.297  0.00  0.00    -0.096 F 
ATOM     11  F3  UNL d   1      -0.360   2.419   3.652  0.00  0.00    -0.097 F 
ATOM     12  F4  UNL d   1      -2.672   1.505   4.776  0.00  0.00    -0.092 F 
ENDROOT
TORSDOF 0
ENDMDL
