MODEL 1
REMARK minimizedAffinity -0.615118325
REMARK minimizedRMSD -1
REMARK  0 active torsions:
REMARK  status: ('A' for Active; 'I' for Inactive)
ROOT
ATOM      1  C   UNL d   1       1.123  -1.606   0.204  0.00  0.00     0.124 A 
ATOM      2  C1  UNL d   1       0.574  -2.880   0.244  0.00  0.00     0.062 A 
ATOM      3  C2  UNL d   1      -0.759  -3.079  -0.103  0.00  0.00     0.162 A 
ATOM      4  C3  UNL d   1      -1.552  -2.001  -0.495  0.00  0.00    -0.034 A 
ATOM      5  C4  UNL d   1      -0.993  -0.722  -0.532  0.00  0.00     0.162 A 
ATOM      6  C5  UNL d   1       0.339  -0.528  -0.184  0.00  0.00     0.062 A 
ATOM      7  F   UNL d   1       0.868   0.703  -0.224  0.00  0.00    -0.097 F 
ATOM      8  F1  UNL d   1      -1.728   0.336  -0.904  0.00  0.00    -0.096 F 
ATOM      9  I   UNL d   1      -3.546  -2.294  -1.014  0.00  0.00    -0.060 I 
ATOM     10  F2  UNL d   1      -1.263  -4.321  -0.054  0.00  0.00    -0.096 F 
ATOM     11  F3  UNL d   1       1.330  -3.922   0.620  0.00  0.00    -0.097 F 
ATOM     12  F4  UNL d   1       2.406  -1.417   0.539  0.00  0.00    -0.092 F 
ENDROOT
TORSDOF 0
ENDMDL
