MODEL 1
REMARK minimizedAffinity -1.07409942
REMARK minimizedRMSD -1
REMARK  0 active torsions:
REMARK  status: ('A' for Active; 'I' for Inactive)
ROOT
ATOM      1  C   UNL d   1       0.063  -0.031  -0.290  0.00  0.00     0.124 A 
ATOM      2  C1  UNL d   1      -1.276   0.045  -0.647  0.00  0.00     0.062 A 
ATOM      3  C2  UNL d   1      -2.031  -1.116  -0.781  0.00  0.00     0.162 A 
ATOM      4  C3  UNL d   1      -1.450  -2.364  -0.556  0.00  0.00    -0.034 A 
ATOM      5  C4  UNL d   1      -0.102  -2.432  -0.198  0.00  0.00     0.162 A 
ATOM      6  C5  UNL d   1       0.649  -1.269  -0.066  0.00  0.00     0.062 A 
ATOM      7  F   UNL d   1       1.942  -1.344   0.279  0.00  0.00    -0.097 F 
ATOM      8  F1  UNL d   1       0.489  -3.615   0.025  0.00  0.00    -0.096 F 
ATOM      9  I   UNL d   1      -2.576  -4.103  -0.755  0.00  0.00    -0.060 I 
ATOM     10  F2  UNL d   1      -3.323  -1.013  -1.127  0.00  0.00    -0.096 F 
ATOM     11  F3  UNL d   1      -1.843   1.240  -0.865  0.00  0.00    -0.097 F 
ATOM     12  F4  UNL d   1       0.788   1.088  -0.163  0.00  0.00    -0.092 F 
ENDROOT
TORSDOF 0
ENDMDL
