MODEL 1
REMARK minimizedAffinity -2.11740899
REMARK minimizedRMSD -1
REMARK  0 active torsions:
REMARK  status: ('A' for Active; 'I' for Inactive)
ROOT
ATOM      1  C   UNL d   1       2.108   0.448  -1.365  0.00  0.00     0.124 A 
ATOM      2  C1  UNL d   1       1.066   1.364  -1.358  0.00  0.00     0.062 A 
ATOM      3  C2  UNL d   1      -0.172   1.013  -0.826  0.00  0.00     0.162 A 
ATOM      4  C3  UNL d   1      -0.374  -0.261  -0.295  0.00  0.00    -0.034 A 
ATOM      5  C4  UNL d   1       0.679  -1.178  -0.307  0.00  0.00     0.162 A 
ATOM      6  C5  UNL d   1       1.914  -0.822  -0.839  0.00  0.00     0.062 A 
ATOM      7  F   UNL d   1       2.920  -1.709  -0.845  0.00  0.00    -0.097 F 
ATOM      8  F1  UNL d   1       0.520  -2.411   0.196  0.00  0.00    -0.096 F 
ATOM      9  I   UNL d   1      -2.222  -0.790   0.501  0.00  0.00    -0.060 I 
ATOM     10  F2  UNL d   1      -1.161   1.919  -0.833  0.00  0.00    -0.096 F 
ATOM     11  F3  UNL d   1       1.250   2.591  -1.866  0.00  0.00    -0.097 F 
ATOM     12  F4  UNL d   1       3.297   0.788  -1.878  0.00  0.00    -0.092 F 
ENDROOT
TORSDOF 0
ENDMDL
