MODEL 1
REMARK minimizedAffinity -4.32086229
REMARK minimizedRMSD -1
REMARK  0 active torsions:
REMARK  status: ('A' for Active; 'I' for Inactive)
ROOT
ATOM      1  C   UNL d   1       0.294  -0.069  -0.097  0.00  0.00     0.124 A 
ATOM      2  C1  UNL d   1       0.918  -1.268  -0.411  0.00  0.00     0.062 A 
ATOM      3  C2  UNL d   1       0.182  -2.448  -0.465  0.00  0.00     0.162 A 
ATOM      4  C3  UNL d   1      -1.189  -2.434  -0.205  0.00  0.00    -0.034 A 
ATOM      5  C4  UNL d   1      -1.810  -1.224   0.110  0.00  0.00     0.162 A 
ATOM      6  C5  UNL d   1      -1.069  -0.048   0.163  0.00  0.00     0.062 A 
ATOM      7  F   UNL d   1      -1.674   1.110   0.466  0.00  0.00    -0.097 F 
ATOM      8  F1  UNL d   1      -3.126  -1.175   0.365  0.00  0.00    -0.096 F 
ATOM      9  I   UNL d   1      -2.294  -4.196  -0.285  0.00  0.00    -0.060 I 
ATOM     10  F2  UNL d   1       0.811  -3.592  -0.770  0.00  0.00    -0.096 F 
ATOM     11  F3  UNL d   1       2.235  -1.291  -0.661  0.00  0.00    -0.097 F 
ATOM     12  F4  UNL d   1       1.005   1.065  -0.045  0.00  0.00    -0.092 F 
ENDROOT
TORSDOF 0
ENDMDL
