MODEL 1
REMARK minimizedAffinity 15.2690773
REMARK minimizedRMSD -1
REMARK  0 active torsions:
REMARK  status: ('A' for Active; 'I' for Inactive)
ROOT
ATOM      1  C   UNL d   1       3.850   5.977  -1.546  0.00  0.00     0.124 A 
ATOM      2  C1  UNL d   1       2.470   5.985  -1.690  0.00  0.00     0.062 A 
ATOM      3  C2  UNL d   1       1.899   5.985  -2.960  0.00  0.00     0.162 A 
ATOM      4  C3  UNL d   1       2.709   5.975  -4.096  0.00  0.00    -0.034 A 
ATOM      5  C4  UNL d   1       4.096   5.968  -3.942  0.00  0.00     0.162 A 
ATOM      6  C5  UNL d   1       4.662   5.968  -2.671  0.00  0.00     0.062 A 
ATOM      7  F   UNL d   1       5.996   5.961  -2.533  0.00  0.00    -0.097 F 
ATOM      8  F1  UNL d   1       4.904   5.959  -5.013  0.00  0.00    -0.096 F 
ATOM      9  I   UNL d   1       1.859   5.975  -5.996  0.00  0.00    -0.060 I 
ATOM     10  F2  UNL d   1       0.562   5.993  -3.070  0.00  0.00    -0.096 F 
ATOM     11  F3  UNL d   1       1.683   5.994  -0.605  0.00  0.00    -0.097 F 
ATOM     12  F4  UNL d   1       4.397   5.978  -0.323  0.00  0.00    -0.092 F 
ENDROOT
TORSDOF 0
ENDMDL
