MODEL 1
REMARK minimizedAffinity 10.9397955
REMARK minimizedRMSD -1
REMARK  0 active torsions:
REMARK  status: ('A' for Active; 'I' for Inactive)
ROOT
ATOM      1  C   UNL d   1       3.645   1.905   3.459  0.00  0.00     0.124 A 
ATOM      2  C1  UNL d   1       3.458   3.083   2.749  0.00  0.00     0.062 A 
ATOM      3  C2  UNL d   1       4.129   4.243   3.127  0.00  0.00     0.162 A 
ATOM      4  C3  UNL d   1       4.993   4.230   4.222  0.00  0.00    -0.034 A 
ATOM      5  C4  UNL d   1       5.175   3.042   4.932  0.00  0.00     0.162 A 
ATOM      6  C5  UNL d   1       4.503   1.886   4.549  0.00  0.00     0.062 A 
ATOM      7  F   UNL d   1       4.684   0.749   5.236  0.00  0.00    -0.097 F 
ATOM      8  F1  UNL d   1       5.999   2.994   5.989  0.00  0.00    -0.096 F 
ATOM      9  I   UNL d   1       5.998   5.961   4.791  0.00  0.00    -0.060 I 
ATOM     10  F2  UNL d   1       3.929   5.367   2.423  0.00  0.00    -0.096 F 
ATOM     11  F3  UNL d   1       2.629   3.105   1.695  0.00  0.00    -0.097 F 
ATOM     12  F4  UNL d   1       2.998   0.792   3.092  0.00  0.00    -0.092 F 
ENDROOT
TORSDOF 0
ENDMDL
