MODEL 1
REMARK minimizedAffinity 5.69195366
REMARK minimizedRMSD -1
REMARK  0 active torsions:
REMARK  status: ('A' for Active; 'I' for Inactive)
ROOT
ATOM      1  C   UNL d   1      -1.833   0.196   4.453  0.00  0.00     0.124 A 
ATOM      2  C1  UNL d   1      -1.335   0.745   3.280  0.00  0.00     0.062 A 
ATOM      3  C2  UNL d   1      -1.601   0.140   2.055  0.00  0.00     0.162 A 
ATOM      4  C3  UNL d   1      -2.370  -1.022   1.997  0.00  0.00    -0.034 A 
ATOM      5  C4  UNL d   1      -2.867  -1.569   3.181  0.00  0.00     0.162 A 
ATOM      6  C5  UNL d   1      -2.599  -0.961   4.403  0.00  0.00     0.062 A 
ATOM      7  F   UNL d   1      -3.081  -1.493   5.535  0.00  0.00    -0.097 F 
ATOM      8  F1  UNL d   1      -3.611  -2.686   3.161  0.00  0.00    -0.096 F 
ATOM      9  I   UNL d   1      -2.770  -1.929   0.167  0.00  0.00    -0.060 I 
ATOM     10  F2  UNL d   1      -1.107   0.694   0.938  0.00  0.00    -0.096 F 
ATOM     11  F3  UNL d   1      -0.594   1.862   3.327  0.00  0.00    -0.097 F 
ATOM     12  F4  UNL d   1      -1.575   0.779   5.631  0.00  0.00    -0.092 F 
ENDROOT
TORSDOF 0
ENDMDL
