MODEL 1
REMARK minimizedAffinity 1.05445969
REMARK minimizedRMSD -1
REMARK  0 active torsions:
REMARK  status: ('A' for Active; 'I' for Inactive)
ROOT
ATOM      1  C   UNL d   1       4.838   0.387   3.729  0.00  0.00     0.124 A 
ATOM      2  C1  UNL d   1       5.292   1.079   4.843  0.00  0.00     0.062 A 
ATOM      3  C2  UNL d   1       5.546   2.445   4.764  0.00  0.00     0.162 A 
ATOM      4  C3  UNL d   1       5.345   3.130   3.565  0.00  0.00    -0.034 A 
ATOM      5  C4  UNL d   1       4.889   2.427   2.448  0.00  0.00     0.162 A 
ATOM      6  C5  UNL d   1       4.637   1.062   2.533  0.00  0.00     0.062 A 
ATOM      7  F   UNL d   1       4.199   0.395   1.455  0.00  0.00    -0.097 F 
ATOM      8  F1  UNL d   1       4.686   3.054   1.280  0.00  0.00    -0.096 F 
ATOM      9  I   UNL d   1       5.724   5.173   3.442  0.00  0.00    -0.060 I 
ATOM     10  F2  UNL d   1       5.984   3.088   5.857  0.00  0.00    -0.096 F 
ATOM     11  F3  UNL d   1       5.488   0.429   6.000  0.00  0.00    -0.097 F 
ATOM     12  F4  UNL d   1       4.596  -0.927   3.808  0.00  0.00    -0.092 F 
ENDROOT
TORSDOF 0
ENDMDL
