MODEL 1
REMARK minimizedAffinity 6.50844908
REMARK minimizedRMSD -1
REMARK  0 active torsions:
REMARK  status: ('A' for Active; 'I' for Inactive)
ROOT
ATOM      1  C   UNL d   1       4.934   4.798   2.742  0.00  0.00     0.124 A 
ATOM      2  C1  UNL d   1       4.777   3.598   2.061  0.00  0.00     0.062 A 
ATOM      3  C2  UNL d   1       5.032   2.390   2.704  0.00  0.00     0.162 A 
ATOM      4  C3  UNL d   1       5.446   2.375   4.035  0.00  0.00    -0.034 A 
ATOM      5  C4  UNL d   1       5.603   3.586   4.713  0.00  0.00     0.162 A 
ATOM      6  C5  UNL d   1       5.347   4.790   4.067  0.00  0.00     0.062 A 
ATOM      7  F   UNL d   1       5.499   5.948   4.726  0.00  0.00    -0.097 F 
ATOM      8  F1  UNL d   1       6.000   3.608   5.994  0.00  0.00    -0.096 F 
ATOM      9  I   UNL d   1       5.829   0.571   5.000  0.00  0.00    -0.060 I 
ATOM     10  F2  UNL d   1       4.872   1.246   2.021  0.00  0.00    -0.096 F 
ATOM     11  F3  UNL d   1       4.379   3.603   0.781  0.00  0.00    -0.097 F 
ATOM     12  F4  UNL d   1       4.689   5.959   2.121  0.00  0.00    -0.092 F 
ENDROOT
TORSDOF 0
ENDMDL
