MODEL 1
REMARK minimizedAffinity 6.65829182
REMARK minimizedRMSD -1
REMARK  0 active torsions:
REMARK  status: ('A' for Active; 'I' for Inactive)
ROOT
ATOM      1  C   UNL d   1       4.443   4.602   2.862  0.00  0.00     0.124 A 
ATOM      2  C1  UNL d   1       3.958   3.379   2.417  0.00  0.00     0.062 A 
ATOM      3  C2  UNL d   1       4.153   2.230   3.178  0.00  0.00     0.162 A 
ATOM      4  C3  UNL d   1       4.835   2.298   4.393  0.00  0.00    -0.034 A 
ATOM      5  C4  UNL d   1       5.320   3.531   4.833  0.00  0.00     0.162 A 
ATOM      6  C5  UNL d   1       5.123   4.676   4.069  0.00  0.00     0.062 A 
ATOM      7  F   UNL d   1       5.592   5.856   4.500  0.00  0.00    -0.097 F 
ATOM      8  F1  UNL d   1       5.980   3.632   5.997  0.00  0.00    -0.096 F 
ATOM      9  I   UNL d   1       5.128   0.582   5.534  0.00  0.00    -0.060 I 
ATOM     10  F2  UNL d   1       3.674   1.063   2.724  0.00  0.00    -0.096 F 
ATOM     11  F3  UNL d   1       3.301   3.304   1.251  0.00  0.00    -0.097 F 
ATOM     12  F4  UNL d   1       4.255   5.705   2.127  0.00  0.00    -0.092 F 
ENDROOT
TORSDOF 0
ENDMDL
