MODEL 1
REMARK minimizedAffinity -2.88834381
REMARK minimizedRMSD -1
REMARK  0 active torsions:
REMARK  status: ('A' for Active; 'I' for Inactive)
ROOT
ATOM      1  C   UNL d   1       5.635   2.194   3.635  0.00  0.00     0.124 A 
ATOM      2  C1  UNL d   1       5.445   1.562   2.414  0.00  0.00     0.062 A 
ATOM      3  C2  UNL d   1       5.436   0.172   2.339  0.00  0.00     0.162 A 
ATOM      4  C3  UNL d   1       5.617  -0.596   3.489  0.00  0.00    -0.034 A 
ATOM      5  C4  UNL d   1       5.808   0.047   4.714  0.00  0.00     0.162 A 
ATOM      6  C5  UNL d   1       5.816   1.436   4.783  0.00  0.00     0.062 A 
ATOM      7  F   UNL d   1       6.000   2.045   5.964  0.00  0.00    -0.097 F 
ATOM      8  F1  UNL d   1       5.985  -0.661   5.839  0.00  0.00    -0.096 F 
ATOM      9  I   UNL d   1       5.605  -2.674   3.382  0.00  0.00    -0.060 I 
ATOM     10  F2  UNL d   1       5.251  -0.412   1.146  0.00  0.00    -0.096 F 
ATOM     11  F3  UNL d   1       5.271   2.291   1.302  0.00  0.00    -0.097 F 
ATOM     12  F4  UNL d   1       5.644   3.531   3.703  0.00  0.00    -0.092 F 
ENDROOT
TORSDOF 0
ENDMDL
