MODEL 1
REMARK minimizedAffinity 3.05503988
REMARK minimizedRMSD -1
REMARK  0 active torsions:
REMARK  status: ('A' for Active; 'I' for Inactive)
ROOT
ATOM      1  C   UNL d   1       4.510   2.232   1.569  0.00  0.00     0.124 A 
ATOM      2  C1  UNL d   1       5.059   2.011   2.824  0.00  0.00     0.062 A 
ATOM      3  C2  UNL d   1       5.473   3.085   3.606  0.00  0.00     0.162 A 
ATOM      4  C3  UNL d   1       5.340   4.391   3.135  0.00  0.00    -0.034 A 
ATOM      5  C4  UNL d   1       4.788   4.606   1.871  0.00  0.00     0.162 A 
ATOM      6  C5  UNL d   1       4.375   3.529   1.094  0.00  0.00     0.062 A 
ATOM      7  F   UNL d   1       3.845   3.745  -0.119  0.00  0.00    -0.097 F 
ATOM      8  F1  UNL d   1       4.645   5.849   1.388  0.00  0.00    -0.096 F 
ATOM      9  I   UNL d   1       5.958   6.000   4.302  0.00  0.00    -0.060 I 
ATOM     10  F2  UNL d   1       6.000   2.841   4.816  0.00  0.00    -0.096 F 
ATOM     11  F3  UNL d   1       5.191   0.758   3.285  0.00  0.00    -0.097 F 
ATOM     12  F4  UNL d   1       4.113   1.197   0.818  0.00  0.00    -0.092 F 
ENDROOT
TORSDOF 0
ENDMDL
