MODEL 1
REMARK minimizedAffinity -3.21231127
REMARK minimizedRMSD -1
REMARK  0 active torsions:
REMARK  status: ('A' for Active; 'I' for Inactive)
ROOT
ATOM      1  C2' OXE d   1      -1.075   1.209   2.719  0.00  0.00     0.078 C 
ATOM      2  C1' OXE d   1      -2.199   0.483   0.252  0.00  0.00     0.078 C 
ATOM      3  C1  OXE d   1      -0.758   0.118   0.502  0.00  0.00    -0.078 A 
ATOM      4  C2  OXE d   1      -0.202   0.518   1.694  0.00  0.00    -0.078 A 
ATOM      5  C3  OXE d   1       1.108   0.159   1.998  0.00  0.00     0.003 A 
ATOM      6  C4  OXE d   1       1.911  -0.471   1.040  0.00  0.00    -0.002 A 
ATOM      7  C5  OXE d   1       1.377  -0.852  -0.195  0.00  0.00    -0.002 A 
ATOM      8  C6  OXE d   1       0.035  -0.604  -0.462  0.00  0.00     0.003 A 
ENDROOT
TORSDOF 0
ENDMDL
