MODEL 1
REMARK minimizedAffinity -3.24283791
REMARK minimizedRMSD -1
REMARK  0 active torsions:
REMARK  status: ('A' for Active; 'I' for Inactive)
ROOT
ATOM      1  C2' OXE d   1       2.520   0.138   1.860  0.00  0.00     0.078 C 
ATOM      2  C1' OXE d   1       0.119   1.448   2.492  0.00  0.00     0.078 C 
ATOM      3  C1  OXE d   1       0.129   0.540   1.287  0.00  0.00    -0.078 A 
ATOM      4  C2  OXE d   1       1.320  -0.060   0.958  0.00  0.00    -0.078 A 
ATOM      5  C3  OXE d   1       1.372  -0.950  -0.111  0.00  0.00     0.003 A 
ATOM      6  C4  OXE d   1       0.261  -1.120  -0.946  0.00  0.00    -0.002 A 
ATOM      7  C5  OXE d   1      -0.951  -0.486  -0.652  0.00  0.00    -0.002 A 
ATOM      8  C6  OXE d   1      -1.046   0.312   0.483  0.00  0.00     0.003 A 
ENDROOT
TORSDOF 0
ENDMDL
