MODEL 1
REMARK minimizedAffinity -3.42767739
REMARK minimizedRMSD -1
REMARK  0 active torsions:
REMARK  status: ('A' for Active; 'I' for Inactive)
ROOT
ATOM      1  C2' OXE d   1      -2.174  -0.674  -0.425  0.00  0.00     0.078 C 
ATOM      2  C1' OXE d   1       0.602  -0.383  -0.718  0.00  0.00     0.078 C 
ATOM      3  C1  OXE d   1      -0.042   0.220   0.504  0.00  0.00    -0.078 A 
ATOM      4  C2  OXE d   1      -1.408   0.113   0.616  0.00  0.00    -0.078 A 
ATOM      5  C3  OXE d   1      -2.047   0.604   1.752  0.00  0.00     0.003 A 
ATOM      6  C4  OXE d   1      -1.332   1.340   2.705  0.00  0.00    -0.002 A 
ATOM      7  C5  OXE d   1       0.053   1.495   2.590  0.00  0.00    -0.002 A 
ATOM      8  C6  OXE d   1       0.718   0.906   1.520  0.00  0.00     0.003 A 
ENDROOT
TORSDOF 0
ENDMDL
