MODEL 1
REMARK minimizedAffinity -3.89134312
REMARK minimizedRMSD -1
REMARK  0 active torsions:
REMARK  status: ('A' for Active; 'I' for Inactive)
ROOT
ATOM      1  C2' OXE d   1       0.571  -0.513  -1.737  0.00  0.00     0.078 C 
ATOM      2  C1' OXE d   1       0.908   1.339  -3.820  0.00  0.00     0.078 C 
ATOM      3  C1  OXE d   1       0.031   0.140  -4.080  0.00  0.00    -0.078 A 
ATOM      4  C2  OXE d   1      -0.091  -0.785  -3.071  0.00  0.00    -0.078 A 
ATOM      5  C3  OXE d   1      -0.932  -1.881  -3.239  0.00  0.00     0.003 A 
ATOM      6  C4  OXE d   1      -1.532  -2.131  -4.479  0.00  0.00    -0.002 A 
ATOM      7  C5  OXE d   1      -1.389  -1.222  -5.533  0.00  0.00    -0.002 A 
ATOM      8  C6  OXE d   1      -0.647  -0.062  -5.337  0.00  0.00     0.003 A 
ENDROOT
TORSDOF 0
ENDMDL
