MODEL 1
REMARK minimizedAffinity 8.87571907
REMARK minimizedRMSD -1
REMARK  0 active torsions:
REMARK  status: ('A' for Active; 'I' for Inactive)
ROOT
ATOM      1  C2' OXE d   1       1.866  -1.446  -0.473  0.00  0.00     0.078 C 
ATOM      2  C1' OXE d   1       4.469  -1.940  -1.401  0.00  0.00     0.078 C 
ATOM      3  C1  OXE d   1       3.619  -0.965  -2.177  0.00  0.00    -0.078 A 
ATOM      4  C2  OXE d   1       2.330  -0.765  -1.742  0.00  0.00    -0.078 A 
ATOM      5  C3  OXE d   1       1.521   0.165  -2.389  0.00  0.00     0.003 A 
ATOM      6  C4  OXE d   1       1.955   0.784  -3.568  0.00  0.00    -0.002 A 
ATOM      7  C5  OXE d   1       3.250   0.564  -4.050  0.00  0.00    -0.002 A 
ATOM      8  C6  OXE d   1       4.107  -0.273  -3.344  0.00  0.00     0.003 A 
ENDROOT
TORSDOF 0
ENDMDL
