MODEL 1
REMARK minimizedAffinity 6.00674105
REMARK minimizedRMSD -1
REMARK  0 active torsions:
REMARK  status: ('A' for Active; 'I' for Inactive)
ROOT
ATOM      1  C2' OXE d   1      -3.160  -1.261   3.537  0.00  0.00     0.078 C 
ATOM      2  C1' OXE d   1      -2.541  -0.861   0.828  0.00  0.00     0.078 C 
ATOM      3  C1  OXE d   1      -1.836   0.001   1.846  0.00  0.00    -0.078 A 
ATOM      4  C2  OXE d   1      -2.180  -0.170   3.165  0.00  0.00    -0.078 A 
ATOM      5  C3  OXE d   1      -1.520   0.561   4.149  0.00  0.00     0.003 A 
ATOM      6  C4  OXE d   1      -0.622   1.575   3.796  0.00  0.00    -0.002 A 
ATOM      7  C5  OXE d   1      -0.287   1.793   2.455  0.00  0.00    -0.002 A 
ATOM      8  C6  OXE d   1      -0.852   0.987   1.473  0.00  0.00     0.003 A 
ENDROOT
TORSDOF 0
ENDMDL
