MODEL 1
REMARK minimizedAffinity 0.426213205
REMARK minimizedRMSD -1
REMARK  0 active torsions:
REMARK  status: ('A' for Active; 'I' for Inactive)
ROOT
ATOM      1  C   UNL d   1      -0.676   1.185   0.520  0.00  0.00     0.023 A 
ATOM      2  C1  UNL d   1       0.283   1.352  -0.479  0.00  0.00     0.003 A 
ATOM      3  C2  UNL d   1       0.851   0.237  -1.098  0.00  0.00     0.048 A 
ATOM      4  C3  UNL d   1       0.454  -1.043  -0.714  0.00  0.00     0.023 A 
ATOM      5  C4  UNL d   1      -0.506  -1.216   0.284  0.00  0.00     0.048 A 
ATOM      6  C5  UNL d   1      -1.071  -0.098   0.901  0.00  0.00     0.003 A 
ATOM      7  I   UNL d   1       1.298  -2.705  -1.634  0.00  0.00    -0.146 I 
ENDROOT
TORSDOF 0
ENDMDL
