MODEL 1
REMARK minimizedAffinity -2.80425406
REMARK minimizedRMSD -1
REMARK  0 active torsions:
REMARK  status: ('A' for Active; 'I' for Inactive)
ROOT
ATOM      1  C   UNL d   1      -0.717   0.968   0.717  0.00  0.00     0.023 A 
ATOM      2  C1  UNL d   1       0.387   1.049  -0.132  0.00  0.00     0.003 A 
ATOM      3  C2  UNL d   1       0.843  -0.091  -0.797  0.00  0.00     0.048 A 
ATOM      4  C3  UNL d   1       0.189  -1.308  -0.610  0.00  0.00     0.023 A 
ATOM      5  C4  UNL d   1      -0.917  -1.394   0.237  0.00  0.00     0.048 A 
ATOM      6  C5  UNL d   1      -1.369  -0.251   0.901  0.00  0.00     0.003 A 
ATOM      7  I   UNL d   1       0.865  -3.007  -1.599  0.00  0.00    -0.146 I 
ENDROOT
TORSDOF 0
ENDMDL
