MODEL 1
REMARK minimizedAffinity -2.98478818
REMARK minimizedRMSD -1
REMARK  0 active torsions:
REMARK  status: ('A' for Active; 'I' for Inactive)
ROOT
ATOM      1  C   UNL d   1      -1.276   2.197   1.063  0.00  0.00     0.023 A 
ATOM      2  C1  UNL d   1      -0.750   2.250  -0.228  0.00  0.00     0.003 A 
ATOM      3  C2  UNL d   1      -0.064   1.151  -0.750  0.00  0.00     0.048 A 
ATOM      4  C3  UNL d   1       0.091   0.002   0.024  0.00  0.00     0.023 A 
ATOM      5  C4  UNL d   1      -0.434  -0.056   1.316  0.00  0.00     0.048 A 
ATOM      6  C5  UNL d   1      -1.118   1.045   1.834  0.00  0.00     0.003 A 
ATOM      7  I   UNL d   1       1.111  -1.635  -0.750  0.00  0.00    -0.146 I 
ENDROOT
TORSDOF 0
ENDMDL
