MODEL 1
REMARK minimizedAffinity -0.77622962
REMARK minimizedRMSD -1
REMARK  0 active torsions:
REMARK  status: ('A' for Active; 'I' for Inactive)
ROOT
ATOM      1  C   UNL d   1      -1.051   1.316   1.101  0.00  0.00     0.023 A 
ATOM      2  C1  UNL d   1      -0.686   1.626  -0.209  0.00  0.00     0.003 A 
ATOM      3  C2  UNL d   1      -0.100   0.652  -1.020  0.00  0.00     0.048 A 
ATOM      4  C3  UNL d   1       0.116  -0.630  -0.515  0.00  0.00     0.023 A 
ATOM      5  C4  UNL d   1      -0.249  -0.944   0.795  0.00  0.00     0.048 A 
ATOM      6  C5  UNL d   1      -0.834   0.033   1.602  0.00  0.00     0.003 A 
ATOM      7  I   UNL d   1       0.987  -2.082  -1.721  0.00  0.00    -0.146 I 
ENDROOT
TORSDOF 0
ENDMDL
