MODEL 1
REMARK minimizedAffinity -1.46952927
REMARK minimizedRMSD -1
REMARK  0 active torsions:
REMARK  status: ('A' for Active; 'I' for Inactive)
ROOT
ATOM      1  C   UNL d   1      -0.559   1.277   0.733  0.00  0.00     0.023 A 
ATOM      2  C1  UNL d   1       0.022   1.444  -0.524  0.00  0.00     0.003 A 
ATOM      3  C2  UNL d   1       0.431   0.330  -1.260  0.00  0.00     0.048 A 
ATOM      4  C3  UNL d   1       0.255  -0.949  -0.733  0.00  0.00     0.023 A 
ATOM      5  C4  UNL d   1      -0.327  -1.121   0.524  0.00  0.00     0.048 A 
ATOM      6  C5  UNL d   1      -0.733  -0.004   1.257  0.00  0.00     0.003 A 
ATOM      7  I   UNL d   1       0.863  -2.609  -1.826  0.00  0.00    -0.146 I 
ENDROOT
TORSDOF 0
ENDMDL
