MODEL 1
REMARK minimizedAffinity -0.606877983
REMARK minimizedRMSD -1
REMARK  0 active torsions:
REMARK  status: ('A' for Active; 'I' for Inactive)
ROOT
ATOM      1  C   UNL d   1       0.082   1.219  -0.523  0.00  0.00     0.023 A 
ATOM      2  C1  UNL d   1      -0.850   0.287  -0.065  0.00  0.00     0.003 A 
ATOM      3  C2  UNL d   1      -0.752  -1.050  -0.456  0.00  0.00     0.048 A 
ATOM      4  C3  UNL d   1       0.281  -1.449  -1.304  0.00  0.00     0.023 A 
ATOM      5  C4  UNL d   1       1.216  -0.520  -1.764  0.00  0.00     0.048 A 
ATOM      6  C5  UNL d   1       1.113   0.816  -1.372  0.00  0.00     0.003 A 
ATOM      7  I   UNL d   1       0.429  -3.439  -1.886  0.00  0.00    -0.146 I 
ENDROOT
TORSDOF 0
ENDMDL
