MODEL 1
REMARK minimizedAffinity -1.57844841
REMARK minimizedRMSD -1
REMARK  0 active torsions:
REMARK  status: ('A' for Active; 'I' for Inactive)
ROOT
ATOM      1  C   UNL d   1       1.760  -0.462  -1.873  0.00  0.00     0.023 A 
ATOM      2  C1  UNL d   1       1.625   0.883  -1.527  0.00  0.00     0.003 A 
ATOM      3  C2  UNL d   1       0.742   1.258  -0.512  0.00  0.00     0.048 A 
ATOM      4  C3  UNL d   1      -0.000   0.283   0.154  0.00  0.00     0.023 A 
ATOM      5  C4  UNL d   1       0.133  -1.063  -0.188  0.00  0.00     0.048 A 
ATOM      6  C5  UNL d   1       1.016  -1.434  -1.205  0.00  0.00     0.003 A 
ATOM      7  I   UNL d   1      -1.313   0.839   1.666  0.00  0.00    -0.146 I 
ENDROOT
TORSDOF 0
ENDMDL
