MODEL 1
REMARK minimizedAffinity -1.8120445
REMARK minimizedRMSD -1
REMARK  0 active torsions:
REMARK  status: ('A' for Active; 'I' for Inactive)
ROOT
ATOM      1  C   UNL d   1      -1.229   1.309   2.394  0.00  0.00     0.023 A 
ATOM      2  C1  UNL d   1      -0.872  -0.024   2.596  0.00  0.00     0.003 A 
ATOM      3  C2  UNL d   1      -0.264  -0.749   1.569  0.00  0.00     0.048 A 
ATOM      4  C3  UNL d   1      -0.017  -0.135   0.342  0.00  0.00     0.023 A 
ATOM      5  C4  UNL d   1      -0.372   1.199   0.135  0.00  0.00     0.048 A 
ATOM      6  C5  UNL d   1      -0.980   1.920   1.164  0.00  0.00     0.003 A 
ATOM      7  I   UNL d   1       0.887  -1.212  -1.189  0.00  0.00    -0.146 I 
ENDROOT
TORSDOF 0
ENDMDL
