MODEL 1
REMARK minimizedAffinity -4.33757257
REMARK minimizedRMSD -1
REMARK  0 active torsions:
REMARK  status: ('A' for Active; 'I' for Inactive)
ROOT
ATOM      1  C   UNL d   1      -1.724   1.726   1.306  0.00  0.00     0.023 A 
ATOM      2  C1  UNL d   1      -1.634   0.432   1.820  0.00  0.00     0.003 A 
ATOM      3  C2  UNL d   1      -0.965  -0.561   1.101  0.00  0.00     0.048 A 
ATOM      4  C3  UNL d   1      -0.387  -0.253  -0.129  0.00  0.00     0.023 A 
ATOM      5  C4  UNL d   1      -0.473   1.041  -0.647  0.00  0.00     0.048 A 
ATOM      6  C5  UNL d   1      -1.144   2.030   0.074  0.00  0.00     0.003 A 
ATOM      7  I   UNL d   1       0.610  -1.729  -1.200  0.00  0.00    -0.146 I 
ENDROOT
TORSDOF 0
ENDMDL
