MODEL 1
REMARK minimizedAffinity -3.89193225
REMARK minimizedRMSD -1
REMARK  0 active torsions:
REMARK  status: ('A' for Active; 'I' for Inactive)
ROOT
ATOM      1  C   UNL d   1      -1.932   2.628   1.550  0.00  0.00     0.023 A 
ATOM      2  C1  UNL d   1      -1.211   2.897   0.386  0.00  0.00     0.003 A 
ATOM      3  C2  UNL d   1      -0.474   1.884  -0.230  0.00  0.00     0.048 A 
ATOM      4  C3  UNL d   1      -0.462   0.604   0.323  0.00  0.00     0.023 A 
ATOM      5  C4  UNL d   1      -1.181   0.330   1.487  0.00  0.00     0.048 A 
ATOM      6  C5  UNL d   1      -1.917   1.346   2.100  0.00  0.00     0.003 A 
ATOM      7  I   UNL d   1       0.635  -0.906  -0.592  0.00  0.00    -0.146 I 
ENDROOT
TORSDOF 0
ENDMDL
