MODEL 1
REMARK minimizedAffinity -2.08077765
REMARK minimizedRMSD -1
REMARK  0 active torsions:
REMARK  status: ('A' for Active; 'I' for Inactive)
ROOT
ATOM      1  C   UNL d   1      -1.948   1.851   1.736  0.00  0.00     0.023 A 
ATOM      2  C1  UNL d   1      -2.275   1.726   0.386  0.00  0.00     0.003 A 
ATOM      3  C2  UNL d   1      -1.529   0.883  -0.440  0.00  0.00     0.048 A 
ATOM      4  C3  UNL d   1      -0.457   0.166   0.091  0.00  0.00     0.023 A 
ATOM      5  C4  UNL d   1      -0.127   0.287   1.442  0.00  0.00     0.048 A 
ATOM      6  C5  UNL d   1      -0.875   1.132   2.263  0.00  0.00     0.003 A 
ATOM      7  I   UNL d   1       0.655  -1.090  -1.136  0.00  0.00    -0.146 I 
ENDROOT
TORSDOF 0
ENDMDL
