MODEL 1
REMARK minimizedAffinity -4.18183613
REMARK minimizedRMSD -1
REMARK  0 active torsions:
REMARK  status: ('A' for Active; 'I' for Inactive)
ROOT
ATOM      1  C   UNL d   1      -1.624   2.124   1.536  0.00  0.00     0.023 A 
ATOM      2  C1  UNL d   1      -1.171   2.473   0.263  0.00  0.00     0.003 A 
ATOM      3  C2  UNL d   1      -0.521   1.527  -0.532  0.00  0.00     0.048 A 
ATOM      4  C3  UNL d   1      -0.328   0.233  -0.048  0.00  0.00     0.023 A 
ATOM      5  C4  UNL d   1      -0.780  -0.121   1.224  0.00  0.00     0.048 A 
ATOM      6  C5  UNL d   1      -1.429   0.829   2.015  0.00  0.00     0.003 A 
ATOM      7  I   UNL d   1       0.639  -1.178  -1.230  0.00  0.00    -0.146 I 
ENDROOT
TORSDOF 0
ENDMDL
