MODEL 1
REMARK minimizedAffinity -2.16483665
REMARK minimizedRMSD -1
REMARK  0 active torsions:
REMARK  status: ('A' for Active; 'I' for Inactive)
ROOT
ATOM      1  C   UNL d   1       1.205  -1.838  -1.831  0.00  0.00     0.023 A 
ATOM      2  C1  UNL d   1       1.629  -0.555  -1.486  0.00  0.00     0.003 A 
ATOM      3  C2  UNL d   1       0.931   0.177  -0.523  0.00  0.00     0.048 A 
ATOM      4  C3  UNL d   1      -0.189  -0.381   0.092  0.00  0.00     0.023 A 
ATOM      5  C4  UNL d   1      -0.617  -1.665  -0.250  0.00  0.00     0.048 A 
ATOM      6  C5  UNL d   1       0.084  -2.393  -1.214  0.00  0.00     0.003 A 
ATOM      7  I   UNL d   1      -1.230   0.707   1.525  0.00  0.00    -0.146 I 
ENDROOT
TORSDOF 0
ENDMDL
