MODEL 1
REMARK minimizedAffinity -4.22501993
REMARK minimizedRMSD -1
REMARK  0 active torsions:
REMARK  status: ('A' for Active; 'I' for Inactive)
ROOT
ATOM      1  C   UNL d   1      -0.842   1.278   0.794  0.00  0.00     0.023 A 
ATOM      2  C1  UNL d   1      -1.503   0.056   0.923  0.00  0.00     0.003 A 
ATOM      3  C2  UNL d   1      -1.100  -1.041   0.160  0.00  0.00     0.048 A 
ATOM      4  C3  UNL d   1      -0.034  -0.911  -0.730  0.00  0.00     0.023 A 
ATOM      5  C4  UNL d   1       0.631   0.309  -0.861  0.00  0.00     0.048 A 
ATOM      6  C5  UNL d   1       0.224   1.404  -0.097  0.00  0.00     0.003 A 
ATOM      7  I   UNL d   1       0.568  -2.543  -1.867  0.00  0.00    -0.146 I 
ENDROOT
TORSDOF 0
ENDMDL
