MODEL 1
REMARK minimizedAffinity -1.87399614
REMARK minimizedRMSD -1
REMARK  0 active torsions:
REMARK  status: ('A' for Active; 'I' for Inactive)
ROOT
ATOM      1  C1  DEN d   1       0.479  -0.284  -2.182  0.00  0.00     0.130 A 
ATOM      2  C2  DEN d   1       0.908   0.119  -0.845  0.00  0.00    -0.031 A 
ATOM      3  C3  DEN d   1       1.070  -1.102  -0.030  0.00  0.00     0.027 A 
ATOM      4  C4  DEN d   1       0.708  -3.565  -0.707  0.00  0.00     0.027 A 
ATOM      5  C5  DEN d   1       0.332  -4.403  -1.734  0.00  0.00    -0.003 A 
ATOM      6  C6  DEN d   1      -0.051  -3.929  -2.961  0.00  0.00     0.001 A 
ATOM      7  C7  DEN d   1      -0.022  -2.582  -3.207  0.00  0.00     0.017 A 
ATOM      8  C8  DEN d   1       0.348  -1.730  -2.175  0.00  0.00    -0.094 A 
ATOM      9  C9  DEN d   1       0.743  -2.229  -0.945  0.00  0.00    -0.072 A 
ENDROOT
TORSDOF 0
ENDMDL
