MODEL 1
REMARK minimizedAffinity -2.05577159
REMARK minimizedRMSD -1
REMARK  0 active torsions:
REMARK  status: ('A' for Active; 'I' for Inactive)
ROOT
ATOM      1  C1  DEN d   1      -0.140   0.195  -0.076  0.00  0.00     0.130 A 
ATOM      2  C2  DEN d   1      -0.656  -0.352   1.176  0.00  0.00    -0.031 A 
ATOM      3  C3  DEN d   1      -1.142   0.774   2.000  0.00  0.00     0.027 A 
ATOM      4  C4  DEN d   1      -1.147   3.296   1.460  0.00  0.00     0.027 A 
ATOM      5  C5  DEN d   1      -0.800   4.244   0.523  0.00  0.00    -0.003 A 
ATOM      6  C6  DEN d   1      -0.183   3.915  -0.655  0.00  0.00     0.001 A 
ATOM      7  C7  DEN d   1       0.065   2.600  -0.947  0.00  0.00     0.017 A 
ATOM      8  C8  DEN d   1      -0.275   1.639  -0.004  0.00  0.00    -0.094 A 
ATOM      9  C9  DEN d   1      -0.909   1.990   1.176  0.00  0.00    -0.072 A 
ENDROOT
TORSDOF 0
ENDMDL
