MODEL 1
REMARK minimizedAffinity -3.06455398
REMARK minimizedRMSD -1
REMARK  0 active torsions:
REMARK  status: ('A' for Active; 'I' for Inactive)
ROOT
ATOM      1  C1  DEN d   1      -0.659   3.439   1.082  0.00  0.00     0.130 A 
ATOM      2  C2  DEN d   1      -0.012   3.965  -0.116  0.00  0.00    -0.031 A 
ATOM      3  C3  DEN d   1       0.534   2.825  -0.879  0.00  0.00     0.027 A 
ATOM      4  C4  DEN d   1       0.436   0.308  -0.327  0.00  0.00     0.027 A 
ATOM      5  C5  DEN d   1       0.002  -0.624   0.590  0.00  0.00    -0.003 A 
ATOM      6  C6  DEN d   1      -0.648  -0.268   1.742  0.00  0.00     0.001 A 
ATOM      7  C7  DEN d   1      -0.922   1.052   1.986  0.00  0.00     0.017 A 
ATOM      8  C8  DEN d   1      -0.481   1.998   1.070  0.00  0.00    -0.094 A 
ATOM      9  C9  DEN d   1       0.163   1.617  -0.095  0.00  0.00    -0.072 A 
ENDROOT
TORSDOF 0
ENDMDL
