MODEL 1
REMARK minimizedAffinity -2.52590656
REMARK minimizedRMSD -1
REMARK  0 active torsions:
REMARK  status: ('A' for Active; 'I' for Inactive)
ROOT
ATOM      1  C1  DEN d   1      -0.937   1.258   1.912  0.00  0.00     0.130 A 
ATOM      2  C2  DEN d   1      -0.777  -0.004   2.629  0.00  0.00    -0.031 A 
ATOM      3  C3  DEN d   1       0.290  -0.776   1.963  0.00  0.00     0.027 A 
ATOM      4  C4  DEN d   1       1.708  -0.143  -0.096  0.00  0.00     0.027 A 
ATOM      5  C5  DEN d   1       1.928   0.823  -1.054  0.00  0.00    -0.003 A 
ATOM      6  C6  DEN d   1       1.191   1.976  -1.110  0.00  0.00     0.001 A 
ATOM      7  C7  DEN d   1       0.229   2.214  -0.164  0.00  0.00     0.017 A 
ATOM      8  C8  DEN d   1      -0.003   1.242   0.800  0.00  0.00    -0.094 A 
ATOM      9  C9  DEN d   1       0.760   0.088   0.847  0.00  0.00    -0.072 A 
ENDROOT
TORSDOF 0
ENDMDL
