MODEL 1
REMARK minimizedAffinity -1.40462577
REMARK minimizedRMSD -1
REMARK  0 active torsions:
REMARK  status: ('A' for Active; 'I' for Inactive)
ROOT
ATOM      1  C1  DEN d   1      -0.267   0.310  -0.599  0.00  0.00     0.130 A 
ATOM      2  C2  DEN d   1      -0.134   0.159   0.847  0.00  0.00    -0.031 A 
ATOM      3  C3  DEN d   1       0.289  -1.228   1.125  0.00  0.00     0.027 A 
ATOM      4  C4  DEN d   1       0.753  -3.146  -0.536  0.00  0.00     0.027 A 
ATOM      5  C5  DEN d   1       0.763  -3.501  -1.866  0.00  0.00    -0.003 A 
ATOM      6  C6  DEN d   1       0.401  -2.628  -2.858  0.00  0.00     0.001 A 
ATOM      7  C7  DEN d   1       0.057  -1.341  -2.537  0.00  0.00     0.017 A 
ATOM      8  C8  DEN d   1       0.037  -0.978  -1.196  0.00  0.00    -0.094 A 
ATOM      9  C9  DEN d   1       0.418  -1.872  -0.210  0.00  0.00    -0.072 A 
ENDROOT
TORSDOF 0
ENDMDL
