MODEL 1
REMARK minimizedAffinity -1.74309838
REMARK minimizedRMSD -1
REMARK  0 active torsions:
REMARK  status: ('A' for Active; 'I' for Inactive)
ROOT
ATOM      1  C1  DEN d   1       0.926  -2.145   0.034  0.00  0.00     0.130 A 
ATOM      2  C2  DEN d   1       1.705  -1.592  -1.071  0.00  0.00    -0.031 A 
ATOM      3  C3  DEN d   1       1.434  -0.142  -1.139  0.00  0.00     0.027 A 
ATOM      4  C4  DEN d   1      -0.104   1.294   0.352  0.00  0.00     0.027 A 
ATOM      5  C5  DEN d   1      -0.981   1.268   1.414  0.00  0.00    -0.003 A 
ATOM      6  C6  DEN d   1      -1.308   0.107   2.063  0.00  0.00     0.001 A 
ATOM      7  C7  DEN d   1      -0.718  -1.071   1.685  0.00  0.00     0.017 A 
ATOM      8  C8  DEN d   1       0.162  -1.054   0.611  0.00  0.00    -0.094 A 
ATOM      9  C9  DEN d   1       0.488   0.132  -0.024  0.00  0.00    -0.072 A 
ENDROOT
TORSDOF 0
ENDMDL
