MODEL 1
REMARK minimizedAffinity -1.42043376
REMARK minimizedRMSD -1
REMARK  0 active torsions:
REMARK  status: ('A' for Active; 'I' for Inactive)
ROOT
ATOM      1  C1  DEN d   1      -0.381   0.205  -1.317  0.00  0.00     0.130 A 
ATOM      2  C2  DEN d   1      -0.124   0.256   0.120  0.00  0.00    -0.031 A 
ATOM      3  C3  DEN d   1       0.542  -1.003   0.510  0.00  0.00     0.027 A 
ATOM      4  C4  DEN d   1       1.200  -3.014  -0.964  0.00  0.00     0.027 A 
ATOM      5  C5  DEN d   1       1.176  -3.523  -2.244  0.00  0.00    -0.003 A 
ATOM      6  C6  DEN d   1       0.605  -2.846  -3.289  0.00  0.00     0.001 A 
ATOM      7  C7  DEN d   1       0.075  -1.600  -3.082  0.00  0.00     0.017 A 
ATOM      8  C8  DEN d   1       0.089  -1.083  -1.793  0.00  0.00    -0.094 A 
ATOM      9  C9  DEN d   1       0.682  -1.778  -0.752  0.00  0.00    -0.072 A 
ENDROOT
TORSDOF 0
ENDMDL
