MODEL 1
REMARK minimizedAffinity -0.922594309
REMARK minimizedRMSD -1
REMARK  0 active torsions:
REMARK  status: ('A' for Active; 'I' for Inactive)
ROOT
ATOM      1  C1  DEN d   1       0.939  -0.376  -1.384  0.00  0.00     0.130 A 
ATOM      2  C2  DEN d   1       1.597  -0.661  -0.113  0.00  0.00    -0.031 A 
ATOM      3  C3  DEN d   1       1.566  -2.122   0.100  0.00  0.00     0.027 A 
ATOM      4  C4  DEN d   1       0.571  -3.961  -1.411  0.00  0.00     0.027 A 
ATOM      5  C5  DEN d   1      -0.102  -4.204  -2.588  0.00  0.00    -0.003 A 
ATOM      6  C6  DEN d   1      -0.501  -3.195  -3.423  0.00  0.00     0.001 A 
ATOM      7  C7  DEN d   1      -0.192  -1.896  -3.115  0.00  0.00     0.017 A 
ATOM      8  C8  DEN d   1       0.480  -1.642  -1.926  0.00  0.00    -0.094 A 
ATOM      9  C9  DEN d   1       0.886  -2.678  -1.101  0.00  0.00    -0.072 A 
ENDROOT
TORSDOF 0
ENDMDL
