MODEL 1
REMARK minimizedAffinity -2.61239409
REMARK minimizedRMSD -1
REMARK  0 active torsions:
REMARK  status: ('A' for Active; 'I' for Inactive)
ROOT
ATOM      1  C1  DEN d   1       0.248  -1.786  -0.072  0.00  0.00     0.130 A 
ATOM      2  C2  DEN d   1       1.066  -1.338  -1.195  0.00  0.00    -0.031 A 
ATOM      3  C3  DEN d   1       1.047   0.139  -1.214  0.00  0.00     0.027 A 
ATOM      4  C4  DEN d   1      -0.159   1.766   0.383  0.00  0.00     0.027 A 
ATOM      5  C5  DEN d   1      -0.984   1.855   1.481  0.00  0.00    -0.003 A 
ATOM      6  C6  DEN d   1      -1.480   0.747   2.114  0.00  0.00     0.001 A 
ATOM      7  C7  DEN d   1      -1.119  -0.501   1.679  0.00  0.00     0.017 A 
ATOM      8  C8  DEN d   1      -0.293  -0.599   0.568  0.00  0.00    -0.094 A 
ATOM      9  C9  DEN d   1       0.208   0.534  -0.051  0.00  0.00    -0.072 A 
ENDROOT
TORSDOF 0
ENDMDL
