MODEL 1
REMARK minimizedAffinity -1.57835948
REMARK minimizedRMSD -1
REMARK  0 active torsions:
REMARK  status: ('A' for Active; 'I' for Inactive)
ROOT
ATOM      1  C1  DEN d   1       0.003  -0.092  -2.040  0.00  0.00     0.130 A 
ATOM      2  C2  DEN d   1       0.529   0.346  -0.750  0.00  0.00    -0.031 A 
ATOM      3  C3  DEN d   1       1.156  -0.818  -0.093  0.00  0.00     0.027 A 
ATOM      4  C4  DEN d   1       1.366  -3.244  -0.946  0.00  0.00     0.027 A 
ATOM      5  C5  DEN d   1       1.062  -4.100  -1.981  0.00  0.00    -0.003 A 
ATOM      6  C6  DEN d   1       0.360  -3.691  -3.084  0.00  0.00     0.001 A 
ATOM      7  C7  DEN d   1      -0.023  -2.381  -3.198  0.00  0.00     0.017 A 
ATOM      8  C8  DEN d   1       0.274  -1.513  -2.155  0.00  0.00    -0.094 A 
ATOM      9  C9  DEN d   1       0.995  -1.943  -1.054  0.00  0.00    -0.072 A 
ENDROOT
TORSDOF 0
ENDMDL
