MODEL 1
REMARK minimizedAffinity -2.74225187
REMARK minimizedRMSD -1
REMARK  0 active torsions:
REMARK  status: ('A' for Active; 'I' for Inactive)
ROOT
ATOM      1  C1  DEN d   1       0.339   2.805  -1.175  0.00  0.00     0.130 A 
ATOM      2  C2  DEN d   1      -0.094   4.054  -0.554  0.00  0.00    -0.031 A 
ATOM      3  C3  DEN d   1      -0.665   3.733   0.769  0.00  0.00     0.027 A 
ATOM      4  C4  DEN d   1      -0.915   1.434   1.913  0.00  0.00     0.027 A 
ATOM      5  C5  DEN d   1      -0.702   0.081   1.771  0.00  0.00    -0.003 A 
ATOM      6  C6  DEN d   1      -0.163  -0.458   0.633  0.00  0.00     0.001 A 
ATOM      7  C7  DEN d   1       0.223   0.365  -0.391  0.00  0.00     0.017 A 
ATOM      8  C8  DEN d   1       0.005   1.730  -0.258  0.00  0.00    -0.094 A 
ATOM      9  C9  DEN d   1      -0.529   2.257   0.905  0.00  0.00    -0.072 A 
ENDROOT
TORSDOF 0
ENDMDL
