MODEL 1
REMARK minimizedAffinity -1.63457203
REMARK minimizedRMSD -1
REMARK  0 active torsions:
REMARK  status: ('A' for Active; 'I' for Inactive)
ROOT
ATOM      1  C1  DEN d   1       0.733  -1.350   0.031  0.00  0.00     0.130 A 
ATOM      2  C2  DEN d   1       1.234  -0.064  -0.446  0.00  0.00    -0.031 A 
ATOM      3  C3  DEN d   1       1.424  -0.162  -1.907  0.00  0.00     0.027 A 
ATOM      4  C4  DEN d   1       0.990  -2.168  -3.469  0.00  0.00     0.027 A 
ATOM      5  C5  DEN d   1       0.573  -3.480  -3.522  0.00  0.00    -0.003 A 
ATOM      6  C6  DEN d   1       0.215  -4.179  -2.399  0.00  0.00     0.001 A 
ATOM      7  C7  DEN d   1       0.225  -3.554  -1.180  0.00  0.00     0.017 A 
ATOM      8  C8  DEN d   1       0.651  -2.234  -1.118  0.00  0.00    -0.094 A 
ATOM      9  C9  DEN d   1       0.997  -1.542  -2.266  0.00  0.00    -0.072 A 
ENDROOT
TORSDOF 0
ENDMDL
