MODEL 1
REMARK minimizedAffinity -4.2069335
REMARK minimizedRMSD -1
REMARK  0 active torsions:
REMARK  status: ('A' for Active; 'I' for Inactive)
ROOT
ATOM      1  C1  DEN d   1       0.565  -0.444  -0.479  0.00  0.00     0.130 A 
ATOM      2  C2  DEN d   1       0.135  -1.209   0.688  0.00  0.00    -0.031 A 
ATOM      3  C3  DEN d   1      -0.576  -0.290   1.600  0.00  0.00     0.027 A 
ATOM      4  C4  DEN d   1      -1.052   2.229   1.318  0.00  0.00     0.027 A 
ATOM      5  C5  DEN d   1      -0.873   3.320   0.497  0.00  0.00    -0.003 A 
ATOM      6  C6  DEN d   1      -0.178   3.242  -0.681  0.00  0.00     0.001 A 
ATOM      7  C7  DEN d   1       0.325   2.036  -1.093  0.00  0.00     0.017 A 
ATOM      8  C8  DEN d   1       0.154   0.932  -0.267  0.00  0.00    -0.094 A 
ATOM      9  C9  DEN d   1      -0.562   1.030   0.914  0.00  0.00    -0.072 A 
ENDROOT
TORSDOF 0
ENDMDL
