MODEL 1
REMARK minimizedAffinity -3.60169172
REMARK minimizedRMSD -1
REMARK  0 active torsions:
REMARK  status: ('A' for Active; 'I' for Inactive)
ROOT
ATOM      1  C1  DEN d   1      -0.373   3.516   0.774  0.00  0.00     0.130 A 
ATOM      2  C2  DEN d   1       0.259   3.817  -0.508  0.00  0.00    -0.031 A 
ATOM      3  C3  DEN d   1       0.586   2.537  -1.168  0.00  0.00     0.027 A 
ATOM      4  C4  DEN d   1       0.173   0.131  -0.337  0.00  0.00     0.027 A 
ATOM      5  C5  DEN d   1      -0.325  -0.629   0.699  0.00  0.00    -0.003 A 
ATOM      6  C6  DEN d   1      -0.838  -0.066   1.837  0.00  0.00     0.001 A 
ATOM      7  C7  DEN d   1      -0.906   1.298   1.948  0.00  0.00     0.017 A 
ATOM      8  C8  DEN d   1      -0.400   2.071   0.911  0.00  0.00    -0.094 A 
ATOM      9  C9  DEN d   1       0.104   1.483  -0.236  0.00  0.00    -0.072 A 
ENDROOT
TORSDOF 0
ENDMDL
