MODEL 1
REMARK minimizedAffinity -4.76930809
REMARK minimizedRMSD -1
REMARK  0 active torsions:
REMARK  status: ('A' for Active; 'I' for Inactive)
ROOT
ATOM      1  C1  DEN d   1      -0.281  -1.038   1.101  0.00  0.00     0.130 A 
ATOM      2  C2  DEN d   1       0.585  -1.219  -0.060  0.00  0.00    -0.031 A 
ATOM      3  C3  DEN d   1       0.664   0.071  -0.776  0.00  0.00     0.027 A 
ATOM      4  C4  DEN d   1      -0.462   2.318  -0.200  0.00  0.00     0.027 A 
ATOM      5  C5  DEN d   1      -1.300   2.959   0.686  0.00  0.00    -0.003 A 
ATOM      6  C6  DEN d   1      -1.879   2.310   1.744  0.00  0.00     0.001 A 
ATOM      7  C7  DEN d   1      -1.593   0.990   1.969  0.00  0.00     0.017 A 
ATOM      8  C8  DEN d   1      -0.754   0.335   1.076  0.00  0.00    -0.094 A 
ATOM      9  C9  DEN d   1      -0.169   1.012   0.020  0.00  0.00    -0.072 A 
ENDROOT
TORSDOF 0
ENDMDL
