MODEL 1
REMARK minimizedAffinity 6.32767725
REMARK minimizedRMSD -1
REMARK  0 active torsions:
REMARK  status: ('A' for Active; 'I' for Inactive)
ROOT
ATOM      1  C   UNL d   1       3.536   0.301  -4.881  0.00  0.00     0.124 A 
ATOM      2  C1  UNL d   1       2.460  -0.127  -4.116  0.00  0.00     0.062 A 
ATOM      3  C2  UNL d   1       1.529   0.793  -3.642  0.00  0.00     0.162 A 
ATOM      4  C3  UNL d   1       1.668   2.150  -3.934  0.00  0.00    -0.034 A 
ATOM      5  C4  UNL d   1       2.754   2.572  -4.703  0.00  0.00     0.162 A 
ATOM      6  C5  UNL d   1       3.682   1.650  -5.174  0.00  0.00     0.062 A 
ATOM      7  F   UNL d   1       4.721   2.065  -5.913  0.00  0.00    -0.097 F 
ATOM      8  F1  UNL d   1       2.919   3.870  -5.001  0.00  0.00    -0.096 F 
ATOM      9  I   UNL d   1       0.278   3.528  -3.228  0.00  0.00    -0.060 I 
ATOM     10  F2  UNL d   1       0.498   0.351  -2.905  0.00  0.00    -0.096 F 
ATOM     11  F3  UNL d   1       2.317  -1.429  -3.831  0.00  0.00    -0.097 F 
ATOM     12  F4  UNL d   1       4.432  -0.586  -5.334  0.00  0.00    -0.092 F 
ENDROOT
TORSDOF 0
ENDMDL
