MODEL 1
REMARK minimizedAffinity 0.749197423
REMARK minimizedRMSD -1
REMARK  0 active torsions:
REMARK  status: ('A' for Active; 'I' for Inactive)
ROOT
ATOM      1  C   UNL d   1       0.349   0.133   1.285  0.00  0.00     0.124 A 
ATOM      2  C1  UNL d   1       0.873   0.900   0.253  0.00  0.00     0.062 A 
ATOM      3  C2  UNL d   1       0.824   0.438  -1.058  0.00  0.00     0.162 A 
ATOM      4  C3  UNL d   1       0.247  -0.799  -1.347  0.00  0.00    -0.034 A 
ATOM      5  C4  UNL d   1      -0.276  -1.566  -0.305  0.00  0.00     0.162 A 
ATOM      6  C5  UNL d   1      -0.224  -1.099   1.005  0.00  0.00     0.062 A 
ATOM      7  F   UNL d   1      -0.731  -1.843   2.000  0.00  0.00    -0.097 F 
ATOM      8  F1  UNL d   1      -0.837  -2.760  -0.547  0.00  0.00    -0.096 F 
ATOM      9  I   UNL d   1       0.172  -1.495  -3.307  0.00  0.00    -0.060 I 
ATOM     10  F2  UNL d   1       1.337   1.201  -2.035  0.00  0.00    -0.096 F 
ATOM     11  F3  UNL d   1       1.429   2.091   0.521  0.00  0.00    -0.097 F 
ATOM     12  F4  UNL d   1       0.399   0.580   2.546  0.00  0.00    -0.092 F 
ENDROOT
TORSDOF 0
ENDMDL
