MODEL 1
REMARK minimizedAffinity 3.99230242
REMARK minimizedRMSD -1
REMARK  0 active torsions:
REMARK  status: ('A' for Active; 'I' for Inactive)
ROOT
ATOM      1  C   UNL d   1      -1.896   0.034   0.349  0.00  0.00     0.124 A 
ATOM      2  C1  UNL d   1      -2.021   0.640  -0.894  0.00  0.00     0.062 A 
ATOM      3  C2  UNL d   1      -0.949   0.645  -1.782  0.00  0.00     0.162 A 
ATOM      4  C3  UNL d   1       0.258   0.041  -1.431  0.00  0.00    -0.034 A 
ATOM      5  C4  UNL d   1       0.377  -0.566  -0.179  0.00  0.00     0.162 A 
ATOM      6  C5  UNL d   1      -0.697  -0.568   0.705  0.00  0.00     0.062 A 
ATOM      7  F   UNL d   1      -0.574  -1.153   1.905  0.00  0.00    -0.097 F 
ATOM      8  F1  UNL d   1       1.524  -1.155   0.191  0.00  0.00    -0.096 F 
ATOM      9  I   UNL d   1       1.863   0.046  -2.756  0.00  0.00    -0.060 I 
ATOM     10  F2  UNL d   1      -1.099   1.238  -2.976  0.00  0.00    -0.096 F 
ATOM     11  F3  UNL d   1      -3.178   1.223  -1.240  0.00  0.00    -0.097 F 
ATOM     12  F4  UNL d   1      -2.928   0.032   1.201  0.00  0.00    -0.092 F 
ENDROOT
TORSDOF 0
ENDMDL
