MODEL 1
REMARK minimizedAffinity 2.26243067
REMARK minimizedRMSD -1
REMARK  0 active torsions:
REMARK  status: ('A' for Active; 'I' for Inactive)
ROOT
ATOM      1  C   UNL d   1      -0.808   0.864  -1.712  0.00  0.00     0.124 A 
ATOM      2  C1  UNL d   1       0.362   0.472  -1.077  0.00  0.00     0.062 A 
ATOM      3  C2  UNL d   1       0.324   0.004   0.234  0.00  0.00     0.162 A 
ATOM      4  C3  UNL d   1      -0.889  -0.075   0.918  0.00  0.00    -0.034 A 
ATOM      5  C4  UNL d   1      -2.062   0.322   0.272  0.00  0.00     0.162 A 
ATOM      6  C5  UNL d   1      -2.018   0.789  -1.037  0.00  0.00     0.062 A 
ATOM      7  F   UNL d   1      -3.150   1.168  -1.650  0.00  0.00    -0.097 F 
ATOM      8  F1  UNL d   1      -3.245   0.259   0.901  0.00  0.00    -0.096 F 
ATOM      9  I   UNL d   1      -0.950  -0.774   2.877  0.00  0.00    -0.060 I 
ATOM     10  F2  UNL d   1       1.470  -0.368   0.823  0.00  0.00    -0.096 F 
ATOM     11  F3  UNL d   1       1.533   0.545  -1.726  0.00  0.00    -0.097 F 
ATOM     12  F4  UNL d   1      -0.768   1.315  -2.973  0.00  0.00    -0.092 F 
ENDROOT
TORSDOF 0
ENDMDL
