MODEL 1
REMARK minimizedAffinity 1.79714954
REMARK minimizedRMSD -1
REMARK  0 active torsions:
REMARK  status: ('A' for Active; 'I' for Inactive)
ROOT
ATOM      1  C   UNL d   1      -2.040  -0.490   0.847  0.00  0.00     0.124 A 
ATOM      2  C1  UNL d   1      -1.532   0.141  -0.280  0.00  0.00     0.062 A 
ATOM      3  C2  UNL d   1      -0.239   0.655  -0.271  0.00  0.00     0.162 A 
ATOM      4  C3  UNL d   1       0.556   0.539   0.869  0.00  0.00    -0.034 A 
ATOM      5  C4  UNL d   1       0.038  -0.096   1.999  0.00  0.00     0.162 A 
ATOM      6  C5  UNL d   1      -1.255  -0.609   1.985  0.00  0.00     0.062 A 
ATOM      7  F   UNL d   1      -1.744  -1.218   3.074  0.00  0.00    -0.097 F 
ATOM      8  F1  UNL d   1       0.776  -0.225   3.112  0.00  0.00    -0.096 F 
ATOM      9  I   UNL d   1       2.491   1.307   0.887  0.00  0.00    -0.060 I 
ATOM     10  F2  UNL d   1       0.226   1.261  -1.374  0.00  0.00    -0.096 F 
ATOM     11  F3  UNL d   1      -2.289   0.257  -1.380  0.00  0.00    -0.097 F 
ATOM     12  F4  UNL d   1      -3.286  -0.983   0.835  0.00  0.00    -0.092 F 
ENDROOT
TORSDOF 0
ENDMDL
