MODEL 1
REMARK minimizedAffinity 0.86041832
REMARK minimizedRMSD -1
REMARK  0 active torsions:
REMARK  status: ('A' for Active; 'I' for Inactive)
ROOT
ATOM      1  C   UNL d   1      -1.566  -0.911   0.862  0.00  0.00     0.124 A 
ATOM      2  C1  UNL d   1      -1.977   0.043  -0.058  0.00  0.00     0.062 A 
ATOM      3  C2  UNL d   1      -1.143   0.405  -1.112  0.00  0.00     0.162 A 
ATOM      4  C3  UNL d   1       0.112  -0.188  -1.252  0.00  0.00    -0.034 A 
ATOM      5  C4  UNL d   1       0.519  -1.146  -0.322  0.00  0.00     0.162 A 
ATOM      6  C5  UNL d   1      -0.318  -1.504   0.730  0.00  0.00     0.062 A 
ATOM      7  F   UNL d   1       0.082  -2.426   1.618  0.00  0.00    -0.097 F 
ATOM      8  F1  UNL d   1       1.719  -1.736  -0.426  0.00  0.00    -0.096 F 
ATOM      9  I   UNL d   1       1.362   0.351  -2.826  0.00  0.00    -0.060 I 
ATOM     10  F2  UNL d   1      -1.567   1.329  -1.987  0.00  0.00    -0.096 F 
ATOM     11  F3  UNL d   1      -3.182   0.618   0.068  0.00  0.00    -0.097 F 
ATOM     12  F4  UNL d   1      -2.370  -1.256   1.876  0.00  0.00    -0.092 F 
ENDROOT
TORSDOF 0
ENDMDL
