MODEL 1
REMARK minimizedAffinity -2.25449085
REMARK minimizedRMSD -1
REMARK  0 active torsions:
REMARK  status: ('A' for Active; 'I' for Inactive)
ROOT
ATOM      1  C   UNL d   1       0.227   0.253   1.774  0.00  0.00     0.124 A 
ATOM      2  C1  UNL d   1       1.082   0.828   0.844  0.00  0.00     0.062 A 
ATOM      3  C2  UNL d   1       1.214   0.271  -0.424  0.00  0.00     0.162 A 
ATOM      4  C3  UNL d   1       0.488  -0.869  -0.771  0.00  0.00    -0.034 A 
ATOM      5  C4  UNL d   1      -0.369  -1.442   0.169  0.00  0.00     0.162 A 
ATOM      6  C5  UNL d   1      -0.497  -0.881   1.436  0.00  0.00     0.062 A 
ATOM      7  F   UNL d   1      -1.324  -1.438   2.333  0.00  0.00    -0.097 F 
ATOM      8  F1  UNL d   1      -1.082  -2.538  -0.131  0.00  0.00    -0.096 F 
ATOM      9  I   UNL d   1       0.683  -1.705  -2.667  0.00  0.00    -0.060 I 
ATOM     10  F2  UNL d   1       2.048   0.848  -1.303  0.00  0.00    -0.096 F 
ATOM     11  F3  UNL d   1       1.784   1.924   1.169  0.00  0.00    -0.097 F 
ATOM     12  F4  UNL d   1       0.103   0.791   2.994  0.00  0.00    -0.092 F 
ENDROOT
TORSDOF 0
ENDMDL
