MODEL 1
REMARK minimizedAffinity 1.2323668
REMARK minimizedRMSD -1
REMARK  0 active torsions:
REMARK  status: ('A' for Active; 'I' for Inactive)
ROOT
ATOM      1  C   UNL d   1      -0.978  -0.205   2.818  0.00  0.00     0.124 A 
ATOM      2  C1  UNL d   1      -1.736  -0.810   1.825  0.00  0.00     0.062 A 
ATOM      3  C2  UNL d   1      -1.366  -0.687   0.489  0.00  0.00     0.162 A 
ATOM      4  C3  UNL d   1      -0.231   0.044   0.138  0.00  0.00    -0.034 A 
ATOM      5  C4  UNL d   1       0.526   0.650   1.142  0.00  0.00     0.162 A 
ATOM      6  C5  UNL d   1       0.152   0.524   2.476  0.00  0.00     0.062 A 
ATOM      7  F   UNL d   1       0.886   1.110   3.433  0.00  0.00    -0.097 F 
ATOM      8  F1  UNL d   1       1.623   1.360   0.839  0.00  0.00    -0.096 F 
ATOM      9  I   UNL d   1       0.326   0.230  -1.859  0.00  0.00    -0.060 I 
ATOM     10  F2  UNL d   1      -2.117  -1.282  -0.449  0.00  0.00    -0.096 F 
ATOM     11  F3  UNL d   1      -2.828  -1.515   2.153  0.00  0.00    -0.097 F 
ATOM     12  F4  UNL d   1      -1.336  -0.324   4.103  0.00  0.00    -0.092 F 
ENDROOT
TORSDOF 0
ENDMDL
