MODEL 1
REMARK minimizedAffinity -2.24735093
REMARK minimizedRMSD -1
REMARK  0 active torsions:
REMARK  status: ('A' for Active; 'I' for Inactive)
ROOT
ATOM      1  C   UNL d   1      -1.486  -0.617   0.480  0.00  0.00     0.124 A 
ATOM      2  C1  UNL d   1      -0.766  -0.570   1.666  0.00  0.00     0.062 A 
ATOM      3  C2  UNL d   1       0.445   0.113   1.724  0.00  0.00     0.162 A 
ATOM      4  C3  UNL d   1       0.945   0.755   0.591  0.00  0.00    -0.034 A 
ATOM      5  C4  UNL d   1       0.217   0.703  -0.599  0.00  0.00     0.162 A 
ATOM      6  C5  UNL d   1      -0.994   0.019  -0.651  0.00  0.00     0.062 A 
ATOM      7  F   UNL d   1      -1.687  -0.025  -1.798  0.00  0.00    -0.097 F 
ATOM      8  F1  UNL d   1       0.668   1.310  -1.706  0.00  0.00    -0.096 F 
ATOM      9  I   UNL d   1       2.757   1.777   0.672  0.00  0.00    -0.060 I 
ATOM     10  F2  UNL d   1       1.119   0.142   2.883  0.00  0.00    -0.096 F 
ATOM     11  F3  UNL d   1      -1.239  -1.185   2.760  0.00  0.00    -0.097 F 
ATOM     12  F4  UNL d   1      -2.651  -1.275   0.428  0.00  0.00    -0.092 F 
ENDROOT
TORSDOF 0
ENDMDL
