MODEL 1
REMARK minimizedAffinity 3.78811479
REMARK minimizedRMSD -1
REMARK  0 active torsions:
REMARK  status: ('A' for Active; 'I' for Inactive)
ROOT
ATOM      1  C   UNL d   1       0.789  -1.142  -3.248  0.00  0.00     0.124 A 
ATOM      2  C1  UNL d   1      -0.411  -0.625  -2.781  0.00  0.00     0.062 A 
ATOM      3  C2  UNL d   1      -0.540  -0.251  -1.446  0.00  0.00     0.162 A 
ATOM      4  C3  UNL d   1       0.536  -0.392  -0.569  0.00  0.00    -0.034 A 
ATOM      5  C4  UNL d   1       1.739  -0.914  -1.046  0.00  0.00     0.162 A 
ATOM      6  C5  UNL d   1       1.863  -1.286  -2.381  0.00  0.00     0.062 A 
ATOM      7  F   UNL d   1       3.024  -1.786  -2.830  0.00  0.00    -0.097 F 
ATOM      8  F1  UNL d   1       2.793  -1.063  -0.230  0.00  0.00    -0.096 F 
ATOM      9  I   UNL d   1       0.347   0.166   1.427  0.00  0.00    -0.060 I 
ATOM     10  F2  UNL d   1      -1.711   0.246  -1.022  0.00  0.00    -0.096 F 
ATOM     11  F3  UNL d   1      -1.450  -0.486  -3.617  0.00  0.00    -0.097 F 
ATOM     12  F4  UNL d   1       0.910  -1.503  -4.532  0.00  0.00    -0.092 F 
ENDROOT
TORSDOF 0
ENDMDL
