MODEL 1
REMARK minimizedAffinity -4.49306536
REMARK minimizedRMSD -1
REMARK  0 active torsions:
REMARK  status: ('A' for Active; 'I' for Inactive)
ROOT
ATOM      1  C   UNL d   1      -1.696   0.605   2.530  0.00  0.00     0.124 A 
ATOM      2  C1  UNL d   1      -2.304   1.109   1.388  0.00  0.00     0.062 A 
ATOM      3  C2  UNL d   1      -1.783   0.815   0.131  0.00  0.00     0.162 A 
ATOM      4  C3  UNL d   1      -0.648   0.013   0.009  0.00  0.00    -0.034 A 
ATOM      5  C4  UNL d   1      -0.042  -0.488   1.162  0.00  0.00     0.162 A 
ATOM      6  C5  UNL d   1      -0.567  -0.192   2.416  0.00  0.00     0.062 A 
ATOM      7  F   UNL d   1       0.022  -0.680   3.518  0.00  0.00    -0.097 F 
ATOM      8  F1  UNL d   1       1.050  -1.263   1.081  0.00  0.00    -0.096 F 
ATOM      9  I   UNL d   1       0.133  -0.427  -1.869  0.00  0.00    -0.060 I 
ATOM     10  F2  UNL d   1      -2.390   1.315  -0.955  0.00  0.00    -0.096 F 
ATOM     11  F3  UNL d   1      -3.395   1.881   1.496  0.00  0.00    -0.097 F 
ATOM     12  F4  UNL d   1      -2.199   0.890   3.738  0.00  0.00    -0.092 F 
ENDROOT
TORSDOF 0
ENDMDL
