MODEL 1
REMARK minimizedAffinity -3.41311073
REMARK minimizedRMSD -1
REMARK  0 active torsions:
REMARK  status: ('A' for Active; 'I' for Inactive)
ROOT
ATOM      1  C   UNL d   1       1.392   0.008   1.064  0.00  0.00     0.124 A 
ATOM      2  C1  UNL d   1       0.833   0.401  -0.145  0.00  0.00     0.062 A 
ATOM      3  C2  UNL d   1      -0.549   0.411  -0.307  0.00  0.00     0.162 A 
ATOM      4  C3  UNL d   1      -1.384   0.027   0.743  0.00  0.00    -0.034 A 
ATOM      5  C4  UNL d   1      -0.815  -0.368   1.955  0.00  0.00     0.162 A 
ATOM      6  C5  UNL d   1       0.567  -0.376   2.112  0.00  0.00     0.062 A 
ATOM      7  F   UNL d   1       1.105  -0.756   3.281  0.00  0.00    -0.097 F 
ATOM      8  F1  UNL d   1      -1.588  -0.743   2.985  0.00  0.00    -0.096 F 
ATOM      9  I   UNL d   1      -3.451   0.040   0.504  0.00  0.00    -0.060 I 
ATOM     10  F2  UNL d   1      -1.061   0.795  -1.486  0.00  0.00    -0.096 F 
ATOM     11  F3  UNL d   1       1.627   0.772  -1.159  0.00  0.00    -0.097 F 
ATOM     12  F4  UNL d   1       2.722  -0.001   1.217  0.00  0.00    -0.092 F 
ENDROOT
TORSDOF 0
ENDMDL
