MODEL 1
REMARK minimizedAffinity -2.20202088
REMARK minimizedRMSD -1
REMARK  0 active torsions:
REMARK  status: ('A' for Active; 'I' for Inactive)
ROOT
ATOM      1  C   UNL d   1      -1.812  -0.448   2.572  0.00  0.00     0.124 A 
ATOM      2  C1  UNL d   1      -0.438  -0.642   2.594  0.00  0.00     0.062 A 
ATOM      3  C2  UNL d   1       0.319  -0.414   1.448  0.00  0.00     0.162 A 
ATOM      4  C3  UNL d   1      -0.296   0.012   0.271  0.00  0.00    -0.034 A 
ATOM      5  C4  UNL d   1      -1.679   0.204   0.257  0.00  0.00     0.162 A 
ATOM      6  C5  UNL d   1      -2.431  -0.025   1.404  0.00  0.00     0.062 A 
ATOM      7  F   UNL d   1      -3.759   0.163   1.382  0.00  0.00    -0.097 F 
ATOM      8  F1  UNL d   1      -2.303   0.613  -0.858  0.00  0.00    -0.096 F 
ATOM      9  I   UNL d   1       0.832   0.353  -1.444  0.00  0.00    -0.060 I 
ATOM     10  F2  UNL d   1       1.645  -0.610   1.498  0.00  0.00    -0.096 F 
ATOM     11  F3  UNL d   1       0.162  -1.051   3.721  0.00  0.00    -0.097 F 
ATOM     12  F4  UNL d   1      -2.538  -0.668   3.676  0.00  0.00    -0.092 F 
ENDROOT
TORSDOF 0
ENDMDL
