MODEL 1
REMARK minimizedAffinity -2.13762236
REMARK minimizedRMSD -1
REMARK  0 active torsions:
REMARK  status: ('A' for Active; 'I' for Inactive)
ROOT
ATOM      1  C   UNL d   1      -1.407  -0.490   1.536  0.00  0.00     0.124 A 
ATOM      2  C1  UNL d   1      -1.898   0.138   0.399  0.00  0.00     0.062 A 
ATOM      3  C2  UNL d   1      -1.110   0.231  -0.744  0.00  0.00     0.162 A 
ATOM      4  C3  UNL d   1       0.178  -0.306  -0.758  0.00  0.00    -0.034 A 
ATOM      5  C4  UNL d   1       0.664  -0.935   0.389  0.00  0.00     0.162 A 
ATOM      6  C5  UNL d   1      -0.127  -1.026   1.530  0.00  0.00     0.062 A 
ATOM      7  F   UNL d   1       0.349  -1.633   2.627  0.00  0.00    -0.097 F 
ATOM      8  F1  UNL d   1       1.898  -1.463   0.411  0.00  0.00    -0.096 F 
ATOM      9  I   UNL d   1       1.359  -0.169  -2.466  0.00  0.00    -0.060 I 
ATOM     10  F2  UNL d   1      -1.610   0.843  -1.828  0.00  0.00    -0.096 F 
ATOM     11  F3  UNL d   1      -3.134   0.657   0.403  0.00  0.00    -0.097 F 
ATOM     12  F4  UNL d   1      -2.167  -0.577   2.635  0.00  0.00    -0.092 F 
ENDROOT
TORSDOF 0
ENDMDL
