MODEL 1
REMARK minimizedAffinity -1.06186998
REMARK minimizedRMSD -1
REMARK  0 active torsions:
REMARK  status: ('A' for Active; 'I' for Inactive)
ROOT
ATOM      1  C   UNL d   1      -0.609   0.045   2.250  0.00  0.00     0.124 A 
ATOM      2  C1  UNL d   1       0.776   0.123   2.183  0.00  0.00     0.062 A 
ATOM      3  C2  UNL d   1       1.418   0.113   0.948  0.00  0.00     0.162 A 
ATOM      4  C3  UNL d   1       0.677   0.027  -0.230  0.00  0.00    -0.034 A 
ATOM      5  C4  UNL d   1      -0.715  -0.051  -0.155  0.00  0.00     0.162 A 
ATOM      6  C5  UNL d   1      -1.352  -0.041   1.082  0.00  0.00     0.062 A 
ATOM      7  F   UNL d   1      -2.690  -0.116   1.144  0.00  0.00    -0.097 F 
ATOM      8  F1  UNL d   1      -1.458  -0.135  -1.268  0.00  0.00    -0.096 F 
ATOM      9  I   UNL d   1       1.634   0.012  -2.078  0.00  0.00    -0.060 I 
ATOM     10  F2  UNL d   1       2.757   0.189   0.913  0.00  0.00    -0.096 F 
ATOM     11  F3  UNL d   1       1.496   0.206   3.310  0.00  0.00    -0.097 F 
ATOM     12  F4  UNL d   1      -1.224   0.054   3.439  0.00  0.00    -0.092 F 
ENDROOT
TORSDOF 0
ENDMDL
