MODEL 1
REMARK minimizedAffinity 8.89256191
REMARK minimizedRMSD -1
REMARK  2 active torsions:
REMARK  status: ('A' for Active; 'I' for Inactive)
REMARK    1  A    between atoms: C1_2  and  C2_3 
REMARK    2  A    between atoms: C2_3  and  C3_4 
ROOT
ATOM      1  C3  UNL d   1       4.671  -2.770   0.736  0.00  0.00    -0.075 A 
ATOM      2  C4  UNL d   1       4.856  -4.145   0.533  0.00  0.00     0.002 A 
ATOM      3  C5  UNL d   1       3.762  -4.980   0.303  0.00  0.00     0.002 A 
ATOM      4  C6  UNL d   1       2.472  -4.454   0.283  0.00  0.00    -0.004 A 
ATOM      5  C7  UNL d   1       2.276  -3.092   0.500  0.00  0.00     0.002 A 
ATOM      6  C8  UNL d   1       3.369  -2.253   0.726  0.00  0.00     0.002 A 
ENDROOT
BRANCH   1   7
ATOM      7  C2  UNL d   1       5.853  -1.856   0.956  0.00  0.00     0.056 C 
BRANCH   7   8
ATOM      8  C1  UNL d   1       5.999  -0.758  -0.103  0.00  0.00     0.007 C 
ATOM      9  C   UNL d   1       5.242   0.516   0.246  0.00  0.00     0.009 C 
ENDBRANCH   7   8
ENDBRANCH   1   7
TORSDOF 2
ENDMDL
