MODEL 1
REMARK minimizedAffinity 2.71287274
REMARK minimizedRMSD -1
REMARK  2 active torsions:
REMARK  status: ('A' for Active; 'I' for Inactive)
REMARK    1  A    between atoms: C1_2  and  C2_3 
REMARK    2  A    between atoms: C2_3  and  C3_4 
ROOT
ATOM      1  C3  UNL d   1      -4.373   0.175  -2.708  0.00  0.00    -0.075 A 
ATOM      2  C4  UNL d   1      -5.178  -0.008  -3.842  0.00  0.00     0.002 A 
ATOM      3  C5  UNL d   1      -5.096  -1.185  -4.587  0.00  0.00     0.002 A 
ATOM      4  C6  UNL d   1      -4.202  -2.186  -4.215  0.00  0.00    -0.004 A 
ATOM      5  C7  UNL d   1      -3.385  -2.008  -3.101  0.00  0.00     0.002 A 
ATOM      6  C8  UNL d   1      -3.468  -0.834  -2.351  0.00  0.00     0.002 A 
ENDROOT
BRANCH   1   7
ATOM      7  C2  UNL d   1      -4.478   1.434  -1.881  0.00  0.00     0.056 C 
BRANCH   7   8
ATOM      8  C1  UNL d   1      -3.158   2.198  -1.736  0.00  0.00     0.007 C 
ATOM      9  C   UNL d   1      -2.601   2.692  -3.064  0.00  0.00     0.009 C 
ENDBRANCH   7   8
ENDBRANCH   1   7
TORSDOF 2
ENDMDL
