MODEL 1
REMARK minimizedAffinity 4.37170506
REMARK minimizedRMSD -1
REMARK  2 active torsions:
REMARK  status: ('A' for Active; 'I' for Inactive)
REMARK    1  A    between atoms: C1_2  and  C2_3 
REMARK    2  A    between atoms: C2_3  and  C3_4 
ROOT
ATOM      1  C3  UNL d   1       1.830  -1.871   0.471  0.00  0.00    -0.075 A 
ATOM      2  C4  UNL d   1       0.797  -2.071   1.397  0.00  0.00     0.002 A 
ATOM      3  C5  UNL d   1       0.209  -3.328   1.543  0.00  0.00     0.002 A 
ATOM      4  C6  UNL d   1       0.639  -4.396   0.759  0.00  0.00    -0.004 A 
ATOM      5  C7  UNL d   1       1.654  -4.205  -0.176  0.00  0.00     0.002 A 
ATOM      6  C8  UNL d   1       2.247  -2.950  -0.321  0.00  0.00     0.002 A 
ENDROOT
BRANCH   1   7
ATOM      7  C2  UNL d   1       2.490  -0.521   0.329  0.00  0.00     0.056 C 
BRANCH   7   8
ATOM      8  C1  UNL d   1       3.948  -0.585  -0.139  0.00  0.00     0.007 C 
ATOM      9  C   UNL d   1       4.668   0.754  -0.046  0.00  0.00     0.009 C 
ENDBRANCH   7   8
ENDBRANCH   1   7
TORSDOF 2
ENDMDL
