MODEL 1
REMARK minimizedAffinity 8.70085144
REMARK minimizedRMSD -1
REMARK  2 active torsions:
REMARK  status: ('A' for Active; 'I' for Inactive)
REMARK    1  A    between atoms: C1_2  and  C2_3 
REMARK    2  A    between atoms: C2_3  and  C3_4 
ROOT
ATOM      1  C3  UNL d   1      -4.267   0.049  -2.859  0.00  0.00    -0.075 A 
ATOM      2  C4  UNL d   1      -4.098  -1.336  -2.711  0.00  0.00     0.002 A 
ATOM      3  C5  UNL d   1      -4.864  -2.227  -3.463  0.00  0.00     0.002 A 
ATOM      4  C6  UNL d   1      -5.812  -1.747  -4.364  0.00  0.00    -0.004 A 
ATOM      5  C7  UNL d   1      -5.999  -0.374  -4.507  0.00  0.00     0.002 A 
ATOM      6  C8  UNL d   1      -5.232   0.520  -3.759  0.00  0.00     0.002 A 
ENDROOT
BRANCH   1   7
ATOM      7  C2  UNL d   1      -3.421   1.019  -2.069  0.00  0.00     0.056 C 
BRANCH   7   8
ATOM      8  C1  UNL d   1      -2.561   1.946  -2.935  0.00  0.00     0.007 C 
ATOM      9  C   UNL d   1      -3.367   2.715  -3.974  0.00  0.00     0.009 C 
ENDBRANCH   7   8
ENDBRANCH   1   7
TORSDOF 2
ENDMDL
