MODEL 1
REMARK minimizedAffinity 8.86186028
REMARK minimizedRMSD -1
REMARK  2 active torsions:
REMARK  status: ('A' for Active; 'I' for Inactive)
REMARK    1  A    between atoms: C1_2  and  C2_3 
REMARK    2  A    between atoms: C2_3  and  C3_4 
ROOT
ATOM      1  C3  UNL d   1       1.489  -2.756   0.724  0.00  0.00    -0.075 A 
ATOM      2  C4  UNL d   1       2.388  -1.979   1.468  0.00  0.00     0.002 A 
ATOM      3  C5  UNL d   1       1.923  -1.089   2.437  0.00  0.00     0.002 A 
ATOM      4  C6  UNL d   1       0.555  -0.957   2.666  0.00  0.00    -0.004 A 
ATOM      5  C7  UNL d   1      -0.349  -1.712   1.921  0.00  0.00     0.002 A 
ATOM      6  C8  UNL d   1       0.114  -2.607   0.955  0.00  0.00     0.002 A 
ENDROOT
BRANCH   1   7
ATOM      7  C2  UNL d   1       1.987  -3.743  -0.305  0.00  0.00     0.056 C 
BRANCH   7   8
ATOM      8  C1  UNL d   1       1.979  -5.199   0.172  0.00  0.00     0.007 C 
ATOM      9  C   UNL d   1       0.621  -5.653   0.691  0.00  0.00     0.009 C 
ENDBRANCH   7   8
ENDBRANCH   1   7
TORSDOF 2
ENDMDL
