MODEL 1
REMARK minimizedAffinity -2.69054794
REMARK minimizedRMSD -1
REMARK  1 active torsions:
REMARK  status: ('A' for Active; 'I' for Inactive)
REMARK    1  A    between atoms: C1_2  and  C2_3 
ROOT
ATOM      1  C2  UNL d   1      -0.256   0.918   0.664  0.00  0.00    -0.081 A 
ATOM      2  C3  UNL d   1       0.843   0.092   0.931  0.00  0.00     0.006 A 
ATOM      3  C4  UNL d   1       0.890  -1.209   0.426  0.00  0.00     0.002 A 
ATOM      4  C5  UNL d   1      -0.156  -1.703  -0.361  0.00  0.00    -0.080 A 
ATOM      5  C6  UNL d   1      -0.104  -3.088  -0.935  0.00  0.00     0.076 C 
ATOM      6  C7  UNL d   1      -1.261  -0.884  -0.614  0.00  0.00     0.002 A 
ATOM      7  C8  UNL d   1      -1.309   0.417  -0.109  0.00  0.00     0.006 A 
ENDROOT
BRANCH   1   8
ATOM      8  C1  UNL d   1      -0.280   2.344   1.153  0.00  0.00     0.054 C 
ATOM      9  C   UNL d   1      -1.664   2.959   0.998  0.00  0.00     0.018 C 
ENDBRANCH   1   8
TORSDOF 1
ENDMDL
