MODEL 1
REMARK minimizedAffinity -4.39257956
REMARK minimizedRMSD -1
REMARK  1 active torsions:
REMARK  status: ('A' for Active; 'I' for Inactive)
REMARK    1  A    between atoms: C1_2  and  C2_3 
ROOT
ATOM      1  C2  UNL d   1      -0.298  -1.156  -0.310  0.00  0.00    -0.081 A 
ATOM      2  C3  UNL d   1       0.539  -0.813   0.758  0.00  0.00     0.006 A 
ATOM      3  C4  UNL d   1       0.890   0.521   0.982  0.00  0.00     0.002 A 
ATOM      4  C5  UNL d   1       0.404   1.532   0.147  0.00  0.00    -0.080 A 
ATOM      5  C6  UNL d   1       0.749   2.971   0.395  0.00  0.00     0.076 C 
ATOM      6  C7  UNL d   1      -0.418   1.187  -0.931  0.00  0.00     0.002 A 
ATOM      7  C8  UNL d   1      -0.769  -0.146  -1.155  0.00  0.00     0.006 A 
ENDROOT
BRANCH   1   8
ATOM      8  C1  UNL d   1      -0.731  -2.586  -0.516  0.00  0.00     0.054 C 
ATOM      9  C   UNL d   1      -0.796  -2.937  -1.995  0.00  0.00     0.018 C 
ENDBRANCH   1   8
TORSDOF 1
ENDMDL
