MODEL 1
REMARK minimizedAffinity -4.08063984
REMARK minimizedRMSD -1
REMARK  1 active torsions:
REMARK  status: ('A' for Active; 'I' for Inactive)
REMARK    1  A    between atoms: C1_2  and  C2_3 
ROOT
ATOM      1  C2  UNL d   1      -0.259  -1.306  -0.589  0.00  0.00    -0.081 A 
ATOM      2  C3  UNL d   1       0.908  -0.691  -0.119  0.00  0.00     0.006 A 
ATOM      3  C4  UNL d   1       0.893   0.648   0.276  0.00  0.00     0.002 A 
ATOM      4  C5  UNL d   1      -0.290   1.393   0.215  0.00  0.00    -0.080 A 
ATOM      5  C6  UNL d   1      -0.326   2.824   0.664  0.00  0.00     0.076 C 
ATOM      6  C7  UNL d   1      -1.452   0.785  -0.272  0.00  0.00     0.002 A 
ATOM      7  C8  UNL d   1      -1.437  -0.554  -0.667  0.00  0.00     0.006 A 
ENDROOT
BRANCH   1   8
ATOM      8  C1  UNL d   1      -0.262  -2.768  -0.955  0.00  0.00     0.054 C 
ATOM      9  C   UNL d   1      -0.437  -2.963  -2.454  0.00  0.00     0.018 C 
ENDBRANCH   1   8
TORSDOF 1
ENDMDL
