MODEL 1
REMARK minimizedAffinity -4.67667532
REMARK minimizedRMSD -1
REMARK  1 active torsions:
REMARK  status: ('A' for Active; 'I' for Inactive)
REMARK    1  A    between atoms: C1_2  and  C2_3 
ROOT
ATOM      1  C2  UNL d   1       0.179  -0.825   0.382  0.00  0.00    -0.081 A 
ATOM      2  C3  UNL d   1       1.466  -0.273   0.357  0.00  0.00     0.006 A 
ATOM      3  C4  UNL d   1       1.642   1.108   0.243  0.00  0.00     0.002 A 
ATOM      4  C5  UNL d   1       0.536   1.960   0.160  0.00  0.00    -0.080 A 
ATOM      5  C6  UNL d   1       0.711   3.447   0.068  0.00  0.00     0.076 C 
ATOM      6  C7  UNL d   1      -0.749   1.408   0.167  0.00  0.00     0.002 A 
ATOM      7  C8  UNL d   1      -0.926   0.027   0.280  0.00  0.00     0.006 A 
ENDROOT
BRANCH   1   8
ATOM      8  C1  UNL d   1      -0.015  -2.308   0.570  0.00  0.00     0.054 C 
ATOM      9  C   UNL d   1      -0.476  -2.973  -0.719  0.00  0.00     0.018 C 
ENDBRANCH   1   8
TORSDOF 1
ENDMDL
