MODEL 1
REMARK minimizedAffinity -4.98053789
REMARK minimizedRMSD -1
REMARK  1 active torsions:
REMARK  status: ('A' for Active; 'I' for Inactive)
REMARK    1  A    between atoms: C1_2  and  C2_3 
ROOT
ATOM      1  C2  UNL d   1      -0.248  -0.094  -0.515  0.00  0.00    -0.081 A 
ATOM      2  C3  UNL d   1       1.051   0.382  -0.730  0.00  0.00     0.006 A 
ATOM      3  C4  UNL d   1       1.349   1.734  -0.543  0.00  0.00     0.002 A 
ATOM      4  C5  UNL d   1       0.356   2.630  -0.132  0.00  0.00    -0.080 A 
ATOM      5  C6  UNL d   1       0.670   4.078   0.101  0.00  0.00     0.076 C 
ATOM      6  C7  UNL d   1      -0.946   2.157   0.066  0.00  0.00     0.002 A 
ATOM      7  C8  UNL d   1      -1.244   0.806  -0.121  0.00  0.00     0.006 A 
ENDROOT
BRANCH   1   8
ATOM      8  C1  UNL d   1      -0.558  -1.563  -0.652  0.00  0.00     0.054 C 
ATOM      9  C   UNL d   1      -0.492  -2.009  -2.106  0.00  0.00     0.018 C 
ENDBRANCH   1   8
TORSDOF 1
ENDMDL
