MODEL 1
REMARK minimizedAffinity -5.3188982
REMARK minimizedRMSD -1
REMARK  1 active torsions:
REMARK  status: ('A' for Active; 'I' for Inactive)
REMARK    1  A    between atoms: C1_2  and  C2_3 
ROOT
ATOM      1  C2  UNL d   1       0.033  -0.707  -0.225  0.00  0.00    -0.081 A 
ATOM      2  C3  UNL d   1      -0.950   0.290  -0.247  0.00  0.00     0.006 A 
ATOM      3  C4  UNL d   1      -0.636   1.602   0.115  0.00  0.00     0.002 A 
ATOM      4  C5  UNL d   1       0.667   1.941   0.497  0.00  0.00    -0.080 A 
ATOM      5  C6  UNL d   1       1.024   3.352   0.859  0.00  0.00     0.076 C 
ATOM      6  C7  UNL d   1       1.645   0.941   0.536  0.00  0.00     0.002 A 
ATOM      7  C8  UNL d   1       1.331  -0.371   0.174  0.00  0.00     0.006 A 
ENDROOT
BRANCH   1   8
ATOM      8  C1  UNL d   1      -0.287  -2.109  -0.677  0.00  0.00     0.054 C 
ATOM      9  C   UNL d   1      -0.625  -2.148  -2.161  0.00  0.00     0.018 C 
ENDBRANCH   1   8
TORSDOF 1
ENDMDL
