MODEL 1
REMARK minimizedAffinity -1.77265489
REMARK minimizedRMSD -1
REMARK  1 active torsions:
REMARK  status: ('A' for Active; 'I' for Inactive)
REMARK    1  A    between atoms: C1_2  and  C2_3 
ROOT
ATOM      1  C2  UNL d   1       0.982   0.883   0.550  0.00  0.00    -0.081 A 
ATOM      2  C3  UNL d   1       0.098  -0.195   0.416  0.00  0.00     0.006 A 
ATOM      3  C4  UNL d   1      -1.278  -0.004   0.559  0.00  0.00     0.002 A 
ATOM      4  C5  UNL d   1      -1.794   1.267   0.831  0.00  0.00    -0.080 A 
ATOM      5  C6  UNL d   1      -3.272   1.491   0.957  0.00  0.00     0.076 C 
ATOM      6  C7  UNL d   1      -0.911   2.341   0.982  0.00  0.00     0.002 A 
ATOM      7  C8  UNL d   1       0.466   2.151   0.840  0.00  0.00     0.006 A 
ENDROOT
BRANCH   1   8
ATOM      8  C1  UNL d   1       2.461   0.693   0.332  0.00  0.00     0.054 C 
ATOM      9  C   UNL d   1       2.899  -0.716   0.704  0.00  0.00     0.018 C 
ENDBRANCH   1   8
TORSDOF 1
ENDMDL
