MODEL 1
REMARK minimizedAffinity -1.74555802
REMARK minimizedRMSD -1
REMARK  1 active torsions:
REMARK  status: ('A' for Active; 'I' for Inactive)
REMARK    1  A    between atoms: C1_2  and  C2_3 
ROOT
ATOM      1  C2  UNL d   1      -0.468  -0.502  -0.056  0.00  0.00    -0.081 A 
ATOM      2  C3  UNL d   1      -1.253   0.305   0.776  0.00  0.00     0.006 A 
ATOM      3  C4  UNL d   1      -0.976   1.668   0.906  0.00  0.00     0.002 A 
ATOM      4  C5  UNL d   1       0.084   2.248   0.200  0.00  0.00    -0.080 A 
ATOM      5  C6  UNL d   1       0.373   3.715   0.307  0.00  0.00     0.076 C 
ATOM      6  C7  UNL d   1       0.879   1.437  -0.618  0.00  0.00     0.002 A 
ATOM      7  C8  UNL d   1       0.603   0.074  -0.747  0.00  0.00     0.006 A 
ENDROOT
BRANCH   1   8
ATOM      8  C1  UNL d   1      -0.804  -1.959  -0.248  0.00  0.00     0.054 C 
ATOM      9  C   UNL d   1      -0.837  -2.330  -1.724  0.00  0.00     0.018 C 
ENDBRANCH   1   8
TORSDOF 1
ENDMDL
