MODEL 1
REMARK minimizedAffinity 4.32104969
REMARK minimizedRMSD -1
REMARK  0 active torsions:
REMARK  status: ('A' for Active; 'I' for Inactive)
ROOT
ATOM      1  C4' PXY d   1       4.382  -2.630   5.999  0.00  0.00     0.077 C 
ATOM      2  C1' PXY d   1       1.173  -1.150   1.424  0.00  0.00     0.077 C 
ATOM      3  C1  PXY d   1       2.012  -1.551   2.621  0.00  0.00    -0.082 A 
ATOM      4  C2  PXY d   1       2.186  -0.694   3.615  0.00  0.00     0.003 A 
ATOM      5  C3  PXY d   1       2.968  -1.028   4.690  0.00  0.00     0.003 A 
ATOM      6  C4  PXY d   1       3.535  -2.272   4.775  0.00  0.00    -0.082 A 
ATOM      7  C5  PXY d   1       3.354  -3.155   3.771  0.00  0.00     0.003 A 
ATOM      8  C6  PXY d   1       2.590  -2.782   2.668  0.00  0.00     0.003 A 
ENDROOT
TORSDOF 0
ENDMDL
