MODEL 1
REMARK minimizedAffinity 8.90682507
REMARK minimizedRMSD -1
REMARK  0 active torsions:
REMARK  status: ('A' for Active; 'I' for Inactive)
ROOT
ATOM      1  C4' PXY d   1       1.503  -0.410   2.552  0.00  0.00     0.077 C 
ATOM      2  C1' PXY d   1       3.433   4.510   0.212  0.00  0.00     0.077 C 
ATOM      3  C1  PXY d   1       2.930   3.214   0.814  0.00  0.00    -0.082 A 
ATOM      4  C2  PXY d   1       2.091   3.250   1.837  0.00  0.00     0.003 A 
ATOM      5  C3  PXY d   1       1.650   2.087   2.415  0.00  0.00     0.003 A 
ATOM      6  C4  PXY d   1       2.030   0.874   1.906  0.00  0.00    -0.082 A 
ATOM      7  C5  PXY d   1       2.877   0.828   0.856  0.00  0.00     0.003 A 
ATOM      8  C6  PXY d   1       3.345   2.020   0.310  0.00  0.00     0.003 A 
ENDROOT
TORSDOF 0
ENDMDL
