MODEL 1
REMARK minimizedAffinity 3.5483067
REMARK minimizedRMSD -1
REMARK  0 active torsions:
REMARK  status: ('A' for Active; 'I' for Inactive)
ROOT
ATOM      1  C4' PXY d   1       1.300  -3.140   5.137  0.00  0.00     0.077 C 
ATOM      2  C1' PXY d   1       3.492   0.094   0.877  0.00  0.00     0.077 C 
ATOM      3  C1  PXY d   1       2.920  -0.765   1.987  0.00  0.00    -0.082 A 
ATOM      4  C2  PXY d   1       1.978  -0.273   2.776  0.00  0.00     0.003 A 
ATOM      5  C3  PXY d   1       1.473  -1.025   3.805  0.00  0.00     0.003 A 
ATOM      6  C4  PXY d   1       1.899  -2.312   3.997  0.00  0.00    -0.082 A 
ATOM      7  C5  PXY d   1       2.853  -2.824   3.190  0.00  0.00     0.003 A 
ATOM      8  C6  PXY d   1       3.382  -2.031   2.177  0.00  0.00     0.003 A 
ENDROOT
TORSDOF 0
ENDMDL
