MODEL 1
REMARK minimizedAffinity 4.1217823
REMARK minimizedRMSD -1
REMARK  0 active torsions:
REMARK  status: ('A' for Active; 'I' for Inactive)
ROOT
ATOM      1  C4' PXY d   1       2.599   1.248   1.971  0.00  0.00     0.077 C 
ATOM      2  C1' PXY d   1       2.102  -4.176   3.908  0.00  0.00     0.077 C 
ATOM      3  C1  PXY d   1       2.238  -2.758   3.389  0.00  0.00    -0.082 A 
ATOM      4  C2  PXY d   1       2.228  -1.746   4.242  0.00  0.00     0.003 A 
ATOM      5  C3  PXY d   1       2.318  -0.455   3.787  0.00  0.00     0.003 A 
ATOM      6  C4  PXY d   1       2.474  -0.201   2.450  0.00  0.00    -0.082 A 
ATOM      7  C5  PXY d   1       2.496  -1.229   1.576  0.00  0.00     0.003 A 
ATOM      8  C6  PXY d   1       2.361  -2.529   2.054  0.00  0.00     0.003 A 
ENDROOT
TORSDOF 0
ENDMDL
