MODEL 1
REMARK minimizedAffinity 13.4638004
REMARK minimizedRMSD -1
REMARK  0 active torsions:
REMARK  status: ('A' for Active; 'I' for Inactive)
ROOT
ATOM      1  C4' PXY d   1      -1.925   4.187  -0.267  0.00  0.00     0.077 C 
ATOM      2  C1' PXY d   1      -5.999   2.448   3.446  0.00  0.00     0.077 C 
ATOM      3  C1  PXY d   1      -4.922   2.904   2.482  0.00  0.00    -0.082 A 
ATOM      4  C2  PXY d   1      -5.261   3.566   1.388  0.00  0.00     0.003 A 
ATOM      5  C3  PXY d   1      -4.302   3.958   0.489  0.00  0.00     0.003 A 
ATOM      6  C4  PXY d   1      -2.978   3.715   0.739  0.00  0.00    -0.082 A 
ATOM      7  C5  PXY d   1      -2.623   3.050   1.858  0.00  0.00     0.003 A 
ATOM      8  C6  PXY d   1      -3.615   2.625   2.738  0.00  0.00     0.003 A 
ENDROOT
TORSDOF 0
ENDMDL
