MODEL 1
REMARK minimizedAffinity 5.85808754
REMARK minimizedRMSD -1
REMARK  0 active torsions:
REMARK  status: ('A' for Active; 'I' for Inactive)
ROOT
ATOM      1  C4' PXY d   1       2.427  -1.076   0.782  0.00  0.00     0.077 C 
ATOM      2  C1' PXY d   1       1.897  -3.673   5.920  0.00  0.00     0.077 C 
ATOM      3  C1  PXY d   1       2.046  -3.000   4.570  0.00  0.00    -0.082 A 
ATOM      4  C2  PXY d   1       1.620  -1.758   4.407  0.00  0.00     0.003 A 
ATOM      5  C3  PXY d   1       1.718  -1.145   3.184  0.00  0.00     0.003 A 
ATOM      6  C4  PXY d   1       2.306  -1.792   2.131  0.00  0.00    -0.082 A 
ATOM      7  C5  PXY d   1       2.753  -3.056   2.291  0.00  0.00     0.003 A 
ATOM      8  C6  PXY d   1       2.607  -3.674   3.529  0.00  0.00     0.003 A 
ENDROOT
TORSDOF 0
ENDMDL
