MODEL 1
REMARK minimizedAffinity 9.84722137
REMARK minimizedRMSD -1
REMARK  0 active torsions:
REMARK  status: ('A' for Active; 'I' for Inactive)
ROOT
ATOM      1  C4' PXY d   1       2.589   0.448   1.527  0.00  0.00     0.077 C 
ATOM      2  C1' PXY d   1       1.623  -3.216   5.893  0.00  0.00     0.077 C 
ATOM      3  C1  PXY d   1       1.889  -2.259   4.747  0.00  0.00    -0.082 A 
ATOM      4  C2  PXY d   1       1.150  -1.169   4.621  0.00  0.00     0.003 A 
ATOM      5  C3  PXY d   1       1.356  -0.309   3.572  0.00  0.00     0.003 A 
ATOM      6  C4  PXY d   1       2.363  -0.541   2.674  0.00  0.00    -0.082 A 
ATOM      7  C5  PXY d   1       3.128  -1.646   2.802  0.00  0.00     0.003 A 
ATOM      8  C6  PXY d   1       2.876  -2.527   3.850  0.00  0.00     0.003 A 
ENDROOT
TORSDOF 0
ENDMDL
