MODEL 1
REMARK minimizedAffinity 4.20418978
REMARK minimizedRMSD -1
REMARK  1 active torsions:
REMARK  status: ('A' for Active; 'I' for Inactive)
REMARK    1  A    between atoms: C1_2  and  C2_3 
ROOT
ATOM      1  C2  UNL d   1       1.087  -5.103  -2.958  0.00  0.00    -0.081 A 
ATOM      2  C3  UNL d   1       1.736  -4.756  -4.149  0.00  0.00     0.006 A 
ATOM      3  C4  UNL d   1       3.094  -5.033  -4.322  0.00  0.00     0.002 A 
ATOM      4  C5  UNL d   1       3.824  -5.669  -3.311  0.00  0.00    -0.080 A 
ATOM      5  C6  UNL d   1       5.275  -5.999  -3.497  0.00  0.00     0.076 C 
ATOM      6  C7  UNL d   1       3.179  -6.000  -2.115  0.00  0.00     0.002 A 
ATOM      7  C8  UNL d   1       1.822  -5.722  -1.940  0.00  0.00     0.006 A 
ENDROOT
BRANCH   1   8
ATOM      8  C1  UNL d   1      -0.392  -4.864  -2.793  0.00  0.00     0.054 C 
ATOM      9  C   UNL d   1      -0.701  -3.379  -2.662  0.00  0.00     0.018 C 
ENDBRANCH   1   8
TORSDOF 1
ENDMDL
