MODEL 1
REMARK minimizedAffinity 11.8372202
REMARK minimizedRMSD -1
REMARK  1 active torsions:
REMARK  status: ('A' for Active; 'I' for Inactive)
REMARK    1  A    between atoms: C1_2  and  C2_3 
ROOT
ATOM      1  C2  UNL d   1      -0.932   4.123   0.215  0.00  0.00    -0.081 A 
ATOM      2  C3  UNL d   1      -1.487   5.208  -0.475  0.00  0.00     0.006 A 
ATOM      3  C4  UNL d   1      -0.780   5.825  -1.510  0.00  0.00     0.002 A 
ATOM      4  C5  UNL d   1       0.489   5.364  -1.876  0.00  0.00    -0.080 A 
ATOM      5  C6  UNL d   1       1.246   5.999  -3.004  0.00  0.00     0.076 C 
ATOM      6  C7  UNL d   1       1.051   4.292  -1.174  0.00  0.00     0.002 A 
ATOM      7  C8  UNL d   1       0.345   3.674  -0.140  0.00  0.00     0.006 A 
ENDROOT
BRANCH   1   8
ATOM      8  C1  UNL d   1      -1.719   3.414   1.288  0.00  0.00     0.054 C 
ATOM      9  C   UNL d   1      -2.971   4.194   1.663  0.00  0.00     0.018 C 
ENDBRANCH   1   8
TORSDOF 1
ENDMDL
