MODEL 1
REMARK minimizedAffinity 9.48227215
REMARK minimizedRMSD -1
REMARK  1 active torsions:
REMARK  status: ('A' for Active; 'I' for Inactive)
REMARK    1  A    between atoms: C1_2  and  C2_3 
ROOT
ATOM      1  C2  UNL d   1      -4.763   3.760  -4.323  0.00  0.00    -0.081 A 
ATOM      2  C3  UNL d   1      -5.971   3.082  -4.117  0.00  0.00     0.006 A 
ATOM      3  C4  UNL d   1      -5.997   1.887  -3.395  0.00  0.00     0.002 A 
ATOM      4  C5  UNL d   1      -4.820   1.355  -2.859  0.00  0.00    -0.080 A 
ATOM      5  C6  UNL d   1      -4.839   0.088  -2.055  0.00  0.00     0.076 C 
ATOM      6  C7  UNL d   1      -3.611   2.023  -3.079  0.00  0.00     0.002 A 
ATOM      7  C8  UNL d   1      -3.583   3.218  -3.802  0.00  0.00     0.006 A 
ENDROOT
BRANCH   1   8
ATOM      8  C1  UNL d   1      -4.740   5.082  -5.046  0.00  0.00     0.054 C 
ATOM      9  C   UNL d   1      -5.949   5.236  -5.957  0.00  0.00     0.018 C 
ENDBRANCH   1   8
TORSDOF 1
ENDMDL
