MODEL 1
REMARK minimizedAffinity -3.94193292
REMARK minimizedRMSD -1
REMARK  1 active torsions:
REMARK  status: ('A' for Active; 'I' for Inactive)
REMARK    1  A    between atoms: C1_2  and  C2_3 
ROOT
ATOM      1  C2  UNL d   1      -4.534   0.007   1.739  0.00  0.00    -0.081 A 
ATOM      2  C3  UNL d   1      -5.588  -0.913   1.712  0.00  0.00     0.006 A 
ATOM      3  C4  UNL d   1      -6.000  -1.554   2.883  0.00  0.00     0.002 A 
ATOM      4  C5  UNL d   1      -5.370  -1.279   4.102  0.00  0.00    -0.080 A 
ATOM      5  C6  UNL d   1      -5.822  -1.937   5.371  0.00  0.00     0.076 C 
ATOM      6  C7  UNL d   1      -4.304  -0.373   4.126  0.00  0.00     0.002 A 
ATOM      7  C8  UNL d   1      -3.892   0.268   2.955  0.00  0.00     0.006 A 
ENDROOT
BRANCH   1   8
ATOM      8  C1  UNL d   1      -4.130   0.748   0.490  0.00  0.00     0.054 C 
ATOM      9  C   UNL d   1      -5.332   1.026  -0.401  0.00  0.00     0.018 C 
ENDBRANCH   1   8
TORSDOF 1
ENDMDL
