MODEL 1
REMARK minimizedAffinity -1.46751106
REMARK minimizedRMSD -1
REMARK  2 active torsions:
REMARK  status: ('A' for Active; 'I' for Inactive)
REMARK    1  A    between atoms: C1_2  and  C2_3 
REMARK    2  A    between atoms: C2_3  and  C3_4 
ROOT
ATOM      1  C3  UNL d   1      -4.566  -1.698  -5.982  0.00  0.00    -0.075 A 
ATOM      2  C4  UNL d   1      -3.399  -2.475  -5.975  0.00  0.00     0.002 A 
ATOM      3  C5  UNL d   1      -3.474  -3.868  -5.988  0.00  0.00     0.002 A 
ATOM      4  C6  UNL d   1      -4.715  -4.501  -5.997  0.00  0.00    -0.004 A 
ATOM      5  C7  UNL d   1      -5.882  -3.739  -5.986  0.00  0.00     0.002 A 
ATOM      6  C8  UNL d   1      -5.809  -2.345  -5.978  0.00  0.00     0.002 A 
ENDROOT
BRANCH   1   7
ATOM      7  C2  UNL d   1      -4.491  -0.190  -5.998  0.00  0.00     0.056 C 
BRANCH   7   8
ATOM      8  C1  UNL d   1      -3.092   0.368  -5.713  0.00  0.00     0.007 C 
ATOM      9  C   UNL d   1      -3.057   1.888  -5.635  0.00  0.00     0.009 C 
ENDBRANCH   7   8
ENDBRANCH   1   7
TORSDOF 2
ENDMDL
