MODEL 1
REMARK minimizedAffinity -1.50031507
REMARK minimizedRMSD -1
REMARK  2 active torsions:
REMARK  status: ('A' for Active; 'I' for Inactive)
REMARK    1  A    between atoms: C1_2  and  C2_3 
REMARK    2  A    between atoms: C2_3  and  C3_4 
ROOT
ATOM      1  C3  UNL d   1      -3.955   1.805  -5.990  0.00  0.00    -0.075 A 
ATOM      2  C4  UNL d   1      -2.605   2.185  -5.999  0.00  0.00     0.002 A 
ATOM      3  C5  UNL d   1      -2.249   3.534  -5.993  0.00  0.00     0.002 A 
ATOM      4  C6  UNL d   1      -3.236   4.518  -5.988  0.00  0.00    -0.004 A 
ATOM      5  C7  UNL d   1      -4.580   4.151  -5.996  0.00  0.00     0.002 A 
ATOM      6  C8  UNL d   1      -4.939   2.802  -5.998  0.00  0.00     0.002 A 
ENDROOT
BRANCH   1   7
ATOM      7  C2  UNL d   1      -4.346   0.346  -5.967  0.00  0.00     0.056 C 
BRANCH   7   8
ATOM      8  C1  UNL d   1      -4.794  -0.158  -4.591  0.00  0.00     0.007 C 
ATOM      9  C   UNL d   1      -5.063  -1.656  -4.559  0.00  0.00     0.009 C 
ENDBRANCH   7   8
ENDBRANCH   1   7
TORSDOF 2
ENDMDL
