MODEL 1
REMARK minimizedAffinity 0.745241523
REMARK minimizedRMSD -1
REMARK  2 active torsions:
REMARK  status: ('A' for Active; 'I' for Inactive)
REMARK    1  A    between atoms: C1_2  and  C2_3 
REMARK    2  A    between atoms: C2_3  and  C3_4 
ROOT
ATOM      1  C3  UNL d   1      -2.259   1.887  -5.957  0.00  0.00    -0.075 A 
ATOM      2  C4  UNL d   1      -2.039   3.272  -5.984  0.00  0.00     0.002 A 
ATOM      3  C5  UNL d   1      -3.115   4.160  -6.000  0.00  0.00     0.002 A 
ATOM      4  C6  UNL d   1      -4.422   3.676  -6.000  0.00  0.00    -0.004 A 
ATOM      5  C7  UNL d   1      -4.652   2.302  -5.990  0.00  0.00     0.002 A 
ATOM      6  C8  UNL d   1      -3.577   1.412  -5.970  0.00  0.00     0.002 A 
ENDROOT
BRANCH   1   7
ATOM      7  C2  UNL d   1      -1.099   0.922  -5.910  0.00  0.00     0.056 C 
BRANCH   7   8
ATOM      8  C1  UNL d   1      -0.497   0.738  -4.513  0.00  0.00     0.007 C 
ATOM      9  C   UNL d   1       0.268  -0.569  -4.356  0.00  0.00     0.009 C 
ENDBRANCH   7   8
ENDBRANCH   1   7
TORSDOF 2
ENDMDL
