MODEL 1
REMARK minimizedAffinity 8.64535999
REMARK minimizedRMSD -1
REMARK  2 active torsions:
REMARK  status: ('A' for Active; 'I' for Inactive)
REMARK    1  A    between atoms: C1_2  and  C2_3 
REMARK    2  A    between atoms: C2_3  and  C3_4 
ROOT
ATOM      1  C3  UNL d   1       1.138  -0.258  -1.981  0.00  0.00    -0.075 A 
ATOM      2  C4  UNL d   1       0.770  -0.678  -0.694  0.00  0.00     0.002 A 
ATOM      3  C5  UNL d   1       1.257  -0.016   0.433  0.00  0.00     0.002 A 
ATOM      4  C6  UNL d   1       2.125   1.065   0.289  0.00  0.00    -0.004 A 
ATOM      5  C7  UNL d   1       2.510   1.479  -0.984  0.00  0.00     0.002 A 
ATOM      6  C8  UNL d   1       2.021   0.822  -2.113  0.00  0.00     0.002 A 
ENDROOT
BRANCH   1   7
ATOM      7  C2  UNL d   1       0.590  -0.952  -3.205  0.00  0.00     0.056 C 
BRANCH   7   8
ATOM      8  C1  UNL d   1      -0.332  -2.135  -2.892  0.00  0.00     0.007 C 
ATOM      9  C   UNL d   1       0.115  -3.435  -3.548  0.00  0.00     0.009 C 
ENDBRANCH   7   8
ENDBRANCH   1   7
TORSDOF 2
ENDMDL
