MODEL 1
REMARK minimizedAffinity 2.92780399
REMARK minimizedRMSD -1
REMARK  2 active torsions:
REMARK  status: ('A' for Active; 'I' for Inactive)
REMARK    1  A    between atoms: C1_2  and  C2_3 
REMARK    2  A    between atoms: C2_3  and  C3_4 
ROOT
ATOM      1  C3  UNL d   1      -4.434   0.377  -5.989  0.00  0.00    -0.075 A 
ATOM      2  C4  UNL d   1      -5.714  -0.194  -5.984  0.00  0.00     0.002 A 
ATOM      3  C5  UNL d   1      -5.871  -1.580  -5.953  0.00  0.00     0.002 A 
ATOM      4  C6  UNL d   1      -4.753  -2.411  -5.938  0.00  0.00    -0.004 A 
ATOM      5  C7  UNL d   1      -3.476  -1.854  -5.960  0.00  0.00     0.002 A 
ATOM      6  C8  UNL d   1      -3.316  -0.468  -5.986  0.00  0.00     0.002 A 
ENDROOT
BRANCH   1   7
ATOM      7  C2  UNL d   1      -4.257   1.877  -5.991  0.00  0.00     0.056 C 
BRANCH   7   8
ATOM      8  C1  UNL d   1      -5.574   2.660  -5.956  0.00  0.00     0.007 C 
ATOM      9  C   UNL d   1      -5.408   4.091  -5.462  0.00  0.00     0.009 C 
ENDBRANCH   7   8
ENDBRANCH   1   7
TORSDOF 2
ENDMDL
