MODEL 1
REMARK minimizedAffinity 1.86393726
REMARK minimizedRMSD -1
REMARK  2 active torsions:
REMARK  status: ('A' for Active; 'I' for Inactive)
REMARK    1  A    between atoms: C1_2  and  C2_3 
REMARK    2  A    between atoms: C2_3  and  C3_4 
ROOT
ATOM      1  C3  UNL d   1      -0.086   1.301   1.446  0.00  0.00    -0.075 A 
ATOM      2  C4  UNL d   1      -1.345   1.827   1.123  0.00  0.00     0.002 A 
ATOM      3  C5  UNL d   1      -2.232   2.210   2.130  0.00  0.00     0.002 A 
ATOM      4  C6  UNL d   1      -1.876   2.063   3.469  0.00  0.00    -0.004 A 
ATOM      5  C7  UNL d   1      -0.634   1.526   3.801  0.00  0.00     0.002 A 
ATOM      6  C8  UNL d   1       0.257   1.146   2.796  0.00  0.00     0.002 A 
ENDROOT
BRANCH   1   7
ATOM      7  C2  UNL d   1       0.889   0.911   0.361  0.00  0.00     0.056 C 
BRANCH   7   8
ATOM      8  C1  UNL d   1       0.328  -0.091  -0.653  0.00  0.00     0.007 C 
ATOM      9  C   UNL d   1       0.997  -0.005  -2.018  0.00  0.00     0.009 C 
ENDBRANCH   7   8
ENDBRANCH   1   7
TORSDOF 2
ENDMDL
