MODEL 1
REMARK minimizedAffinity 3.73082876
REMARK minimizedRMSD -1
REMARK  2 active torsions:
REMARK  status: ('A' for Active; 'I' for Inactive)
REMARK    1  A    between atoms: C1_2  and  C2_3 
REMARK    2  A    between atoms: C2_3  and  C3_4 
ROOT
ATOM      1  C3  UNL d   1      -0.512   0.067  -2.677  0.00  0.00    -0.075 A 
ATOM      2  C4  UNL d   1       0.709  -0.618  -2.605  0.00  0.00     0.002 A 
ATOM      3  C5  UNL d   1       1.531  -0.484  -1.485  0.00  0.00     0.002 A 
ATOM      4  C6  UNL d   1       1.148   0.343  -0.431  0.00  0.00    -0.004 A 
ATOM      5  C7  UNL d   1      -0.055   1.041  -0.500  0.00  0.00     0.002 A 
ATOM      6  C8  UNL d   1      -0.882   0.905  -1.617  0.00  0.00     0.002 A 
ENDROOT
BRANCH   1   7
ATOM      7  C2  UNL d   1      -1.420  -0.097  -3.873  0.00  0.00     0.056 C 
BRANCH   7   8
ATOM      8  C1  UNL d   1      -2.171   1.179  -4.265  0.00  0.00     0.007 C 
ATOM      9  C   UNL d   1      -2.764   1.120  -5.667  0.00  0.00     0.009 C 
ENDBRANCH   7   8
ENDBRANCH   1   7
TORSDOF 2
ENDMDL
