MODEL 1
REMARK minimizedAffinity -3.20391679
REMARK minimizedRMSD -1
REMARK  2 active torsions:
REMARK  status: ('A' for Active; 'I' for Inactive)
REMARK    1  A    between atoms: C1_2  and  C2_3 
REMARK    2  A    between atoms: C2_3  and  C3_4 
ROOT
ATOM      1  C3  UNL d   1      -4.034   0.258  -5.880  0.00  0.00    -0.075 A 
ATOM      2  C4  UNL d   1      -2.758   0.827  -6.000  0.00  0.00     0.002 A 
ATOM      3  C5  UNL d   1      -2.580   2.204  -5.862  0.00  0.00     0.002 A 
ATOM      4  C6  UNL d   1      -3.674   3.029  -5.612  0.00  0.00    -0.004 A 
ATOM      5  C7  UNL d   1      -4.949   2.477  -5.508  0.00  0.00     0.002 A 
ATOM      6  C8  UNL d   1      -5.129   1.099  -5.641  0.00  0.00     0.002 A 
ENDROOT
BRANCH   1   7
ATOM      7  C2  UNL d   1      -4.229  -1.234  -5.999  0.00  0.00     0.056 C 
BRANCH   7   8
ATOM      8  C1  UNL d   1      -5.588  -1.728  -5.490  0.00  0.00     0.007 C 
ATOM      9  C   UNL d   1      -5.935  -3.132  -5.970  0.00  0.00     0.009 C 
ENDBRANCH   7   8
ENDBRANCH   1   7
TORSDOF 2
ENDMDL
