MODEL 1
REMARK minimizedAffinity -2.88147902
REMARK minimizedRMSD -1
REMARK  2 active torsions:
REMARK  status: ('A' for Active; 'I' for Inactive)
REMARK    1  A    between atoms: C1_2  and  C2_3 
REMARK    2  A    between atoms: C2_3  and  C3_4 
ROOT
ATOM      1  C3  UNL d   1      -3.746   0.792  -5.960  0.00  0.00    -0.075 A 
ATOM      2  C4  UNL d   1      -5.005   1.405  -5.890  0.00  0.00     0.002 A 
ATOM      3  C5  UNL d   1      -5.117   2.795  -5.882  0.00  0.00     0.002 A 
ATOM      4  C6  UNL d   1      -3.973   3.589  -5.933  0.00  0.00    -0.004 A 
ATOM      5  C7  UNL d   1      -2.716   2.991  -5.986  0.00  0.00     0.002 A 
ATOM      6  C8  UNL d   1      -2.601   1.600  -5.999  0.00  0.00     0.002 A 
ENDROOT
BRANCH   1   7
ATOM      7  C2  UNL d   1      -3.620  -0.713  -6.000  0.00  0.00     0.056 C 
BRANCH   7   8
ATOM      8  C1  UNL d   1      -4.902  -1.456  -5.610  0.00  0.00     0.007 C 
ATOM      9  C   UNL d   1      -4.883  -2.929  -5.997  0.00  0.00     0.009 C 
ENDBRANCH   7   8
ENDBRANCH   1   7
TORSDOF 2
ENDMDL
