MODEL 1
REMARK minimizedAffinity 2.49815869
REMARK minimizedRMSD -1
REMARK  2 active torsions:
REMARK  status: ('A' for Active; 'I' for Inactive)
REMARK    1  A    between atoms: C1_2  and  C2_3 
REMARK    2  A    between atoms: C2_3  and  C3_4 
ROOT
ATOM      1  C3  UNL d   1      -3.012   2.094  -5.952  0.00  0.00    -0.075 A 
ATOM      2  C4  UNL d   1      -2.297   3.300  -5.970  0.00  0.00     0.002 A 
ATOM      3  C5  UNL d   1      -2.970   4.522  -5.988  0.00  0.00     0.002 A 
ATOM      4  C6  UNL d   1      -4.363   4.553  -6.000  0.00  0.00    -0.004 A 
ATOM      5  C7  UNL d   1      -5.083   3.361  -5.999  0.00  0.00     0.002 A 
ATOM      6  C8  UNL d   1      -4.412   2.137  -5.977  0.00  0.00     0.002 A 
ENDROOT
BRANCH   1   7
ATOM      7  C2  UNL d   1      -2.289   0.769  -5.903  0.00  0.00     0.056 C 
BRANCH   7   8
ATOM      8  C1  UNL d   1      -1.969   0.286  -4.484  0.00  0.00     0.007 C 
ATOM      9  C   UNL d   1      -0.489   0.379  -4.138  0.00  0.00     0.009 C 
ENDBRANCH   7   8
ENDBRANCH   1   7
TORSDOF 2
ENDMDL
