MODEL 1
REMARK minimizedAffinity 6.5577054
REMARK minimizedRMSD -1
REMARK  2 active torsions:
REMARK  status: ('A' for Active; 'I' for Inactive)
REMARK    1  A    between atoms: C1_2  and  C2_3 
REMARK    2  A    between atoms: C2_3  and  C3_4 
ROOT
ATOM      1  C3  UNL d   1       0.262   0.082  -0.363  0.00  0.00    -0.075 A 
ATOM      2  C4  UNL d   1       1.615  -0.264  -0.483  0.00  0.00     0.002 A 
ATOM      3  C5  UNL d   1       2.100  -0.832  -1.661  0.00  0.00     0.002 A 
ATOM      4  C6  UNL d   1       1.237  -1.070  -2.729  0.00  0.00    -0.004 A 
ATOM      5  C7  UNL d   1      -0.113  -0.746  -2.615  0.00  0.00     0.002 A 
ATOM      6  C8  UNL d   1      -0.599  -0.174  -1.439  0.00  0.00     0.002 A 
ENDROOT
BRANCH   1   7
ATOM      7  C2  UNL d   1      -0.263   0.724   0.899  0.00  0.00     0.056 C 
BRANCH   7   8
ATOM      8  C1  UNL d   1       0.512   0.339   2.164  0.00  0.00     0.007 C 
ATOM      9  C   UNL d   1       0.507   1.429   3.227  0.00  0.00     0.009 C 
ENDBRANCH   7   8
ENDBRANCH   1   7
TORSDOF 2
ENDMDL
