MODEL 1
REMARK minimizedAffinity 0.874020636
REMARK minimizedRMSD -1
REMARK  2 active torsions:
REMARK  status: ('A' for Active; 'I' for Inactive)
REMARK    1  A    between atoms: C1_2  and  C2_3 
REMARK    2  A    between atoms: C2_3  and  C3_4 
ROOT
ATOM      1  C3  UNL d   1       2.689  -0.181  -0.968  0.00  0.00    -0.075 A 
ATOM      2  C4  UNL d   1       2.461  -0.922  -2.137  0.00  0.00     0.002 A 
ATOM      3  C5  UNL d   1       1.161  -1.150  -2.589  0.00  0.00     0.002 A 
ATOM      4  C6  UNL d   1       0.075  -0.650  -1.875  0.00  0.00    -0.004 A 
ATOM      5  C7  UNL d   1       0.289   0.074  -0.704  0.00  0.00     0.002 A 
ATOM      6  C8  UNL d   1       1.588   0.307  -0.252  0.00  0.00     0.002 A 
ENDROOT
BRANCH   1   7
ATOM      7  C2  UNL d   1       4.095   0.094  -0.490  0.00  0.00     0.056 C 
BRANCH   7   8
ATOM      8  C1  UNL d   1       4.362   1.565  -0.154  0.00  0.00     0.007 C 
ATOM      9  C   UNL d   1       5.646   2.099  -0.777  0.00  0.00     0.009 C 
ENDBRANCH   7   8
ENDBRANCH   1   7
TORSDOF 2
ENDMDL
