MODEL 1
REMARK minimizedAffinity -0.600723863
REMARK minimizedRMSD -1
REMARK  2 active torsions:
REMARK  status: ('A' for Active; 'I' for Inactive)
REMARK    1  A    between atoms: C1_2  and  C2_3 
REMARK    2  A    between atoms: C2_3  and  C3_4 
ROOT
ATOM      1  C3  UNL d   1      -4.201   0.073  -5.987  0.00  0.00    -0.075 A 
ATOM      2  C4  UNL d   1      -2.809   0.243  -5.997  0.00  0.00     0.002 A 
ATOM      3  C5  UNL d   1      -2.252   1.522  -5.995  0.00  0.00     0.002 A 
ATOM      4  C6  UNL d   1      -3.076   2.644  -5.993  0.00  0.00    -0.004 A 
ATOM      5  C7  UNL d   1      -4.461   2.487  -6.000  0.00  0.00     0.002 A 
ATOM      6  C8  UNL d   1      -5.021   1.209  -5.997  0.00  0.00     0.002 A 
ENDROOT
BRANCH   1   7
ATOM      7  C2  UNL d   1      -4.811  -1.309  -5.959  0.00  0.00     0.056 C 
BRANCH   7   8
ATOM      8  C1  UNL d   1      -3.945  -2.358  -5.254  0.00  0.00     0.007 C 
ATOM      9  C   UNL d   1      -4.108  -3.757  -5.832  0.00  0.00     0.009 C 
ENDBRANCH   7   8
ENDBRANCH   1   7
TORSDOF 2
ENDMDL
