MODEL 1
REMARK minimizedAffinity 5.30435276
REMARK minimizedRMSD -1
REMARK  0 active torsions:
REMARK  status: ('A' for Active; 'I' for Inactive)
ROOT
ATOM      1  O1  BZF d   1       1.665  -1.180  -3.249  0.00  0.00    -0.204 OA
ATOM      2  C2  BZF d   1       2.344  -2.324  -2.875  0.00  0.00     0.174 A 
ATOM      3  C3  BZF d   1       2.888  -2.178  -1.650  0.00  0.00    -0.012 A 
ATOM      4  C3A BZF d   1       2.450  -0.895  -1.193  0.00  0.00    -0.107 A 
ATOM      5  C4  BZF d   1       2.648  -0.191  -0.040  0.00  0.00     0.055 A 
ATOM      6  C5  BZF d   1       2.142   1.066   0.061  0.00  0.00    -0.016 A 
ATOM      7  C6  BZF d   1       1.438   1.651  -0.971  0.00  0.00     0.022 A 
ATOM      8  C7  BZF d   1       1.212   0.990  -2.132  0.00  0.00     0.029 A 
ATOM      9  C7A BZF d   1       1.694  -0.293  -2.225  0.00  0.00     0.058 A 
ENDROOT
TORSDOF 0
ENDMDL
