MODEL 1
REMARK minimizedAffinity 0.530392468
REMARK minimizedRMSD -1
REMARK  0 active torsions:
REMARK  status: ('A' for Active; 'I' for Inactive)
ROOT
ATOM      1  O1  BZF d   1      -1.041   4.233   0.191  0.00  0.00    -0.204 OA
ATOM      2  C2  BZF d   1      -1.712   3.048   0.429  0.00  0.00     0.174 A 
ATOM      3  C3  BZF d   1      -0.844   2.023   0.547  0.00  0.00    -0.012 A 
ATOM      4  C3A BZF d   1       0.455   2.617   0.463  0.00  0.00    -0.107 A 
ATOM      5  C4  BZF d   1       1.723   2.115   0.529  0.00  0.00     0.055 A 
ATOM      6  C5  BZF d   1       2.776   2.953   0.338  0.00  0.00    -0.016 A 
ATOM      7  C6  BZF d   1       2.597   4.296   0.075  0.00  0.00     0.022 A 
ATOM      8  C7  BZF d   1       1.358   4.840   0.005  0.00  0.00     0.029 A 
ATOM      9  C7A BZF d   1       0.293   4.003   0.230  0.00  0.00     0.058 A 
ENDROOT
TORSDOF 0
ENDMDL
