MODEL 1
REMARK minimizedAffinity 5.19405174
REMARK minimizedRMSD -1
REMARK  0 active torsions:
REMARK  status: ('A' for Active; 'I' for Inactive)
ROOT
ATOM      1  O1  BZF d   1      -3.877   2.822  -0.182  0.00  0.00    -0.204 OA
ATOM      2  C2  BZF d   1      -4.671   1.695  -0.085  0.00  0.00     0.174 A 
ATOM      3  C3  BZF d   1      -3.944   0.631   0.313  0.00  0.00    -0.012 A 
ATOM      4  C3A BZF d   1      -2.632   1.144   0.564  0.00  0.00    -0.107 A 
ATOM      5  C4  BZF d   1      -1.469   0.575   0.999  0.00  0.00     0.055 A 
ATOM      6  C5  BZF d   1      -0.346   1.338   1.068  0.00  0.00    -0.016 A 
ATOM      7  C6  BZF d   1      -0.350   2.669   0.705  0.00  0.00     0.022 A 
ATOM      8  C7  BZF d   1      -1.480   3.278   0.273  0.00  0.00     0.029 A 
ATOM      9  C7A BZF d   1      -2.624   2.519   0.234  0.00  0.00     0.058 A 
ENDROOT
TORSDOF 0
ENDMDL
