MODEL 1
REMARK minimizedAffinity 2.39976645
REMARK minimizedRMSD -1
REMARK  0 active torsions:
REMARK  status: ('A' for Active; 'I' for Inactive)
ROOT
ATOM      1  O1  BZF d   1       0.119  -0.531   1.230  0.00  0.00    -0.204 OA
ATOM      2  C2  BZF d   1      -0.556  -1.001   2.340  0.00  0.00     0.174 A 
ATOM      3  C3  BZF d   1      -1.025   0.023   3.083  0.00  0.00    -0.012 A 
ATOM      4  C3A BZF d   1      -0.698   1.204   2.345  0.00  0.00    -0.107 A 
ATOM      5  C4  BZF d   1      -0.916   2.535   2.559  0.00  0.00     0.055 A 
ATOM      6  C5  BZF d   1      -0.404   3.438   1.681  0.00  0.00    -0.016 A 
ATOM      7  C6  BZF d   1       0.333   3.045   0.583  0.00  0.00     0.022 A 
ATOM      8  C7  BZF d   1       0.571   1.736   0.327  0.00  0.00     0.029 A 
ATOM      9  C7A BZF d   1       0.028   0.820   1.194  0.00  0.00     0.058 A 
ENDROOT
TORSDOF 0
ENDMDL
