MODEL 1
REMARK minimizedAffinity 7.82040787
REMARK minimizedRMSD -1
REMARK  0 active torsions:
REMARK  status: ('A' for Active; 'I' for Inactive)
ROOT
ATOM      1  O1  BZF d   1       3.504  -0.608  -0.484  0.00  0.00    -0.204 OA
ATOM      2  C2  BZF d   1       2.445  -1.367  -0.942  0.00  0.00     0.174 A 
ATOM      3  C3  BZF d   1       1.269  -0.781  -0.637  0.00  0.00    -0.012 A 
ATOM      4  C3A BZF d   1       1.617   0.465  -0.025  0.00  0.00    -0.107 A 
ATOM      5  C4  BZF d   1       0.883   1.500   0.480  0.00  0.00     0.055 A 
ATOM      6  C5  BZF d   1       1.528   2.539   1.074  0.00  0.00    -0.016 A 
ATOM      7  C6  BZF d   1       2.902   2.572   1.184  0.00  0.00     0.022 A 
ATOM      8  C7  BZF d   1       3.673   1.571   0.694  0.00  0.00     0.029 A 
ATOM      9  C7A BZF d   1       3.026   0.536   0.064  0.00  0.00     0.058 A 
ENDROOT
TORSDOF 0
ENDMDL
