MODEL 1
REMARK minimizedAffinity 2.69346642
REMARK minimizedRMSD -1
REMARK  0 active torsions:
REMARK  status: ('A' for Active; 'I' for Inactive)
ROOT
ATOM      1  O1  BZF d   1       4.395  -4.322   0.074  0.00  0.00    -0.204 OA
ATOM      2  C2  BZF d   1       4.205  -5.691   0.091  0.00  0.00     0.174 A 
ATOM      3  C3  BZF d   1       2.998  -5.999   0.607  0.00  0.00    -0.012 A 
ATOM      4  C3A BZF d   1       2.359  -4.742   0.848  0.00  0.00    -0.107 A 
ATOM      5  C4  BZF d   1       1.135  -4.390   1.340  0.00  0.00     0.055 A 
ATOM      6  C5  BZF d   1       0.848  -3.074   1.518  0.00  0.00    -0.016 A 
ATOM      7  C6  BZF d   1       1.762  -2.084   1.218  0.00  0.00     0.022 A 
ATOM      8  C7  BZF d   1       2.987  -2.384   0.723  0.00  0.00     0.029 A 
ATOM      9  C7A BZF d   1       3.268  -3.712   0.512  0.00  0.00     0.058 A 
ENDROOT
TORSDOF 0
ENDMDL
