MODEL 1
REMARK minimizedAffinity 3.13190413
REMARK minimizedRMSD -1
REMARK  0 active torsions:
REMARK  status: ('A' for Active; 'I' for Inactive)
ROOT
ATOM      1  O1  BZF d   1      -3.218   3.711  -0.495  0.00  0.00    -0.204 OA
ATOM      2  C2  BZF d   1      -1.856   3.519  -0.624  0.00  0.00     0.174 A 
ATOM      3  C3  BZF d   1      -1.447   2.474   0.123  0.00  0.00    -0.012 A 
ATOM      4  C3A BZF d   1      -2.641   1.925   0.688  0.00  0.00    -0.107 A 
ATOM      5  C4  BZF d   1      -2.889   0.863   1.510  0.00  0.00     0.055 A 
ATOM      6  C5  BZF d   1      -4.160   0.640   1.936  0.00  0.00    -0.016 A 
ATOM      7  C6  BZF d   1      -5.205   1.460   1.564  0.00  0.00     0.022 A 
ATOM      8  C7  BZF d   1      -5.009   2.523   0.746  0.00  0.00     0.029 A 
ATOM      9  C7A BZF d   1      -3.732   2.732   0.288  0.00  0.00     0.058 A 
ENDROOT
TORSDOF 0
ENDMDL
