MODEL 1
REMARK minimizedAffinity 6.21859407
REMARK minimizedRMSD -1
REMARK  0 active torsions:
REMARK  status: ('A' for Active; 'I' for Inactive)
ROOT
ATOM      1  O1  BZF d   1       1.151   1.638   0.057  0.00  0.00    -0.204 OA
ATOM      2  C2  BZF d   1       1.982   1.986   1.104  0.00  0.00     0.174 A 
ATOM      3  C3  BZF d   1       3.272   1.747   0.791  0.00  0.00    -0.012 A 
ATOM      4  C3A BZF d   1       3.253   1.303  -0.569  0.00  0.00    -0.107 A 
ATOM      5  C4  BZF d   1       4.228   0.928  -1.448  0.00  0.00     0.055 A 
ATOM      6  C5  BZF d   1       3.870   0.478  -2.679  0.00  0.00    -0.016 A 
ATOM      7  C6  BZF d   1       2.548   0.385  -3.063  0.00  0.00     0.022 A 
ATOM      8  C7  BZF d   1       1.546   0.751  -2.227  0.00  0.00     0.029 A 
ATOM      9  C7A BZF d   1       1.906   1.237  -0.994  0.00  0.00     0.058 A 
ENDROOT
TORSDOF 0
ENDMDL
