MODEL 1
REMARK minimizedAffinity 2.26992416
REMARK minimizedRMSD -1
REMARK  0 active torsions:
REMARK  status: ('A' for Active; 'I' for Inactive)
ROOT
ATOM      1  O1  BZF d   1      -1.153   0.401   0.803  0.00  0.00    -0.204 OA
ATOM      2  C2  BZF d   1      -1.977   1.510   0.843  0.00  0.00     0.174 A 
ATOM      3  C3  BZF d   1      -1.254   2.646   0.777  0.00  0.00    -0.012 A 
ATOM      4  C3A BZF d   1       0.100   2.220   0.597  0.00  0.00    -0.107 A 
ATOM      5  C4  BZF d   1       1.283   2.887   0.449  0.00  0.00     0.055 A 
ATOM      6  C5  BZF d   1       2.437   2.175   0.367  0.00  0.00    -0.016 A 
ATOM      7  C6  BZF d   1       2.447   0.798   0.437  0.00  0.00     0.022 A 
ATOM      8  C7  BZF d   1       1.299   0.091   0.579  0.00  0.00     0.029 A 
ATOM      9  C7A BZF d   1       0.127   0.807   0.628  0.00  0.00     0.058 A 
ENDROOT
TORSDOF 0
ENDMDL
