MODEL 1
REMARK minimizedAffinity 0.729573429
REMARK minimizedRMSD -1
REMARK  0 active torsions:
REMARK  status: ('A' for Active; 'I' for Inactive)
ROOT
ATOM      1  O1  BZF d   1       2.294   1.796   1.529  0.00  0.00    -0.204 OA
ATOM      2  C2  BZF d   1       3.368   2.208   0.765  0.00  0.00     0.174 A 
ATOM      3  C3  BZF d   1       2.952   2.926  -0.298  0.00  0.00    -0.012 A 
ATOM      4  C3A BZF d   1       1.534   3.043  -0.141  0.00  0.00    -0.107 A 
ATOM      5  C4  BZF d   1       0.557   3.658  -0.870  0.00  0.00     0.055 A 
ATOM      6  C5  BZF d   1      -0.739   3.521  -0.484  0.00  0.00    -0.016 A 
ATOM      7  C6  BZF d   1      -1.093   2.774   0.621  0.00  0.00     0.022 A 
ATOM      8  C7  BZF d   1      -0.158   2.151   1.378  0.00  0.00     0.029 A 
ATOM      9  C7A BZF d   1       1.155   2.314   1.010  0.00  0.00     0.058 A 
ENDROOT
TORSDOF 0
ENDMDL
