MODEL 1
REMARK minimizedAffinity 3.85606313
REMARK minimizedRMSD -1
REMARK  0 active torsions:
REMARK  status: ('A' for Active; 'I' for Inactive)
ROOT
ATOM      1  O1  BZF d   1      -1.898   3.458  -1.035  0.00  0.00    -0.204 OA
ATOM      2  C2  BZF d   1      -3.057   2.804  -0.665  0.00  0.00     0.174 A 
ATOM      3  C3  BZF d   1      -2.792   1.825   0.223  0.00  0.00    -0.012 A 
ATOM      4  C3A BZF d   1      -1.390   1.929   0.490  0.00  0.00    -0.107 A 
ATOM      5  C4  BZF d   1      -0.535   1.240   1.302  0.00  0.00     0.055 A 
ATOM      6  C5  BZF d   1       0.789   1.544   1.276  0.00  0.00    -0.016 A 
ATOM      7  C6  BZF d   1       1.293   2.525   0.448  0.00  0.00     0.022 A 
ATOM      8  C7  BZF d   1       0.484   3.239  -0.372  0.00  0.00     0.029 A 
ATOM      9  C7A BZF d   1      -0.860   2.957  -0.324  0.00  0.00     0.058 A 
ENDROOT
TORSDOF 0
ENDMDL
