MODEL 1
REMARK minimizedAffinity 0.738174736
REMARK minimizedRMSD -1
REMARK  0 active torsions:
REMARK  status: ('A' for Active; 'I' for Inactive)
ROOT
ATOM      1  O1  BZF d   1       2.980  -0.396   0.307  0.00  0.00    -0.204 OA
ATOM      2  C2  BZF d   1       1.734  -0.335  -0.287  0.00  0.00     0.174 A 
ATOM      3  C3  BZF d   1       1.229   0.913  -0.212  0.00  0.00    -0.012 A 
ATOM      4  C3A BZF d   1       2.261   1.701   0.389  0.00  0.00    -0.107 A 
ATOM      5  C4  BZF d   1       2.364   3.024   0.714  0.00  0.00     0.055 A 
ATOM      6  C5  BZF d   1       3.478   3.461   1.357  0.00  0.00    -0.016 A 
ATOM      7  C6  BZF d   1       4.505   2.604   1.695  0.00  0.00     0.022 A 
ATOM      8  C7  BZF d   1       4.450   1.285   1.390  0.00  0.00     0.029 A 
ATOM      9  C7A BZF d   1       3.340   0.846   0.710  0.00  0.00     0.058 A 
ENDROOT
TORSDOF 0
ENDMDL
