MODEL 1
REMARK minimizedAffinity 10.036973
REMARK minimizedRMSD -1
REMARK  0 active torsions:
REMARK  status: ('A' for Active; 'I' for Inactive)
ROOT
ATOM      1  O1  BZF d   1       1.920   0.767   1.572  0.00  0.00    -0.204 OA
ATOM      2  C2  BZF d   1       2.838   1.486   0.831  0.00  0.00     0.174 A 
ATOM      3  C3  BZF d   1       2.221   2.425   0.085  0.00  0.00    -0.012 A 
ATOM      4  C3A BZF d   1       0.839   2.345   0.447  0.00  0.00    -0.107 A 
ATOM      5  C4  BZF d   1      -0.275   3.033   0.058  0.00  0.00     0.055 A 
ATOM      6  C5  BZF d   1      -1.486   2.660   0.548  0.00  0.00    -0.016 A 
ATOM      7  C6  BZF d   1      -1.621   1.602   1.424  0.00  0.00     0.022 A 
ATOM      8  C7  BZF d   1      -0.545   0.893   1.842  0.00  0.00     0.029 A 
ATOM      9  C7A BZF d   1       0.685   1.288   1.374  0.00  0.00     0.058 A 
ENDROOT
TORSDOF 0
ENDMDL
