MODEL 1
REMARK minimizedAffinity 8.68945694
REMARK minimizedRMSD -1
REMARK  0 active torsions:
REMARK  status: ('A' for Active; 'I' for Inactive)
ROOT
ATOM      1  O1  BZF d   1       1.676   2.503  -0.783  0.00  0.00    -0.204 OA
ATOM      2  C2  BZF d   1       1.838   2.770   0.562  0.00  0.00     0.174 A 
ATOM      3  C3  BZF d   1       1.952   1.625   1.266  0.00  0.00    -0.012 A 
ATOM      4  C3A BZF d   1       1.948   0.580   0.289  0.00  0.00    -0.107 A 
ATOM      5  C4  BZF d   1       2.048  -0.779   0.368  0.00  0.00     0.055 A 
ATOM      6  C5  BZF d   1       1.936  -1.517  -0.768  0.00  0.00    -0.016 A 
ATOM      7  C6  BZF d   1       1.719  -0.929  -1.997  0.00  0.00     0.022 A 
ATOM      8  C7  BZF d   1       1.618   0.417  -2.126  0.00  0.00     0.029 A 
ATOM      9  C7A BZF d   1       1.764   1.167  -0.984  0.00  0.00     0.058 A 
ENDROOT
TORSDOF 0
ENDMDL
