MODEL 1
REMARK minimizedAffinity 4.77737856
REMARK minimizedRMSD -1
REMARK  0 active torsions:
REMARK  status: ('A' for Active; 'I' for Inactive)
ROOT
ATOM      1  O1  BZF d   1       0.664   2.493   3.584  0.00  0.00    -0.204 OA
ATOM      2  C2  BZF d   1      -0.523   2.670   2.899  0.00  0.00     0.174 A 
ATOM      3  C3  BZF d   1      -0.298   2.786   1.575  0.00  0.00    -0.012 A 
ATOM      4  C3A BZF d   1       1.109   2.583   1.412  0.00  0.00    -0.107 A 
ATOM      5  C4  BZF d   1       1.935   2.562   0.325  0.00  0.00     0.055 A 
ATOM      6  C5  BZF d   1       3.272   2.412   0.515  0.00  0.00    -0.016 A 
ATOM      7  C6  BZF d   1       3.817   2.284   1.776  0.00  0.00     0.022 A 
ATOM      8  C7  BZF d   1       3.037   2.293   2.884  0.00  0.00     0.029 A 
ATOM      9  C7A BZF d   1       1.682   2.413   2.694  0.00  0.00     0.058 A 
ENDROOT
TORSDOF 0
ENDMDL
