MODEL 1
REMARK minimizedAffinity 3.49271631
REMARK minimizedRMSD -1
REMARK  0 active torsions:
REMARK  status: ('A' for Active; 'I' for Inactive)
ROOT
ATOM      1  O1  BZF d   1      -0.649  -5.412   1.900  0.00  0.00    -0.204 OA
ATOM      2  C2  BZF d   1      -0.929  -4.402   2.799  0.00  0.00     0.174 A 
ATOM      3  C3  BZF d   1      -1.853  -3.557   2.298  0.00  0.00    -0.012 A 
ATOM      4  C3A BZF d   1      -2.239  -4.124   1.042  0.00  0.00    -0.107 A 
ATOM      5  C4  BZF d   1      -3.134  -3.753   0.080  0.00  0.00     0.055 A 
ATOM      6  C5  BZF d   1      -3.218  -4.485  -1.062  0.00  0.00    -0.016 A 
ATOM      7  C6  BZF d   1      -2.420  -5.590  -1.276  0.00  0.00     0.022 A 
ATOM      8  C7  BZF d   1      -1.520  -5.999  -0.349  0.00  0.00     0.029 A 
ATOM      9  C7A BZF d   1      -1.456  -5.281   0.820  0.00  0.00     0.058 A 
ENDROOT
TORSDOF 0
ENDMDL
