MODEL 1
REMARK minimizedAffinity 9.5008831
REMARK minimizedRMSD -1
REMARK  0 active torsions:
REMARK  status: ('A' for Active; 'I' for Inactive)
ROOT
ATOM      1  O1  BZF d   1       2.904   0.314   0.714  0.00  0.00    -0.204 OA
ATOM      2  C2  BZF d   1       2.818   1.677   0.920  0.00  0.00     0.174 A 
ATOM      3  C3  BZF d   1       2.354   2.300  -0.183  0.00  0.00    -0.012 A 
ATOM      4  C3A BZF d   1       2.048   1.250  -1.106  0.00  0.00    -0.107 A 
ATOM      5  C4  BZF d   1       1.538   1.234  -2.373  0.00  0.00     0.055 A 
ATOM      6  C5  BZF d   1       1.431   0.047  -3.026  0.00  0.00    -0.016 A 
ATOM      7  C6  BZF d   1       1.829  -1.140  -2.446  0.00  0.00     0.022 A 
ATOM      8  C7  BZF d   1       2.336  -1.174  -1.190  0.00  0.00     0.029 A 
ATOM      9  C7A BZF d   1       2.415   0.020  -0.515  0.00  0.00     0.058 A 
ENDROOT
TORSDOF 0
ENDMDL
