MODEL 1
REMARK minimizedAffinity 3.40930104
REMARK minimizedRMSD -1
REMARK  0 active torsions:
REMARK  status: ('A' for Active; 'I' for Inactive)
ROOT
ATOM      1  O1  BZF d   1       2.487   1.915   2.357  0.00  0.00    -0.204 OA
ATOM      2  C2  BZF d   1       3.327   1.839   1.263  0.00  0.00     0.174 A 
ATOM      3  C3  BZF d   1       2.710   2.294   0.153  0.00  0.00    -0.012 A 
ATOM      4  C3A BZF d   1       1.434   2.764   0.598  0.00  0.00    -0.107 A 
ATOM      5  C4  BZF d   1       0.373   3.344  -0.037  0.00  0.00     0.055 A 
ATOM      6  C5  BZF d   1      -0.753   3.618   0.673  0.00  0.00    -0.016 A 
ATOM      7  C6  BZF d   1      -0.854   3.320   2.016  0.00  0.00     0.022 A 
ATOM      8  C7  BZF d   1       0.173   2.749   2.690  0.00  0.00     0.029 A 
ATOM      9  C7A BZF d   1       1.324   2.502   1.983  0.00  0.00     0.058 A 
ENDROOT
TORSDOF 0
ENDMDL
