MODEL 1
REMARK minimizedAffinity -2.6926074
REMARK minimizedRMSD -1
REMARK  3 active torsions:
REMARK  status: ('A' for Active; 'I' for Inactive)
REMARK    1  A    between atoms: C3'_2  and  C2'_3 
REMARK    2  A    between atoms: C2'_3  and  C1'_4 
REMARK    3  A    between atoms: C1'_4  and  C1_5 
ROOT
ATOM      1  C1  N4B d   1      -0.028  -0.167   0.368  0.00  0.00    -0.075 A 
ATOM      2  C2  N4B d   1      -1.115  -0.081   1.266  0.00  0.00     0.002 A 
ATOM      3  C3  N4B d   1      -1.608   1.147   1.632  0.00  0.00     0.002 A 
ATOM      4  C4  N4B d   1      -1.021   2.299   1.131  0.00  0.00    -0.004 A 
ATOM      5  C5  N4B d   1       0.012   2.207   0.245  0.00  0.00     0.002 A 
ATOM      6  C6  N4B d   1       0.515   0.980  -0.136  0.00  0.00     0.002 A 
ENDROOT
BRANCH   1   7
ATOM      7  C1' N4B d   1       0.601  -1.484   0.005  0.00  0.00     0.057 C 
BRANCH   7   8
ATOM      8  C2' N4B d   1      -0.498  -2.487  -0.333  0.00  0.00     0.009 C 
BRANCH   8   9
ATOM      9  C3' N4B d   1      -0.249  -3.175  -1.664  0.00  0.00     0.004 C 
ATOM     10  C4' N4B d   1      -1.450  -3.154  -2.562  0.00  0.00     0.003 C 
ENDBRANCH   8   9
ENDBRANCH   7   8
ENDBRANCH   1   7
TORSDOF 3
ENDMDL
