MODEL 1
REMARK minimizedAffinity -6.39569044
REMARK minimizedRMSD -1
REMARK  3 active torsions:
REMARK  status: ('A' for Active; 'I' for Inactive)
REMARK    1  A    between atoms: C3'_2  and  C2'_3 
REMARK    2  A    between atoms: C2'_3  and  C1'_4 
REMARK    3  A    between atoms: C1'_4  and  C1_5 
ROOT
ATOM      1  C1  N4B d   1       0.498   0.873   0.070  0.00  0.00    -0.075 A 
ATOM      2  C2  N4B d   1      -0.164   2.120   0.050  0.00  0.00     0.002 A 
ATOM      3  C3  N4B d   1       0.533   3.272   0.318  0.00  0.00     0.002 A 
ATOM      4  C4  N4B d   1       1.884   3.201   0.625  0.00  0.00    -0.004 A 
ATOM      5  C5  N4B d   1       2.522   1.995   0.617  0.00  0.00     0.002 A 
ATOM      6  C6  N4B d   1       1.834   0.829   0.346  0.00  0.00     0.002 A 
ENDROOT
BRANCH   1   7
ATOM      7  C1' N4B d   1      -0.241  -0.422  -0.131  0.00  0.00     0.057 C 
BRANCH   7   8
ATOM      8  C2' N4B d   1       0.560  -1.558   0.498  0.00  0.00     0.009 C 
BRANCH   8   9
ATOM      9  C3' N4B d   1       0.063  -2.921   0.047  0.00  0.00     0.004 C 
ATOM     10  C4' N4B d   1      -0.300  -2.955  -1.408  0.00  0.00     0.003 C 
ENDBRANCH   8   9
ENDBRANCH   7   8
ENDBRANCH   1   7
TORSDOF 3
ENDMDL
