MODEL 1
REMARK minimizedAffinity -1.41724002
REMARK minimizedRMSD -1
REMARK  3 active torsions:
REMARK  status: ('A' for Active; 'I' for Inactive)
REMARK    1  A    between atoms: C3'_2  and  C2'_3 
REMARK    2  A    between atoms: C2'_3  and  C1'_4 
REMARK    3  A    between atoms: C1'_4  and  C1_5 
ROOT
ATOM      1  C1  N4B d   1       1.018   2.331  -0.155  0.00  0.00    -0.075 A 
ATOM      2  C2  N4B d   1       2.157   3.107  -0.464  0.00  0.00     0.002 A 
ATOM      3  C3  N4B d   1       3.399   2.522  -0.492  0.00  0.00     0.002 A 
ATOM      4  C4  N4B d   1       3.529   1.173  -0.197  0.00  0.00    -0.004 A 
ATOM      5  C5  N4B d   1       2.421   0.425   0.076  0.00  0.00     0.002 A 
ATOM      6  C6  N4B d   1       1.166   0.999   0.103  0.00  0.00     0.002 A 
ENDROOT
BRANCH   1   7
ATOM      7  C1' N4B d   1      -0.350   2.944  -0.028  0.00  0.00     0.057 C 
BRANCH   7   8
ATOM      8  C2' N4B d   1      -0.924   2.608   1.346  0.00  0.00     0.009 C 
BRANCH   8   9
ATOM      9  C3' N4B d   1       0.051   2.936   2.464  0.00  0.00     0.004 C 
ATOM     10  C4' N4B d   1      -0.587   2.898   3.820  0.00  0.00     0.003 C 
ENDBRANCH   8   9
ENDBRANCH   7   8
ENDBRANCH   1   7
TORSDOF 3
ENDMDL
