MODEL 1
REMARK minimizedAffinity -3.48237348
REMARK minimizedRMSD -1
REMARK  3 active torsions:
REMARK  status: ('A' for Active; 'I' for Inactive)
REMARK    1  A    between atoms: C3'_2  and  C2'_3 
REMARK    2  A    between atoms: C2'_3  and  C1'_4 
REMARK    3  A    between atoms: C1'_4  and  C1_5 
ROOT
ATOM      1  C1  N4B d   1      -0.343  -1.099  -0.710  0.00  0.00    -0.075 A 
ATOM      2  C2  N4B d   1      -0.625  -2.387  -0.205  0.00  0.00     0.002 A 
ATOM      3  C3  N4B d   1      -0.679  -3.462  -1.058  0.00  0.00     0.002 A 
ATOM      4  C4  N4B d   1      -0.472  -3.271  -2.416  0.00  0.00    -0.004 A 
ATOM      5  C5  N4B d   1      -0.175  -2.027  -2.892  0.00  0.00     0.002 A 
ATOM      6  C6  N4B d   1      -0.114  -0.939  -2.046  0.00  0.00     0.002 A 
ENDROOT
BRANCH   1   7
ATOM      7  C1' N4B d   1      -0.359   0.120   0.172  0.00  0.00     0.057 C 
BRANCH   7   8
ATOM      8  C2' N4B d   1      -1.442   1.077  -0.317  0.00  0.00     0.009 C 
BRANCH   8   9
ATOM      9  C3' N4B d   1      -1.335   2.441   0.343  0.00  0.00     0.004 C 
ATOM     10  C4' N4B d   1      -0.264   2.497   1.391  0.00  0.00     0.003 C 
ENDBRANCH   8   9
ENDBRANCH   7   8
ENDBRANCH   1   7
TORSDOF 3
ENDMDL
