MODEL 1
REMARK minimizedAffinity -6.71966028
REMARK minimizedRMSD -1
REMARK  3 active torsions:
REMARK  status: ('A' for Active; 'I' for Inactive)
REMARK    1  A    between atoms: C3'_2  and  C2'_3 
REMARK    2  A    between atoms: C2'_3  and  C1'_4 
REMARK    3  A    between atoms: C1'_4  and  C1_5 
ROOT
ATOM      1  C1  N4B d   1       0.545   0.477   0.177  0.00  0.00    -0.075 A 
ATOM      2  C2  N4B d   1      -0.627   1.255   0.055  0.00  0.00     0.002 A 
ATOM      3  C3  N4B d   1      -0.560   2.621   0.172  0.00  0.00     0.002 A 
ATOM      4  C4  N4B d   1       0.660   3.228   0.428  0.00  0.00    -0.004 A 
ATOM      5  C5  N4B d   1       1.792   2.472   0.519  0.00  0.00     0.002 A 
ATOM      6  C6  N4B d   1       1.740   1.098   0.400  0.00  0.00     0.002 A 
ENDROOT
BRANCH   1   7
ATOM      7  C1' N4B d   1       0.508  -1.027   0.142  0.00  0.00     0.057 C 
BRANCH   7   8
ATOM      8  C2' N4B d   1      -0.662  -1.479  -0.726  0.00  0.00     0.009 C 
BRANCH   8   9
ATOM      9  C3' N4B d   1      -0.350  -2.762  -1.477  0.00  0.00     0.004 C 
ATOM     10  C4' N4B d   1      -0.160  -2.543  -2.948  0.00  0.00     0.003 C 
ENDBRANCH   8   9
ENDBRANCH   7   8
ENDBRANCH   1   7
TORSDOF 3
ENDMDL
