MODEL 1
REMARK minimizedAffinity -4.84133959
REMARK minimizedRMSD -1
REMARK  3 active torsions:
REMARK  status: ('A' for Active; 'I' for Inactive)
REMARK    1  A    between atoms: C3'_2  and  C2'_3 
REMARK    2  A    between atoms: C2'_3  and  C1'_4 
REMARK    3  A    between atoms: C1'_4  and  C1_5 
ROOT
ATOM      1  C1  N4B d   1       0.095  -0.416   0.557  0.00  0.00    -0.075 A 
ATOM      2  C2  N4B d   1      -1.206  -0.087   0.996  0.00  0.00     0.002 A 
ATOM      3  C3  N4B d   1      -1.654   1.208   0.907  0.00  0.00     0.002 A 
ATOM      4  C4  N4B d   1      -0.815   2.190   0.402  0.00  0.00    -0.004 A 
ATOM      5  C5  N4B d   1       0.431   1.860  -0.044  0.00  0.00     0.002 A 
ATOM      6  C6  N4B d   1       0.893   0.561   0.036  0.00  0.00     0.002 A 
ENDROOT
BRANCH   1   7
ATOM      7  C1' N4B d   1       0.659  -1.802   0.714  0.00  0.00     0.057 C 
BRANCH   7   8
ATOM      8  C2' N4B d   1      -0.176  -2.779  -0.108  0.00  0.00     0.009 C 
BRANCH   8   9
ATOM      9  C3' N4B d   1       0.027  -2.583  -1.600  0.00  0.00     0.004 C 
ATOM     10  C4' N4B d   1      -0.337  -3.799  -2.400  0.00  0.00     0.003 C 
ENDBRANCH   8   9
ENDBRANCH   7   8
ENDBRANCH   1   7
TORSDOF 3
ENDMDL
