MODEL 1
REMARK minimizedAffinity 10.040226
REMARK minimizedRMSD -1
REMARK  0 active torsions:
REMARK  status: ('A' for Active; 'I' for Inactive)
ROOT
ATOM      1  C   UNL d   1       0.607   1.198  -0.520  0.00  0.00     0.020 A 
ATOM      2  C1  UNL d   1      -0.470   1.396   0.343  0.00  0.00     0.020 A 
ATOM      3  C2  UNL d   1      -0.858   2.693   0.688  0.00  0.00     0.034 A 
ATOM      4  C3  UNL d   1      -0.169   3.795   0.170  0.00  0.00     0.017 A 
ATOM      5  C4  UNL d   1       0.911   3.595  -0.696  0.00  0.00     0.017 A 
ATOM      6  C5  UNL d   1       1.296   2.295  -1.039  0.00  0.00     0.034 A 
ATOM      7 Cl   UNL d   1       1.810   4.906  -1.376  0.00  0.00    -0.070 Cl
ATOM      8 Cl1  UNL d   1      -0.704   5.370   0.639  0.00  0.00    -0.070 Cl
ENDROOT
TORSDOF 0
ENDMDL
