MODEL 1
REMARK minimizedAffinity 2.83262014
REMARK minimizedRMSD -1
REMARK  0 active torsions:
REMARK  status: ('A' for Active; 'I' for Inactive)
ROOT
ATOM      1  C   UNL d   1       2.006   2.148   0.789  0.00  0.00     0.020 A 
ATOM      2  C1  UNL d   1       0.917   1.910  -0.049  0.00  0.00     0.020 A 
ATOM      3  C2  UNL d   1       0.100   0.798   0.166  0.00  0.00     0.034 A 
ATOM      4  C3  UNL d   1       0.371  -0.081   1.222  0.00  0.00     0.017 A 
ATOM      5  C4  UNL d   1       1.465   0.159   2.062  0.00  0.00     0.017 A 
ATOM      6  C5  UNL d   1       2.279   1.275   1.842  0.00  0.00     0.034 A 
ATOM      7 Cl   UNL d   1       1.862  -0.879   3.385  0.00  0.00    -0.070 Cl
ATOM      8 Cl1  UNL d   1      -0.680  -1.436   1.430  0.00  0.00    -0.070 Cl
ENDROOT
TORSDOF 0
ENDMDL
