MODEL 1
REMARK minimizedAffinity -2.86390042
REMARK minimizedRMSD -1
REMARK  0 active torsions:
REMARK  status: ('A' for Active; 'I' for Inactive)
ROOT
ATOM      1  C   UNL d   1       0.353   2.203   0.053  0.00  0.00     0.020 A 
ATOM      2  C1  UNL d   1       1.672   2.265   0.501  0.00  0.00     0.020 A 
ATOM      3  C2  UNL d   1       2.246   1.162   1.137  0.00  0.00     0.034 A 
ATOM      4  C3  UNL d   1       1.501  -0.008   1.325  0.00  0.00     0.017 A 
ATOM      5  C4  UNL d   1       0.177  -0.069   0.874  0.00  0.00     0.017 A 
ATOM      6  C5  UNL d   1      -0.392   1.038   0.239  0.00  0.00     0.034 A 
ATOM      7 Cl   UNL d   1      -0.804  -1.478   1.070  0.00  0.00    -0.070 Cl
ATOM      8 Cl1  UNL d   1       2.274  -1.334   2.118  0.00  0.00    -0.070 Cl
ENDROOT
TORSDOF 0
ENDMDL
