MODEL 1
REMARK minimizedAffinity -0.497799426
REMARK minimizedRMSD -1
REMARK  0 active torsions:
REMARK  status: ('A' for Active; 'I' for Inactive)
ROOT
ATOM      1  C   UNL d   1      -0.724   0.390  -0.271  0.00  0.00     0.020 A 
ATOM      2  C1  UNL d   1      -0.677  -0.852   0.360  0.00  0.00     0.020 A 
ATOM      3  C2  UNL d   1       0.298  -1.106   1.328  0.00  0.00     0.034 A 
ATOM      4  C3  UNL d   1       1.228  -0.117   1.667  0.00  0.00     0.017 A 
ATOM      5  C4  UNL d   1       1.179   1.130   1.032  0.00  0.00     0.017 A 
ATOM      6  C5  UNL d   1       0.201   1.379   0.064  0.00  0.00     0.034 A 
ATOM      7 Cl   UNL d   1       2.293   2.400   1.397  0.00  0.00    -0.070 Cl
ATOM      8 Cl1  UNL d   1       2.405  -0.500   2.873  0.00  0.00    -0.070 Cl
ENDROOT
TORSDOF 0
ENDMDL
