MODEL 1
REMARK minimizedAffinity 2.02440929
REMARK minimizedRMSD -1
REMARK  0 active torsions:
REMARK  status: ('A' for Active; 'I' for Inactive)
ROOT
ATOM      1  C   UNL d   1      -3.220  -0.843  -4.142  0.00  0.00     0.020 A 
ATOM      2  C1  UNL d   1      -2.801  -2.097  -3.700  0.00  0.00     0.020 A 
ATOM      3  C2  UNL d   1      -2.345  -2.260  -2.389  0.00  0.00     0.034 A 
ATOM      4  C3  UNL d   1      -2.308  -1.166  -1.517  0.00  0.00     0.017 A 
ATOM      5  C4  UNL d   1      -2.729   0.093  -1.962  0.00  0.00     0.017 A 
ATOM      6  C5  UNL d   1      -3.184   0.249  -3.275  0.00  0.00     0.034 A 
ATOM      7 Cl   UNL d   1      -2.711   1.489  -0.944  0.00  0.00    -0.070 Cl
ATOM      8 Cl1  UNL d   1      -1.733  -1.439   0.090  0.00  0.00    -0.070 Cl
ENDROOT
TORSDOF 0
ENDMDL
