MODEL 1
REMARK minimizedAffinity 1.38987684
REMARK minimizedRMSD -1
REMARK  0 active torsions:
REMARK  status: ('A' for Active; 'I' for Inactive)
ROOT
ATOM      1  C   UNL d   1       3.618  -5.690  -5.886  0.00  0.00     0.020 A 
ATOM      2  C1  UNL d   1       2.357  -5.149  -5.639  0.00  0.00     0.020 A 
ATOM      3  C2  UNL d   1       2.205  -3.767  -5.499  0.00  0.00     0.034 A 
ATOM      4  C3  UNL d   1       3.317  -2.923  -5.606  0.00  0.00     0.017 A 
ATOM      5  C4  UNL d   1       4.582  -3.467  -5.854  0.00  0.00     0.017 A 
ATOM      6  C5  UNL d   1       4.728  -4.851  -5.994  0.00  0.00     0.034 A 
ATOM      7 Cl   UNL d   1       5.999  -2.489  -6.000  0.00  0.00    -0.070 Cl
ATOM      8 Cl1  UNL d   1       3.056  -1.225  -5.422  0.00  0.00    -0.070 Cl
ENDROOT
TORSDOF 0
ENDMDL
