MODEL 1
REMARK minimizedAffinity 0.00359546929
REMARK minimizedRMSD -1
REMARK  0 active torsions:
REMARK  status: ('A' for Active; 'I' for Inactive)
ROOT
ATOM      1  C   UNL d   1       2.338   2.170   1.050  0.00  0.00     0.020 A 
ATOM      2  C1  UNL d   1       1.275   2.087   0.151  0.00  0.00     0.020 A 
ATOM      3  C2  UNL d   1       0.371   1.026   0.235  0.00  0.00     0.034 A 
ATOM      4  C3  UNL d   1       0.527   0.044   1.220  0.00  0.00     0.017 A 
ATOM      5  C4  UNL d   1       1.594   0.128   2.122  0.00  0.00     0.017 A 
ATOM      6  C5  UNL d   1       2.497   1.193   2.034  0.00  0.00     0.034 A 
ATOM      7 Cl   UNL d   1       1.852  -1.045   3.365  0.00  0.00    -0.070 Cl
ATOM      8 Cl1  UNL d   1      -0.629  -1.239   1.266  0.00  0.00    -0.070 Cl
ENDROOT
TORSDOF 0
ENDMDL
