MODEL 1
REMARK minimizedAffinity 0.108455189
REMARK minimizedRMSD -1
REMARK  0 active torsions:
REMARK  status: ('A' for Active; 'I' for Inactive)
ROOT
ATOM      1  C   UNL d   1       1.186   2.230   0.517  0.00  0.00     0.020 A 
ATOM      2  C1  UNL d   1       2.293   2.264   1.365  0.00  0.00     0.020 A 
ATOM      3  C2  UNL d   1       2.558   1.185   2.210  0.00  0.00     0.034 A 
ATOM      4  C3  UNL d   1       1.717   0.066   2.209  0.00  0.00     0.017 A 
ATOM      5  C4  UNL d   1       0.606   0.033   1.358  0.00  0.00     0.017 A 
ATOM      6  C5  UNL d   1       0.345   1.117   0.514  0.00  0.00     0.034 A 
ATOM      7 Cl   UNL d   1      -0.478  -1.312   1.300  0.00  0.00    -0.070 Cl
ATOM      8 Cl1  UNL d   1       2.105  -1.233   3.280  0.00  0.00    -0.070 Cl
ENDROOT
TORSDOF 0
ENDMDL
