MODEL 1
REMARK minimizedAffinity 4.39046907
REMARK minimizedRMSD -1
REMARK  0 active torsions:
REMARK  status: ('A' for Active; 'I' for Inactive)
ROOT
ATOM      1  C   UNL d   1      -0.291   1.039  -0.852  0.00  0.00     0.020 A 
ATOM      2  C1  UNL d   1       0.701   0.242  -0.282  0.00  0.00     0.020 A 
ATOM      3  C2  UNL d   1       1.574   0.783   0.664  0.00  0.00     0.034 A 
ATOM      4  C3  UNL d   1       1.458   2.125   1.043  0.00  0.00     0.017 A 
ATOM      5  C4  UNL d   1       0.462   2.925   0.470  0.00  0.00     0.017 A 
ATOM      6  C5  UNL d   1      -0.410   2.378  -0.476  0.00  0.00     0.034 A 
ATOM      7 Cl   UNL d   1       0.256   4.590   0.888  0.00  0.00    -0.070 Cl
ATOM      8 Cl1  UNL d   1       2.572   2.728   2.218  0.00  0.00    -0.070 Cl
ENDROOT
TORSDOF 0
ENDMDL
