MODEL 1
REMARK minimizedAffinity 2.20319319
REMARK minimizedRMSD -1
REMARK  0 active torsions:
REMARK  status: ('A' for Active; 'I' for Inactive)
ROOT
ATOM      1  C   UNL d   1      -3.274  -6.000  -2.203  0.00  0.00     0.077 C 
ATOM      2  C1  UNL d   1      -2.051  -5.989  -3.071  0.00  0.00    -0.074 A 
ATOM      3  C2  UNL d   1      -2.159  -6.000  -4.465  0.00  0.00    -0.005 A 
ATOM      4  C3  UNL d   1      -1.013  -5.980  -5.260  0.00  0.00     0.006 A 
ATOM      5  C4  UNL d   1       0.251  -5.949  -4.669  0.00  0.00    -0.005 A 
ATOM      6  C5  UNL d   1       0.379  -5.937  -3.276  0.00  0.00    -0.074 A 
ATOM      7  C6  UNL d   1       1.730  -5.895  -2.625  0.00  0.00     0.077 C 
ATOM      8  C7  UNL d   1      -0.778  -5.950  -2.485  0.00  0.00    -0.001 A 
ENDROOT
TORSDOF 0
ENDMDL
