MODEL 1
REMARK minimizedAffinity -1.92893517
REMARK minimizedRMSD -1
REMARK  0 active torsions:
REMARK  status: ('A' for Active; 'I' for Inactive)
ROOT
ATOM      1  C   UNL d   1       0.131  -5.999  -3.002  0.00  0.00     0.077 C 
ATOM      2  C1  UNL d   1      -1.276  -5.992  -3.520  0.00  0.00    -0.074 A 
ATOM      3  C2  UNL d   1      -1.537  -5.997  -4.894  0.00  0.00    -0.005 A 
ATOM      4  C3  UNL d   1      -2.852  -6.000  -5.360  0.00  0.00     0.006 A 
ATOM      5  C4  UNL d   1      -3.917  -5.997  -4.459  0.00  0.00    -0.005 A 
ATOM      6  C5  UNL d   1      -3.676  -5.993  -3.081  0.00  0.00    -0.074 A 
ATOM      7  C6  UNL d   1      -4.809  -6.000  -2.099  0.00  0.00     0.077 C 
ATOM      8  C7  UNL d   1      -2.352  -5.997  -2.620  0.00  0.00    -0.001 A 
ENDROOT
TORSDOF 0
ENDMDL
