MODEL 1
REMARK minimizedAffinity 0.81973505
REMARK minimizedRMSD -1
REMARK  0 active torsions:
REMARK  status: ('A' for Active; 'I' for Inactive)
ROOT
ATOM      1  C   UNL d   1       0.972  -6.000  -2.631  0.00  0.00     0.077 C 
ATOM      2  C1  UNL d   1      -0.364  -5.991  -3.312  0.00  0.00    -0.074 A 
ATOM      3  C2  UNL d   1      -0.460  -5.995  -4.707  0.00  0.00    -0.005 A 
ATOM      4  C3  UNL d   1      -1.709  -5.997  -5.327  0.00  0.00     0.006 A 
ATOM      5  C4  UNL d   1      -2.874  -5.994  -4.559  0.00  0.00    -0.005 A 
ATOM      6  C5  UNL d   1      -2.799  -5.991  -3.162  0.00  0.00    -0.074 A 
ATOM      7  C6  UNL d   1      -4.041  -5.998  -2.322  0.00  0.00     0.077 C 
ATOM      8  C7  UNL d   1      -1.539  -5.997  -2.547  0.00  0.00    -0.001 A 
ENDROOT
TORSDOF 0
ENDMDL
