MODEL 1
REMARK minimizedAffinity 1.17895234
REMARK minimizedRMSD -1
REMARK  0 active torsions:
REMARK  status: ('A' for Active; 'I' for Inactive)
ROOT
ATOM      1  C   UNL d   1      -0.794   5.431  -4.684  0.00  0.00     0.077 C 
ATOM      2  C1  UNL d   1      -0.878   4.106  -3.987  0.00  0.00    -0.074 A 
ATOM      3  C2  UNL d   1       0.242   3.553  -3.357  0.00  0.00    -0.005 A 
ATOM      4  C3  UNL d   1       0.147   2.324  -2.704  0.00  0.00     0.006 A 
ATOM      5  C4  UNL d   1      -1.067   1.636  -2.675  0.00  0.00    -0.005 A 
ATOM      6  C5  UNL d   1      -2.198   2.174  -3.298  0.00  0.00    -0.074 A 
ATOM      7  C6  UNL d   1      -3.512   1.452  -3.267  0.00  0.00     0.077 C 
ATOM      8  C7  UNL d   1      -2.096   3.413  -3.946  0.00  0.00    -0.001 A 
ENDROOT
TORSDOF 0
ENDMDL
