MODEL 1
REMARK minimizedAffinity -2.93372726
REMARK minimizedRMSD -1
REMARK  0 active torsions:
REMARK  status: ('A' for Active; 'I' for Inactive)
ROOT
ATOM      1  C   UNL d   1      -0.271  -4.944  -5.999  0.00  0.00     0.077 C 
ATOM      2  C1  UNL d   1      -0.827  -5.320  -4.658  0.00  0.00    -0.074 A 
ATOM      3  C2  UNL d   1       0.021  -5.661  -3.599  0.00  0.00    -0.005 A 
ATOM      4  C3  UNL d   1      -0.509  -6.000  -2.354  0.00  0.00     0.006 A 
ATOM      5  C4  UNL d   1      -1.890  -6.000  -2.155  0.00  0.00    -0.005 A 
ATOM      6  C5  UNL d   1      -2.754  -5.660  -3.202  0.00  0.00    -0.074 A 
ATOM      7  C6  UNL d   1      -4.240  -5.646  -3.003  0.00  0.00     0.077 C 
ATOM      8  C7  UNL d   1      -2.213  -5.315  -4.448  0.00  0.00    -0.001 A 
ENDROOT
TORSDOF 0
ENDMDL
