MODEL 1
REMARK minimizedAffinity 12.8362513
REMARK minimizedRMSD -1
REMARK  0 active torsions:
REMARK  status: ('A' for Active; 'I' for Inactive)
ROOT
ATOM      1  C   UNL d   1       1.013  -5.747  -5.932  0.00  0.00     0.077 C 
ATOM      2  C1  UNL d   1      -0.022  -5.841  -4.851  0.00  0.00    -0.074 A 
ATOM      3  C2  UNL d   1       0.350  -5.922  -3.505  0.00  0.00    -0.005 A 
ATOM      4  C3  UNL d   1      -0.624  -6.000  -2.509  0.00  0.00     0.006 A 
ATOM      5  C4  UNL d   1      -1.977  -5.997  -2.849  0.00  0.00    -0.005 A 
ATOM      6  C5  UNL d   1      -2.368  -5.915  -4.189  0.00  0.00    -0.074 A 
ATOM      7  C6  UNL d   1      -3.819  -5.900  -4.571  0.00  0.00     0.077 C 
ATOM      8  C7  UNL d   1      -1.384  -5.830  -5.183  0.00  0.00    -0.001 A 
ENDROOT
TORSDOF 0
ENDMDL
