MODEL 1
REMARK minimizedAffinity -1.80021346
REMARK minimizedRMSD -1
REMARK  0 active torsions:
REMARK  status: ('A' for Active; 'I' for Inactive)
ROOT
ATOM      1  C   UNL d   1      -3.094  -6.000  -2.410  0.00  0.00     0.077 C 
ATOM      2  C1  UNL d   1      -2.176  -5.983  -3.596  0.00  0.00    -0.074 A 
ATOM      3  C2  UNL d   1      -2.684  -6.000  -4.899  0.00  0.00    -0.005 A 
ATOM      4  C3  UNL d   1      -1.818  -5.974  -5.992  0.00  0.00     0.006 A 
ATOM      5  C4  UNL d   1      -0.438  -5.931  -5.794  0.00  0.00    -0.005 A 
ATOM      6  C5  UNL d   1       0.089  -5.912  -4.498  0.00  0.00    -0.074 A 
ATOM      7  C6  UNL d   1       1.570  -5.856  -4.268  0.00  0.00     0.077 C 
ATOM      8  C7  UNL d   1      -0.788  -5.931  -3.405  0.00  0.00    -0.001 A 
ENDROOT
TORSDOF 0
ENDMDL
