MODEL 1
REMARK minimizedAffinity -2.15729809
REMARK minimizedRMSD -1
REMARK  0 active torsions:
REMARK  status: ('A' for Active; 'I' for Inactive)
ROOT
ATOM      1  C   UNL d   1      -0.761  -5.884  -6.000  0.00  0.00     0.077 C 
ATOM      2  C1  UNL d   1      -1.134  -5.931  -4.548  0.00  0.00    -0.074 A 
ATOM      3  C2  UNL d   1      -0.151  -5.946  -3.553  0.00  0.00    -0.005 A 
ATOM      4  C3  UNL d   1      -0.513  -5.981  -2.207  0.00  0.00     0.006 A 
ATOM      5  C4  UNL d   1      -1.860  -6.000  -1.842  0.00  0.00    -0.005 A 
ATOM      6  C5  UNL d   1      -2.857  -5.984  -2.822  0.00  0.00    -0.074 A 
ATOM      7  C6  UNL d   1      -4.309  -5.995  -2.447  0.00  0.00     0.077 C 
ATOM      8  C7  UNL d   1      -2.485  -5.943  -4.173  0.00  0.00    -0.001 A 
ENDROOT
TORSDOF 0
ENDMDL
