MODEL 1
REMARK minimizedAffinity 3.02810025
REMARK minimizedRMSD -1
REMARK  0 active torsions:
REMARK  status: ('A' for Active; 'I' for Inactive)
ROOT
ATOM      1  C   UNL d   1       0.131  -6.000  -4.023  0.00  0.00     0.077 C 
ATOM      2  C1  UNL d   1      -1.160  -5.342  -3.634  0.00  0.00    -0.074 A 
ATOM      3  C2  UNL d   1      -1.567  -4.146  -4.234  0.00  0.00    -0.005 A 
ATOM      4  C3  UNL d   1      -2.774  -3.552  -3.869  0.00  0.00     0.006 A 
ATOM      5  C4  UNL d   1      -3.586  -4.146  -2.902  0.00  0.00    -0.005 A 
ATOM      6  C5  UNL d   1      -3.196  -5.343  -2.292  0.00  0.00    -0.074 A 
ATOM      7  C6  UNL d   1      -4.062  -6.000  -1.258  0.00  0.00     0.077 C 
ATOM      8  C7  UNL d   1      -1.985  -5.938  -2.669  0.00  0.00    -0.001 A 
ENDROOT
TORSDOF 0
ENDMDL
