MODEL 1
REMARK minimizedAffinity 0.109407686
REMARK minimizedRMSD -1
REMARK  0 active torsions:
REMARK  status: ('A' for Active; 'I' for Inactive)
ROOT
ATOM      1  C   UNL d   1      -0.502   2.724  -3.659  0.00  0.00     0.077 C 
ATOM      2  C1  UNL d   1      -0.140   2.683  -2.204  0.00  0.00    -0.074 A 
ATOM      3  C2  UNL d   1      -0.181   3.840  -1.420  0.00  0.00    -0.005 A 
ATOM      4  C3  UNL d   1       0.149   3.785  -0.066  0.00  0.00     0.006 A 
ATOM      5  C4  UNL d   1       0.524   2.574   0.516  0.00  0.00    -0.005 A 
ATOM      6  C5  UNL d   1       0.571   1.406  -0.252  0.00  0.00    -0.074 A 
ATOM      7  C6  UNL d   1       0.962   0.094   0.361  0.00  0.00     0.077 C 
ATOM      8  C7  UNL d   1       0.230   1.468  -1.610  0.00  0.00    -0.001 A 
ENDROOT
TORSDOF 0
ENDMDL
