MODEL 1
REMARK minimizedAffinity -3.24680948
REMARK minimizedRMSD -1
REMARK  0 active torsions:
REMARK  status: ('A' for Active; 'I' for Inactive)
ROOT
ATOM      1  C   UNL d   1       0.014  -5.985  -5.996  0.00  0.00     0.077 C 
ATOM      2  C1  UNL d   1      -1.165  -5.980  -5.069  0.00  0.00    -0.074 A 
ATOM      3  C2  UNL d   1      -2.472  -5.986  -5.567  0.00  0.00    -0.005 A 
ATOM      4  C3  UNL d   1      -3.558  -5.992  -4.692  0.00  0.00     0.006 A 
ATOM      5  C4  UNL d   1      -3.349  -5.992  -3.313  0.00  0.00    -0.005 A 
ATOM      6  C5  UNL d   1      -2.050  -5.987  -2.796  0.00  0.00    -0.074 A 
ATOM      7  C6  UNL d   1      -1.807  -5.997  -1.316  0.00  0.00     0.077 C 
ATOM      8  C7  UNL d   1      -0.963  -5.989  -3.681  0.00  0.00    -0.001 A 
ENDROOT
TORSDOF 0
ENDMDL
