MODEL 1
REMARK minimizedAffinity -0.566561222
REMARK minimizedRMSD -1
REMARK  0 active torsions:
REMARK  status: ('A' for Active; 'I' for Inactive)
ROOT
ATOM      1  C   UNL d   1      -1.466  -5.999  -1.069  0.00  0.00     0.077 C 
ATOM      2  C1  UNL d   1      -1.674  -5.999  -2.555  0.00  0.00    -0.074 A 
ATOM      3  C2  UNL d   1      -2.962  -6.000  -3.100  0.00  0.00    -0.005 A 
ATOM      4  C3  UNL d   1      -3.140  -5.990  -4.483  0.00  0.00     0.006 A 
ATOM      5  C4  UNL d   1      -2.034  -5.981  -5.334  0.00  0.00    -0.005 A 
ATOM      6  C5  UNL d   1      -0.738  -5.979  -4.807  0.00  0.00    -0.074 A 
ATOM      7  C6  UNL d   1       0.461  -5.959  -5.707  0.00  0.00     0.077 C 
ATOM      8  C7  UNL d   1      -0.568  -5.982  -3.416  0.00  0.00    -0.001 A 
ENDROOT
TORSDOF 0
ENDMDL
