MODEL 1
REMARK minimizedAffinity 9.1197176
REMARK minimizedRMSD -1
REMARK  0 active torsions:
REMARK  status: ('A' for Active; 'I' for Inactive)
ROOT
ATOM      1  C   UNL d   1      -0.711   0.565  -2.389  0.00  0.00     0.077 C 
ATOM      2  C1  UNL d   1      -0.699   1.918  -3.035  0.00  0.00    -0.074 A 
ATOM      3  C2  UNL d   1      -1.892   2.593  -3.312  0.00  0.00    -0.005 A 
ATOM      4  C3  UNL d   1      -1.865   3.856  -3.904  0.00  0.00     0.006 A 
ATOM      5  C4  UNL d   1      -0.647   4.455  -4.226  0.00  0.00    -0.005 A 
ATOM      6  C5  UNL d   1       0.557   3.795  -3.957  0.00  0.00    -0.074 A 
ATOM      7  C6  UNL d   1       1.875   4.429  -4.287  0.00  0.00     0.077 C 
ATOM      8  C7  UNL d   1       0.521   2.530  -3.354  0.00  0.00    -0.001 A 
ENDROOT
TORSDOF 0
ENDMDL
