MODEL 1
REMARK minimizedAffinity -5.10821581
REMARK minimizedRMSD -1
REMARK  3 active torsions:
REMARK  status: ('A' for Active; 'I' for Inactive)
REMARK    1  A    between atoms: C3'_2  and  C2'_3 
REMARK    2  A    between atoms: C2'_3  and  C1'_4 
REMARK    3  A    between atoms: C1'_4  and  C1_5 
ROOT
ATOM      1  C1  N4B d   1       0.390  -0.206  -0.242  0.00  0.00    -0.075 A 
ATOM      2  C2  N4B d   1       0.823  -0.014   1.088  0.00  0.00     0.002 A 
ATOM      3  C3  N4B d   1       1.779  -0.841   1.625  0.00  0.00     0.002 A 
ATOM      4  C4  N4B d   1       2.301  -1.873   0.860  0.00  0.00    -0.004 A 
ATOM      5  C5  N4B d   1       1.896  -2.036  -0.432  0.00  0.00     0.002 A 
ATOM      6  C6  N4B d   1       0.938  -1.210  -0.986  0.00  0.00     0.002 A 
ENDROOT
BRANCH   1   7
ATOM      7  C1' N4B d   1      -0.715   0.619  -0.845  0.00  0.00     0.057 C 
BRANCH   7   8
ATOM      8  C2' N4B d   1      -1.686   1.036   0.256  0.00  0.00     0.009 C 
BRANCH   8   9
ATOM      9  C3' N4B d   1      -3.122   0.677  -0.087  0.00  0.00     0.004 C 
ATOM     10  C4' N4B d   1      -4.093   1.081   0.982  0.00  0.00     0.003 C 
ENDBRANCH   8   9
ENDBRANCH   7   8
ENDBRANCH   1   7
TORSDOF 3
ENDMDL
