MODEL 1
REMARK minimizedAffinity -3.48089576
REMARK minimizedRMSD -1
REMARK  3 active torsions:
REMARK  status: ('A' for Active; 'I' for Inactive)
REMARK    1  A    between atoms: C3'_2  and  C2'_3 
REMARK    2  A    between atoms: C2'_3  and  C1'_4 
REMARK    3  A    between atoms: C1'_4  and  C1_5 
ROOT
ATOM      1  C1  N4B d   1       0.475   0.208  -0.118  0.00  0.00    -0.075 A 
ATOM      2  C2  N4B d   1       0.189  -1.175  -0.087  0.00  0.00     0.002 A 
ATOM      3  C3  N4B d   1       1.212  -2.089  -0.155  0.00  0.00     0.002 A 
ATOM      4  C4  N4B d   1       2.521  -1.647  -0.272  0.00  0.00    -0.004 A 
ATOM      5  C5  N4B d   1       2.791  -0.309  -0.276  0.00  0.00     0.002 A 
ATOM      6  C6  N4B d   1       1.773   0.621  -0.205  0.00  0.00     0.002 A 
ENDROOT
BRANCH   1   7
ATOM      7  C1' N4B d   1      -0.615   1.244  -0.134  0.00  0.00     0.057 C 
BRANCH   7   8
ATOM      8  C2' N4B d   1      -1.792   0.744   0.699  0.00  0.00     0.009 C 
BRANCH   8   9
ATOM      9  C3' N4B d   1      -2.826   1.833   0.931  0.00  0.00     0.004 C 
ATOM     10  C4' N4B d   1      -4.178   1.285   1.278  0.00  0.00     0.003 C 
ENDBRANCH   8   9
ENDBRANCH   7   8
ENDBRANCH   1   7
TORSDOF 3
ENDMDL
