MODEL 1
REMARK minimizedAffinity -6.14121723
REMARK minimizedRMSD -1
REMARK  3 active torsions:
REMARK  status: ('A' for Active; 'I' for Inactive)
REMARK    1  A    between atoms: C3'_2  and  C2'_3 
REMARK    2  A    between atoms: C2'_3  and  C1'_4 
REMARK    3  A    between atoms: C1'_4  and  C1_5 
ROOT
ATOM      1  C1  N4B d   1      -2.407   0.427  -0.016  0.00  0.00    -0.075 A 
ATOM      2  C2  N4B d   1      -3.467  -0.488  -0.200  0.00  0.00     0.002 A 
ATOM      3  C3  N4B d   1      -4.545  -0.470   0.652  0.00  0.00     0.002 A 
ATOM      4  C4  N4B d   1      -4.575   0.436   1.701  0.00  0.00    -0.004 A 
ATOM      5  C5  N4B d   1      -3.559   1.333   1.856  0.00  0.00     0.002 A 
ATOM      6  C6  N4B d   1      -2.472   1.329   1.005  0.00  0.00     0.002 A 
ENDROOT
BRANCH   1   7
ATOM      7  C1' N4B d   1      -1.169   0.389  -0.870  0.00  0.00     0.057 C 
BRANCH   7   8
ATOM      8  C2' N4B d   1       0.023  -0.010  -0.005  0.00  0.00     0.009 C 
BRANCH   8   9
ATOM      9  C3' N4B d   1       0.501  -1.419  -0.312  0.00  0.00     0.004 C 
ATOM     10  C4' N4B d   1       1.952  -1.622   0.008  0.00  0.00     0.003 C 
ENDBRANCH   8   9
ENDBRANCH   7   8
ENDBRANCH   1   7
TORSDOF 3
ENDMDL
