MODEL 1
REMARK minimizedAffinity -5.0694623
REMARK minimizedRMSD -1
REMARK  3 active torsions:
REMARK  status: ('A' for Active; 'I' for Inactive)
REMARK    1  A    between atoms: C3'_2  and  C2'_3 
REMARK    2  A    between atoms: C2'_3  and  C1'_4 
REMARK    3  A    between atoms: C1'_4  and  C1_5 
ROOT
ATOM      1  C1  N4B d   1       2.985  -0.380   0.160  0.00  0.00    -0.075 A 
ATOM      2  C2  N4B d   1       3.520  -0.384  -1.147  0.00  0.00     0.002 A 
ATOM      3  C3  N4B d   1       4.102   0.752  -1.655  0.00  0.00     0.002 A 
ATOM      4  C4  N4B d   1       4.143   1.904  -0.884  0.00  0.00    -0.004 A 
ATOM      5  C5  N4B d   1       3.647   1.892   0.387  0.00  0.00     0.002 A 
ATOM      6  C6  N4B d   1       3.064   0.757   0.911  0.00  0.00     0.002 A 
ENDROOT
BRANCH   1   7
ATOM      7  C1' N4B d   1       2.263  -1.572   0.726  0.00  0.00     0.057 C 
BRANCH   7   8
ATOM      8  C2' N4B d   1       0.906  -1.706   0.042  0.00  0.00     0.009 C 
BRANCH   8   9
ATOM      9  C3' N4B d   1      -0.010  -0.538   0.364  0.00  0.00     0.004 C 
ATOM     10  C4' N4B d   1      -0.362   0.274  -0.847  0.00  0.00     0.003 C 
ENDBRANCH   8   9
ENDBRANCH   7   8
ENDBRANCH   1   7
TORSDOF 3
ENDMDL
