MODEL 1
REMARK minimizedAffinity -5.67635679
REMARK minimizedRMSD -1
REMARK  3 active torsions:
REMARK  status: ('A' for Active; 'I' for Inactive)
REMARK    1  A    between atoms: C3'_2  and  C2'_3 
REMARK    2  A    between atoms: C2'_3  and  C1'_4 
REMARK    3  A    between atoms: C1'_4  and  C1_5 
ROOT
ATOM      1  C1  N4B d   1       0.246  -0.217   0.090  0.00  0.00    -0.075 A 
ATOM      2  C2  N4B d   1       0.652  -1.280  -0.746  0.00  0.00     0.002 A 
ATOM      3  C3  N4B d   1       1.849  -1.913  -0.520  0.00  0.00     0.002 A 
ATOM      4  C4  N4B d   1       2.662  -1.491   0.521  0.00  0.00    -0.004 A 
ATOM      5  C5  N4B d   1       2.251  -0.480   1.340  0.00  0.00     0.002 A 
ATOM      6  C6  N4B d   1       1.048   0.162   1.127  0.00  0.00     0.002 A 
ENDROOT
BRANCH   1   7
ATOM      7  C1' N4B d   1      -1.015   0.562  -0.170  0.00  0.00     0.057 C 
BRANCH   7   8
ATOM      8  C2' N4B d   1      -1.893   0.524   1.076  0.00  0.00     0.009 C 
BRANCH   8   9
ATOM      9  C3' N4B d   1      -3.356   0.297   0.734  0.00  0.00     0.004 C 
ATOM     10  C4' N4B d   1      -4.282   0.711   1.839  0.00  0.00     0.003 C 
ENDBRANCH   8   9
ENDBRANCH   7   8
ENDBRANCH   1   7
TORSDOF 3
ENDMDL
