MODEL 1
REMARK minimizedAffinity -4.69633532
REMARK minimizedRMSD -1
REMARK  3 active torsions:
REMARK  status: ('A' for Active; 'I' for Inactive)
REMARK    1  A    between atoms: C3'_2  and  C2'_3 
REMARK    2  A    between atoms: C2'_3  and  C1'_4 
REMARK    3  A    between atoms: C1'_4  and  C1_5 
ROOT
ATOM      1  C1  N4B d   1      -3.125   0.425  -0.138  0.00  0.00    -0.075 A 
ATOM      2  C2  N4B d   1      -3.298   0.208  -1.523  0.00  0.00     0.002 A 
ATOM      3  C3  N4B d   1      -4.364  -0.530  -1.974  0.00  0.00     0.002 A 
ATOM      4  C4  N4B d   1      -5.256  -1.075  -1.063  0.00  0.00    -0.004 A 
ATOM      5  C5  N4B d   1      -5.096  -0.840   0.272  0.00  0.00     0.002 A 
ATOM      6  C6  N4B d   1      -4.031  -0.096   0.739  0.00  0.00     0.002 A 
ENDROOT
BRANCH   1   7
ATOM      7  C1' N4B d   1      -1.927   1.153   0.408  0.00  0.00     0.057 C 
BRANCH   7   8
ATOM      8  C2' N4B d   1      -0.700   0.793  -0.424  0.00  0.00     0.009 C 
BRANCH   8   9
ATOM      9  C3' N4B d   1       0.534   0.595   0.439  0.00  0.00     0.004 C 
ATOM     10  C4' N4B d   1       0.843  -0.851   0.689  0.00  0.00     0.003 C 
ENDBRANCH   8   9
ENDBRANCH   7   8
ENDBRANCH   1   7
TORSDOF 3
ENDMDL
