MODEL 1
REMARK minimizedAffinity -2.8215363
REMARK minimizedRMSD -1
REMARK  0 active torsions:
REMARK  status: ('A' for Active; 'I' for Inactive)
ROOT
ATOM      1  C   UNL d   1      -0.436  -2.284   0.013  0.00  0.00     0.077 C 
ATOM      2  C1  UNL d   1      -1.234  -3.532   0.249  0.00  0.00    -0.074 A 
ATOM      3  C2  UNL d   1      -1.314  -4.530  -0.728  0.00  0.00    -0.005 A 
ATOM      4  C3  UNL d   1      -2.052  -5.689  -0.490  0.00  0.00     0.006 A 
ATOM      5  C4  UNL d   1      -2.717  -5.862   0.724  0.00  0.00    -0.005 A 
ATOM      6  C5  UNL d   1      -2.648  -4.876   1.713  0.00  0.00    -0.074 A 
ATOM      7  C6  UNL d   1      -3.348  -5.050   3.028  0.00  0.00     0.077 C 
ATOM      8  C7  UNL d   1      -1.898  -3.717   1.470  0.00  0.00    -0.001 A 
ENDROOT
TORSDOF 0
ENDMDL
