MODEL 1
REMARK minimizedAffinity 0.659142017
REMARK minimizedRMSD -1
REMARK  0 active torsions:
REMARK  status: ('A' for Active; 'I' for Inactive)
ROOT
ATOM      1  C   UNL d   1      -5.370  -5.997  -1.889  0.00  0.00     0.077 C 
ATOM      2  C1  UNL d   1      -4.986  -5.576  -0.502  0.00  0.00    -0.074 A 
ATOM      3  C2  UNL d   1      -5.783  -5.913   0.597  0.00  0.00    -0.005 A 
ATOM      4  C3  UNL d   1      -5.409  -5.523   1.883  0.00  0.00     0.006 A 
ATOM      5  C4  UNL d   1      -4.236  -4.793   2.083  0.00  0.00    -0.005 A 
ATOM      6  C5  UNL d   1      -3.427  -4.448   0.996  0.00  0.00    -0.074 A 
ATOM      7  C6  UNL d   1      -2.158  -3.673   1.194  0.00  0.00     0.077 C 
ATOM      8  C7  UNL d   1      -3.806  -4.850  -0.292  0.00  0.00    -0.001 A 
ENDROOT
TORSDOF 0
ENDMDL
