MODEL 1
REMARK minimizedAffinity -2.55928016
REMARK minimizedRMSD -1
REMARK  0 active torsions:
REMARK  status: ('A' for Active; 'I' for Inactive)
ROOT
ATOM      1  C   UNL d   1      -1.284  -5.999  -1.308  0.00  0.00     0.077 C 
ATOM      2  C1  UNL d   1      -1.489  -5.999  -2.794  0.00  0.00    -0.074 A 
ATOM      3  C2  UNL d   1      -2.775  -6.000  -3.342  0.00  0.00    -0.005 A 
ATOM      4  C3  UNL d   1      -2.950  -5.990  -4.726  0.00  0.00     0.006 A 
ATOM      5  C4  UNL d   1      -1.842  -5.978  -5.574  0.00  0.00    -0.005 A 
ATOM      6  C5  UNL d   1      -0.548  -5.975  -5.044  0.00  0.00    -0.074 A 
ATOM      7  C6  UNL d   1       0.654  -5.953  -5.941  0.00  0.00     0.077 C 
ATOM      8  C7  UNL d   1      -0.380  -5.979  -3.652  0.00  0.00    -0.001 A 
ENDROOT
TORSDOF 0
ENDMDL
