MODEL 1
REMARK minimizedAffinity -3.00255179
REMARK minimizedRMSD -1
REMARK  0 active torsions:
REMARK  status: ('A' for Active; 'I' for Inactive)
ROOT
ATOM      1  C   UNL d   1      -0.087  -5.808  -3.553  0.00  0.00     0.077 C 
ATOM      2  C1  UNL d   1      -1.454  -5.805  -2.937  0.00  0.00    -0.074 A 
ATOM      3  C2  UNL d   1      -2.596  -5.995  -3.721  0.00  0.00    -0.005 A 
ATOM      4  C3  UNL d   1      -3.861  -6.000  -3.133  0.00  0.00     0.006 A 
ATOM      5  C4  UNL d   1      -3.996  -5.815  -1.756  0.00  0.00    -0.005 A 
ATOM      6  C5  UNL d   1      -2.865  -5.624  -0.956  0.00  0.00    -0.074 A 
ATOM      7  C6  UNL d   1      -2.992  -5.434   0.527  0.00  0.00     0.077 C 
ATOM      8  C7  UNL d   1      -1.597  -5.628  -1.554  0.00  0.00    -0.001 A 
ENDROOT
TORSDOF 0
ENDMDL
