MODEL 1
REMARK minimizedAffinity -6.43040037
REMARK minimizedRMSD -1
REMARK  0 active torsions:
REMARK  status: ('A' for Active; 'I' for Inactive)
ROOT
ATOM      1  C   UNL d   1       0.143  -3.099   0.402  0.00  0.00     0.077 C 
ATOM      2  C1  UNL d   1       0.802  -2.972   1.744  0.00  0.00    -0.074 A 
ATOM      3  C2  UNL d   1       1.488  -1.806   2.100  0.00  0.00    -0.005 A 
ATOM      4  C3  UNL d   1       2.087  -1.698   3.355  0.00  0.00     0.006 A 
ATOM      5  C4  UNL d   1       2.007  -2.753   4.265  0.00  0.00    -0.005 A 
ATOM      6  C5  UNL d   1       1.325  -3.926   3.927  0.00  0.00    -0.074 A 
ATOM      7  C6  UNL d   1       1.220  -5.065   4.896  0.00  0.00     0.077 C 
ATOM      8  C7  UNL d   1       0.719  -4.024   2.666  0.00  0.00    -0.001 A 
ENDROOT
TORSDOF 0
ENDMDL
