MODEL 1
REMARK minimizedAffinity -4.38892365
REMARK minimizedRMSD -1
REMARK  0 active torsions:
REMARK  status: ('A' for Active; 'I' for Inactive)
ROOT
ATOM      1  C   UNL d   1      -2.993  -5.298   0.342  0.00  0.00     0.077 C 
ATOM      2  C1  UNL d   1      -2.879  -5.489  -1.141  0.00  0.00    -0.074 A 
ATOM      3  C2  UNL d   1      -3.995  -5.834  -1.910  0.00  0.00    -0.005 A 
ATOM      4  C3  UNL d   1      -3.876  -5.999  -3.289  0.00  0.00     0.006 A 
ATOM      5  C4  UNL d   1      -2.641  -5.821  -3.914  0.00  0.00    -0.005 A 
ATOM      6  C5  UNL d   1      -1.514  -5.474  -3.162  0.00  0.00    -0.074 A 
ATOM      7  C6  UNL d   1      -0.181  -5.269  -3.819  0.00  0.00     0.077 C 
ATOM      8  C7  UNL d   1      -1.643  -5.303  -1.777  0.00  0.00    -0.001 A 
ENDROOT
TORSDOF 0
ENDMDL
