MODEL 1
REMARK minimizedAffinity -5.86484766
REMARK minimizedRMSD -1
REMARK  0 active torsions:
REMARK  status: ('A' for Active; 'I' for Inactive)
ROOT
ATOM      1  C   UNL d   1      -0.251  -3.674   0.429  0.00  0.00     0.077 C 
ATOM      2  C1  UNL d   1       0.489  -3.344   1.691  0.00  0.00    -0.074 A 
ATOM      3  C2  UNL d   1       1.125  -2.108   1.848  0.00  0.00    -0.005 A 
ATOM      4  C3  UNL d   1       1.802  -1.811   3.031  0.00  0.00     0.006 A 
ATOM      5  C4  UNL d   1       1.851  -2.745   4.066  0.00  0.00    -0.005 A 
ATOM      6  C5  UNL d   1       1.221  -3.986   3.927  0.00  0.00    -0.074 A 
ATOM      7  C6  UNL d   1       1.255  -4.998   5.034  0.00  0.00     0.077 C 
ATOM      8  C7  UNL d   1       0.536  -4.274   2.738  0.00  0.00    -0.001 A 
ENDROOT
TORSDOF 0
ENDMDL
