MODEL 1
REMARK minimizedAffinity 2.90535975
REMARK minimizedRMSD -1
REMARK  0 active torsions:
REMARK  status: ('A' for Active; 'I' for Inactive)
ROOT
ATOM      1  C   UNL d   1       2.306  -1.108   2.263  0.00  0.00     0.077 C 
ATOM      2  C1  UNL d   1       1.340  -1.067   1.116  0.00  0.00    -0.074 A 
ATOM      3  C2  UNL d   1       1.304   0.027   0.245  0.00  0.00    -0.005 A 
ATOM      4  C3  UNL d   1       0.407   0.047  -0.822  0.00  0.00     0.006 A 
ATOM      5  C4  UNL d   1      -0.462  -1.025  -1.030  0.00  0.00    -0.005 A 
ATOM      6  C5  UNL d   1      -0.440  -2.128  -0.170  0.00  0.00    -0.074 A 
ATOM      7  C6  UNL d   1      -1.360  -3.293  -0.385  0.00  0.00     0.077 C 
ATOM      8  C7  UNL d   1       0.469  -2.144   0.896  0.00  0.00    -0.001 A 
ENDROOT
TORSDOF 0
ENDMDL
