MODEL 1
REMARK minimizedAffinity -2.63152599
REMARK minimizedRMSD -1
REMARK  0 active torsions:
REMARK  status: ('A' for Active; 'I' for Inactive)
ROOT
ATOM      1  C   UNL d   1       2.682  -6.000   3.819  0.00  0.00     0.077 C 
ATOM      2  C1  UNL d   1       2.127  -4.636   4.106  0.00  0.00    -0.074 A 
ATOM      3  C2  UNL d   1       1.577  -4.332   5.355  0.00  0.00    -0.005 A 
ATOM      4  C3  UNL d   1       1.074  -3.056   5.611  0.00  0.00     0.006 A 
ATOM      5  C4  UNL d   1       1.117  -2.073   4.621  0.00  0.00    -0.005 A 
ATOM      6  C5  UNL d   1       1.664  -2.358   3.367  0.00  0.00    -0.074 A 
ATOM      7  C6  UNL d   1       1.727  -1.310   2.295  0.00  0.00     0.077 C 
ATOM      8  C7  UNL d   1       2.174  -3.641   3.120  0.00  0.00    -0.001 A 
ENDROOT
TORSDOF 0
ENDMDL
