MODEL 1
REMARK minimizedAffinity -3.97848606
REMARK minimizedRMSD -1
REMARK  0 active torsions:
REMARK  status: ('A' for Active; 'I' for Inactive)
ROOT
ATOM      1  C   UNL d   1       4.210  -0.599   3.367  0.00  0.00     0.077 C 
ATOM      2  C1  UNL d   1       2.970  -1.406   3.122  0.00  0.00    -0.074 A 
ATOM      3  C2  UNL d   1       2.123  -1.114   2.048  0.00  0.00    -0.005 A 
ATOM      4  C3  UNL d   1       0.978  -1.880   1.826  0.00  0.00     0.006 A 
ATOM      5  C4  UNL d   1       0.669  -2.944   2.675  0.00  0.00    -0.005 A 
ATOM      6  C5  UNL d   1       1.505  -3.251   3.753  0.00  0.00    -0.074 A 
ATOM      7  C6  UNL d   1       1.193  -4.397   4.669  0.00  0.00     0.077 C 
ATOM      8  C7  UNL d   1       2.657  -2.481   3.965  0.00  0.00    -0.001 A 
ENDROOT
TORSDOF 0
ENDMDL
