MODEL 1
REMARK minimizedAffinity -4.40628052
REMARK minimizedRMSD -1
REMARK  0 active torsions:
REMARK  status: ('A' for Active; 'I' for Inactive)
ROOT
ATOM      1  C   UNL d   1       0.208  -5.996  -4.093  0.00  0.00     0.077 C 
ATOM      2  C1  UNL d   1      -1.134  -5.984  -3.424  0.00  0.00    -0.074 A 
ATOM      3  C2  UNL d   1      -2.312  -5.988  -4.176  0.00  0.00    -0.005 A 
ATOM      4  C3  UNL d   1      -3.553  -5.987  -3.539  0.00  0.00     0.006 A 
ATOM      5  C4  UNL d   1      -3.628  -5.982  -2.146  0.00  0.00    -0.005 A 
ATOM      6  C5  UNL d   1      -2.460  -5.979  -1.377  0.00  0.00    -0.074 A 
ATOM      7  C6  UNL d   1      -2.523  -5.984   0.122  0.00  0.00     0.077 C 
ATOM      8  C7  UNL d   1      -1.217  -5.987  -2.024  0.00  0.00    -0.001 A 
ENDROOT
TORSDOF 0
ENDMDL
