MODEL 1
REMARK minimizedAffinity -4.08289194
REMARK minimizedRMSD -1
REMARK  0 active torsions:
REMARK  status: ('A' for Active; 'I' for Inactive)
ROOT
ATOM      1  C   UNL d   1       3.204  -5.351   5.999  0.00  0.00     0.077 C 
ATOM      2  C1  UNL d   1       2.210  -4.588   5.174  0.00  0.00    -0.074 A 
ATOM      3  C2  UNL d   1       0.858  -4.945   5.166  0.00  0.00    -0.005 A 
ATOM      4  C3  UNL d   1      -0.056  -4.220   4.402  0.00  0.00     0.006 A 
ATOM      5  C4  UNL d   1       0.371  -3.132   3.640  0.00  0.00    -0.005 A 
ATOM      6  C5  UNL d   1       1.719  -2.759   3.637  0.00  0.00    -0.074 A 
ATOM      7  C6  UNL d   1       2.194  -1.586   2.831  0.00  0.00     0.077 C 
ATOM      8  C7  UNL d   1       2.631  -3.489   4.413  0.00  0.00    -0.001 A 
ENDROOT
TORSDOF 0
ENDMDL
