MODEL 1
REMARK minimizedAffinity -0.916357875
REMARK minimizedRMSD -1
REMARK  0 active torsions:
REMARK  status: ('A' for Active; 'I' for Inactive)
ROOT
ATOM      1  C   UNL d   1      -5.303   0.058   0.841  0.00  0.00     0.077 C 
ATOM      2  C1  UNL d   1      -4.793  -0.168  -0.552  0.00  0.00    -0.074 A 
ATOM      3  C2  UNL d   1      -4.770  -1.451  -1.109  0.00  0.00    -0.005 A 
ATOM      4  C3  UNL d   1      -4.302  -1.645  -2.409  0.00  0.00     0.006 A 
ATOM      5  C4  UNL d   1      -3.853  -0.560  -3.163  0.00  0.00    -0.005 A 
ATOM      6  C5  UNL d   1      -3.869   0.730  -2.622  0.00  0.00    -0.074 A 
ATOM      7  C6  UNL d   1      -3.399   1.908  -3.423  0.00  0.00     0.077 C 
ATOM      8  C7  UNL d   1      -4.347   0.918  -1.318  0.00  0.00    -0.001 A 
ENDROOT
TORSDOF 0
ENDMDL
