MODEL 1
REMARK minimizedAffinity 9.27931786
REMARK minimizedRMSD -1
REMARK  0 active torsions:
REMARK  status: ('A' for Active; 'I' for Inactive)
ROOT
ATOM      1  C   UNL d   1      -5.991   1.516  -3.042  0.00  0.00     0.077 C 
ATOM      2  C1  UNL d   1      -5.274   0.730  -1.986  0.00  0.00    -0.074 A 
ATOM      3  C2  UNL d   1      -3.948   0.324  -2.168  0.00  0.00    -0.005 A 
ATOM      4  C3  UNL d   1      -3.291  -0.399  -1.172  0.00  0.00     0.006 A 
ATOM      5  C4  UNL d   1      -3.952  -0.723   0.013  0.00  0.00    -0.005 A 
ATOM      6  C5  UNL d   1      -5.278  -0.325   0.213  0.00  0.00    -0.074 A 
ATOM      7  C6  UNL d   1      -6.000  -0.657   1.485  0.00  0.00     0.077 C 
ATOM      8  C7  UNL d   1      -5.929   0.407  -0.789  0.00  0.00    -0.001 A 
ENDROOT
TORSDOF 0
ENDMDL
