MODEL 1
REMARK minimizedAffinity 8.78054905
REMARK minimizedRMSD -1
REMARK  0 active torsions:
REMARK  status: ('A' for Active; 'I' for Inactive)
ROOT
ATOM      1  C   UNL d   1       5.998  -0.400   1.962  0.00  0.00     0.077 C 
ATOM      2  C1  UNL d   1       4.634  -0.774   2.461  0.00  0.00    -0.074 A 
ATOM      3  C2  UNL d   1       4.452  -1.264   3.758  0.00  0.00    -0.005 A 
ATOM      4  C3  UNL d   1       3.175  -1.598   4.211  0.00  0.00     0.006 A 
ATOM      5  C4  UNL d   1       2.070  -1.447   3.372  0.00  0.00    -0.005 A 
ATOM      6  C5  UNL d   1       2.233  -0.957   2.072  0.00  0.00    -0.074 A 
ATOM      7  C6  UNL d   1       1.055  -0.779   1.162  0.00  0.00     0.077 C 
ATOM      8  C7  UNL d   1       3.518  -0.617   1.627  0.00  0.00    -0.001 A 
ENDROOT
TORSDOF 0
ENDMDL
