MODEL 1
REMARK minimizedAffinity 0.970642269
REMARK minimizedRMSD -1
REMARK  0 active torsions:
REMARK  status: ('A' for Active; 'I' for Inactive)
ROOT
ATOM      1  C   UNL d   1      -1.513  -5.999  -5.771  0.00  0.00     0.077 C 
ATOM      2  C1  UNL d   1      -0.144  -5.629  -5.282  0.00  0.00    -0.074 A 
ATOM      3  C2  UNL d   1       0.999  -5.995  -6.000  0.00  0.00    -0.005 A 
ATOM      4  C3  UNL d   1       2.265  -5.635  -5.537  0.00  0.00     0.006 A 
ATOM      5  C4  UNL d   1       2.400  -4.909  -4.353  0.00  0.00    -0.005 A 
ATOM      6  C5  UNL d   1       1.268  -4.534  -3.622  0.00  0.00    -0.074 A 
ATOM      7  C6  UNL d   1       1.396  -3.744  -2.354  0.00  0.00     0.077 C 
ATOM      8  C7  UNL d   1      -0.000  -4.892  -4.098  0.00  0.00    -0.001 A 
ENDROOT
TORSDOF 0
ENDMDL
