MODEL 1
REMARK minimizedAffinity -5.28599501
REMARK minimizedRMSD -1
REMARK  0 active torsions:
REMARK  status: ('A' for Active; 'I' for Inactive)
ROOT
ATOM      1  C   UNL d   1      -0.048  -2.574  -2.624  0.00  0.00     0.077 C 
ATOM      2  C1  UNL d   1      -0.365  -1.941  -1.302  0.00  0.00    -0.074 A 
ATOM      3  C2  UNL d   1      -0.962  -2.681  -0.276  0.00  0.00    -0.005 A 
ATOM      4  C3  UNL d   1      -1.243  -2.082   0.952  0.00  0.00     0.006 A 
ATOM      5  C4  UNL d   1      -0.931  -0.739   1.166  0.00  0.00    -0.005 A 
ATOM      6  C5  UNL d   1      -0.334   0.017   0.152  0.00  0.00    -0.074 A 
ATOM      7  C6  UNL d   1       0.017   1.459   0.368  0.00  0.00     0.077 C 
ATOM      8  C7  UNL d   1      -0.048  -0.595  -1.077  0.00  0.00    -0.001 A 
ENDROOT
TORSDOF 0
ENDMDL
