MODEL 1
REMARK minimizedAffinity -2.64254379
REMARK minimizedRMSD -1
REMARK  0 active torsions:
REMARK  status: ('A' for Active; 'I' for Inactive)
ROOT
ATOM      1  C   UNL d   1       0.031  -2.237  -2.970  0.00  0.00     0.077 C 
ATOM      2  C1  UNL d   1      -0.191  -1.707  -1.584  0.00  0.00    -0.074 A 
ATOM      3  C2  UNL d   1      -0.708  -2.527  -0.576  0.00  0.00    -0.005 A 
ATOM      4  C3  UNL d   1      -0.900  -2.023   0.711  0.00  0.00     0.006 A 
ATOM      5  C4  UNL d   1      -0.577  -0.697   1.001  0.00  0.00    -0.005 A 
ATOM      6  C5  UNL d   1      -0.058   0.137   0.006  0.00  0.00    -0.074 A 
ATOM      7  C6  UNL d   1       0.303   1.562   0.304  0.00  0.00     0.077 C 
ATOM      8  C7  UNL d   1       0.138  -0.378  -1.283  0.00  0.00    -0.001 A 
ENDROOT
TORSDOF 0
ENDMDL
