MODEL 1
REMARK minimizedAffinity -5.87108088
REMARK minimizedRMSD -1
REMARK  0 active torsions:
REMARK  status: ('A' for Active; 'I' for Inactive)
ROOT
ATOM      1  C   UNL d   1      -0.159   1.542  -0.392  0.00  0.00     0.077 C 
ATOM      2  C1  UNL d   1      -0.110   0.136  -0.913  0.00  0.00    -0.074 A 
ATOM      3  C2  UNL d   1       0.002  -0.119  -2.283  0.00  0.00    -0.005 A 
ATOM      4  C3  UNL d   1       0.056  -1.432  -2.752  0.00  0.00     0.006 A 
ATOM      5  C4  UNL d   1      -0.002  -2.501  -1.857  0.00  0.00    -0.005 A 
ATOM      6  C5  UNL d   1      -0.114  -2.265  -0.483  0.00  0.00    -0.074 A 
ATOM      7  C6  UNL d   1      -0.168  -3.402   0.494  0.00  0.00     0.077 C 
ATOM      8  C7  UNL d   1      -0.160  -0.943  -0.019  0.00  0.00    -0.001 A 
ENDROOT
TORSDOF 0
ENDMDL
