MODEL 1
REMARK minimizedAffinity -5.63589048
REMARK minimizedRMSD -1
REMARK  0 active torsions:
REMARK  status: ('A' for Active; 'I' for Inactive)
ROOT
ATOM      1  C   UNL d   1      -3.032  -2.528   1.130  0.00  0.00     0.077 C 
ATOM      2  C1  UNL d   1      -1.668  -1.997   0.805  0.00  0.00    -0.074 A 
ATOM      3  C2  UNL d   1      -0.587  -2.863   0.609  0.00  0.00    -0.005 A 
ATOM      4  C3  UNL d   1       0.674  -2.355   0.298  0.00  0.00     0.006 A 
ATOM      5  C4  UNL d   1       0.867  -0.978   0.180  0.00  0.00    -0.005 A 
ATOM      6  C5  UNL d   1      -0.201  -0.097   0.372  0.00  0.00    -0.074 A 
ATOM      7  C6  UNL d   1      -0.013   1.385   0.239  0.00  0.00     0.077 C 
ATOM      8  C7  UNL d   1      -1.467  -0.616   0.677  0.00  0.00    -0.001 A 
ENDROOT
TORSDOF 0
ENDMDL
