MODEL 1
REMARK minimizedAffinity -3.99825954
REMARK minimizedRMSD -1
REMARK  0 active torsions:
REMARK  status: ('A' for Active; 'I' for Inactive)
ROOT
ATOM      1  C   UNL d   1       1.891   3.433   1.659  0.00  0.00     0.077 C 
ATOM      2  C1  UNL d   1       1.122   2.630   0.654  0.00  0.00    -0.074 A 
ATOM      3  C2  UNL d   1       0.802   3.163  -0.599  0.00  0.00    -0.005 A 
ATOM      4  C3  UNL d   1       0.094   2.400  -1.528  0.00  0.00     0.006 A 
ATOM      5  C4  UNL d   1      -0.301   1.099  -1.214  0.00  0.00    -0.005 A 
ATOM      6  C5  UNL d   1       0.011   0.549   0.034  0.00  0.00    -0.074 A 
ATOM      7  C6  UNL d   1      -0.397  -0.852   0.384  0.00  0.00     0.077 C 
ATOM      8  C7  UNL d   1       0.729   1.319   0.959  0.00  0.00    -0.001 A 
ENDROOT
TORSDOF 0
ENDMDL
