MODEL 1
REMARK minimizedAffinity -4.63321161
REMARK minimizedRMSD -1
REMARK  0 active torsions:
REMARK  status: ('A' for Active; 'I' for Inactive)
ROOT
ATOM      1  C   UNL d   1       0.428  -3.420   0.130  0.00  0.00     0.077 C 
ATOM      2  C1  UNL d   1       0.043  -1.971   0.070  0.00  0.00    -0.074 A 
ATOM      3  C2  UNL d   1       0.464  -1.159  -0.988  0.00  0.00    -0.005 A 
ATOM      4  C3  UNL d   1       0.091   0.184  -1.036  0.00  0.00     0.006 A 
ATOM      5  C4  UNL d   1      -0.707   0.727  -0.028  0.00  0.00    -0.005 A 
ATOM      6  C5  UNL d   1      -1.138  -0.069   1.037  0.00  0.00    -0.074 A 
ATOM      7  C6  UNL d   1      -2.004   0.497   2.123  0.00  0.00     0.077 C 
ATOM      8  C7  UNL d   1      -0.764  -1.420   1.074  0.00  0.00    -0.001 A 
ENDROOT
TORSDOF 0
ENDMDL
