MODEL 1
REMARK minimizedAffinity -5.24687624
REMARK minimizedRMSD -1
REMARK  0 active torsions:
REMARK  status: ('A' for Active; 'I' for Inactive)
ROOT
ATOM      1  C   UNL d   1       0.511   1.419   0.053  0.00  0.00     0.077 C 
ATOM      2  C1  UNL d   1      -0.049   0.082   0.441  0.00  0.00    -0.074 A 
ATOM      3  C2  UNL d   1      -1.100  -0.018   1.358  0.00  0.00    -0.005 A 
ATOM      4  C3  UNL d   1      -1.617  -1.267   1.701  0.00  0.00     0.006 A 
ATOM      5  C4  UNL d   1      -1.089  -2.427   1.133  0.00  0.00    -0.005 A 
ATOM      6  C5  UNL d   1      -0.038  -2.346   0.213  0.00  0.00    -0.074 A 
ATOM      7  C6  UNL d   1       0.535  -3.582  -0.415  0.00  0.00     0.077 C 
ATOM      8  C7  UNL d   1       0.471  -1.087  -0.132  0.00  0.00    -0.001 A 
ENDROOT
TORSDOF 0
ENDMDL
