MODEL 1
REMARK minimizedAffinity -5.87235975
REMARK minimizedRMSD -1
REMARK  0 active torsions:
REMARK  status: ('A' for Active; 'I' for Inactive)
ROOT
ATOM      1  C   UNL d   1      -0.200   0.513  -0.066  0.00  0.00     0.077 C 
ATOM      2  C1  UNL d   1       0.314   1.847   0.386  0.00  0.00    -0.074 A 
ATOM      3  C2  UNL d   1       1.456   2.411  -0.192  0.00  0.00    -0.005 A 
ATOM      4  C3  UNL d   1       1.917   3.657   0.232  0.00  0.00     0.006 A 
ATOM      5  C4  UNL d   1       1.242   4.351   1.238  0.00  0.00    -0.005 A 
ATOM      6  C5  UNL d   1       0.099   3.803   1.827  0.00  0.00    -0.074 A 
ATOM      7  C6  UNL d   1      -0.643   4.540   2.903  0.00  0.00     0.077 C 
ATOM      8  C7  UNL d   1      -0.362   2.554   1.391  0.00  0.00    -0.001 A 
ENDROOT
TORSDOF 0
ENDMDL
