MODEL 1
REMARK minimizedAffinity -6.24060917
REMARK minimizedRMSD -1
REMARK  0 active torsions:
REMARK  status: ('A' for Active; 'I' for Inactive)
ROOT
ATOM      1  C   UNL d   1       0.452  -1.779  -3.235  0.00  0.00     0.077 C 
ATOM      2  C1  UNL d   1       0.068  -2.070  -1.815  0.00  0.00    -0.074 A 
ATOM      3  C2  UNL d   1      -0.043  -3.387  -1.355  0.00  0.00    -0.005 A 
ATOM      4  C3  UNL d   1      -0.391  -3.642  -0.029  0.00  0.00     0.006 A 
ATOM      5  C4  UNL d   1      -0.632  -2.585   0.850  0.00  0.00    -0.005 A 
ATOM      6  C5  UNL d   1      -0.525  -1.262   0.409  0.00  0.00    -0.074 A 
ATOM      7  C6  UNL d   1      -0.770  -0.115   1.343  0.00  0.00     0.077 C 
ATOM      8  C7  UNL d   1      -0.167  -1.014  -0.924  0.00  0.00    -0.001 A 
ENDROOT
TORSDOF 0
ENDMDL
