MODEL 1
REMARK minimizedAffinity -1.82817876
REMARK minimizedRMSD -1
REMARK  0 active torsions:
REMARK  status: ('A' for Active; 'I' for Inactive)
ROOT
ATOM      1  C   UNL d   1      -1.095  -1.046   0.611  0.00  0.00     0.077 C 
ATOM      2  C1  UNL d   1      -0.500   0.293   0.293  0.00  0.00    -0.074 A 
ATOM      3  C2  UNL d   1      -0.319   0.703  -1.032  0.00  0.00    -0.005 A 
ATOM      4  C3  UNL d   1       0.226   1.956  -1.313  0.00  0.00     0.006 A 
ATOM      5  C4  UNL d   1       0.596   2.810  -0.273  0.00  0.00    -0.005 A 
ATOM      6  C5  UNL d   1       0.421   2.418   1.058  0.00  0.00    -0.074 A 
ATOM      7  C6  UNL d   1       0.804   3.328   2.187  0.00  0.00     0.077 C 
ATOM      8  C7  UNL d   1      -0.134   1.161   1.332  0.00  0.00    -0.001 A 
ENDROOT
TORSDOF 0
ENDMDL
