MODEL 1
REMARK minimizedAffinity -3.7651484
REMARK minimizedRMSD -1
REMARK  0 active torsions:
REMARK  status: ('A' for Active; 'I' for Inactive)
ROOT
ATOM      1  C   UNL d   1       0.554  -3.717   0.390  0.00  0.00     0.077 C 
ATOM      2  C1  UNL d   1      -0.018  -2.352   0.637  0.00  0.00    -0.074 A 
ATOM      3  C2  UNL d   1      -1.289  -2.197   1.199  0.00  0.00    -0.005 A 
ATOM      4  C3  UNL d   1      -1.804  -0.921   1.431  0.00  0.00     0.006 A 
ATOM      5  C4  UNL d   1      -1.055   0.209   1.104  0.00  0.00    -0.005 A 
ATOM      6  C5  UNL d   1       0.219   0.073   0.543  0.00  0.00    -0.074 A 
ATOM      7  C6  UNL d   1       1.042   1.278   0.195  0.00  0.00     0.077 C 
ATOM      8  C7  UNL d   1       0.732  -1.212   0.319  0.00  0.00    -0.001 A 
ENDROOT
TORSDOF 0
ENDMDL
