MODEL 1
REMARK minimizedAffinity 0.099358514
REMARK minimizedRMSD -1
REMARK  0 active torsions:
REMARK  status: ('A' for Active; 'I' for Inactive)
ROOT
ATOM      1  C   UNL d   1       1.249  -2.288  -0.248  0.00  0.00     0.077 C 
ATOM      2  C1  UNL d   1       0.879  -0.898  -0.676  0.00  0.00    -0.074 A 
ATOM      3  C2  UNL d   1       0.155  -0.677  -1.852  0.00  0.00    -0.005 A 
ATOM      4  C3  UNL d   1      -0.190   0.620  -2.232  0.00  0.00     0.006 A 
ATOM      5  C4  UNL d   1       0.185   1.707  -1.441  0.00  0.00    -0.005 A 
ATOM      6  C5  UNL d   1       0.908   1.505  -0.261  0.00  0.00    -0.074 A 
ATOM      7  C6  UNL d   1       1.311   2.661   0.605  0.00  0.00     0.077 C 
ATOM      8  C7  UNL d   1       1.245   0.198   0.117  0.00  0.00    -0.001 A 
ENDROOT
TORSDOF 0
ENDMDL
