MODEL 1
REMARK minimizedAffinity -4.91474056
REMARK minimizedRMSD -1
REMARK  0 active torsions:
REMARK  status: ('A' for Active; 'I' for Inactive)
ROOT
ATOM      1  C   UNL d   1       0.523   0.966  -0.388  0.00  0.00     0.077 C 
ATOM      2  C1  UNL d   1      -0.085  -0.301   0.136  0.00  0.00    -0.074 A 
ATOM      3  C2  UNL d   1      -1.319  -0.287   0.795  0.00  0.00    -0.005 A 
ATOM      4  C3  UNL d   1      -1.877  -1.475   1.268  0.00  0.00     0.006 A 
ATOM      5  C4  UNL d   1      -1.208  -2.686   1.087  0.00  0.00    -0.005 A 
ATOM      6  C5  UNL d   1       0.026  -2.720   0.429  0.00  0.00    -0.074 A 
ATOM      7  C6  UNL d   1       0.753  -4.014   0.217  0.00  0.00     0.077 C 
ATOM      8  C7  UNL d   1       0.576  -1.523  -0.049  0.00  0.00    -0.001 A 
ENDROOT
TORSDOF 0
ENDMDL
