MODEL 1
REMARK minimizedAffinity -5.12911844
REMARK minimizedRMSD -1
REMARK  0 active torsions:
REMARK  status: ('A' for Active; 'I' for Inactive)
ROOT
ATOM      1  C   UNL d   1      -0.531   0.880   0.043  0.00  0.00     0.077 C 
ATOM      2  C1  UNL d   1      -0.326  -0.448  -0.623  0.00  0.00    -0.074 A 
ATOM      3  C2  UNL d   1       0.150  -0.527  -1.936  0.00  0.00    -0.005 A 
ATOM      4  C3  UNL d   1       0.345  -1.769  -2.540  0.00  0.00     0.006 A 
ATOM      5  C4  UNL d   1       0.066  -2.943  -1.838  0.00  0.00    -0.005 A 
ATOM      6  C5  UNL d   1      -0.410  -2.883  -0.525  0.00  0.00    -0.074 A 
ATOM      7  C6  UNL d   1      -0.705  -4.135   0.247  0.00  0.00     0.077 C 
ATOM      8  C7  UNL d   1      -0.596  -1.631   0.078  0.00  0.00    -0.001 A 
ENDROOT
TORSDOF 0
ENDMDL
