MODEL 1
REMARK minimizedAffinity -2.85046887
REMARK minimizedRMSD -1
REMARK  0 active torsions:
REMARK  status: ('A' for Active; 'I' for Inactive)
ROOT
ATOM      1  C   UNL d   1       0.386  -3.141   0.241  0.00  0.00     0.077 C 
ATOM      2  C1  UNL d   1       0.229  -1.845  -0.499  0.00  0.00    -0.074 A 
ATOM      3  C2  UNL d   1       0.409  -1.783  -1.885  0.00  0.00    -0.005 A 
ATOM      4  C3  UNL d   1       0.250  -0.573  -2.560  0.00  0.00     0.006 A 
ATOM      5  C4  UNL d   1      -0.088   0.585  -1.859  0.00  0.00    -0.005 A 
ATOM      6  C5  UNL d   1      -0.272   0.541  -0.473  0.00  0.00    -0.074 A 
ATOM      7  C6  UNL d   1      -0.645   1.774   0.295  0.00  0.00     0.077 C 
ATOM      8  C7  UNL d   1      -0.118  -0.679   0.198  0.00  0.00    -0.001 A 
ENDROOT
TORSDOF 0
ENDMDL
