MODEL 1
REMARK minimizedAffinity -6.54070616
REMARK minimizedRMSD -1
REMARK  0 active torsions:
REMARK  status: ('A' for Active; 'I' for Inactive)
ROOT
ATOM      1  C   UNL d   1       0.987  -2.294  -3.587  0.00  0.00     0.077 C 
ATOM      2  C1  UNL d   1       0.503  -2.314  -2.168  0.00  0.00    -0.074 A 
ATOM      3  C2  UNL d   1       0.258  -3.523  -1.509  0.00  0.00    -0.005 A 
ATOM      4  C3  UNL d   1      -0.182  -3.526  -0.185  0.00  0.00     0.006 A 
ATOM      5  C4  UNL d   1      -0.382  -2.322   0.492  0.00  0.00    -0.005 A 
ATOM      6  C5  UNL d   1      -0.141  -1.104  -0.151  0.00  0.00    -0.074 A 
ATOM      7  C6  UNL d   1      -0.341   0.199   0.565  0.00  0.00     0.077 C 
ATOM      8  C7  UNL d   1       0.308  -1.109  -1.478  0.00  0.00    -0.001 A 
ENDROOT
TORSDOF 0
ENDMDL
