MODEL 1
REMARK minimizedAffinity -3.46586251
REMARK minimizedRMSD -1
REMARK  0 active torsions:
REMARK  status: ('A' for Active; 'I' for Inactive)
ROOT
ATOM      1  C   UNL d   1       0.169   2.248   1.812  0.00  0.00     0.020 A 
ATOM      2  C1  UNL d   1       0.799   1.925   0.611  0.00  0.00     0.020 A 
ATOM      3  C2  UNL d   1       0.434   0.767  -0.080  0.00  0.00     0.034 A 
ATOM      4  C3  UNL d   1      -0.563  -0.072   0.430  0.00  0.00     0.017 A 
ATOM      5  C4  UNL d   1      -1.195   0.253   1.636  0.00  0.00     0.017 A 
ATOM      6  C5  UNL d   1      -0.826   1.413   2.323  0.00  0.00     0.034 A 
ATOM      7 Cl   UNL d   1      -2.434  -0.734   2.328  0.00  0.00    -0.070 Cl
ATOM      8 Cl1  UNL d   1      -0.964  -1.487  -0.477  0.00  0.00    -0.070 Cl
ENDROOT
TORSDOF 0
ENDMDL
