MODEL 1
REMARK minimizedAffinity -3.07909536
REMARK minimizedRMSD -1
REMARK  0 active torsions:
REMARK  status: ('A' for Active; 'I' for Inactive)
ROOT
ATOM      1  C   UNL d   1      -1.316  -1.092  -4.350  0.00  0.00     0.020 A 
ATOM      2  C1  UNL d   1      -0.736  -0.382  -5.401  0.00  0.00     0.020 A 
ATOM      3  C2  UNL d   1       0.421   0.369  -5.181  0.00  0.00     0.034 A 
ATOM      4  C3  UNL d   1       1.001   0.413  -3.908  0.00  0.00     0.017 A 
ATOM      5  C4  UNL d   1       0.418  -0.300  -2.854  0.00  0.00     0.017 A 
ATOM      6  C5  UNL d   1      -0.740  -1.051  -3.079  0.00  0.00     0.034 A 
ATOM      7 Cl   UNL d   1       1.076  -0.295  -1.256  0.00  0.00    -0.070 Cl
ATOM      8 Cl1  UNL d   1       2.431   1.362  -3.709  0.00  0.00    -0.070 Cl
ENDROOT
TORSDOF 0
ENDMDL
