MODEL 1
REMARK minimizedAffinity -1.3866868
REMARK minimizedRMSD -1
REMARK  0 active torsions:
REMARK  status: ('A' for Active; 'I' for Inactive)
ROOT
ATOM      1  C   UNL d   1      -1.435   1.034   2.898  0.00  0.00     0.020 A 
ATOM      2  C1  UNL d   1      -0.223   1.669   2.633  0.00  0.00     0.020 A 
ATOM      3  C2  UNL d   1       0.537   1.290   1.524  0.00  0.00     0.034 A 
ATOM      4  C3  UNL d   1       0.085   0.273   0.676  0.00  0.00     0.017 A 
ATOM      5  C4  UNL d   1      -1.132  -0.365   0.943  0.00  0.00     0.017 A 
ATOM      6  C5  UNL d   1      -1.889   0.019   2.054  0.00  0.00     0.034 A 
ATOM      7 Cl   UNL d   1      -1.755  -1.629  -0.058  0.00  0.00    -0.070 Cl
ATOM      8 Cl1  UNL d   1       1.075  -0.145  -0.677  0.00  0.00    -0.070 Cl
ENDROOT
TORSDOF 0
ENDMDL
