MODEL 1
REMARK minimizedAffinity -3.22769332
REMARK minimizedRMSD -1
REMARK  0 active torsions:
REMARK  status: ('A' for Active; 'I' for Inactive)
ROOT
ATOM      1  C   UNL d   1      -0.502  -0.208  -5.589  0.00  0.00     0.020 A 
ATOM      2  C1  UNL d   1      -1.231  -0.887  -4.613  0.00  0.00     0.020 A 
ATOM      3  C2  UNL d   1      -0.854  -0.796  -3.271  0.00  0.00     0.034 A 
ATOM      4  C3  UNL d   1       0.255  -0.024  -2.902  0.00  0.00     0.017 A 
ATOM      5  C4  UNL d   1       0.985   0.656  -3.883  0.00  0.00     0.017 A 
ATOM      6  C5  UNL d   1       0.603   0.562  -5.224  0.00  0.00     0.034 A 
ATOM      7 Cl   UNL d   1       2.364   1.627  -3.504  0.00  0.00    -0.070 Cl
ATOM      8 Cl1  UNL d   1       0.663   0.043  -1.225  0.00  0.00    -0.070 Cl
ENDROOT
TORSDOF 0
ENDMDL
