MODEL 1
REMARK minimizedAffinity -0.449874103
REMARK minimizedRMSD -1
REMARK  0 active torsions:
REMARK  status: ('A' for Active; 'I' for Inactive)
ROOT
ATOM      1  C   UNL d   1       2.030  -0.187   1.229  0.00  0.00     0.020 A 
ATOM      2  C1  UNL d   1       1.414  -0.623   0.057  0.00  0.00     0.020 A 
ATOM      3  C2  UNL d   1       0.060  -0.357  -0.160  0.00  0.00     0.034 A 
ATOM      4  C3  UNL d   1      -0.681   0.347   0.796  0.00  0.00     0.017 A 
ATOM      5  C4  UNL d   1      -0.061   0.784   1.972  0.00  0.00     0.017 A 
ATOM      6  C5  UNL d   1       1.294   0.515   2.184  0.00  0.00     0.034 A 
ATOM      7 Cl   UNL d   1      -0.911   1.659   3.197  0.00  0.00    -0.070 Cl
ATOM      8 Cl1  UNL d   1      -2.351   0.640   0.461  0.00  0.00    -0.070 Cl
ENDROOT
TORSDOF 0
ENDMDL
