MODEL 1
REMARK minimizedAffinity -4.54112291
REMARK minimizedRMSD -1
REMARK  0 active torsions:
REMARK  status: ('A' for Active; 'I' for Inactive)
ROOT
ATOM      1  C   UNL d   1      -0.902   0.843   2.742  0.00  0.00     0.020 A 
ATOM      2  C1  UNL d   1       0.150   1.541   2.151  0.00  0.00     0.020 A 
ATOM      3  C2  UNL d   1       0.549   1.232   0.849  0.00  0.00     0.034 A 
ATOM      4  C3  UNL d   1      -0.106   0.223   0.133  0.00  0.00     0.017 A 
ATOM      5  C4  UNL d   1      -1.162  -0.477   0.727  0.00  0.00     0.017 A 
ATOM      6  C5  UNL d   1      -1.557  -0.164   2.031  0.00  0.00     0.034 A 
ATOM      7 Cl   UNL d   1      -2.018  -1.735  -0.093  0.00  0.00    -0.070 Cl
ATOM      8 Cl1  UNL d   1       0.439  -0.106  -1.473  0.00  0.00    -0.070 Cl
ENDROOT
TORSDOF 0
ENDMDL
