MODEL 1
REMARK minimizedAffinity -1.27456129
REMARK minimizedRMSD -1
REMARK  0 active torsions:
REMARK  status: ('A' for Active; 'I' for Inactive)
ROOT
ATOM      1  C   UNL d   1      -0.674   1.483   1.824  0.00  0.00     0.020 A 
ATOM      2  C1  UNL d   1       0.464   1.313   2.612  0.00  0.00     0.020 A 
ATOM      3  C2  UNL d   1       1.490   0.467   2.184  0.00  0.00     0.034 A 
ATOM      4  C3  UNL d   1       1.380  -0.211   0.965  0.00  0.00     0.017 A 
ATOM      5  C4  UNL d   1       0.238  -0.040   0.174  0.00  0.00     0.017 A 
ATOM      6  C5  UNL d   1      -0.786   0.808   0.608  0.00  0.00     0.034 A 
ATOM      7 Cl   UNL d   1       0.031  -0.843  -1.342  0.00  0.00    -0.070 Cl
ATOM      8 Cl1  UNL d   1       2.687  -1.240   0.497  0.00  0.00    -0.070 Cl
ENDROOT
TORSDOF 0
ENDMDL
