MODEL 1
REMARK minimizedAffinity -1.23910642
REMARK minimizedRMSD -1
REMARK  1 active torsions:
REMARK  status: ('A' for Active; 'I' for Inactive)
REMARK    1  A    between atoms: C1_2  and  C2_3 
ROOT
ATOM      1  C2  UNL d   1      -0.077  -0.498  -0.149  0.00  0.00    -0.076 A 
ATOM      2  C3  UNL d   1      -1.411  -0.097  -0.337  0.00  0.00     0.004 A 
ATOM      3  C4  UNL d   1      -2.146   0.462   0.707  0.00  0.00    -0.003 A 
ATOM      4  C5  UNL d   1      -1.559   0.629   1.956  0.00  0.00     0.000 A 
ATOM      5  C6  UNL d   1      -0.231   0.253   2.156  0.00  0.00     0.000 A 
ATOM      6  C7  UNL d   1       0.529  -0.297   1.109  0.00  0.00    -0.073 A 
ATOM      7  C8  UNL d   1       1.955  -0.691   1.382  0.00  0.00     0.078 C 
ENDROOT
BRANCH   1   8
ATOM      8  C1  UNL d   1       0.662  -1.123  -1.311  0.00  0.00     0.053 C 
ATOM      9  C   UNL d   1       0.873  -0.148  -2.459  0.00  0.00     0.018 C 
ENDBRANCH   1   8
TORSDOF 1
ENDMDL
