MODEL 1
REMARK minimizedAffinity -4.18787766
REMARK minimizedRMSD -1
REMARK  3 active torsions:
REMARK  status: ('A' for Active; 'I' for Inactive)
REMARK    1  A    between atoms: C3'_2  and  C2'_3 
REMARK    2  A    between atoms: C2'_3  and  C1'_4 
REMARK    3  A    between atoms: C1'_4  and  C1_5 
ROOT
ATOM      1  C1  N4B d   1      -1.651   1.050   0.208  0.00  0.00    -0.075 A 
ATOM      2  C2  N4B d   1      -1.345   0.492   1.469  0.00  0.00     0.002 A 
ATOM      3  C3  N4B d   1      -2.352   0.219   2.362  0.00  0.00     0.002 A 
ATOM      4  C4  N4B d   1      -3.665   0.512   2.026  0.00  0.00    -0.004 A 
ATOM      5  C5  N4B d   1      -3.955   1.027   0.796  0.00  0.00     0.002 A 
ATOM      6  C6  N4B d   1      -2.953   1.303  -0.113  0.00  0.00     0.002 A 
ENDROOT
BRANCH   1   7
ATOM      7  C1' N4B d   1      -0.577   1.445  -0.767  0.00  0.00     0.057 C 
BRANCH   7   8
ATOM      8  C2' N4B d   1       0.779   1.002  -0.226  0.00  0.00     0.009 C 
BRANCH   8   9
ATOM      9  C3' N4B d   1       1.868   1.085  -1.282  0.00  0.00     0.004 C 
ATOM     10  C4' N4B d   1       2.307  -0.263  -1.770  0.00  0.00     0.003 C 
ENDBRANCH   8   9
ENDBRANCH   7   8
ENDBRANCH   1   7
TORSDOF 3
ENDMDL
