MODEL 1
REMARK minimizedAffinity -6.5995388
REMARK minimizedRMSD -1
REMARK  3 active torsions:
REMARK  status: ('A' for Active; 'I' for Inactive)
REMARK    1  A    between atoms: C3'_2  and  C2'_3 
REMARK    2  A    between atoms: C2'_3  and  C1'_4 
REMARK    3  A    between atoms: C1'_4  and  C1_5 
ROOT
ATOM      1  C1  N4B d   1       0.325  -0.384  -0.396  0.00  0.00    -0.075 A 
ATOM      2  C2  N4B d   1       1.011   0.482  -1.276  0.00  0.00     0.002 A 
ATOM      3  C3  N4B d   1       1.755  -0.037  -2.307  0.00  0.00     0.002 A 
ATOM      4  C4  N4B d   1       1.842  -1.411  -2.467  0.00  0.00    -0.004 A 
ATOM      5  C5  N4B d   1       1.155  -2.240  -1.628  0.00  0.00     0.002 A 
ATOM      6  C6  N4B d   1       0.401  -1.733  -0.589  0.00  0.00     0.002 A 
ENDROOT
BRANCH   1   7
ATOM      7  C1' N4B d   1      -0.431   0.133   0.798  0.00  0.00     0.057 C 
BRANCH   7   8
ATOM      8  C2' N4B d   1      -1.178  -1.023   1.456  0.00  0.00     0.009 C 
BRANCH   8   9
ATOM      9  C3' N4B d   1      -2.682  -0.806   1.447  0.00  0.00     0.004 C 
ATOM     10  C4' N4B d   1      -3.060   0.645   1.496  0.00  0.00     0.003 C 
ENDBRANCH   8   9
ENDBRANCH   7   8
ENDBRANCH   1   7
TORSDOF 3
ENDMDL
