MODEL 1
REMARK minimizedAffinity 1.10292709
REMARK minimizedRMSD -1
REMARK  3 active torsions:
REMARK  status: ('A' for Active; 'I' for Inactive)
REMARK    1  A    between atoms: C3'_2  and  C2'_3 
REMARK    2  A    between atoms: C2'_3  and  C1'_4 
REMARK    3  A    between atoms: C1'_4  and  C1_5 
ROOT
ATOM      1  C1  N4B d   1       0.944   0.162  -0.675  0.00  0.00    -0.075 A 
ATOM      2  C2  N4B d   1       0.191  -1.033  -0.637  0.00  0.00     0.002 A 
ATOM      3  C3  N4B d   1      -0.573  -1.328   0.465  0.00  0.00     0.002 A 
ATOM      4  C4  N4B d   1      -0.586  -0.457   1.544  0.00  0.00    -0.004 A 
ATOM      5  C5  N4B d   1       0.124   0.706   1.490  0.00  0.00     0.002 A 
ATOM      6  C6  N4B d   1       0.893   1.018   0.387  0.00  0.00     0.002 A 
ENDROOT
BRANCH   1   7
ATOM      7  C1' N4B d   1       1.862   0.486  -1.821  0.00  0.00     0.057 C 
BRANCH   7   8
ATOM      8  C2' N4B d   1       2.215  -0.801  -2.560  0.00  0.00     0.009 C 
BRANCH   8   9
ATOM      9  C3' N4B d   1       2.813  -1.844  -1.631  0.00  0.00     0.004 C 
ATOM     10  C4' N4B d   1       2.039  -3.129  -1.626  0.00  0.00     0.003 C 
ENDBRANCH   8   9
ENDBRANCH   7   8
ENDBRANCH   1   7
TORSDOF 3
ENDMDL
