MODEL 1
REMARK minimizedAffinity 8.85320282
REMARK minimizedRMSD -1
REMARK  3 active torsions:
REMARK  status: ('A' for Active; 'I' for Inactive)
REMARK    1  A    between atoms: C3'_2  and  C2'_3 
REMARK    2  A    between atoms: C2'_3  and  C1'_4 
REMARK    3  A    between atoms: C1'_4  and  C1_5 
ROOT
ATOM      1  C1  N4B d   1      -3.437   1.303   4.739  0.00  0.00    -0.075 A 
ATOM      2  C2  N4B d   1      -4.227   0.155   4.969  0.00  0.00     0.002 A 
ATOM      3  C3  N4B d   1      -4.796  -0.510   3.910  0.00  0.00     0.002 A 
ATOM      4  C4  N4B d   1      -4.606  -0.037   2.621  0.00  0.00    -0.004 A 
ATOM      5  C5  N4B d   1      -3.820   1.058   2.405  0.00  0.00     0.002 A 
ATOM      6  C6  N4B d   1      -3.239   1.734   3.459  0.00  0.00     0.002 A 
ENDROOT
BRANCH   1   7
ATOM      7  C1' N4B d   1      -2.865   2.112   5.870  0.00  0.00     0.057 C 
BRANCH   7   8
ATOM      8  C2' N4B d   1      -1.375   1.810   5.999  0.00  0.00     0.009 C 
BRANCH   8   9
ATOM      9  C3' N4B d   1      -1.096   0.317   6.000  0.00  0.00     0.004 C 
ATOM     10  C4' N4B d   1       0.370   0.000   5.992  0.00  0.00     0.003 C 
ENDBRANCH   8   9
ENDBRANCH   7   8
ENDBRANCH   1   7
TORSDOF 3
ENDMDL
