MODEL 1
REMARK minimizedAffinity -1.11599195
REMARK minimizedRMSD -1
REMARK  3 active torsions:
REMARK  status: ('A' for Active; 'I' for Inactive)
REMARK    1  A    between atoms: C3'_2  and  C2'_3 
REMARK    2  A    between atoms: C2'_3  and  C1'_4 
REMARK    3  A    between atoms: C1'_4  and  C1_5 
ROOT
ATOM      1  C1  N4B d   1       1.713   1.598  -1.357  0.00  0.00    -0.075 A 
ATOM      2  C2  N4B d   1       1.720   0.668  -0.294  0.00  0.00     0.002 A 
ATOM      3  C3  N4B d   1       1.925  -0.666  -0.549  0.00  0.00     0.002 A 
ATOM      4  C4  N4B d   1       2.106  -1.094  -1.855  0.00  0.00    -0.004 A 
ATOM      5  C5  N4B d   1       2.124  -0.186  -2.874  0.00  0.00     0.002 A 
ATOM      6  C6  N4B d   1       1.923   1.158  -2.632  0.00  0.00     0.002 A 
ENDROOT
BRANCH   1   7
ATOM      7  C1' N4B d   1       1.408   3.054  -1.137  0.00  0.00     0.057 C 
BRANCH   7   8
ATOM      8  C2' N4B d   1       1.291   3.320   0.361  0.00  0.00     0.009 C 
BRANCH   8   9
ATOM      9  C3' N4B d   1       0.852   4.745   0.653  0.00  0.00     0.004 C 
ATOM     10  C4' N4B d   1       1.973   5.609   1.148  0.00  0.00     0.003 C 
ENDBRANCH   8   9
ENDBRANCH   7   8
ENDBRANCH   1   7
TORSDOF 3
ENDMDL
