MODEL 1
REMARK minimizedAffinity -2.70377564
REMARK minimizedRMSD -1
REMARK  3 active torsions:
REMARK  status: ('A' for Active; 'I' for Inactive)
REMARK    1  A    between atoms: C3'_2  and  C2'_3 
REMARK    2  A    between atoms: C2'_3  and  C1'_4 
REMARK    3  A    between atoms: C1'_4  and  C1_5 
ROOT
ATOM      1  C1  N4B d   1       1.230  -0.205  -1.025  0.00  0.00    -0.075 A 
ATOM      2  C2  N4B d   1       0.997  -1.584  -0.829  0.00  0.00     0.002 A 
ATOM      3  C3  N4B d   1       0.236  -2.007   0.233  0.00  0.00     0.002 A 
ATOM      4  C4  N4B d   1      -0.284  -1.075   1.119  0.00  0.00    -0.004 A 
ATOM      5  C5  N4B d   1      -0.076   0.256   0.907  0.00  0.00     0.002 A 
ATOM      6  C6  N4B d   1       0.684   0.696  -0.158  0.00  0.00     0.002 A 
ENDROOT
BRANCH   1   7
ATOM      7  C1' N4B d   1       2.126   0.300  -2.123  0.00  0.00     0.057 C 
BRANCH   7   8
ATOM      8  C2' N4B d   1       3.340  -0.618  -2.241  0.00  0.00     0.009 C 
BRANCH   8   9
ATOM      9  C3' N4B d   1       4.489  -0.156  -1.362  0.00  0.00     0.004 C 
ATOM     10  C4' N4B d   1       5.311  -1.294  -0.835  0.00  0.00     0.003 C 
ENDBRANCH   8   9
ENDBRANCH   7   8
ENDBRANCH   1   7
TORSDOF 3
ENDMDL
