MODEL 1
REMARK minimizedAffinity -5.32860184
REMARK minimizedRMSD -1
REMARK  2 active torsions:
REMARK  status: ('A' for Active; 'I' for Inactive)
REMARK    1  A    between atoms: C2'_3  and  C1'_4 
REMARK    2  A    between atoms: C1'_4  and  C1_5 
ROOT
ATOM      1  C1  I4B d   1      -3.134   2.089   3.190  0.00  0.00    -0.075 A 
ATOM      2  C2  I4B d   1      -4.354   1.515   2.931  0.00  0.00     0.003 A 
ATOM      3  C3  I4B d   1      -4.447   0.394   2.071  0.00  0.00     0.002 A 
ATOM      4  C4  I4B d   1      -3.309  -0.086   1.456  0.00  0.00    -0.004 A 
ATOM      5  C5  I4B d   1      -2.070   0.482   1.737  0.00  0.00     0.002 A 
ATOM      6  C6  I4B d   1      -1.980   1.568   2.619  0.00  0.00     0.003 A 
ENDROOT
BRANCH   1   7
ATOM      7  C1' I4B d   1      -3.077   3.292   4.076  0.00  0.00     0.060 C 
BRANCH   7   8
ATOM      8  C2' I4B d   1      -1.933   3.100   5.051  0.00  0.00    -0.013 C 
ATOM      9  C4' I4B d   1      -1.627   4.375   5.792  0.00  0.00     0.013 C 
ATOM     10  C3' I4B d   1      -2.311   2.000   5.998  0.00  0.00     0.013 C 
ENDBRANCH   7   8
ENDBRANCH   1   7
TORSDOF 2
ENDMDL
