MODEL 1
REMARK minimizedAffinity -3.54427862
REMARK minimizedRMSD -1
REMARK  2 active torsions:
REMARK  status: ('A' for Active; 'I' for Inactive)
REMARK    1  A    between atoms: C2'_3  and  C1'_4 
REMARK    2  A    between atoms: C1'_4  and  C1_5 
ROOT
ATOM      1  C1  I4B d   1      -0.402  -0.304   0.655  0.00  0.00    -0.075 A 
ATOM      2  C2  I4B d   1      -0.250  -1.284  -0.293  0.00  0.00     0.003 A 
ATOM      3  C3  I4B d   1       0.487  -1.025  -1.475  0.00  0.00     0.002 A 
ATOM      4  C4  I4B d   1       1.007   0.235  -1.688  0.00  0.00    -0.004 A 
ATOM      5  C5  I4B d   1       0.871   1.221  -0.714  0.00  0.00     0.002 A 
ATOM      6  C6  I4B d   1       0.173   0.946   0.470  0.00  0.00     0.003 A 
ENDROOT
BRANCH   1   7
ATOM      7  C1' I4B d   1      -1.214  -0.603   1.876  0.00  0.00     0.060 C 
BRANCH   7   8
ATOM      8  C2' I4B d   1      -2.450   0.273   1.840  0.00  0.00    -0.013 C 
ATOM      9  C4' I4B d   1      -3.689  -0.543   1.583  0.00  0.00     0.013 C 
ATOM     10  C3' I4B d   1      -2.541   0.999   3.149  0.00  0.00     0.013 C 
ENDBRANCH   7   8
ENDBRANCH   1   7
TORSDOF 2
ENDMDL
