MODEL 1
REMARK minimizedAffinity -0.202882737
REMARK minimizedRMSD -1
REMARK  2 active torsions:
REMARK  status: ('A' for Active; 'I' for Inactive)
REMARK    1  A    between atoms: C2'_3  and  C1'_4 
REMARK    2  A    between atoms: C1'_4  and  C1_5 
ROOT
ATOM      1  C1  I4B d   1       1.971  -0.451  -1.518  0.00  0.00    -0.075 A 
ATOM      2  C2  I4B d   1       2.374   0.852  -1.671  0.00  0.00     0.003 A 
ATOM      3  C3  I4B d   1       1.654   1.899  -1.046  0.00  0.00     0.002 A 
ATOM      4  C4  I4B d   1       0.516   1.604  -0.323  0.00  0.00    -0.004 A 
ATOM      5  C5  I4B d   1       0.122   0.281  -0.150  0.00  0.00     0.002 A 
ATOM      6  C6  I4B d   1       0.861  -0.755  -0.741  0.00  0.00     0.003 A 
ENDROOT
BRANCH   1   7
ATOM      7  C1' I4B d   1       2.735  -1.529  -2.219  0.00  0.00     0.060 C 
BRANCH   7   8
ATOM      8  C2' I4B d   1       2.815  -2.724  -1.291  0.00  0.00    -0.013 C 
ATOM      9  C4' I4B d   1       1.706  -3.705  -1.568  0.00  0.00     0.013 C 
ATOM     10  C3' I4B d   1       4.160  -3.361  -1.472  0.00  0.00     0.013 C 
ENDBRANCH   7   8
ENDBRANCH   1   7
TORSDOF 2
ENDMDL
