MODEL 1
REMARK minimizedAffinity 3.99706697
REMARK minimizedRMSD -1
REMARK  2 active torsions:
REMARK  status: ('A' for Active; 'I' for Inactive)
REMARK    1  A    between atoms: C2'_3  and  C1'_4 
REMARK    2  A    between atoms: C1'_4  and  C1_5 
ROOT
ATOM      1  C1  I4B d   1      -1.009   0.564   1.371  0.00  0.00    -0.075 A 
ATOM      2  C2  I4B d   1      -0.377   1.694   0.917  0.00  0.00     0.003 A 
ATOM      3  C3  I4B d   1       0.631   1.599  -0.073  0.00  0.00     0.002 A 
ATOM      4  C4  I4B d   1       1.008   0.356  -0.541  0.00  0.00    -0.004 A 
ATOM      5  C5  I4B d   1       0.351  -0.787  -0.096  0.00  0.00     0.002 A 
ATOM      6  C6  I4B d   1      -0.672  -0.682   0.857  0.00  0.00     0.003 A 
ENDROOT
BRANCH   1   7
ATOM      7  C1' I4B d   1      -2.045   0.698   2.441  0.00  0.00     0.060 C 
BRANCH   7   8
ATOM      8  C2' I4B d   1      -3.082   1.695   1.964  0.00  0.00    -0.013 C 
ATOM      9  C4' I4B d   1      -4.374   1.010   1.607  0.00  0.00     0.013 C 
ATOM     10  C3' I4B d   1      -3.288   2.706   3.053  0.00  0.00     0.013 C 
ENDBRANCH   7   8
ENDBRANCH   1   7
TORSDOF 2
ENDMDL
