MODEL 1
REMARK minimizedAffinity -3.99098325
REMARK minimizedRMSD -1
REMARK  2 active torsions:
REMARK  status: ('A' for Active; 'I' for Inactive)
REMARK    1  A    between atoms: C2'_3  and  C1'_4 
REMARK    2  A    between atoms: C1'_4  and  C1_5 
ROOT
ATOM      1  C1  I4B d   1      -0.926  -0.160   0.933  0.00  0.00    -0.075 A 
ATOM      2  C2  I4B d   1      -0.774   0.378   2.187  0.00  0.00     0.003 A 
ATOM      3  C3  I4B d   1      -1.888   0.490   3.054  0.00  0.00     0.002 A 
ATOM      4  C4  I4B d   1      -3.136   0.102   2.611  0.00  0.00    -0.004 A 
ATOM      5  C5  I4B d   1      -3.284  -0.463   1.348  0.00  0.00     0.002 A 
ATOM      6  C6  I4B d   1      -2.171  -0.607   0.508  0.00  0.00     0.003 A 
ENDROOT
BRANCH   1   7
ATOM      7  C1' I4B d   1       0.265  -0.234   0.031  0.00  0.00     0.060 C 
BRANCH   7   8
ATOM      8  C2' I4B d   1      -0.079  -1.156  -1.121  0.00  0.00    -0.013 C 
ATOM      9  C4' I4B d   1       0.440  -0.613  -2.426  0.00  0.00     0.013 C 
ATOM     10  C3' I4B d   1       0.506  -2.504  -0.825  0.00  0.00     0.013 C 
ENDBRANCH   7   8
ENDBRANCH   1   7
TORSDOF 2
ENDMDL
