MODEL 1
REMARK minimizedAffinity -1.95159531
REMARK minimizedRMSD -1
REMARK  2 active torsions:
REMARK  status: ('A' for Active; 'I' for Inactive)
REMARK    1  A    between atoms: C2'_3  and  C1'_4 
REMARK    2  A    between atoms: C1'_4  and  C1_5 
ROOT
ATOM      1  C1  I4B d   1       0.666   0.402  -0.996  0.00  0.00    -0.075 A 
ATOM      2  C2  I4B d   1       1.996   0.611  -1.262  0.00  0.00     0.003 A 
ATOM      3  C3  I4B d   1       2.616  -0.046  -2.353  0.00  0.00     0.002 A 
ATOM      4  C4  I4B d   1       1.887  -0.936  -3.114  0.00  0.00    -0.004 A 
ATOM      5  C5  I4B d   1       0.532  -1.129  -2.857  0.00  0.00     0.002 A 
ATOM      6  C6  I4B d   1      -0.085  -0.446  -1.799  0.00  0.00     0.003 A 
ENDROOT
BRANCH   1   7
ATOM      7  C1' I4B d   1       0.051   1.087   0.183  0.00  0.00     0.060 C 
BRANCH   7   8
ATOM      8  C2' I4B d   1      -0.981   0.152   0.780  0.00  0.00    -0.013 C 
ATOM      9  C4' I4B d   1      -0.347  -1.129   1.254  0.00  0.00     0.013 C 
ATOM     10  C3' I4B d   1      -1.660   0.871   1.908  0.00  0.00     0.013 C 
ENDBRANCH   7   8
ENDBRANCH   1   7
TORSDOF 2
ENDMDL
