MODEL 1
REMARK minimizedAffinity 2.97766733
REMARK minimizedRMSD -1
REMARK  2 active torsions:
REMARK  status: ('A' for Active; 'I' for Inactive)
REMARK    1  A    between atoms: C2'_3  and  C1'_4 
REMARK    2  A    between atoms: C1'_4  and  C1_5 
ROOT
ATOM      1  C1  I4B d   1      -0.063   0.873   1.076  0.00  0.00    -0.075 A 
ATOM      2  C2  I4B d   1      -1.058   0.995   0.139  0.00  0.00     0.003 A 
ATOM      3  C3  I4B d   1      -2.361   1.387   0.531  0.00  0.00     0.002 A 
ATOM      4  C4  I4B d   1      -2.636   1.595   1.867  0.00  0.00    -0.004 A 
ATOM      5  C5  I4B d   1      -1.620   1.493   2.813  0.00  0.00     0.002 A 
ATOM      6  C6  I4B d   1      -0.322   1.142   2.414  0.00  0.00     0.003 A 
ENDROOT
BRANCH   1   7
ATOM      7  C1' I4B d   1       1.294   0.425   0.633  0.00  0.00     0.060 C 
BRANCH   7   8
ATOM      8  C2' I4B d   1       1.141  -0.272  -0.704  0.00  0.00    -0.013 C 
ATOM      9  C4' I4B d   1       2.344  -0.040  -1.581  0.00  0.00     0.013 C 
ATOM     10  C3' I4B d   1       0.936  -1.734  -0.443  0.00  0.00     0.013 C 
ENDBRANCH   7   8
ENDBRANCH   1   7
TORSDOF 2
ENDMDL
