MODEL 1
REMARK minimizedAffinity -3.25586081
REMARK minimizedRMSD -1
REMARK  2 active torsions:
REMARK  status: ('A' for Active; 'I' for Inactive)
REMARK    1  A    between atoms: C2'_3  and  C1'_4 
REMARK    2  A    between atoms: C1'_4  and  C1_5 
ROOT
ATOM      1  C1  I4B d   1       0.314   0.265  -0.837  0.00  0.00    -0.075 A 
ATOM      2  C2  I4B d   1      -0.154  -0.957  -0.422  0.00  0.00     0.003 A 
ATOM      3  C3  I4B d   1      -0.568  -1.143   0.919  0.00  0.00     0.002 A 
ATOM      4  C4  I4B d   1      -0.452  -0.103   1.818  0.00  0.00    -0.004 A 
ATOM      5  C5  I4B d   1       0.001   1.142   1.390  0.00  0.00     0.002 A 
ATOM      6  C6  I4B d   1       0.375   1.331   0.052  0.00  0.00     0.003 A 
ENDROOT
BRANCH   1   7
ATOM      7  C1' I4B d   1       0.774   0.418  -2.252  0.00  0.00     0.060 C 
BRANCH   7   8
ATOM      8  C2' I4B d   1       2.086  -0.326  -2.399  0.00  0.00    -0.013 C 
ATOM      9  C4' I4B d   1       2.349  -0.687  -3.837  0.00  0.00     0.013 C 
ATOM     10  C3' I4B d   1       3.176   0.545  -1.851  0.00  0.00     0.013 C 
ENDBRANCH   7   8
ENDBRANCH   1   7
TORSDOF 2
ENDMDL
