MODEL 1
REMARK minimizedAffinity -4.32173967
REMARK minimizedRMSD -1
REMARK  2 active torsions:
REMARK  status: ('A' for Active; 'I' for Inactive)
REMARK    1  A    between atoms: C2'_3  and  C1'_4 
REMARK    2  A    between atoms: C1'_4  and  C1_5 
ROOT
ATOM      1  C1  I4B d   1      -0.029  -0.042   0.704  0.00  0.00    -0.075 A 
ATOM      2  C2  I4B d   1       0.544   1.205   0.685  0.00  0.00     0.003 A 
ATOM      3  C3  I4B d   1       1.391   1.584  -0.384  0.00  0.00     0.002 A 
ATOM      4  C4  I4B d   1       1.677   0.672  -1.381  0.00  0.00    -0.004 A 
ATOM      5  C5  I4B d   1       1.077  -0.584  -1.371  0.00  0.00     0.002 A 
ATOM      6  C6  I4B d   1       0.209  -0.939  -0.329  0.00  0.00     0.003 A 
ENDROOT
BRANCH   1   7
ATOM      7  C1' I4B d   1      -0.893  -0.421   1.866  0.00  0.00     0.060 C 
BRANCH   7   8
ATOM      8  C2' I4B d   1      -1.957   0.646   2.024  0.00  0.00    -0.013 C 
ATOM      9  C4' I4B d   1      -3.336   0.073   1.832  0.00  0.00     0.013 C 
ATOM     10  C3' I4B d   1      -1.806   1.251   3.387  0.00  0.00     0.013 C 
ENDBRANCH   7   8
ENDBRANCH   1   7
TORSDOF 2
ENDMDL
