MODEL 1
REMARK minimizedAffinity -1.97920322
REMARK minimizedRMSD -1
REMARK  2 active torsions:
REMARK  status: ('A' for Active; 'I' for Inactive)
REMARK    1  A    between atoms: C2'_3  and  C1'_4 
REMARK    2  A    between atoms: C1'_4  and  C1_5 
ROOT
ATOM      1  C1  I4B d   1      -0.184  -0.031   0.653  0.00  0.00    -0.075 A 
ATOM      2  C2  I4B d   1      -0.058  -0.895  -0.407  0.00  0.00     0.003 A 
ATOM      3  C3  I4B d   1       0.773  -0.561  -1.504  0.00  0.00     0.002 A 
ATOM      4  C4  I4B d   1       1.415   0.661  -1.523  0.00  0.00    -0.004 A 
ATOM      5  C5  I4B d   1       1.304   1.525  -0.437  0.00  0.00     0.002 A 
ATOM      6  C6  I4B d   1       0.509   1.172   0.663  0.00  0.00     0.003 A 
ENDROOT
BRANCH   1   7
ATOM      7  C1' I4B d   1      -1.096  -0.401   1.780  0.00  0.00     0.060 C 
BRANCH   7   8
ATOM      8  C2' I4B d   1      -2.357   0.429   1.652  0.00  0.00    -0.013 C 
ATOM      9  C4' I4B d   1      -3.566  -0.445   1.447  0.00  0.00     0.013 C 
ATOM     10  C3' I4B d   1      -2.492   1.259   2.893  0.00  0.00     0.013 C 
ENDBRANCH   7   8
ENDBRANCH   1   7
TORSDOF 2
ENDMDL
