MODEL 1
REMARK minimizedAffinity -5.85826015
REMARK minimizedRMSD -1
REMARK  2 active torsions:
REMARK  status: ('A' for Active; 'I' for Inactive)
REMARK    1  A    between atoms: C2'_3  and  C1'_4 
REMARK    2  A    between atoms: C1'_4  and  C1_5 
ROOT
ATOM      1  C1  I4B d   1      -1.771  -0.178   1.553  0.00  0.00    -0.075 A 
ATOM      2  C2  I4B d   1      -1.999   1.081   2.049  0.00  0.00     0.003 A 
ATOM      3  C3  I4B d   1      -3.320   1.511   2.323  0.00  0.00     0.002 A 
ATOM      4  C4  I4B d   1      -4.380   0.673   2.039  0.00  0.00    -0.004 A 
ATOM      5  C5  I4B d   1      -4.145  -0.611   1.557  0.00  0.00     0.002 A 
ATOM      6  C6  I4B d   1      -2.832  -1.044   1.323  0.00  0.00     0.003 A 
ENDROOT
BRANCH   1   7
ATOM      7  C1' I4B d   1      -0.365  -0.587   1.244  0.00  0.00     0.060 C 
BRANCH   7   8
ATOM      8  C2' I4B d   1       0.053   0.109  -0.035  0.00  0.00    -0.013 C 
ATOM      9  C4' I4B d   1       1.127   1.132   0.227  0.00  0.00     0.013 C 
ATOM     10  C3' I4B d   1       0.527  -0.939  -0.998  0.00  0.00     0.013 C 
ENDBRANCH   7   8
ENDBRANCH   1   7
TORSDOF 2
ENDMDL
