MODEL 1
REMARK minimizedAffinity -5.10310602
REMARK minimizedRMSD -1
REMARK  2 active torsions:
REMARK  status: ('A' for Active; 'I' for Inactive)
REMARK    1  A    between atoms: C2'_3  and  C1'_4 
REMARK    2  A    between atoms: C1'_4  and  C1_5 
ROOT
ATOM      1  C1  I4B d   1       0.772   0.047  -0.341  0.00  0.00    -0.075 A 
ATOM      2  C2  I4B d   1       0.515  -1.089  -1.067  0.00  0.00     0.003 A 
ATOM      3  C3  I4B d   1       1.213  -1.337  -2.274  0.00  0.00     0.002 A 
ATOM      4  C4  I4B d   1       2.116  -0.404  -2.740  0.00  0.00    -0.004 A 
ATOM      5  C5  I4B d   1       2.393   0.736  -1.991  0.00  0.00     0.002 A 
ATOM      6  C6  I4B d   1       1.726   0.957  -0.777  0.00  0.00     0.003 A 
ENDROOT
BRANCH   1   7
ATOM      7  C1' I4B d   1      -0.006   0.292   0.912  0.00  0.00     0.060 C 
BRANCH   7   8
ATOM      8  C2' I4B d   1      -1.464   0.456   0.532  0.00  0.00    -0.013 C 
ATOM      9  C4' I4B d   1      -2.351   0.437   1.749  0.00  0.00     0.013 C 
ATOM     10  C3' I4B d   1      -1.604   1.746  -0.220  0.00  0.00     0.013 C 
ENDBRANCH   7   8
ENDBRANCH   1   7
TORSDOF 2
ENDMDL
