MODEL 1
REMARK minimizedAffinity 14.0051394
REMARK minimizedRMSD -1
REMARK  0 active torsions:
REMARK  status: ('A' for Active; 'I' for Inactive)
ROOT
ATOM      1  C2' OXE d   1       4.637   2.089  -5.982  0.00  0.00     0.078 C 
ATOM      2  C1' OXE d   1       5.993   4.004  -4.442  0.00  0.00     0.078 C 
ATOM      3  C1  OXE d   1       4.572   4.306  -4.849  0.00  0.00    -0.078 A 
ATOM      4  C2  OXE d   1       3.932   3.384  -5.642  0.00  0.00    -0.078 A 
ATOM      5  C3  OXE d   1       2.602   3.588  -6.000  0.00  0.00     0.003 A 
ATOM      6  C4  OXE d   1       1.961   4.793  -5.689  0.00  0.00    -0.002 A 
ATOM      7  C5  OXE d   1       2.608   5.763  -4.916  0.00  0.00    -0.002 A 
ATOM      8  C6  OXE d   1       3.896   5.517  -4.453  0.00  0.00     0.003 A 
ENDROOT
TORSDOF 0
ENDMDL
