MODEL 1
REMARK minimizedAffinity 14.7152348
REMARK minimizedRMSD -1
REMARK  0 active torsions:
REMARK  status: ('A' for Active; 'I' for Inactive)
ROOT
ATOM      1  C2' OXE d   1      -5.997  -3.906  -1.809  0.00  0.00     0.078 C 
ATOM      2  C1' OXE d   1      -5.944  -1.355  -2.980  0.00  0.00     0.078 C 
ATOM      3  C1  OXE d   1      -5.616  -2.538  -3.856  0.00  0.00    -0.078 A 
ATOM      4  C2  OXE d   1      -5.599  -3.778  -3.264  0.00  0.00    -0.078 A 
ATOM      5  C3  OXE d   1      -5.356  -4.909  -4.038  0.00  0.00     0.003 A 
ATOM      6  C4  OXE d   1      -4.979  -4.781  -5.380  0.00  0.00    -0.002 A 
ATOM      7  C5  OXE d   1      -4.951  -3.524  -5.993  0.00  0.00    -0.002 A 
ATOM      8  C6  OXE d   1      -5.308  -2.399  -5.258  0.00  0.00     0.003 A 
ENDROOT
TORSDOF 0
ENDMDL
