MODEL 1
REMARK minimizedAffinity 4.6994462
REMARK minimizedRMSD -1
REMARK  0 active torsions:
REMARK  status: ('A' for Active; 'I' for Inactive)
ROOT
ATOM      1  C2' OXE d   1      -2.507  -0.460  -5.987  0.00  0.00     0.078 C 
ATOM      2  C1' OXE d   1      -2.269  -3.257  -5.998  0.00  0.00     0.078 C 
ATOM      3  C1  OXE d   1      -3.592  -2.665  -5.581  0.00  0.00    -0.078 A 
ATOM      4  C2  OXE d   1      -3.685  -1.295  -5.533  0.00  0.00    -0.078 A 
ATOM      5  C3  OXE d   1      -4.899  -0.697  -5.207  0.00  0.00     0.003 A 
ATOM      6  C4  OXE d   1      -5.980  -1.477  -4.779  0.00  0.00    -0.002 A 
ATOM      7  C5  OXE d   1      -5.894  -2.873  -4.782  0.00  0.00    -0.002 A 
ATOM      8  C6  OXE d   1      -4.724  -3.483  -5.220  0.00  0.00     0.003 A 
ENDROOT
TORSDOF 0
ENDMDL
