MODEL 1
REMARK minimizedAffinity 12.0009346
REMARK minimizedRMSD -1
REMARK  0 active torsions:
REMARK  status: ('A' for Active; 'I' for Inactive)
ROOT
ATOM      1  C2' OXE d   1      -5.687  -3.411  -4.942  0.00  0.00     0.078 C 
ATOM      2  C1' OXE d   1      -6.000  -0.765  -4.059  0.00  0.00     0.078 C 
ATOM      3  C1  OXE d   1      -5.724  -1.824  -3.022  0.00  0.00    -0.078 A 
ATOM      4  C2  OXE d   1      -5.619  -3.123  -3.457  0.00  0.00    -0.078 A 
ATOM      5  C3  OXE d   1      -5.310  -4.132  -2.549  0.00  0.00     0.003 A 
ATOM      6  C4  OXE d   1      -5.258  -3.859  -1.177  0.00  0.00    -0.002 A 
ATOM      7  C5  OXE d   1      -5.402  -2.549  -0.708  0.00  0.00    -0.002 A 
ATOM      8  C6  OXE d   1      -5.593  -1.516  -1.619  0.00  0.00     0.003 A 
ENDROOT
TORSDOF 0
ENDMDL
