MODEL 1
REMARK minimizedAffinity 10.3720846
REMARK minimizedRMSD -1
REMARK  0 active torsions:
REMARK  status: ('A' for Active; 'I' for Inactive)
ROOT
ATOM      1  C2' OXE d   1      -5.951  -0.706   1.419  0.00  0.00     0.078 C 
ATOM      2  C1' OXE d   1      -5.510  -3.469   1.646  0.00  0.00     0.078 C 
ATOM      3  C1  OXE d   1      -5.651  -2.891   0.260  0.00  0.00    -0.078 A 
ATOM      4  C2  OXE d   1      -5.913  -1.546   0.160  0.00  0.00    -0.078 A 
ATOM      5  C3  OXE d   1      -5.998  -0.951  -1.095  0.00  0.00     0.003 A 
ATOM      6  C4  OXE d   1      -5.972  -1.736  -2.255  0.00  0.00    -0.002 A 
ATOM      7  C5  OXE d   1      -5.746  -3.114  -2.174  0.00  0.00    -0.002 A 
ATOM      8  C6  OXE d   1      -5.541  -3.699  -0.929  0.00  0.00     0.003 A 
ENDROOT
TORSDOF 0
ENDMDL
