MODEL 1
REMARK minimizedAffinity 11.6963005
REMARK minimizedRMSD -1
REMARK  0 active torsions:
REMARK  status: ('A' for Active; 'I' for Inactive)
ROOT
ATOM      1  C2' OXE d   1       1.121   2.161   1.025  0.00  0.00     0.078 C 
ATOM      2  C1' OXE d   1       0.605   0.517   3.241  0.00  0.00     0.078 C 
ATOM      3  C1  OXE d   1      -0.528   0.779   2.281  0.00  0.00    -0.078 A 
ATOM      4  C2  OXE d   1      -0.279   1.622   1.225  0.00  0.00    -0.078 A 
ATOM      5  C3  OXE d   1      -1.274   1.855   0.279  0.00  0.00     0.003 A 
ATOM      6  C4  OXE d   1      -2.569   1.361   0.476  0.00  0.00    -0.002 A 
ATOM      7  C5  OXE d   1      -2.855   0.533   1.567  0.00  0.00    -0.002 A 
ATOM      8  C6  OXE d   1      -1.837   0.198   2.453  0.00  0.00     0.003 A 
ENDROOT
TORSDOF 0
ENDMDL
