MODEL 1
REMARK minimizedAffinity 14.6666546
REMARK minimizedRMSD -1
REMARK  0 active torsions:
REMARK  status: ('A' for Active; 'I' for Inactive)
ROOT
ATOM      1  C2' OXE d   1      -5.202  -2.213  -1.811  0.00  0.00     0.078 C 
ATOM      2  C1' OXE d   1      -3.772  -4.315  -0.621  0.00  0.00     0.078 C 
ATOM      3  C1  OXE d   1      -4.557  -3.397   0.283  0.00  0.00    -0.078 A 
ATOM      4  C2  OXE d   1      -5.216  -2.344  -0.304  0.00  0.00    -0.078 A 
ATOM      5  C3  OXE d   1      -6.000  -1.500   0.478  0.00  0.00     0.003 A 
ATOM      6  C4  OXE d   1      -6.000  -1.622   1.873  0.00  0.00    -0.002 A 
ATOM      7  C5  OXE d   1      -5.304  -2.664   2.494  0.00  0.00    -0.002 A 
ATOM      8  C6  OXE d   1      -4.614  -3.584   1.712  0.00  0.00     0.003 A 
ENDROOT
TORSDOF 0
ENDMDL
