MODEL 1
REMARK minimizedAffinity 6.36567307
REMARK minimizedRMSD -1
REMARK  0 active torsions:
REMARK  status: ('A' for Active; 'I' for Inactive)
ROOT
ATOM      1  C2' OXE d   1      -6.000  -0.586  -4.116  0.00  0.00     0.078 C 
ATOM      2  C1' OXE d   1      -5.987  -3.269  -4.942  0.00  0.00     0.078 C 
ATOM      3  C1  OXE d   1      -5.800  -2.985  -3.472  0.00  0.00    -0.078 A 
ATOM      4  C2  OXE d   1      -5.761  -1.667  -3.084  0.00  0.00    -0.078 A 
ATOM      5  C3  OXE d   1      -5.645  -1.350  -1.733  0.00  0.00     0.003 A 
ATOM      6  C4  OXE d   1      -5.414  -2.356  -0.786  0.00  0.00    -0.002 A 
ATOM      7  C5  OXE d   1      -5.411  -3.702  -1.167  0.00  0.00    -0.002 A 
ATOM      8  C6  OXE d   1      -5.644  -4.035  -2.496  0.00  0.00     0.003 A 
ENDROOT
TORSDOF 0
ENDMDL
