MODEL 1
REMARK minimizedAffinity 13.3672094
REMARK minimizedRMSD -1
REMARK  0 active torsions:
REMARK  status: ('A' for Active; 'I' for Inactive)
ROOT
ATOM      1  C2' OXE d   1      -2.625  -1.045   4.114  0.00  0.00     0.078 C 
ATOM      2  C1' OXE d   1      -4.129  -0.848   1.753  0.00  0.00     0.078 C 
ATOM      3  C1  OXE d   1      -2.794  -0.148   1.797  0.00  0.00    -0.078 A 
ATOM      4  C2  OXE d   1      -2.086  -0.211   2.973  0.00  0.00    -0.078 A 
ATOM      5  C3  OXE d   1      -0.824   0.371   3.049  0.00  0.00     0.003 A 
ATOM      6  C4  OXE d   1      -0.337   1.150   1.992  0.00  0.00    -0.002 A 
ATOM      7  C5  OXE d   1      -1.060   1.260   0.800  0.00  0.00    -0.002 A 
ATOM      8  C6  OXE d   1      -2.268   0.584   0.671  0.00  0.00     0.003 A 
ENDROOT
TORSDOF 0
ENDMDL
