MODEL 1
REMARK minimizedAffinity 1.97472739
REMARK minimizedRMSD -1
REMARK  0 active torsions:
REMARK  status: ('A' for Active; 'I' for Inactive)
ROOT
ATOM      1  C2' OXE d   1      -2.019  -0.041   2.240  0.00  0.00     0.078 C 
ATOM      2  C1' OXE d   1      -4.686  -0.482   1.484  0.00  0.00     0.078 C 
ATOM      3  C1  OXE d   1      -4.239   0.944   1.687  0.00  0.00    -0.078 A 
ATOM      4  C2  OXE d   1      -2.945   1.148   2.102  0.00  0.00    -0.078 A 
ATOM      5  C3  OXE d   1      -2.465   2.446   2.252  0.00  0.00     0.003 A 
ATOM      6  C4  OXE d   1      -3.331   3.540   2.132  0.00  0.00    -0.002 A 
ATOM      7  C5  OXE d   1      -4.663   3.352   1.748  0.00  0.00    -0.002 A 
ATOM      8  C6  OXE d   1      -5.121   2.067   1.481  0.00  0.00     0.003 A 
ENDROOT
TORSDOF 0
ENDMDL
