MODEL 1
REMARK minimizedAffinity 6.56464958
REMARK minimizedRMSD -1
REMARK  0 active torsions:
REMARK  status: ('A' for Active; 'I' for Inactive)
ROOT
ATOM      1  C2' OXE d   1      -1.226   1.259   1.505  0.00  0.00     0.078 C 
ATOM      2  C1' OXE d   1      -2.301  -1.015   2.751  0.00  0.00     0.078 C 
ATOM      3  C1  OXE d   1      -2.368  -0.940   1.246  0.00  0.00    -0.078 A 
ATOM      4  C2  OXE d   1      -1.882   0.197   0.648  0.00  0.00    -0.078 A 
ATOM      5  C3  OXE d   1      -1.869   0.294  -0.741  0.00  0.00     0.003 A 
ATOM      6  C4  OXE d   1      -2.487  -0.687  -1.525  0.00  0.00    -0.002 A 
ATOM      7  C5  OXE d   1      -3.023  -1.836  -0.933  0.00  0.00    -0.002 A 
ATOM      8  C6  OXE d   1      -2.934  -1.997   0.445  0.00  0.00     0.003 A 
ENDROOT
TORSDOF 0
ENDMDL
