MODEL 1
REMARK minimizedAffinity 3.05644107
REMARK minimizedRMSD -1
REMARK  0 active torsions:
REMARK  status: ('A' for Active; 'I' for Inactive)
ROOT
ATOM      1  C2' OXE d   1      -5.166  -0.246   1.513  0.00  0.00     0.078 C 
ATOM      2  C1' OXE d   1      -3.282  -1.408  -0.213  0.00  0.00     0.078 C 
ATOM      3  C1  OXE d   1      -2.832  -0.252   0.644  0.00  0.00    -0.078 A 
ATOM      4  C2  OXE d   1      -3.773   0.340   1.452  0.00  0.00    -0.078 A 
ATOM      5  C3  OXE d   1      -3.397   1.376   2.303  0.00  0.00     0.003 A 
ATOM      6  C4  OXE d   1      -2.108   1.919   2.233  0.00  0.00    -0.002 A 
ATOM      7  C5  OXE d   1      -1.146   1.356   1.389  0.00  0.00    -0.002 A 
ATOM      8  C6  OXE d   1      -1.478   0.245   0.621  0.00  0.00     0.003 A 
ENDROOT
TORSDOF 0
ENDMDL
