MODEL 1
REMARK minimizedAffinity 6.85550976
REMARK minimizedRMSD -1
REMARK  0 active torsions:
REMARK  status: ('A' for Active; 'I' for Inactive)
ROOT
ATOM      1  C2' OXE d   1      -1.563   2.262  -2.187  0.00  0.00     0.078 C 
ATOM      2  C1' OXE d   1      -1.652   0.107  -3.985  0.00  0.00     0.078 C 
ATOM      3  C1  OXE d   1      -0.319   0.460  -3.375  0.00  0.00    -0.078 A 
ATOM      4  C2  OXE d   1      -0.276   1.544  -2.533  0.00  0.00    -0.078 A 
ATOM      5  C3  OXE d   1       0.918   1.879  -1.900  0.00  0.00     0.003 A 
ATOM      6  C4  OXE d   1       2.107   1.217  -2.233  0.00  0.00    -0.002 A 
ATOM      7  C5  OXE d   1       2.092   0.135  -3.119  0.00  0.00    -0.002 A 
ATOM      8  C6  OXE d   1       0.883  -0.283  -3.665  0.00  0.00     0.003 A 
ENDROOT
TORSDOF 0
ENDMDL
