MODEL 1
REMARK minimizedAffinity 16.5660896
REMARK minimizedRMSD -1
REMARK  0 active torsions:
REMARK  status: ('A' for Active; 'I' for Inactive)
ROOT
ATOM      1  C2' OXE d   1       5.361  -0.989  -3.953  0.00  0.00     0.078 C 
ATOM      2  C1' OXE d   1       4.192   1.151  -5.345  0.00  0.00     0.078 C 
ATOM      3  C1  OXE d   1       3.283   0.253  -4.544  0.00  0.00    -0.078 A 
ATOM      4  C2  OXE d   1       3.858  -0.819  -3.904  0.00  0.00    -0.078 A 
ATOM      5  C3  OXE d   1       3.073  -1.647  -3.107  0.00  0.00     0.003 A 
ATOM      6  C4  OXE d   1       1.682  -1.490  -3.074  0.00  0.00    -0.002 A 
ATOM      7  C5  OXE d   1       1.072  -0.428  -3.751  0.00  0.00    -0.002 A 
ATOM      8  C6  OXE d   1       1.861   0.475  -4.454  0.00  0.00     0.003 A 
ENDROOT
TORSDOF 0
ENDMDL
