MODEL 1
REMARK minimizedAffinity 3.99074197
REMARK minimizedRMSD -1
REMARK  0 active torsions:
REMARK  status: ('A' for Active; 'I' for Inactive)
ROOT
ATOM      1  C2' OXE d   1       1.817   1.059   2.253  0.00  0.00     0.078 C 
ATOM      2  C1' OXE d   1       3.105   2.374   0.133  0.00  0.00     0.078 C 
ATOM      3  C1  OXE d   1       3.913   1.396   0.949  0.00  0.00    -0.078 A 
ATOM      4  C2  OXE d   1       3.287   0.792   2.013  0.00  0.00    -0.078 A 
ATOM      5  C3  OXE d   1       3.971  -0.160   2.765  0.00  0.00     0.003 A 
ATOM      6  C4  OXE d   1       5.333  -0.394   2.543  0.00  0.00    -0.002 A 
ATOM      7  C5  OXE d   1       6.000   0.241   1.489  0.00  0.00    -0.002 A 
ATOM      8  C6  OXE d   1       5.295   1.104   0.658  0.00  0.00     0.003 A 
ENDROOT
TORSDOF 0
ENDMDL
