MODEL 1
REMARK minimizedAffinity -1.778175
REMARK minimizedRMSD -1
REMARK  0 active torsions:
REMARK  status: ('A' for Active; 'I' for Inactive)
ROOT
ATOM      1  C2' OXE d   1      -4.211   1.383   3.275  0.00  0.00     0.078 C 
ATOM      2  C1' OXE d   1      -5.599  -0.526   1.754  0.00  0.00     0.078 C 
ATOM      3  C1  OXE d   1      -4.231  -0.106   1.277  0.00  0.00    -0.078 A 
ATOM      4  C2  OXE d   1      -3.579   0.863   2.002  0.00  0.00    -0.078 A 
ATOM      5  C3  OXE d   1      -2.292   1.247   1.637  0.00  0.00     0.003 A 
ATOM      6  C4  OXE d   1      -1.718   0.769   0.452  0.00  0.00    -0.002 A 
ATOM      7  C5  OXE d   1      -2.382  -0.188  -0.322  0.00  0.00    -0.002 A 
ATOM      8  C6  OXE d   1      -3.618  -0.667   0.098  0.00  0.00     0.003 A 
ENDROOT
TORSDOF 0
ENDMDL
