MODEL 1
REMARK minimizedAffinity 5.05551052
REMARK minimizedRMSD -1
REMARK  0 active torsions:
REMARK  status: ('A' for Active; 'I' for Inactive)
ROOT
ATOM      1  C2' OXE d   1       3.802   0.431  -3.035  0.00  0.00     0.078 C 
ATOM      2  C1' OXE d   1       2.459   1.725  -5.134  0.00  0.00     0.078 C 
ATOM      3  C1  OXE d   1       2.362   0.221  -5.057  0.00  0.00    -0.078 A 
ATOM      4  C2  OXE d   1       3.061  -0.407  -4.055  0.00  0.00    -0.078 A 
ATOM      5  C3  OXE d   1       2.962  -1.787  -3.906  0.00  0.00     0.003 A 
ATOM      6  C4  OXE d   1       2.283  -2.556  -4.859  0.00  0.00    -0.002 A 
ATOM      7  C5  OXE d   1       1.597  -1.939  -5.911  0.00  0.00    -0.002 A 
ATOM      8  C6  OXE d   1       1.592  -0.552  -6.000  0.00  0.00     0.003 A 
ENDROOT
TORSDOF 0
ENDMDL
