MODEL 1
REMARK minimizedAffinity 8.61838341
REMARK minimizedRMSD -1
REMARK  0 active torsions:
REMARK  status: ('A' for Active; 'I' for Inactive)
ROOT
ATOM      1  C2' OXE d   1      -4.649   1.136   4.499  0.00  0.00     0.078 C 
ATOM      2  C1' OXE d   1      -5.917  -0.143   2.346  0.00  0.00     0.078 C 
ATOM      3  C1  OXE d   1      -4.489   0.304   2.157  0.00  0.00    -0.078 A 
ATOM      4  C2  OXE d   1      -3.891   0.970   3.199  0.00  0.00    -0.078 A 
ATOM      5  C3  OXE d   1      -2.557   1.355   3.098  0.00  0.00     0.003 A 
ATOM      6  C4  OXE d   1      -1.867   1.207   1.889  0.00  0.00    -0.002 A 
ATOM      7  C5  OXE d   1      -2.470   0.566   0.801  0.00  0.00    -0.002 A 
ATOM      8  C6  OXE d   1      -3.763   0.072   0.932  0.00  0.00     0.003 A 
ENDROOT
TORSDOF 0
ENDMDL
