MODEL 1
REMARK minimizedAffinity 2.06440115
REMARK minimizedRMSD -1
REMARK  0 active torsions:
REMARK  status: ('A' for Active; 'I' for Inactive)
ROOT
ATOM      1  C1  BNZ d   1       1.768  -2.937   0.565  0.00  0.00     0.000 A 
ATOM      2  C2  BNZ d   1       2.176  -1.727   0.071  0.00  0.00     0.000 A 
ATOM      3  C3  BNZ d   1       1.396  -1.033  -0.811  0.00  0.00     0.000 A 
ATOM      4  C4  BNZ d   1       0.230  -1.566  -1.228  0.00  0.00     0.000 A 
ATOM      5  C5  BNZ d   1      -0.191  -2.790  -0.746  0.00  0.00     0.000 A 
ATOM      6  C6  BNZ d   1       0.578  -3.468   0.171  0.00  0.00     0.000 A 
ENDROOT
TORSDOF 0
ENDMDL
