MODEL 1
REMARK minimizedAffinity -0.145361885
REMARK minimizedRMSD -1
REMARK  0 active torsions:
REMARK  status: ('A' for Active; 'I' for Inactive)
ROOT
ATOM      1  C1  BNZ d   1       3.022  -2.812   1.594  0.00  0.00     0.000 A 
ATOM      2  C2  BNZ d   1       3.429  -1.618   1.061  0.00  0.00     0.000 A 
ATOM      3  C3  BNZ d   1       2.712  -1.014   0.067  0.00  0.00     0.000 A 
ATOM      4  C4  BNZ d   1       1.612  -1.624  -0.421  0.00  0.00     0.000 A 
ATOM      5  C5  BNZ d   1       1.194  -2.832   0.099  0.00  0.00     0.000 A 
ATOM      6  C6  BNZ d   1       1.897  -3.418   1.127  0.00  0.00     0.000 A 
ENDROOT
TORSDOF 0
ENDMDL
