MODEL 1
REMARK minimizedAffinity 1.94954205
REMARK minimizedRMSD -1
REMARK  0 active torsions:
REMARK  status: ('A' for Active; 'I' for Inactive)
ROOT
ATOM      1  C1  BNZ d   1      -4.868   2.785  -5.637  0.00  0.00     0.000 A 
ATOM      2  C2  BNZ d   1      -3.757   2.071  -5.999  0.00  0.00     0.000 A 
ATOM      3  C3  BNZ d   1      -3.768   0.704  -5.983  0.00  0.00     0.000 A 
ATOM      4  C4  BNZ d   1      -4.874   0.055  -5.567  0.00  0.00     0.000 A 
ATOM      5  C5  BNZ d   1      -5.999   0.761  -5.189  0.00  0.00     0.000 A 
ATOM      6  C6  BNZ d   1      -5.997   2.136  -5.244  0.00  0.00     0.000 A 
ENDROOT
TORSDOF 0
ENDMDL
