MODEL 1
REMARK minimizedAffinity -0.194286108
REMARK minimizedRMSD -1
REMARK  0 active torsions:
REMARK  status: ('A' for Active; 'I' for Inactive)
ROOT
ATOM      1  C1  BNZ d   1      -4.569   1.278  -1.921  0.00  0.00     0.000 A 
ATOM      2  C2  BNZ d   1      -3.614   0.442  -1.408  0.00  0.00     0.000 A 
ATOM      3  C3  BNZ d   1      -2.485   0.148  -2.122  0.00  0.00     0.000 A 
ATOM      4  C4  BNZ d   1      -2.333   0.658  -3.361  0.00  0.00     0.000 A 
ATOM      5  C5  BNZ d   1      -3.291   1.496  -3.895  0.00  0.00     0.000 A 
ATOM      6  C6  BNZ d   1      -4.407   1.820  -3.158  0.00  0.00     0.000 A 
ENDROOT
TORSDOF 0
ENDMDL
