MODEL 1
REMARK minimizedAffinity 1.50614071
REMARK minimizedRMSD -1
REMARK  0 active torsions:
REMARK  status: ('A' for Active; 'I' for Inactive)
ROOT
ATOM      1  C1  BNZ d   1      -3.665  -0.652  -3.315  0.00  0.00     0.000 A 
ATOM      2  C2  BNZ d   1      -3.080   0.372  -4.011  0.00  0.00     0.000 A 
ATOM      3  C3  BNZ d   1      -3.718   0.951  -5.072  0.00  0.00     0.000 A 
ATOM      4  C4  BNZ d   1      -4.920   0.480  -5.461  0.00  0.00     0.000 A 
ATOM      5  C5  BNZ d   1      -5.519  -0.558  -4.775  0.00  0.00     0.000 A 
ATOM      6  C6  BNZ d   1      -4.892  -1.112  -3.683  0.00  0.00     0.000 A 
ENDROOT
TORSDOF 0
ENDMDL
