MODEL 1
REMARK minimizedAffinity 1.21582079
REMARK minimizedRMSD -1
REMARK  0 active torsions:
REMARK  status: ('A' for Active; 'I' for Inactive)
ROOT
ATOM      1  C1  BNZ d   1      -0.403   3.536   1.561  0.00  0.00     0.000 A 
ATOM      2  C2  BNZ d   1       0.654   3.245   0.742  0.00  0.00     0.000 A 
ATOM      3  C3  BNZ d   1       1.116   1.964   0.622  0.00  0.00     0.000 A 
ATOM      4  C4  BNZ d   1       0.546   0.984   1.352  0.00  0.00     0.000 A 
ATOM      5  C5  BNZ d   1      -0.515   1.263   2.190  0.00  0.00     0.000 A 
ATOM      6  C6  BNZ d   1      -1.002   2.547   2.278  0.00  0.00     0.000 A 
ENDROOT
TORSDOF 0
ENDMDL
