MODEL 1
REMARK minimizedAffinity 2.49655843
REMARK minimizedRMSD -1
REMARK  0 active torsions:
REMARK  status: ('A' for Active; 'I' for Inactive)
ROOT
ATOM      1  C1  BNZ d   1       1.794  -2.554  -0.386  0.00  0.00     0.000 A 
ATOM      2  C2  BNZ d   1       2.389  -1.761   0.559  0.00  0.00     0.000 A 
ATOM      3  C3  BNZ d   1       2.524  -0.415   0.359  0.00  0.00     0.000 A 
ATOM      4  C4  BNZ d   1       2.101   0.129  -0.800  0.00  0.00     0.000 A 
ATOM      5  C5  BNZ d   1       1.508  -0.659  -1.766  0.00  0.00     0.000 A 
ATOM      6  C6  BNZ d   1       1.338  -2.006  -1.546  0.00  0.00     0.000 A 
ENDROOT
TORSDOF 0
ENDMDL
