MODEL 1
REMARK minimizedAffinity -0.0955728367
REMARK minimizedRMSD -1
REMARK  0 active torsions:
REMARK  status: ('A' for Active; 'I' for Inactive)
ROOT
ATOM      1  C1  BNZ d   1       0.598  -0.577  -0.606  0.00  0.00     0.000 A 
ATOM      2  C2  BNZ d   1       0.491  -1.938  -0.494  0.00  0.00     0.000 A 
ATOM      3  C3  BNZ d   1       1.598  -2.712  -0.286  0.00  0.00     0.000 A 
ATOM      4  C4  BNZ d   1       2.813  -2.130  -0.230  0.00  0.00     0.000 A 
ATOM      5  C5  BNZ d   1       2.939  -0.760  -0.350  0.00  0.00     0.000 A 
ATOM      6  C6  BNZ d   1       1.818   0.020  -0.521  0.00  0.00     0.000 A 
ENDROOT
TORSDOF 0
ENDMDL
