MODEL 1
REMARK minimizedAffinity 2.42209816
REMARK minimizedRMSD -1
REMARK  1 active torsions:
REMARK  status: ('A' for Active; 'I' for Inactive)
REMARK    1  A    between atoms: N_2  and  C1_3 
ROOT
ATOM      1  C1  UNL d   1       1.316  -1.132   0.287  0.00  0.00     0.143 A 
ATOM      2  C2  UNL d   1       2.651  -1.425   0.586  0.00  0.00    -0.057 A 
ATOM      3  C3  UNL d   1       3.037  -1.822   1.872  0.00  0.00     0.033 A 
ATOM      4  C4  UNL d   1       2.096  -1.904   2.893  0.00  0.00    -0.042 A 
ATOM      5  C5  UNL d   1       0.767  -1.594   2.625  0.00  0.00     0.033 A 
ATOM      6  C6  UNL d   1       0.387  -1.205   1.337  0.00  0.00    -0.057 A 
ENDROOT
BRANCH   1   7
ATOM      7  N   UNL d   1       0.886  -0.638  -0.947  0.00  0.00    -0.732 N 
ATOM      8  C   UNL d   1       1.203   0.715  -1.350  0.00  0.00     0.284 C 
ATOM      9  H3  UNL d   1       0.973  -1.325  -1.692  0.00  0.00     0.395 HD
ENDBRANCH   1   7
TORSDOF 1
ENDMDL
