MODEL 1
REMARK minimizedAffinity -3.03129292
REMARK minimizedRMSD -1
REMARK  1 active torsions:
REMARK  status: ('A' for Active; 'I' for Inactive)
REMARK    1  A    between atoms: N_2  and  C1_3 
ROOT
ATOM      1  C1  UNL d   1       1.081  -2.128   1.211  0.00  0.00     0.143 A 
ATOM      2  C2  UNL d   1       0.655  -1.291   0.174  0.00  0.00    -0.057 A 
ATOM      3  C3  UNL d   1      -0.310  -0.300   0.391  0.00  0.00     0.033 A 
ATOM      4  C4  UNL d   1      -0.889  -0.148   1.647  0.00  0.00    -0.042 A 
ATOM      5  C5  UNL d   1      -0.499  -0.985   2.686  0.00  0.00     0.033 A 
ATOM      6  C6  UNL d   1       0.470  -1.969   2.464  0.00  0.00    -0.057 A 
ENDROOT
BRANCH   1   7
ATOM      7  N   UNL d   1       1.964  -3.197   1.035  0.00  0.00    -0.732 N 
ATOM      8  C   UNL d   1       2.971  -3.492   2.031  0.00  0.00     0.284 C 
ATOM      9  H3  UNL d   1       1.506  -4.020   0.649  0.00  0.00     0.395 HD
ENDBRANCH   1   7
TORSDOF 1
ENDMDL
