MODEL 1
REMARK minimizedAffinity -0.501888931
REMARK minimizedRMSD -1
REMARK  1 active torsions:
REMARK  status: ('A' for Active; 'I' for Inactive)
REMARK    1  A    between atoms: N_2  and  C1_3 
ROOT
ATOM      1  C1  UNL d   1       4.229  -2.784   2.969  0.00  0.00     0.143 A 
ATOM      2  C2  UNL d   1       5.240  -2.279   2.143  0.00  0.00    -0.057 A 
ATOM      3  C3  UNL d   1       4.994  -1.973   0.799  0.00  0.00     0.033 A 
ATOM      4  C4  UNL d   1       3.736  -2.195   0.248  0.00  0.00    -0.042 A 
ATOM      5  C5  UNL d   1       2.723  -2.719   1.043  0.00  0.00     0.033 A 
ATOM      6  C6  UNL d   1       2.973  -3.016   2.386  0.00  0.00    -0.057 A 
ENDROOT
BRANCH   1   7
ATOM      7  N   UNL d   1       4.437  -3.200   4.286  0.00  0.00    -0.732 N 
ATOM      8  C   UNL d   1       4.788  -2.244   5.314  0.00  0.00     0.284 C 
ATOM      9  H3  UNL d   1       3.762  -3.901   4.583  0.00  0.00     0.395 HD
ENDBRANCH   1   7
TORSDOF 1
ENDMDL
