MODEL 1
REMARK minimizedAffinity -1.3611542
REMARK minimizedRMSD -1
REMARK  1 active torsions:
REMARK  status: ('A' for Active; 'I' for Inactive)
REMARK    1  A    between atoms: N_2  and  C1_3 
ROOT
ATOM      1  C1  UNL d   1       0.788  -1.289   0.960  0.00  0.00     0.143 A 
ATOM      2  C2  UNL d   1      -0.243  -0.583   0.332  0.00  0.00    -0.057 A 
ATOM      3  C3  UNL d   1      -1.218   0.092   1.076  0.00  0.00     0.033 A 
ATOM      4  C4  UNL d   1      -1.195   0.049   2.466  0.00  0.00    -0.042 A 
ATOM      5  C5  UNL d   1      -0.194  -0.668   3.112  0.00  0.00     0.033 A 
ATOM      6  C6  UNL d   1       0.781  -1.334   2.363  0.00  0.00    -0.057 A 
ENDROOT
BRANCH   1   7
ATOM      7  N   UNL d   1       1.730  -2.062   0.276  0.00  0.00    -0.732 N 
ATOM      8  C   UNL d   1       2.051  -3.400   0.725  0.00  0.00     0.284 C 
ATOM      9  H3  UNL d   1       1.648  -1.971  -0.734  0.00  0.00     0.395 HD
ENDBRANCH   1   7
TORSDOF 1
ENDMDL
