MODEL 1
REMARK minimizedAffinity -4.08500385
REMARK minimizedRMSD -1
REMARK  1 active torsions:
REMARK  status: ('A' for Active; 'I' for Inactive)
REMARK    1  A    between atoms: N_2  and  C1_3 
ROOT
ATOM      1  C1  UNL d   1       2.010  -1.951   2.863  0.00  0.00     0.143 A 
ATOM      2  C2  UNL d   1       3.078  -2.391   3.652  0.00  0.00    -0.057 A 
ATOM      3  C3  UNL d   1       3.760  -3.577   3.354  0.00  0.00     0.033 A 
ATOM      4  C4  UNL d   1       3.366  -4.361   2.275  0.00  0.00    -0.042 A 
ATOM      5  C5  UNL d   1       2.291  -3.956   1.492  0.00  0.00     0.033 A 
ATOM      6  C6  UNL d   1       1.618  -2.767   1.790  0.00  0.00    -0.057 A 
ENDROOT
BRANCH   1   7
ATOM      7  N   UNL d   1       1.229  -0.832   3.165  0.00  0.00    -0.732 N 
ATOM      8  C   UNL d   1      -0.138  -0.740   2.699  0.00  0.00     0.284 C 
ATOM      9  H3  UNL d   1       1.365  -0.510   4.120  0.00  0.00     0.395 HD
ENDBRANCH   1   7
TORSDOF 1
ENDMDL
