MODEL 1
REMARK minimizedAffinity 1.85728395
REMARK minimizedRMSD -1
REMARK  1 active torsions:
REMARK  status: ('A' for Active; 'I' for Inactive)
REMARK    1  A    between atoms: N_2  and  C1_3 
ROOT
ATOM      1  C1  UNL d   1       3.549  -4.576   0.087  0.00  0.00     0.143 A 
ATOM      2  C2  UNL d   1       3.901  -5.293  -1.061  0.00  0.00    -0.057 A 
ATOM      3  C3  UNL d   1       5.108  -6.000  -1.135  0.00  0.00     0.033 A 
ATOM      4  C4  UNL d   1       6.000  -5.977  -0.068  0.00  0.00    -0.042 A 
ATOM      5  C5  UNL d   1       5.682  -5.250   1.074  0.00  0.00     0.033 A 
ATOM      6  C6  UNL d   1       4.473  -4.552   1.144  0.00  0.00    -0.057 A 
ENDROOT
BRANCH   1   7
ATOM      7  N   UNL d   1       2.410  -3.773   0.184  0.00  0.00    -0.732 N 
ATOM      8  C   UNL d   1       1.380  -4.070   1.157  0.00  0.00     0.284 C 
ATOM      9  H3  UNL d   1       2.624  -2.783   0.094  0.00  0.00     0.395 HD
ENDBRANCH   1   7
TORSDOF 1
ENDMDL
