MODEL 1
REMARK minimizedAffinity 0.101960778
REMARK minimizedRMSD -1
REMARK  1 active torsions:
REMARK  status: ('A' for Active; 'I' for Inactive)
REMARK    1  A    between atoms: N_2  and  C1_3 
ROOT
ATOM      1  C1  UNL d   1      -4.593   0.108  -4.766  0.00  0.00     0.143 A 
ATOM      2  C2  UNL d   1      -3.723   0.365  -5.831  0.00  0.00    -0.057 A 
ATOM      3  C3  UNL d   1      -2.464  -0.243  -5.903  0.00  0.00     0.033 A 
ATOM      4  C4  UNL d   1      -2.040  -1.099  -4.893  0.00  0.00    -0.042 A 
ATOM      5  C5  UNL d   1      -2.878  -1.350  -3.812  0.00  0.00     0.033 A 
ATOM      6  C6  UNL d   1      -4.137  -0.745  -3.749  0.00  0.00    -0.057 A 
ENDROOT
BRANCH   1   7
ATOM      7  N   UNL d   1      -5.817   0.757  -4.587  0.00  0.00    -0.732 N 
ATOM      8  C   UNL d   1      -5.999   2.123  -5.031  0.00  0.00     0.284 C 
ATOM      9  H3  UNL d   1      -6.611   0.150  -4.778  0.00  0.00     0.395 HD
ENDBRANCH   1   7
TORSDOF 1
ENDMDL
