MODEL 1
REMARK minimizedAffinity -1.2082268
REMARK minimizedRMSD -1
REMARK  1 active torsions:
REMARK  status: ('A' for Active; 'I' for Inactive)
REMARK    1  A    between atoms: N_2  and  C1_3 
ROOT
ATOM      1  C1  UNL d   1       4.875   3.196  -5.713  0.00  0.00     0.143 A 
ATOM      2  C2  UNL d   1       5.969   2.642  -5.041  0.00  0.00    -0.057 A 
ATOM      3  C3  UNL d   1       5.999   1.286  -4.694  0.00  0.00     0.033 A 
ATOM      4  C4  UNL d   1       4.918   0.463  -4.990  0.00  0.00    -0.042 A 
ATOM      5  C5  UNL d   1       3.808   0.997  -5.636  0.00  0.00     0.033 A 
ATOM      6  C6  UNL d   1       3.787   2.351  -5.985  0.00  0.00    -0.057 A 
ENDROOT
BRANCH   1   7
ATOM      7  N   UNL d   1       4.743   4.558  -5.997  0.00  0.00    -0.732 N 
ATOM      8  C   UNL d   1       3.440   5.188  -5.999  0.00  0.00     0.284 C 
ATOM      9  H3  UNL d   1       5.475   5.117  -5.563  0.00  0.00     0.395 HD
ENDBRANCH   1   7
TORSDOF 1
ENDMDL
