MODEL 1
REMARK minimizedAffinity -2.27509069
REMARK minimizedRMSD -1
REMARK  2 active torsions:
REMARK  status: ('A' for Active; 'I' for Inactive)
REMARK    1  A    between atoms: C2'_3  and  C1'_4 
REMARK    2  A    between atoms: C1'_4  and  C1_5 
ROOT
ATOM      1  C1  I4B d   1      -4.224   1.210  -5.956  0.00  0.00    -0.075 A 
ATOM      2  C2  I4B d   1      -2.894   0.872  -6.000  0.00  0.00     0.003 A 
ATOM      3  C3  I4B d   1      -1.902   1.882  -5.991  0.00  0.00     0.002 A 
ATOM      4  C4  I4B d   1      -2.281   3.208  -5.989  0.00  0.00    -0.004 A 
ATOM      5  C5  I4B d   1      -3.629   3.549  -5.922  0.00  0.00     0.002 A 
ATOM      6  C6  I4B d   1      -4.607   2.544  -5.892  0.00  0.00     0.003 A 
ENDROOT
BRANCH   1   7
ATOM      7  C1' I4B d   1      -5.247   0.120  -6.000  0.00  0.00     0.060 C 
BRANCH   7   8
ATOM      8  C2' I4B d   1      -4.716  -1.050  -5.197  0.00  0.00    -0.013 C 
ATOM      9  C4' I4B d   1      -5.386  -1.136  -3.850  0.00  0.00     0.013 C 
ATOM     10  C3' I4B d   1      -4.943  -2.300  -5.994  0.00  0.00     0.013 C 
ENDBRANCH   7   8
ENDBRANCH   1   7
TORSDOF 2
ENDMDL
