MODEL 1
REMARK minimizedAffinity -0.871266842
REMARK minimizedRMSD -1
REMARK  2 active torsions:
REMARK  status: ('A' for Active; 'I' for Inactive)
REMARK    1  A    between atoms: C2'_3  and  C1'_4 
REMARK    2  A    between atoms: C1'_4  and  C1_5 
ROOT
ATOM      1  C1  I4B d   1      -4.311   0.825  -5.950  0.00  0.00    -0.075 A 
ATOM      2  C2  I4B d   1      -2.964   0.570  -5.997  0.00  0.00     0.003 A 
ATOM      3  C3  I4B d   1      -2.036   1.639  -5.996  0.00  0.00     0.002 A 
ATOM      4  C4  I4B d   1      -2.497   2.940  -6.000  0.00  0.00    -0.004 A 
ATOM      5  C5  I4B d   1      -3.864   3.196  -5.929  0.00  0.00     0.002 A 
ATOM      6  C6  I4B d   1      -4.776   2.132  -5.892  0.00  0.00     0.003 A 
ENDROOT
BRANCH   1   7
ATOM      7  C1' I4B d   1      -5.264  -0.328  -5.985  0.00  0.00     0.060 C 
BRANCH   7   8
ATOM      8  C2' I4B d   1      -4.706  -1.422  -5.097  0.00  0.00    -0.013 C 
ATOM      9  C4' I4B d   1      -5.127  -1.229  -3.664  0.00  0.00     0.013 C 
ATOM     10  C3' I4B d   1      -5.186  -2.739  -5.630  0.00  0.00     0.013 C 
ENDBRANCH   7   8
ENDBRANCH   1   7
TORSDOF 2
ENDMDL
