MODEL 1
REMARK minimizedAffinity 2.49215555
REMARK minimizedRMSD -1
REMARK  2 active torsions:
REMARK  status: ('A' for Active; 'I' for Inactive)
REMARK    1  A    between atoms: C2'_3  and  C1'_4 
REMARK    2  A    between atoms: C1'_4  and  C1_5 
ROOT
ATOM      1  C1  I4B d   1       0.970  -0.878  -2.169  0.00  0.00    -0.075 A 
ATOM      2  C2  I4B d   1       0.804   0.302  -2.850  0.00  0.00     0.003 A 
ATOM      3  C3  I4B d   1       0.274   0.298  -4.163  0.00  0.00     0.002 A 
ATOM      4  C4  I4B d   1      -0.026  -0.904  -4.771  0.00  0.00    -0.004 A 
ATOM      5  C5  I4B d   1       0.122  -2.097  -4.071  0.00  0.00     0.002 A 
ATOM      6  C6  I4B d   1       0.612  -2.084  -2.757  0.00  0.00     0.003 A 
ENDROOT
BRANCH   1   7
ATOM      7  C1' I4B d   1       1.563  -0.840  -0.796  0.00  0.00     0.060 C 
BRANCH   7   8
ATOM      8  C2' I4B d   1       1.267   0.520  -0.197  0.00  0.00    -0.013 C 
ATOM      9  C4' I4B d   1       0.847   0.401   1.244  0.00  0.00     0.013 C 
ATOM     10  C3' I4B d   1       2.498   1.365  -0.334  0.00  0.00     0.013 C 
ENDBRANCH   7   8
ENDBRANCH   1   7
TORSDOF 2
ENDMDL
