MODEL 1
REMARK minimizedAffinity 10.5403385
REMARK minimizedRMSD -1
REMARK  2 active torsions:
REMARK  status: ('A' for Active; 'I' for Inactive)
REMARK    1  A    between atoms: C2'_3  and  C1'_4 
REMARK    2  A    between atoms: C1'_4  and  C1_5 
ROOT
ATOM      1  C1  I4B d   1       1.101  -0.309  -2.036  0.00  0.00    -0.075 A 
ATOM      2  C2  I4B d   1       1.940   0.768  -2.180  0.00  0.00     0.003 A 
ATOM      3  C3  I4B d   1       2.472   1.416  -1.039  0.00  0.00     0.002 A 
ATOM      4  C4  I4B d   1       2.101   0.988   0.220  0.00  0.00    -0.004 A 
ATOM      5  C5  I4B d   1       1.269  -0.119   0.364  0.00  0.00     0.002 A 
ATOM      6  C6  I4B d   1       0.776  -0.779  -0.770  0.00  0.00     0.003 A 
ENDROOT
BRANCH   1   7
ATOM      7  C1' I4B d   1       0.532  -0.948  -3.262  0.00  0.00     0.060 C 
BRANCH   7   8
ATOM      8  C2' I4B d   1      -0.102  -2.262  -2.852  0.00  0.00    -0.013 C 
ATOM      9  C4' I4B d   1      -1.592  -2.240  -3.069  0.00  0.00     0.013 C 
ATOM     10  C3' I4B d   1       0.545  -3.356  -3.648  0.00  0.00     0.013 C 
ENDBRANCH   7   8
ENDBRANCH   1   7
TORSDOF 2
ENDMDL
