MODEL 1
REMARK minimizedAffinity 2.79363441
REMARK minimizedRMSD -1
REMARK  2 active torsions:
REMARK  status: ('A' for Active; 'I' for Inactive)
REMARK    1  A    between atoms: C2'_3  and  C1'_4 
REMARK    2  A    between atoms: C1'_4  and  C1_5 
ROOT
ATOM      1  C1  I4B d   1      -4.025  -0.402   1.489  0.00  0.00    -0.075 A 
ATOM      2  C2  I4B d   1      -5.017  -0.836   0.645  0.00  0.00     0.003 A 
ATOM      3  C3  I4B d   1      -4.901  -2.086  -0.009  0.00  0.00     0.002 A 
ATOM      4  C4  I4B d   1      -3.760  -2.842   0.168  0.00  0.00    -0.004 A 
ATOM      5  C5  I4B d   1      -2.765  -2.412   1.041  0.00  0.00     0.002 A 
ATOM      6  C6  I4B d   1      -2.904  -1.190   1.716  0.00  0.00     0.003 A 
ENDROOT
BRANCH   1   7
ATOM      7  C1' I4B d   1      -4.165   0.938   2.138  0.00  0.00     0.060 C 
BRANCH   7   8
ATOM      8  C2' I4B d   1      -2.774   1.459   2.438  0.00  0.00    -0.013 C 
ATOM      9  C4' I4B d   1      -2.054   1.850   1.175  0.00  0.00     0.013 C 
ATOM     10  C3' I4B d   1      -2.909   2.627   3.369  0.00  0.00     0.013 C 
ENDBRANCH   7   8
ENDBRANCH   1   7
TORSDOF 2
ENDMDL
