MODEL 1
REMARK minimizedAffinity 9.45514011
REMARK minimizedRMSD -1
REMARK  2 active torsions:
REMARK  status: ('A' for Active; 'I' for Inactive)
REMARK    1  A    between atoms: C2'_3  and  C1'_4 
REMARK    2  A    between atoms: C1'_4  and  C1_5 
ROOT
ATOM      1  C1  I4B d   1       2.204   0.687  -1.165  0.00  0.00    -0.075 A 
ATOM      2  C2  I4B d   1       3.421   1.302  -1.319  0.00  0.00     0.003 A 
ATOM      3  C3  I4B d   1       3.628   2.609  -0.817  0.00  0.00     0.002 A 
ATOM      4  C4  I4B d   1       2.582   3.279  -0.215  0.00  0.00    -0.004 A 
ATOM      5  C5  I4B d   1       1.355   2.645  -0.040  0.00  0.00     0.002 A 
ATOM      6  C6  I4B d   1       1.168   1.336  -0.506  0.00  0.00     0.003 A 
ENDROOT
BRANCH   1   7
ATOM      7  C1' I4B d   1       2.010  -0.682  -1.737  0.00  0.00     0.060 C 
BRANCH   7   8
ATOM      8  C2' I4B d   1       0.933  -0.596  -2.799  0.00  0.00    -0.013 C 
ATOM      9  C4' I4B d   1       1.354   0.304  -3.932  0.00  0.00     0.013 C 
ATOM     10  C3' I4B d   1       0.652  -1.986  -3.288  0.00  0.00     0.013 C 
ENDBRANCH   7   8
ENDBRANCH   1   7
TORSDOF 2
ENDMDL
