MODEL 1
REMARK minimizedAffinity 7.19509602
REMARK minimizedRMSD -1
REMARK  2 active torsions:
REMARK  status: ('A' for Active; 'I' for Inactive)
REMARK    1  A    between atoms: C2'_3  and  C1'_4 
REMARK    2  A    between atoms: C1'_4  and  C1_5 
ROOT
ATOM      1  C1  I4B d   1       0.700   0.294  -0.410  0.00  0.00    -0.075 A 
ATOM      2  C2  I4B d   1      -0.125   0.069  -1.484  0.00  0.00     0.003 A 
ATOM      3  C3  I4B d   1       0.333  -0.690  -2.588  0.00  0.00     0.002 A 
ATOM      4  C4  I4B d   1       1.631  -1.158  -2.600  0.00  0.00    -0.004 A 
ATOM      5  C5  I4B d   1       2.459  -0.948  -1.501  0.00  0.00     0.002 A 
ATOM      6  C6  I4B d   1       1.987  -0.228  -0.393  0.00  0.00     0.003 A 
ENDROOT
BRANCH   1   7
ATOM      7  C1' I4B d   1       0.195   1.127   0.725  0.00  0.00     0.060 C 
BRANCH   7   8
ATOM      8  C2' I4B d   1      -1.123   1.743   0.301  0.00  0.00    -0.013 C 
ATOM      9  C4' I4B d   1      -1.965   2.105   1.496  0.00  0.00     0.013 C 
ATOM     10  C3' I4B d   1      -0.822   2.951  -0.535  0.00  0.00     0.013 C 
ENDBRANCH   7   8
ENDBRANCH   1   7
TORSDOF 2
ENDMDL
