MODEL 1
REMARK minimizedAffinity -0.160274774
REMARK minimizedRMSD -1
REMARK  2 active torsions:
REMARK  status: ('A' for Active; 'I' for Inactive)
REMARK    1  A    between atoms: C2'_3  and  C1'_4 
REMARK    2  A    between atoms: C1'_4  and  C1_5 
ROOT
ATOM      1  C1  I4B d   1      -3.574  -4.195  -5.855  0.00  0.00    -0.075 A 
ATOM      2  C2  I4B d   1      -3.587  -2.823  -5.875  0.00  0.00     0.003 A 
ATOM      3  C3  I4B d   1      -4.817  -2.122  -5.921  0.00  0.00     0.002 A 
ATOM      4  C4  I4B d   1      -6.000  -2.829  -5.997  0.00  0.00    -0.004 A 
ATOM      5  C5  I4B d   1      -5.986  -4.220  -5.954  0.00  0.00     0.002 A 
ATOM      6  C6  I4B d   1      -4.766  -4.908  -5.870  0.00  0.00     0.003 A 
ENDROOT
BRANCH   1   7
ATOM      7  C1' I4B d   1      -2.257  -4.903  -5.839  0.00  0.00     0.060 C 
BRANCH   7   8
ATOM      8  C2' I4B d   1      -1.627  -4.687  -4.478  0.00  0.00    -0.013 C 
ATOM      9  C4' I4B d   1      -2.236  -3.501  -3.778  0.00  0.00     0.013 C 
ATOM     10  C3' I4B d   1      -1.811  -5.942  -3.678  0.00  0.00     0.013 C 
ENDBRANCH   7   8
ENDBRANCH   1   7
TORSDOF 2
ENDMDL
