MODEL 1
REMARK minimizedAffinity 5.0559082
REMARK minimizedRMSD -1
REMARK  2 active torsions:
REMARK  status: ('A' for Active; 'I' for Inactive)
REMARK    1  A    between atoms: C2'_3  and  C1'_4 
REMARK    2  A    between atoms: C1'_4  and  C1_5 
ROOT
ATOM      1  C1  I4B d   1      -3.397   2.534  -5.960  0.00  0.00    -0.075 A 
ATOM      2  C2  I4B d   1      -2.849   3.792  -5.936  0.00  0.00     0.003 A 
ATOM      3  C3  I4B d   1      -3.685   4.934  -5.930  0.00  0.00     0.002 A 
ATOM      4  C4  I4B d   1      -5.054   4.774  -5.999  0.00  0.00    -0.004 A 
ATOM      5  C5  I4B d   1      -5.609   3.498  -5.999  0.00  0.00     0.002 A 
ATOM      6  C6  I4B d   1      -4.776   2.370  -5.967  0.00  0.00     0.003 A 
ENDROOT
BRANCH   1   7
ATOM      7  C1' I4B d   1      -2.484   1.350  -5.999  0.00  0.00     0.060 C 
BRANCH   7   8
ATOM      8  C2' I4B d   1      -2.834   0.451  -4.831  0.00  0.00    -0.013 C 
ATOM      9  C4' I4B d   1      -3.349  -0.883  -5.304  0.00  0.00     0.013 C 
ATOM     10  C3' I4B d   1      -1.606   0.289  -3.986  0.00  0.00     0.013 C 
ENDBRANCH   7   8
ENDBRANCH   1   7
TORSDOF 2
ENDMDL
