MODEL 1
REMARK minimizedAffinity -2.27646637
REMARK minimizedRMSD -1
REMARK  2 active torsions:
REMARK  status: ('A' for Active; 'I' for Inactive)
REMARK    1  A    between atoms: C2'_3  and  C1'_4 
REMARK    2  A    between atoms: C1'_4  and  C1_5 
ROOT
ATOM      1  C1  I4B d   1      -3.979   0.226  -5.926  0.00  0.00    -0.075 A 
ATOM      2  C2  I4B d   1      -2.739   0.813  -5.916  0.00  0.00     0.003 A 
ATOM      3  C3  I4B d   1      -2.618   2.223  -5.878  0.00  0.00     0.002 A 
ATOM      4  C4  I4B d   1      -3.755   3.004  -5.901  0.00  0.00    -0.004 A 
ATOM      5  C5  I4B d   1      -5.012   2.407  -5.888  0.00  0.00     0.002 A 
ATOM      6  C6  I4B d   1      -5.126   1.009  -5.888  0.00  0.00     0.003 A 
ENDROOT
BRANCH   1   7
ATOM      7  C1' I4B d   1      -4.070  -1.265  -6.000  0.00  0.00     0.060 C 
BRANCH   7   8
ATOM      8  C2' I4B d   1      -5.466  -1.669  -5.570  0.00  0.00    -0.013 C 
ATOM      9  C4' I4B d   1      -5.782  -3.078  -6.000  0.00  0.00     0.013 C 
ATOM     10  C3' I4B d   1      -5.552  -1.525  -4.080  0.00  0.00     0.013 C 
ENDBRANCH   7   8
ENDBRANCH   1   7
TORSDOF 2
ENDMDL
