MODEL 1
REMARK minimizedAffinity 4.5527482
REMARK minimizedRMSD -1
REMARK  2 active torsions:
REMARK  status: ('A' for Active; 'I' for Inactive)
REMARK    1  A    between atoms: C2'_3  and  C1'_4 
REMARK    2  A    between atoms: C1'_4  and  C1_5 
ROOT
ATOM      1  C1  I4B d   1      -3.119   1.982  -5.851  0.00  0.00    -0.075 A 
ATOM      2  C2  I4B d   1      -4.472   2.210  -5.873  0.00  0.00     0.003 A 
ATOM      3  C3  I4B d   1      -4.971   3.531  -5.974  0.00  0.00     0.002 A 
ATOM      4  C4  I4B d   1      -4.087   4.591  -5.999  0.00  0.00    -0.004 A 
ATOM      5  C5  I4B d   1      -2.715   4.357  -5.999  0.00  0.00     0.002 A 
ATOM      6  C6  I4B d   1      -2.227   3.043  -5.937  0.00  0.00     0.003 A 
ENDROOT
BRANCH   1   7
ATOM      7  C1' I4B d   1      -2.627   0.576  -5.711  0.00  0.00     0.060 C 
BRANCH   7   8
ATOM      8  C2' I4B d   1      -3.753  -0.257  -5.132  0.00  0.00    -0.013 C 
ATOM      9  C4' I4B d   1      -4.049  -1.451  -6.000  0.00  0.00     0.013 C 
ATOM     10  C3' I4B d   1      -3.354  -0.677  -3.749  0.00  0.00     0.013 C 
ENDBRANCH   7   8
ENDBRANCH   1   7
TORSDOF 2
ENDMDL
