MODEL 1
REMARK minimizedAffinity 3.33145094
REMARK minimizedRMSD -1
REMARK  2 active torsions:
REMARK  status: ('A' for Active; 'I' for Inactive)
REMARK    1  A    between atoms: C2'_3  and  C1'_4 
REMARK    2  A    between atoms: C1'_4  and  C1_5 
ROOT
ATOM      1  C1  I4B d   1       2.850  -0.161  -0.903  0.00  0.00    -0.075 A 
ATOM      2  C2  I4B d   1       1.790   0.362  -0.206  0.00  0.00     0.003 A 
ATOM      3  C3  I4B d   1       0.465   0.151  -0.659  0.00  0.00     0.002 A 
ATOM      4  C4  I4B d   1       0.250  -0.541  -1.833  0.00  0.00    -0.004 A 
ATOM      5  C5  I4B d   1       1.325  -1.091  -2.526  0.00  0.00     0.002 A 
ATOM      6  C6  I4B d   1       2.632  -0.910  -2.052  0.00  0.00     0.003 A 
ENDROOT
BRANCH   1   7
ATOM      7  C1' I4B d   1       4.238   0.109  -0.415  0.00  0.00     0.060 C 
BRANCH   7   8
ATOM      8  C2' I4B d   1       4.483   1.601  -0.508  0.00  0.00    -0.013 C 
ATOM      9  C4' I4B d   1       4.465   2.242   0.855  0.00  0.00     0.013 C 
ATOM     10  C3' I4B d   1       5.803   1.811  -1.187  0.00  0.00     0.013 C 
ENDBRANCH   7   8
ENDBRANCH   1   7
TORSDOF 2
ENDMDL
