MODEL 1
REMARK minimizedAffinity 0.971969187
REMARK minimizedRMSD -1
REMARK  2 active torsions:
REMARK  status: ('A' for Active; 'I' for Inactive)
REMARK    1  A    between atoms: C2'_3  and  C1'_4 
REMARK    2  A    between atoms: C1'_4  and  C1_5 
ROOT
ATOM      1  C1  I4B d   1      -4.253   0.181  -5.985  0.00  0.00    -0.075 A 
ATOM      2  C2  I4B d   1      -5.058   1.292  -5.937  0.00  0.00     0.003 A 
ATOM      3  C3  I4B d   1      -4.484   2.586  -5.891  0.00  0.00     0.002 A 
ATOM      4  C4  I4B d   1      -3.112   2.719  -5.845  0.00  0.00    -0.004 A 
ATOM      5  C5  I4B d   1      -2.297   1.593  -5.917  0.00  0.00     0.002 A 
ATOM      6  C6  I4B d   1      -2.871   0.316  -6.000  0.00  0.00     0.003 A 
ENDROOT
BRANCH   1   7
ATOM      7  C1' I4B d   1      -4.892  -1.172  -5.998  0.00  0.00     0.060 C 
BRANCH   7   8
ATOM      8  C2' I4B d   1      -3.945  -2.143  -5.324  0.00  0.00    -0.013 C 
ATOM      9  C4' I4B d   1      -4.174  -2.183  -3.836  0.00  0.00     0.013 C 
ATOM     10  C3' I4B d   1      -4.150  -3.494  -5.940  0.00  0.00     0.013 C 
ENDBRANCH   7   8
ENDBRANCH   1   7
TORSDOF 2
ENDMDL
