MODEL 1
REMARK minimizedAffinity 0.580239654
REMARK minimizedRMSD -1
REMARK  2 active torsions:
REMARK  status: ('A' for Active; 'I' for Inactive)
REMARK    1  A    between atoms: C2'_3  and  C1'_4 
REMARK    2  A    between atoms: C1'_4  and  C1_5 
ROOT
ATOM      1  C1  I4B d   1      -3.538  -0.283  -5.996  0.00  0.00    -0.075 A 
ATOM      2  C2  I4B d   1      -4.592   0.596  -6.000  0.00  0.00     0.003 A 
ATOM      3  C3  I4B d   1      -4.356   1.992  -5.983  0.00  0.00     0.002 A 
ATOM      4  C4  I4B d   1      -3.060   2.461  -5.911  0.00  0.00    -0.004 A 
ATOM      5  C5  I4B d   1      -1.992   1.568  -5.931  0.00  0.00     0.002 A 
ATOM      6  C6  I4B d   1      -2.232   0.188  -5.986  0.00  0.00     0.003 A 
ENDROOT
BRANCH   1   7
ATOM      7  C1' I4B d   1      -3.825  -1.752  -5.981  0.00  0.00     0.060 C 
BRANCH   7   8
ATOM      8  C2' I4B d   1      -5.265  -1.942  -5.553  0.00  0.00    -0.013 C 
ATOM      9  C4' I4B d   1      -5.794  -3.281  -5.995  0.00  0.00     0.013 C 
ATOM     10  C3' I4B d   1      -5.327  -1.801  -4.061  0.00  0.00     0.013 C 
ENDBRANCH   7   8
ENDBRANCH   1   7
TORSDOF 2
ENDMDL
