MODEL 1
REMARK minimizedAffinity 3.34980154
REMARK minimizedRMSD -1
REMARK  1 active torsions:
REMARK  status: ('A' for Active; 'I' for Inactive)
REMARK    1  A    between atoms: N_2  and  C1_3 
ROOT
ATOM      1  C1  UNL d   1      -3.455   0.678  -4.335  0.00  0.00     0.143 A 
ATOM      2  C2  UNL d   1      -2.056   0.685  -4.366  0.00  0.00    -0.057 A 
ATOM      3  C3  UNL d   1      -1.306  -0.115  -3.497  0.00  0.00     0.033 A 
ATOM      4  C4  UNL d   1      -1.944  -0.919  -2.557  0.00  0.00    -0.042 A 
ATOM      5  C5  UNL d   1      -3.333  -0.923  -2.491  0.00  0.00     0.033 A 
ATOM      6  C6  UNL d   1      -4.076  -0.126  -3.367  0.00  0.00    -0.057 A 
ENDROOT
BRANCH   1   7
ATOM      7  N   UNL d   1      -4.255   1.525  -5.106  0.00  0.00    -0.732 N 
ATOM      8  C   UNL d   1      -4.786   2.749  -4.547  0.00  0.00     0.284 C 
ATOM      9  H3  UNL d   1      -3.915   1.617  -6.061  0.00  0.00     0.395 HD
ENDBRANCH   1   7
TORSDOF 1
ENDMDL
