MODEL 1
REMARK minimizedAffinity 7.0019598
REMARK minimizedRMSD -1
REMARK  1 active torsions:
REMARK  status: ('A' for Active; 'I' for Inactive)
REMARK    1  A    between atoms: N_2  and  C1_3 
ROOT
ATOM      1  C1  UNL d   1       2.061   0.247   0.764  0.00  0.00     0.143 A 
ATOM      2  C2  UNL d   1       1.746  -0.546  -0.345  0.00  0.00    -0.057 A 
ATOM      3  C3  UNL d   1       2.341  -1.799  -0.535  0.00  0.00     0.033 A 
ATOM      4  C4  UNL d   1       3.287  -2.270   0.369  0.00  0.00    -0.042 A 
ATOM      5  C5  UNL d   1       3.634  -1.489   1.465  0.00  0.00     0.033 A 
ATOM      6  C6  UNL d   1       3.031  -0.241   1.653  0.00  0.00    -0.057 A 
ENDROOT
BRANCH   1   7
ATOM      7  N   UNL d   1       1.577   1.543   0.956  0.00  0.00    -0.732 N 
ATOM      8  C   UNL d   1       0.166   1.831   0.819  0.00  0.00     0.284 C 
ATOM      9  H3  UNL d   1       2.022   2.011   1.743  0.00  0.00     0.395 HD
ENDBRANCH   1   7
TORSDOF 1
ENDMDL
