MODEL 1
REMARK minimizedAffinity 3.24472117
REMARK minimizedRMSD -1
REMARK  1 active torsions:
REMARK  status: ('A' for Active; 'I' for Inactive)
REMARK    1  A    between atoms: N_2  and  C1_3 
ROOT
ATOM      1  C1  UNL d   1      -2.790   0.095  -3.775  0.00  0.00     0.143 A 
ATOM      2  C2  UNL d   1      -3.282   0.841  -4.851  0.00  0.00    -0.057 A 
ATOM      3  C3  UNL d   1      -4.581   0.645  -5.336  0.00  0.00     0.033 A 
ATOM      4  C4  UNL d   1      -5.403  -0.324  -4.770  0.00  0.00    -0.042 A 
ATOM      5  C5  UNL d   1      -4.925  -1.095  -3.716  0.00  0.00     0.033 A 
ATOM      6  C6  UNL d   1      -3.630  -0.890  -3.231  0.00  0.00    -0.057 A 
ENDROOT
BRANCH   1   7
ATOM      7  N   UNL d   1      -1.475   0.174  -3.311  0.00  0.00    -0.732 N 
ATOM      8  C   UNL d   1      -0.604  -0.980  -3.362  0.00  0.00     0.284 C 
ATOM      9  H3  UNL d   1      -1.023   1.048  -3.571  0.00  0.00     0.395 HD
ENDBRANCH   1   7
TORSDOF 1
ENDMDL
