MODEL 1
REMARK minimizedAffinity 0.902844429
REMARK minimizedRMSD -1
REMARK  1 active torsions:
REMARK  status: ('A' for Active; 'I' for Inactive)
REMARK    1  A    between atoms: N_2  and  C1_3 
ROOT
ATOM      1  C1  UNL d   1       1.348   0.189  -0.339  0.00  0.00     0.143 A 
ATOM      2  C2  UNL d   1       2.717  -0.098  -0.299  0.00  0.00    -0.057 A 
ATOM      3  C3  UNL d   1       3.185  -1.414  -0.387  0.00  0.00     0.033 A 
ATOM      4  C4  UNL d   1       2.289  -2.473  -0.487  0.00  0.00    -0.042 A 
ATOM      5  C5  UNL d   1       0.923  -2.213  -0.503  0.00  0.00     0.033 A 
ATOM      6  C6  UNL d   1       0.461  -0.896  -0.422  0.00  0.00    -0.057 A 
ENDROOT
BRANCH   1   7
ATOM      7  N   UNL d   1       0.816   1.468  -0.157  0.00  0.00    -0.732 N 
ATOM      8  C   UNL d   1       1.603   2.513   0.460  0.00  0.00     0.284 C 
ATOM      9  H3  UNL d   1       0.268   1.778  -0.957  0.00  0.00     0.395 HD
ENDBRANCH   1   7
TORSDOF 1
ENDMDL
