MODEL 1
REMARK minimizedAffinity 4.79676008
REMARK minimizedRMSD -1
REMARK  1 active torsions:
REMARK  status: ('A' for Active; 'I' for Inactive)
REMARK    1  A    between atoms: N_2  and  C1_3 
ROOT
ATOM      1  C1  UNL d   1       2.363   0.322   0.495  0.00  0.00     0.143 A 
ATOM      2  C2  UNL d   1       3.064   1.506   0.746  0.00  0.00    -0.057 A 
ATOM      3  C3  UNL d   1       2.442   2.756   0.631  0.00  0.00     0.033 A 
ATOM      4  C4  UNL d   1       1.113   2.844   0.232  0.00  0.00    -0.042 A 
ATOM      5  C5  UNL d   1       0.404   1.681  -0.047  0.00  0.00     0.033 A 
ATOM      6  C6  UNL d   1       1.028   0.436   0.076  0.00  0.00    -0.057 A 
ENDROOT
BRANCH   1   7
ATOM      7  N   UNL d   1       2.952  -0.945   0.496  0.00  0.00    -0.732 N 
ATOM      8  C   UNL d   1       2.305  -2.059  -0.164  0.00  0.00     0.284 C 
ATOM      9  H3  UNL d   1       3.959  -0.906   0.355  0.00  0.00     0.395 HD
ENDBRANCH   1   7
TORSDOF 1
ENDMDL
