MODEL 1
REMARK minimizedAffinity 10.2278938
REMARK minimizedRMSD -1
REMARK  1 active torsions:
REMARK  status: ('A' for Active; 'I' for Inactive)
REMARK    1  A    between atoms: C1_2  and  C2_3 
ROOT
ATOM      1  C2  UNL d   1      -3.963  -3.278  -4.834  0.00  0.00    -0.073 A 
ATOM      2  C3  UNL d   1      -5.171  -3.876  -5.210  0.00  0.00    -0.002 A 
ATOM      3  C4  UNL d   1      -5.179  -5.144  -5.793  0.00  0.00     0.004 A 
ATOM      4  C5  UNL d   1      -3.982  -5.830  -5.999  0.00  0.00    -0.004 A 
ATOM      5  C6  UNL d   1      -2.765  -5.254  -5.618  0.00  0.00    -0.075 A 
ATOM      6  C7  UNL d   1      -1.468  -5.977  -5.835  0.00  0.00     0.076 C 
ATOM      7  C8  UNL d   1      -2.765  -3.979  -5.036  0.00  0.00     0.001 A 
ENDROOT
BRANCH   1   8
ATOM      8  C1  UNL d   1      -3.950  -1.912  -4.198  0.00  0.00     0.053 C 
ATOM      9  C   UNL d   1      -3.690  -1.982  -2.702  0.00  0.00     0.018 C 
ENDBRANCH   1   8
TORSDOF 1
ENDMDL
