MODEL 1
REMARK minimizedAffinity 4.58841562
REMARK minimizedRMSD -1
REMARK  1 active torsions:
REMARK  status: ('A' for Active; 'I' for Inactive)
REMARK    1  A    between atoms: C1_2  and  C2_3 
ROOT
ATOM      1  C2  UNL d   1       2.607  -0.751  -1.501  0.00  0.00    -0.073 A 
ATOM      2  C3  UNL d   1       1.955  -1.261  -2.630  0.00  0.00    -0.002 A 
ATOM      3  C4  UNL d   1       0.595  -1.020  -2.828  0.00  0.00     0.004 A 
ATOM      4  C5  UNL d   1      -0.125  -0.262  -1.905  0.00  0.00    -0.004 A 
ATOM      5  C6  UNL d   1       0.511   0.267  -0.777  0.00  0.00    -0.075 A 
ATOM      6  C7  UNL d   1      -0.250   1.083   0.226  0.00  0.00     0.076 C 
ATOM      7  C8  UNL d   1       1.877   0.019  -0.584  0.00  0.00     0.001 A 
ENDROOT
BRANCH   1   8
ATOM      8  C1  UNL d   1       4.077  -1.003  -1.287  0.00  0.00     0.053 C 
ATOM      9  C   UNL d   1       4.468  -2.430  -1.638  0.00  0.00     0.018 C 
ENDBRANCH   1   8
TORSDOF 1
ENDMDL
