MODEL 1
REMARK minimizedAffinity -2.80371785
REMARK minimizedRMSD -1
REMARK  1 active torsions:
REMARK  status: ('A' for Active; 'I' for Inactive)
REMARK    1  A    between atoms: C1_2  and  C2_3 
ROOT
ATOM      1  C2  UNL d   1      -5.169   0.525  -5.846  0.00  0.00    -0.073 A 
ATOM      2  C3  UNL d   1      -3.773   0.564  -5.754  0.00  0.00    -0.002 A 
ATOM      3  C4  UNL d   1      -3.102   1.787  -5.740  0.00  0.00     0.004 A 
ATOM      4  C5  UNL d   1      -3.818   2.982  -5.810  0.00  0.00    -0.004 A 
ATOM      5  C6  UNL d   1      -5.214   2.964  -5.891  0.00  0.00    -0.075 A 
ATOM      6  C7  UNL d   1      -5.998   4.241  -5.970  0.00  0.00     0.076 C 
ATOM      7  C8  UNL d   1      -5.881   1.732  -5.908  0.00  0.00     0.001 A 
ENDROOT
BRANCH   1   8
ATOM      8  C1  UNL d   1      -5.900  -0.793  -5.856  0.00  0.00     0.053 C 
ATOM      9  C   UNL d   1      -4.948  -1.970  -5.998  0.00  0.00     0.018 C 
ENDBRANCH   1   8
TORSDOF 1
ENDMDL
