MODEL 1
REMARK minimizedAffinity 3.60665178
REMARK minimizedRMSD -1
REMARK  1 active torsions:
REMARK  status: ('A' for Active; 'I' for Inactive)
REMARK    1  A    between atoms: C1_2  and  C2_3 
ROOT
ATOM      1  C2  UNL d   1      -2.574   2.066   1.580  0.00  0.00    -0.073 A 
ATOM      2  C3  UNL d   1      -2.449   2.833   2.745  0.00  0.00    -0.002 A 
ATOM      3  C4  UNL d   1      -3.352   2.671   3.796  0.00  0.00     0.004 A 
ATOM      4  C5  UNL d   1      -4.384   1.738   3.697  0.00  0.00    -0.004 A 
ATOM      5  C6  UNL d   1      -4.519   0.954   2.547  0.00  0.00    -0.075 A 
ATOM      6  C7  UNL d   1      -5.625  -0.052   2.424  0.00  0.00     0.076 C 
ATOM      7  C8  UNL d   1      -3.609   1.125   1.494  0.00  0.00     0.001 A 
ENDROOT
BRANCH   1   8
ATOM      8  C1  UNL d   1      -1.597   2.233   0.445  0.00  0.00     0.053 C 
ATOM      9  C   UNL d   1      -0.462   1.224   0.517  0.00  0.00     0.018 C 
ENDBRANCH   1   8
TORSDOF 1
ENDMDL
