MODEL 1
REMARK minimizedAffinity -3.97368312
REMARK minimizedRMSD -1
REMARK  1 active torsions:
REMARK  status: ('A' for Active; 'I' for Inactive)
REMARK    1  A    between atoms: C1_2  and  C2_3 
ROOT
ATOM      1  C2  UNL d   1      -4.122   0.610  -5.875  0.00  0.00    -0.073 A 
ATOM      2  C3  UNL d   1      -2.803   1.005  -5.626  0.00  0.00    -0.002 A 
ATOM      3  C4  UNL d   1      -2.482   2.358  -5.507  0.00  0.00     0.004 A 
ATOM      4  C5  UNL d   1      -3.477   3.328  -5.628  0.00  0.00    -0.004 A 
ATOM      5  C6  UNL d   1      -4.803   2.953  -5.864  0.00  0.00    -0.075 A 
ATOM      6  C7  UNL d   1      -5.885   3.984  -5.999  0.00  0.00     0.076 C 
ATOM      7  C8  UNL d   1      -5.117   1.592  -5.986  0.00  0.00     0.001 A 
ENDROOT
BRANCH   1   8
ATOM      8  C1  UNL d   1      -4.474  -0.850  -5.998  0.00  0.00     0.053 C 
ATOM      9  C   UNL d   1      -5.950  -1.105  -5.737  0.00  0.00     0.018 C 
ENDBRANCH   1   8
TORSDOF 1
ENDMDL
