MODEL 1
REMARK minimizedAffinity 0.539892495
REMARK minimizedRMSD -1
REMARK  1 active torsions:
REMARK  status: ('A' for Active; 'I' for Inactive)
REMARK    1  A    between atoms: C1_2  and  C2_3 
ROOT
ATOM      1  C2  UNL d   1      -3.588   2.240  -6.000  0.00  0.00    -0.073 A 
ATOM      2  C3  UNL d   1      -4.868   2.806  -5.993  0.00  0.00    -0.002 A 
ATOM      3  C4  UNL d   1      -6.000   1.991  -5.996  0.00  0.00     0.004 A 
ATOM      4  C5  UNL d   1      -5.865   0.602  -5.999  0.00  0.00    -0.004 A 
ATOM      5  C6  UNL d   1      -4.594   0.017  -5.994  0.00  0.00    -0.075 A 
ATOM      6  C7  UNL d   1      -4.432  -1.475  -6.000  0.00  0.00     0.076 C 
ATOM      7  C8  UNL d   1      -3.462   0.843  -5.994  0.00  0.00     0.001 A 
ENDROOT
BRANCH   1   8
ATOM      8  C1  UNL d   1      -2.362   3.116  -5.990  0.00  0.00     0.053 C 
ATOM      9  C   UNL d   1      -2.719   4.594  -5.988  0.00  0.00     0.018 C 
ENDBRANCH   1   8
TORSDOF 1
ENDMDL
