MODEL 1
REMARK minimizedAffinity -1.52146852
REMARK minimizedRMSD -1
REMARK  1 active torsions:
REMARK  status: ('A' for Active; 'I' for Inactive)
REMARK    1  A    between atoms: C1_2  and  C2_3 
ROOT
ATOM      1  C2  UNL d   1      -3.828   0.436  -5.863  0.00  0.00    -0.073 A 
ATOM      2  C3  UNL d   1      -5.214   0.331  -5.705  0.00  0.00    -0.002 A 
ATOM      3  C4  UNL d   1      -5.999   1.479  -5.588  0.00  0.00     0.004 A 
ATOM      4  C5  UNL d   1      -5.409   2.741  -5.635  0.00  0.00    -0.004 A 
ATOM      5  C6  UNL d   1      -4.026   2.867  -5.804  0.00  0.00    -0.075 A 
ATOM      6  C7  UNL d   1      -3.375   4.218  -5.855  0.00  0.00     0.076 C 
ATOM      7  C8  UNL d   1      -3.244   1.710  -5.918  0.00  0.00     0.001 A 
ENDROOT
BRANCH   1   8
ATOM      8  C1  UNL d   1      -2.976  -0.800  -5.996  0.00  0.00     0.053 C 
ATOM      9  C   UNL d   1      -3.812  -2.070  -5.999  0.00  0.00     0.018 C 
ENDBRANCH   1   8
TORSDOF 1
ENDMDL
