MODEL 1
REMARK minimizedAffinity -2.88146925
REMARK minimizedRMSD -1
REMARK  1 active torsions:
REMARK  status: ('A' for Active; 'I' for Inactive)
REMARK    1  A    between atoms: C1_2  and  C2_3 
ROOT
ATOM      1  C2  UNL d   1      -4.877   0.981  -5.776  0.00  0.00    -0.073 A 
ATOM      2  C3  UNL d   1      -5.556   2.148  -5.411  0.00  0.00    -0.002 A 
ATOM      3  C4  UNL d   1      -4.858   3.343  -5.230  0.00  0.00     0.004 A 
ATOM      4  C5  UNL d   1      -3.477   3.384  -5.419  0.00  0.00    -0.004 A 
ATOM      5  C6  UNL d   1      -2.781   2.231  -5.795  0.00  0.00    -0.075 A 
ATOM      6  C7  UNL d   1      -1.295   2.258  -6.000  0.00  0.00     0.076 C 
ATOM      7  C8  UNL d   1      -3.489   1.034  -5.972  0.00  0.00     0.001 A 
ENDROOT
BRANCH   1   8
ATOM      8  C1  UNL d   1      -5.627  -0.310  -5.979  0.00  0.00     0.053 C 
ATOM      9  C   UNL d   1      -4.697  -1.513  -5.999  0.00  0.00     0.018 C 
ENDBRANCH   1   8
TORSDOF 1
ENDMDL
