MODEL 1
REMARK minimizedAffinity -4.29854584
REMARK minimizedRMSD -1
REMARK  1 active torsions:
REMARK  status: ('A' for Active; 'I' for Inactive)
REMARK    1  A    between atoms: C1_2  and  C2_3 
ROOT
ATOM      1  C2  UNL d   1      -4.178  -0.266  -5.946  0.00  0.00    -0.073 A 
ATOM      2  C3  UNL d   1      -5.180   0.708  -5.872  0.00  0.00    -0.002 A 
ATOM      3  C4  UNL d   1      -4.846   2.062  -5.831  0.00  0.00     0.004 A 
ATOM      4  C5  UNL d   1      -3.509   2.457  -5.870  0.00  0.00    -0.004 A 
ATOM      5  C6  UNL d   1      -2.493   1.499  -5.956  0.00  0.00    -0.075 A 
ATOM      6  C7  UNL d   1      -1.050   1.907  -5.997  0.00  0.00     0.076 C 
ATOM      7  C8  UNL d   1      -2.837   0.141  -5.995  0.00  0.00     0.001 A 
ENDROOT
BRANCH   1   8
ATOM      8  C1  UNL d   1      -4.534  -1.729  -5.997  0.00  0.00     0.053 C 
ATOM      9  C   UNL d   1      -3.299  -2.617  -5.998  0.00  0.00     0.018 C 
ENDBRANCH   1   8
TORSDOF 1
ENDMDL
