MODEL 1
REMARK minimizedAffinity -1.84101665
REMARK minimizedRMSD -1
REMARK  1 active torsions:
REMARK  status: ('A' for Active; 'I' for Inactive)
REMARK    1  A    between atoms: C1_2  and  C2_3 
ROOT
ATOM      1  C2  UNL d   1      -2.163   0.082  -3.321  0.00  0.00    -0.073 A 
ATOM      2  C3  UNL d   1      -2.602   0.627  -2.109  0.00  0.00    -0.002 A 
ATOM      3  C4  UNL d   1      -2.338  -0.028  -0.905  0.00  0.00     0.004 A 
ATOM      4  C5  UNL d   1      -1.628  -1.228  -0.900  0.00  0.00    -0.004 A 
ATOM      5  C6  UNL d   1      -1.170  -1.782  -2.100  0.00  0.00    -0.075 A 
ATOM      6  C7  UNL d   1      -0.407  -3.074  -2.111  0.00  0.00     0.076 C 
ATOM      7  C8  UNL d   1      -1.442  -1.120  -3.305  0.00  0.00     0.001 A 
ENDROOT
BRANCH   1   8
ATOM      8  C1  UNL d   1      -2.440   0.789  -4.623  0.00  0.00     0.053 C 
ATOM      9  C   UNL d   1      -2.991   2.189  -4.405  0.00  0.00     0.018 C 
ENDBRANCH   1   8
TORSDOF 1
ENDMDL
