MODEL 1
REMARK minimizedAffinity 0.197987959
REMARK minimizedRMSD -1
REMARK  1 active torsions:
REMARK  status: ('A' for Active; 'I' for Inactive)
REMARK    1  A    between atoms: C1_2  and  C2_3 
ROOT
ATOM      1  C2  UNL d   1      -0.252   0.682  -1.515  0.00  0.00    -0.073 A 
ATOM      2  C3  UNL d   1      -0.223   1.030  -2.871  0.00  0.00    -0.002 A 
ATOM      3  C4  UNL d   1      -0.466   0.067  -3.851  0.00  0.00     0.004 A 
ATOM      4  C5  UNL d   1      -0.748  -1.249  -3.487  0.00  0.00    -0.004 A 
ATOM      5  C6  UNL d   1      -0.792  -1.614  -2.138  0.00  0.00    -0.075 A 
ATOM      6  C7  UNL d   1      -1.091  -3.027  -1.730  0.00  0.00     0.076 C 
ATOM      7  C8  UNL d   1      -0.544  -0.642  -1.159  0.00  0.00     0.001 A 
ENDROOT
BRANCH   1   8
ATOM      8  C1  UNL d   1       0.004   1.720  -0.453  0.00  0.00     0.053 C 
ATOM      9  C   UNL d   1      -0.025   3.132  -1.017  0.00  0.00     0.018 C 
ENDBRANCH   1   8
TORSDOF 1
ENDMDL
