MODEL 1
REMARK minimizedAffinity -0.87725234
REMARK minimizedRMSD -1
REMARK  1 active torsions:
REMARK  status: ('A' for Active; 'I' for Inactive)
REMARK    1  A    between atoms: C1_2  and  C2_3 
ROOT
ATOM      1  C2  UNL d   1      -3.646   1.621  -5.407  0.00  0.00    -0.073 A 
ATOM      2  C3  UNL d   1      -4.177   2.773  -6.000  0.00  0.00    -0.002 A 
ATOM      3  C4  UNL d   1      -5.297   3.397  -5.448  0.00  0.00     0.004 A 
ATOM      4  C5  UNL d   1      -5.892   2.882  -4.297  0.00  0.00    -0.004 A 
ATOM      5  C6  UNL d   1      -5.369   1.739  -3.683  0.00  0.00    -0.075 A 
ATOM      6  C7  UNL d   1      -5.999   1.171  -2.445  0.00  0.00     0.076 C 
ATOM      7  C8  UNL d   1      -4.246   1.116  -4.244  0.00  0.00     0.001 A 
ENDROOT
BRANCH   1   8
ATOM      8  C1  UNL d   1      -2.434   0.947  -5.995  0.00  0.00     0.053 C 
ATOM      9  C   UNL d   1      -2.523  -0.568  -5.904  0.00  0.00     0.018 C 
ENDBRANCH   1   8
TORSDOF 1
ENDMDL
