MODEL 1
REMARK minimizedAffinity -4.77844524
REMARK minimizedRMSD -1
REMARK  1 active torsions:
REMARK  status: ('A' for Active; 'I' for Inactive)
REMARK    1  A    between atoms: C1_2  and  C2_3 
ROOT
ATOM      1  C2  UNL d   1      -5.396   1.864  -4.811  0.00  0.00    -0.073 A 
ATOM      2  C3  UNL d   1      -5.138   3.225  -5.010  0.00  0.00    -0.002 A 
ATOM      3  C4  UNL d   1      -5.166   4.112  -3.933  0.00  0.00     0.004 A 
ATOM      4  C5  UNL d   1      -5.445   3.647  -2.648  0.00  0.00    -0.004 A 
ATOM      5  C6  UNL d   1      -5.694   2.289  -2.427  0.00  0.00    -0.075 A 
ATOM      6  C7  UNL d   1      -5.999   1.774  -1.051  0.00  0.00     0.076 C 
ATOM      7  C8  UNL d   1      -5.667   1.405  -3.514  0.00  0.00     0.001 A 
ENDROOT
BRANCH   1   8
ATOM      8  C1  UNL d   1      -5.361   0.901  -5.970  0.00  0.00     0.053 C 
ATOM      9  C   UNL d   1      -4.121   0.021  -5.942  0.00  0.00     0.018 C 
ENDBRANCH   1   8
TORSDOF 1
ENDMDL
