MODEL 1
REMARK minimizedAffinity 13.5339193
REMARK minimizedRMSD -1
REMARK  1 active torsions:
REMARK  status: ('A' for Active; 'I' for Inactive)
REMARK    1  A    between atoms: C1_2  and  C2_3 
ROOT
ATOM      1  C2  UNL d   1       0.694   3.141   1.160  0.00  0.00    -0.073 A 
ATOM      2  C3  UNL d   1       1.658   2.804   2.117  0.00  0.00    -0.002 A 
ATOM      3  C4  UNL d   1       1.291   2.122   3.277  0.00  0.00     0.004 A 
ATOM      4  C5  UNL d   1      -0.040   1.764   3.490  0.00  0.00    -0.004 A 
ATOM      5  C6  UNL d   1      -1.017   2.081   2.540  0.00  0.00    -0.075 A 
ATOM      6  C7  UNL d   1      -2.453   1.706   2.755  0.00  0.00     0.076 C 
ATOM      7  C8  UNL d   1      -0.640   2.769   1.378  0.00  0.00     0.001 A 
ENDROOT
BRANCH   1   8
ATOM      8  C1  UNL d   1       1.086   3.872  -0.098  0.00  0.00     0.053 C 
ATOM      9  C   UNL d   1       0.155   5.037  -0.395  0.00  0.00     0.018 C 
ENDBRANCH   1   8
TORSDOF 1
ENDMDL
