MODEL 1
REMARK minimizedAffinity -1.76910114
REMARK minimizedRMSD -1
REMARK  0 active torsions:
REMARK  status: ('A' for Active; 'I' for Inactive)
ROOT
ATOM      1  C   UNL d   1      -2.796   2.743  -3.992  0.00  0.00     0.077 C 
ATOM      2  C1  UNL d   1      -2.096   1.621  -3.285  0.00  0.00    -0.074 A 
ATOM      3  C2  UNL d   1      -2.016   0.348  -3.858  0.00  0.00    -0.005 A 
ATOM      4  C3  UNL d   1      -1.353  -0.683  -3.193  0.00  0.00     0.006 A 
ATOM      5  C4  UNL d   1      -0.765  -0.452  -1.949  0.00  0.00    -0.005 A 
ATOM      6  C5  UNL d   1      -0.834   0.814  -1.360  0.00  0.00    -0.074 A 
ATOM      7  C6  UNL d   1      -0.199   1.082  -0.027  0.00  0.00     0.077 C 
ATOM      8  C7  UNL d   1      -1.496   1.847  -2.038  0.00  0.00    -0.001 A 
ENDROOT
TORSDOF 0
ENDMDL
