MODEL 1
REMARK minimizedAffinity -2.91236091
REMARK minimizedRMSD -1
REMARK  0 active torsions:
REMARK  status: ('A' for Active; 'I' for Inactive)
ROOT
ATOM      1  C   UNL d   1       3.331  -1.380   0.332  0.00  0.00     0.077 C 
ATOM      2  C1  UNL d   1       1.907  -1.008   0.616  0.00  0.00    -0.074 A 
ATOM      3  C2  UNL d   1       1.099  -1.818   1.420  0.00  0.00    -0.005 A 
ATOM      4  C3  UNL d   1      -0.222  -1.454   1.683  0.00  0.00     0.006 A 
ATOM      5  C4  UNL d   1      -0.747  -0.278   1.146  0.00  0.00    -0.005 A 
ATOM      6  C5  UNL d   1       0.047   0.546   0.341  0.00  0.00    -0.074 A 
ATOM      7  C6  UNL d   1      -0.499   1.818  -0.236  0.00  0.00     0.077 C 
ATOM      8  C7  UNL d   1       1.375   0.176   0.087  0.00  0.00    -0.001 A 
ENDROOT
TORSDOF 0
ENDMDL
