MODEL 1
REMARK minimizedAffinity -5.31992006
REMARK minimizedRMSD -1
REMARK  0 active torsions:
REMARK  status: ('A' for Active; 'I' for Inactive)
ROOT
ATOM      1  C   UNL d   1       3.271  -1.359   0.093  0.00  0.00     0.077 C 
ATOM      2  C1  UNL d   1       1.813  -1.119   0.351  0.00  0.00    -0.074 A 
ATOM      3  C2  UNL d   1       1.100  -1.920   1.249  0.00  0.00    -0.005 A 
ATOM      4  C3  UNL d   1      -0.253  -1.680   1.485  0.00  0.00     0.006 A 
ATOM      5  C4  UNL d   1      -0.907  -0.637   0.827  0.00  0.00    -0.005 A 
ATOM      6  C5  UNL d   1      -0.210   0.174  -0.074  0.00  0.00    -0.074 A 
ATOM      7  C6  UNL d   1      -0.896   1.305  -0.783  0.00  0.00     0.077 C 
ATOM      8  C7  UNL d   1       1.151  -0.069  -0.301  0.00  0.00    -0.001 A 
ENDROOT
TORSDOF 0
ENDMDL
