MODEL 1
REMARK minimizedAffinity -5.10303736
REMARK minimizedRMSD -1
REMARK  0 active torsions:
REMARK  status: ('A' for Active; 'I' for Inactive)
ROOT
ATOM      1  C   UNL d   1       3.666  -1.061  -0.006  0.00  0.00     0.077 C 
ATOM      2  C1  UNL d   1       2.256  -0.959   0.495  0.00  0.00    -0.074 A 
ATOM      3  C2  UNL d   1       1.680  -1.997   1.234  0.00  0.00    -0.005 A 
ATOM      4  C3  UNL d   1       0.371  -1.884   1.702  0.00  0.00     0.006 A 
ATOM      5  C4  UNL d   1      -0.374  -0.735   1.435  0.00  0.00    -0.005 A 
ATOM      6  C5  UNL d   1       0.186   0.313   0.698  0.00  0.00    -0.074 A 
ATOM      7  C6  UNL d   1      -0.598   1.559   0.410  0.00  0.00     0.077 C 
ATOM      8  C7  UNL d   1       1.504   0.195   0.237  0.00  0.00    -0.001 A 
ENDROOT
TORSDOF 0
ENDMDL
