MODEL 1
REMARK minimizedAffinity -1.85691285
REMARK minimizedRMSD -1
REMARK  0 active torsions:
REMARK  status: ('A' for Active; 'I' for Inactive)
ROOT
ATOM      1  C   UNL d   1      -0.568   0.279   0.049  0.00  0.00     0.077 C 
ATOM      2  C1  UNL d   1       0.855  -0.197   0.032  0.00  0.00    -0.074 A 
ATOM      3  C2  UNL d   1       1.412  -0.755  -1.123  0.00  0.00    -0.005 A 
ATOM      4  C3  UNL d   1       2.739  -1.185  -1.127  0.00  0.00     0.006 A 
ATOM      5  C4  UNL d   1       3.521  -1.060   0.022  0.00  0.00    -0.005 A 
ATOM      6  C5  UNL d   1       2.982  -0.504   1.186  0.00  0.00    -0.074 A 
ATOM      7  C6  UNL d   1       3.811  -0.354   2.426  0.00  0.00     0.077 C 
ATOM      8  C7  UNL d   1       1.649  -0.068   1.180  0.00  0.00    -0.001 A 
ENDROOT
TORSDOF 0
ENDMDL
