MODEL 1
REMARK minimizedAffinity -4.34292841
REMARK minimizedRMSD -1
REMARK  0 active torsions:
REMARK  status: ('A' for Active; 'I' for Inactive)
ROOT
ATOM      1  C   UNL d   1       1.388  -2.699   0.747  0.00  0.00     0.077 C 
ATOM      2  C1  UNL d   1       0.943  -1.288   0.503  0.00  0.00    -0.074 A 
ATOM      3  C2  UNL d   1      -0.416  -0.964   0.440  0.00  0.00    -0.005 A 
ATOM      4  C3  UNL d   1      -0.816   0.355   0.222  0.00  0.00     0.006 A 
ATOM      5  C4  UNL d   1       0.138   1.361   0.065  0.00  0.00    -0.005 A 
ATOM      6  C5  UNL d   1       1.502   1.056   0.126  0.00  0.00    -0.074 A 
ATOM      7  C6  UNL d   1       2.540   2.127  -0.030  0.00  0.00     0.077 C 
ATOM      8  C7  UNL d   1       1.895  -0.270   0.353  0.00  0.00    -0.001 A 
ENDROOT
TORSDOF 0
ENDMDL
