MODEL 1
REMARK minimizedAffinity -4.05173826
REMARK minimizedRMSD -1
REMARK  0 active torsions:
REMARK  status: ('A' for Active; 'I' for Inactive)
ROOT
ATOM      1  C   UNL d   1       1.833  -2.990   1.398  0.00  0.00     0.077 C 
ATOM      2  C1  UNL d   1       1.733  -1.746   0.567  0.00  0.00    -0.074 A 
ATOM      3  C2  UNL d   1       2.872  -0.996   0.256  0.00  0.00    -0.005 A 
ATOM      4  C3  UNL d   1       2.764   0.155  -0.526  0.00  0.00     0.006 A 
ATOM      5  C4  UNL d   1       1.519   0.566  -1.004  0.00  0.00    -0.005 A 
ATOM      6  C5  UNL d   1       0.370  -0.172  -0.704  0.00  0.00    -0.074 A 
ATOM      7  C6  UNL d   1      -0.974   0.251  -1.217  0.00  0.00     0.077 C 
ATOM      8  C7  UNL d   1       0.487  -1.330   0.077  0.00  0.00    -0.001 A 
ENDROOT
TORSDOF 0
ENDMDL
