MODEL 1
REMARK minimizedAffinity -4.37150764
REMARK minimizedRMSD -1
REMARK  0 active torsions:
REMARK  status: ('A' for Active; 'I' for Inactive)
ROOT
ATOM      1  C   UNL d   1       3.721  -1.049  -0.150  0.00  0.00     0.077 C 
ATOM      2  C1  UNL d   1       2.259  -1.072   0.184  0.00  0.00    -0.074 A 
ATOM      3  C2  UNL d   1       1.686  -2.175   0.826  0.00  0.00    -0.005 A 
ATOM      4  C3  UNL d   1       0.327  -2.179   1.139  0.00  0.00     0.006 A 
ATOM      5  C4  UNL d   1      -0.472  -1.082   0.815  0.00  0.00    -0.005 A 
ATOM      6  C5  UNL d   1       0.083   0.030   0.174  0.00  0.00    -0.074 A 
ATOM      7  C6  UNL d   1      -0.759   1.222  -0.173  0.00  0.00     0.077 C 
ATOM      8  C7  UNL d   1       1.451   0.029  -0.131  0.00  0.00    -0.001 A 
ENDROOT
TORSDOF 0
ENDMDL
