MODEL 1
REMARK minimizedAffinity -2.37727022
REMARK minimizedRMSD -1
REMARK  0 active torsions:
REMARK  status: ('A' for Active; 'I' for Inactive)
ROOT
ATOM      1  C   UNL d   1      -0.873   1.537  -1.481  0.00  0.00     0.077 C 
ATOM      2  C1  UNL d   1      -0.486   0.707  -0.293  0.00  0.00    -0.074 A 
ATOM      3  C2  UNL d   1      -1.296   0.661   0.846  0.00  0.00    -0.005 A 
ATOM      4  C3  UNL d   1      -0.927  -0.122   1.940  0.00  0.00     0.006 A 
ATOM      5  C4  UNL d   1       0.253  -0.866   1.906  0.00  0.00    -0.005 A 
ATOM      6  C5  UNL d   1       1.075  -0.833   0.775  0.00  0.00    -0.074 A 
ATOM      7  C6  UNL d   1       2.342  -1.634   0.718  0.00  0.00     0.077 C 
ATOM      8  C7  UNL d   1       0.694  -0.049  -0.323  0.00  0.00    -0.001 A 
ENDROOT
TORSDOF 0
ENDMDL
