MODEL 1
REMARK minimizedAffinity -6.15483475
REMARK minimizedRMSD -1
REMARK  0 active torsions:
REMARK  status: ('A' for Active; 'I' for Inactive)
ROOT
ATOM      1  C   UNL d   1       2.989  -1.686   0.423  0.00  0.00     0.077 C 
ATOM      2  C1  UNL d   1       1.655  -1.122   0.813  0.00  0.00    -0.074 A 
ATOM      3  C2  UNL d   1       0.991  -1.571   1.958  0.00  0.00    -0.005 A 
ATOM      4  C3  UNL d   1      -0.244  -1.030   2.313  0.00  0.00     0.006 A 
ATOM      5  C4  UNL d   1      -0.828  -0.035   1.526  0.00  0.00    -0.005 A 
ATOM      6  C5  UNL d   1      -0.178   0.427   0.378  0.00  0.00    -0.074 A 
ATOM      7  C6  UNL d   1      -0.786   1.502  -0.473  0.00  0.00     0.077 C 
ATOM      8  C7  UNL d   1       1.067  -0.117   0.032  0.00  0.00    -0.001 A 
ENDROOT
TORSDOF 0
ENDMDL
