MODEL 1
REMARK minimizedAffinity -3.83890414
REMARK minimizedRMSD -1
REMARK  0 active torsions:
REMARK  status: ('A' for Active; 'I' for Inactive)
ROOT
ATOM      1  C   UNL d   1      -1.155   1.575  -1.113  0.00  0.00     0.077 C 
ATOM      2  C1  UNL d   1      -0.563   0.433  -0.341  0.00  0.00    -0.074 A 
ATOM      3  C2  UNL d   1      -1.348  -0.331   0.528  0.00  0.00    -0.005 A 
ATOM      4  C3  UNL d   1      -0.785  -1.395   1.233  0.00  0.00     0.006 A 
ATOM      5  C4  UNL d   1       0.566  -1.705   1.075  0.00  0.00    -0.005 A 
ATOM      6  C5  UNL d   1       1.367  -0.953   0.210  0.00  0.00    -0.074 A 
ATOM      7  C6  UNL d   1       2.819  -1.279   0.022  0.00  0.00     0.077 C 
ATOM      8  C7  UNL d   1       0.792   0.111  -0.499  0.00  0.00    -0.001 A 
ENDROOT
TORSDOF 0
ENDMDL
