MODEL 1
REMARK minimizedAffinity -3.55850935
REMARK minimizedRMSD -1
REMARK  0 active torsions:
REMARK  status: ('A' for Active; 'I' for Inactive)
ROOT
ATOM      1  C   UNL d   1       3.536  -0.752   1.941  0.00  0.00     0.077 C 
ATOM      2  C1  UNL d   1       2.286  -0.947   1.136  0.00  0.00    -0.074 A 
ATOM      3  C2  UNL d   1       1.902  -2.219   0.702  0.00  0.00    -0.005 A 
ATOM      4  C3  UNL d   1       0.731  -2.387  -0.038  0.00  0.00     0.006 A 
ATOM      5  C4  UNL d   1      -0.067  -1.285  -0.350  0.00  0.00    -0.005 A 
ATOM      6  C5  UNL d   1       0.301  -0.005   0.077  0.00  0.00    -0.074 A 
ATOM      7  C6  UNL d   1      -0.550   1.189  -0.241  0.00  0.00     0.077 C 
ATOM      8  C7  UNL d   1       1.475   0.154   0.826  0.00  0.00    -0.001 A 
ENDROOT
TORSDOF 0
ENDMDL
