MODEL 1
REMARK minimizedAffinity -5.51362276
REMARK minimizedRMSD -1
REMARK  0 active torsions:
REMARK  status: ('A' for Active; 'I' for Inactive)
ROOT
ATOM      1  C   UNL d   1       3.522  -1.459   0.612  0.00  0.00     0.077 C 
ATOM      2  C1  UNL d   1       2.087  -1.151   0.925  0.00  0.00    -0.074 A 
ATOM      3  C2  UNL d   1       1.429  -1.789   1.981  0.00  0.00    -0.005 A 
ATOM      4  C3  UNL d   1       0.098  -1.486   2.266  0.00  0.00     0.006 A 
ATOM      5  C4  UNL d   1      -0.588  -0.544   1.498  0.00  0.00    -0.005 A 
ATOM      6  C5  UNL d   1       0.054   0.105   0.438  0.00  0.00    -0.074 A 
ATOM      7  C6  UNL d   1      -0.665   1.127  -0.390  0.00  0.00     0.077 C 
ATOM      8  C7  UNL d   1       1.394  -0.200   0.163  0.00  0.00    -0.001 A 
ENDROOT
TORSDOF 0
ENDMDL
