MODEL 1
REMARK minimizedAffinity -6.05223465
REMARK minimizedRMSD -1
REMARK  0 active torsions:
REMARK  status: ('A' for Active; 'I' for Inactive)
ROOT
ATOM      1  C   UNL d   1       1.330  -3.143   1.304  0.00  0.00     0.077 C 
ATOM      2  C1  UNL d   1       1.397  -1.840   0.565  0.00  0.00    -0.074 A 
ATOM      3  C2  UNL d   1       2.625  -1.222   0.307  0.00  0.00    -0.005 A 
ATOM      4  C3  UNL d   1       2.672  -0.014  -0.389  0.00  0.00     0.006 A 
ATOM      5  C4  UNL d   1       1.494   0.586  -0.835  0.00  0.00    -0.005 A 
ATOM      6  C5  UNL d   1       0.257  -0.017  -0.587  0.00  0.00    -0.074 A 
ATOM      7  C6  UNL d   1      -1.018   0.610  -1.067  0.00  0.00     0.077 C 
ATOM      8  C7  UNL d   1       0.219  -1.234   0.108  0.00  0.00    -0.001 A 
ENDROOT
TORSDOF 0
ENDMDL
