MODEL 1
REMARK minimizedAffinity -4.49925709
REMARK minimizedRMSD -1
REMARK  0 active torsions:
REMARK  status: ('A' for Active; 'I' for Inactive)
ROOT
ATOM      1  C   UNL d   1      -0.782   1.152  -0.273  0.00  0.00     0.077 C 
ATOM      2  C1  UNL d   1       0.047  -0.028   0.142  0.00  0.00    -0.074 A 
ATOM      3  C2  UNL d   1      -0.530  -1.110   0.815  0.00  0.00    -0.005 A 
ATOM      4  C3  UNL d   1       0.252  -2.204   1.187  0.00  0.00     0.006 A 
ATOM      5  C4  UNL d   1       1.615  -2.227   0.889  0.00  0.00    -0.005 A 
ATOM      6  C5  UNL d   1       2.209  -1.155   0.216  0.00  0.00    -0.074 A 
ATOM      7  C6  UNL d   1       3.670  -1.168  -0.120  0.00  0.00     0.077 C 
ATOM      8  C7  UNL d   1       1.415  -0.062  -0.160  0.00  0.00    -0.001 A 
ENDROOT
TORSDOF 0
ENDMDL
