MODEL 1
REMARK minimizedAffinity -3.50727248
REMARK minimizedRMSD -1
REMARK  2 active torsions:
REMARK  status: ('A' for Active; 'I' for Inactive)
REMARK    1  A    between atoms: C2'_3  and  C1'_4 
REMARK    2  A    between atoms: C1'_4  and  C1_5 
ROOT
ATOM      1  C1  I4B d   1      -0.737   0.425  -0.346  0.00  0.00    -0.075 A 
ATOM      2  C2  I4B d   1      -0.353  -0.521   0.571  0.00  0.00     0.003 A 
ATOM      3  C3  I4B d   1       0.943  -0.477   1.140  0.00  0.00     0.002 A 
ATOM      4  C4  I4B d   1       1.834   0.493   0.729  0.00  0.00    -0.004 A 
ATOM      5  C5  I4B d   1       1.435   1.465  -0.184  0.00  0.00     0.002 A 
ATOM      6  C6  I4B d   1       0.137   1.438  -0.716  0.00  0.00     0.003 A 
ENDROOT
BRANCH   1   7
ATOM      7  C1' I4B d   1      -2.101   0.329  -0.951  0.00  0.00     0.060 C 
BRANCH   7   8
ATOM      8  C2' I4B d   1      -2.002  -0.534  -2.193  0.00  0.00    -0.013 C 
ATOM      9  C4' I4B d   1      -2.898  -1.740  -2.093  0.00  0.00     0.013 C 
ATOM     10  C3' I4B d   1      -2.364   0.314  -3.376  0.00  0.00     0.013 C 
ENDBRANCH   7   8
ENDBRANCH   1   7
TORSDOF 2
ENDMDL
