MODEL 1
REMARK minimizedAffinity -4.52357483
REMARK minimizedRMSD -1
REMARK  2 active torsions:
REMARK  status: ('A' for Active; 'I' for Inactive)
REMARK    1  A    between atoms: C2'_3  and  C1'_4 
REMARK    2  A    between atoms: C1'_4  and  C1_5 
ROOT
ATOM      1  C1  I4B d   1      -1.103   0.096  -1.042  0.00  0.00    -0.075 A 
ATOM      2  C2  I4B d   1      -0.678  -0.255  -2.298  0.00  0.00     0.003 A 
ATOM      3  C3  I4B d   1      -1.580  -0.232  -3.389  0.00  0.00     0.002 A 
ATOM      4  C4  I4B d   1      -2.902   0.099  -3.171  0.00  0.00    -0.004 A 
ATOM      5  C5  I4B d   1      -3.326   0.477  -1.900  0.00  0.00     0.002 A 
ATOM      6  C6  I4B d   1      -2.419   0.488  -0.831  0.00  0.00     0.003 A 
ENDROOT
BRANCH   1   7
ATOM      7  C1' I4B d   1      -0.132   0.028   0.093  0.00  0.00     0.060 C 
BRANCH   7   8
ATOM      8  C2' I4B d   1       1.029   0.948  -0.229  0.00  0.00    -0.013 C 
ATOM      9  C4' I4B d   1       0.609   2.393  -0.181  0.00  0.00     0.013 C 
ATOM     10  C3' I4B d   1       2.127   0.670   0.753  0.00  0.00     0.013 C 
ENDBRANCH   7   8
ENDBRANCH   1   7
TORSDOF 2
ENDMDL
