MODEL 1
REMARK minimizedAffinity -3.03857827
REMARK minimizedRMSD -1
REMARK  1 active torsions:
REMARK  status: ('A' for Active; 'I' for Inactive)
REMARK    1  A    between atoms: C1_2  and  C2_3 
ROOT
ATOM      1  C2  UNL d   1       1.909  -0.549   0.427  0.00  0.00    -0.073 A 
ATOM      2  C3  UNL d   1       2.548   0.666   0.696  0.00  0.00    -0.002 A 
ATOM      3  C4  UNL d   1       1.839   1.866   0.627  0.00  0.00     0.004 A 
ATOM      4  C5  UNL d   1       0.485   1.863   0.295  0.00  0.00    -0.004 A 
ATOM      5  C6  UNL d   1      -0.175   0.657   0.034  0.00  0.00    -0.075 A 
ATOM      6  C7  UNL d   1      -1.631   0.636  -0.326  0.00  0.00     0.076 C 
ATOM      7  C8  UNL d   1       0.545  -0.543   0.103  0.00  0.00     0.001 A 
ENDROOT
BRANCH   1   8
ATOM      8  C1  UNL d   1       2.669  -1.848   0.507  0.00  0.00     0.053 C 
ATOM      9  C   UNL d   1       2.874  -2.474  -0.863  0.00  0.00     0.018 C 
ENDBRANCH   1   8
TORSDOF 1
ENDMDL
