MODEL 1
REMARK minimizedAffinity -4.87435913
REMARK minimizedRMSD -1
REMARK  1 active torsions:
REMARK  status: ('A' for Active; 'I' for Inactive)
REMARK    1  A    between atoms: C1_2  and  C2_3 
ROOT
ATOM      1  C2  UNL d   1       0.735  -0.561  -0.120  0.00  0.00    -0.073 A 
ATOM      2  C3  UNL d   1       1.568  -1.660   0.116  0.00  0.00    -0.002 A 
ATOM      3  C4  UNL d   1       2.893  -1.469   0.509  0.00  0.00     0.004 A 
ATOM      4  C5  UNL d   1       3.396  -0.179   0.677  0.00  0.00    -0.004 A 
ATOM      5  C6  UNL d   1       2.576   0.933   0.458  0.00  0.00    -0.075 A 
ATOM      6  C7  UNL d   1       3.103   2.327   0.632  0.00  0.00     0.076 C 
ATOM      7  C8  UNL d   1       1.247   0.732   0.060  0.00  0.00     0.001 A 
ENDROOT
BRANCH   1   8
ATOM      8  C1  UNL d   1      -0.698  -0.762  -0.539  0.00  0.00     0.053 C 
ATOM      9  C   UNL d   1      -1.520   0.508  -0.388  0.00  0.00     0.018 C 
ENDBRANCH   1   8
TORSDOF 1
ENDMDL
