MODEL 1
REMARK minimizedAffinity -4.58307505
REMARK minimizedRMSD -1
REMARK  1 active torsions:
REMARK  status: ('A' for Active; 'I' for Inactive)
REMARK    1  A    between atoms: C1_2  and  C2_3 
ROOT
ATOM      1  C2  UNL d   1      -0.103   0.307  -0.464  0.00  0.00    -0.073 A 
ATOM      2  C3  UNL d   1       0.082  -1.045  -0.775  0.00  0.00    -0.002 A 
ATOM      3  C4  UNL d   1       1.311  -1.661  -0.538  0.00  0.00     0.004 A 
ATOM      4  C5  UNL d   1       2.365  -0.935   0.018  0.00  0.00    -0.004 A 
ATOM      5  C6  UNL d   1       2.195   0.414   0.347  0.00  0.00    -0.075 A 
ATOM      6  C7  UNL d   1       3.319   1.210   0.944  0.00  0.00     0.076 C 
ATOM      7  C8  UNL d   1       0.959   1.026   0.103  0.00  0.00     0.001 A 
ENDROOT
BRANCH   1   8
ATOM      8  C1  UNL d   1      -1.431   0.975  -0.713  0.00  0.00     0.053 C 
ATOM      9  C   UNL d   1      -2.467   0.590   0.332  0.00  0.00     0.018 C 
ENDBRANCH   1   8
TORSDOF 1
ENDMDL
