MODEL 1
REMARK minimizedAffinity 6.72045422
REMARK minimizedRMSD -1
REMARK  1 active torsions:
REMARK  status: ('A' for Active; 'I' for Inactive)
REMARK    1  A    between atoms: C1_2  and  C2_3 
ROOT
ATOM      1  C2  UNL d   1       3.088   2.008  -0.307  0.00  0.00    -0.076 A 
ATOM      2  C3  UNL d   1       2.035   2.651  -0.982  0.00  0.00     0.004 A 
ATOM      3  C4  UNL d   1       0.778   2.778  -0.393  0.00  0.00    -0.003 A 
ATOM      4  C5  UNL d   1       0.553   2.265   0.879  0.00  0.00     0.000 A 
ATOM      5  C6  UNL d   1       1.591   1.640   1.570  0.00  0.00     0.000 A 
ATOM      6  C7  UNL d   1       2.869   1.518   0.998  0.00  0.00    -0.073 A 
ATOM      7  C8  UNL d   1       3.949   0.829   1.785  0.00  0.00     0.078 C 
ENDROOT
BRANCH   1   8
ATOM      8  C1  UNL d   1       4.422   1.875  -1.006  0.00  0.00     0.053 C 
ATOM      9  C   UNL d   1       4.304   1.203  -2.365  0.00  0.00     0.018 C 
ENDBRANCH   1   8
TORSDOF 1
ENDMDL
