MODEL 1
REMARK minimizedAffinity 11.8257446
REMARK minimizedRMSD -1
REMARK  1 active torsions:
REMARK  status: ('A' for Active; 'I' for Inactive)
REMARK    1  A    between atoms: C1_2  and  C2_3 
ROOT
ATOM      1  C2  UNL d   1       2.437   1.987   1.963  0.00  0.00    -0.076 A 
ATOM      2  C3  UNL d   1       1.104   1.887   2.398  0.00  0.00     0.004 A 
ATOM      3  C4  UNL d   1       0.049   2.281   1.576  0.00  0.00    -0.003 A 
ATOM      4  C5  UNL d   1       0.311   2.781   0.305  0.00  0.00     0.000 A 
ATOM      5  C6  UNL d   1       1.626   2.871  -0.149  0.00  0.00     0.000 A 
ATOM      6  C7  UNL d   1       2.699   2.463   0.661  0.00  0.00    -0.073 A 
ATOM      7  C8  UNL d   1       4.098   2.588   0.122  0.00  0.00     0.078 C 
ENDROOT
BRANCH   1   8
ATOM      8  C1  UNL d   1       3.540   1.571   2.909  0.00  0.00     0.053 C 
ATOM      9  C   UNL d   1       3.866   2.645   3.935  0.00  0.00     0.018 C 
ENDBRANCH   1   8
TORSDOF 1
ENDMDL
