MODEL 1
REMARK minimizedAffinity 5.6766324
REMARK minimizedRMSD -1
REMARK  1 active torsions:
REMARK  status: ('A' for Active; 'I' for Inactive)
REMARK    1  A    between atoms: C1_2  and  C2_3 
ROOT
ATOM      1  C2  UNL d   1       0.536   2.113   1.924  0.00  0.00    -0.076 A 
ATOM      2  C3  UNL d   1       0.729   1.979   0.538  0.00  0.00     0.004 A 
ATOM      3  C4  UNL d   1       1.978   1.646   0.017  0.00  0.00    -0.003 A 
ATOM      4  C5  UNL d   1       3.055   1.443   0.873  0.00  0.00     0.000 A 
ATOM      5  C6  UNL d   1       2.877   1.555   2.252  0.00  0.00     0.000 A 
ATOM      6  C7  UNL d   1       1.620   1.873   2.795  0.00  0.00    -0.073 A 
ATOM      7  C8  UNL d   1       1.487   1.987   4.289  0.00  0.00     0.078 C 
ENDROOT
BRANCH   1   8
ATOM      8  C1  UNL d   1      -0.835   2.502   2.430  0.00  0.00     0.053 C 
ATOM      9  C   UNL d   1      -1.778   2.904   1.307  0.00  0.00     0.018 C 
ENDBRANCH   1   8
TORSDOF 1
ENDMDL
