MODEL 1
REMARK minimizedAffinity 5.33933544
REMARK minimizedRMSD -1
REMARK  1 active torsions:
REMARK  status: ('A' for Active; 'I' for Inactive)
REMARK    1  A    between atoms: C1_2  and  C2_3 
ROOT
ATOM      1  C2  UNL d   1       2.108   2.373   1.402  0.00  0.00    -0.076 A 
ATOM      2  C3  UNL d   1       0.765   2.423   1.813  0.00  0.00     0.004 A 
ATOM      3  C4  UNL d   1      -0.243   2.803   0.928  0.00  0.00    -0.003 A 
ATOM      4  C5  UNL d   1       0.077   3.138  -0.383  0.00  0.00     0.000 A 
ATOM      5  C6  UNL d   1       1.402   3.077  -0.813  0.00  0.00     0.000 A 
ATOM      6  C7  UNL d   1       2.428   2.681   0.062  0.00  0.00    -0.073 A 
ATOM      7  C8  UNL d   1       3.840   2.638  -0.453  0.00  0.00     0.078 C 
ENDROOT
BRANCH   1   8
ATOM      8  C1  UNL d   1       3.161   1.981   2.413  0.00  0.00     0.053 C 
ATOM      9  C   UNL d   1       3.372   3.046   3.478  0.00  0.00     0.018 C 
ENDBRANCH   1   8
TORSDOF 1
ENDMDL
