MODEL 1
REMARK minimizedAffinity 8.98749542
REMARK minimizedRMSD -1
REMARK  1 active torsions:
REMARK  status: ('A' for Active; 'I' for Inactive)
REMARK    1  A    between atoms: C1_2  and  C2_3 
ROOT
ATOM      1  C2  UNL d   1       0.007   0.865   1.149  0.00  0.00    -0.076 A 
ATOM      2  C3  UNL d   1       1.219   0.223   1.460  0.00  0.00     0.004 A 
ATOM      3  C4  UNL d   1       2.440   0.874   1.288  0.00  0.00    -0.003 A 
ATOM      4  C5  UNL d   1       2.469   2.177   0.803  0.00  0.00     0.000 A 
ATOM      5  C6  UNL d   1       1.276   2.835   0.506  0.00  0.00     0.000 A 
ATOM      6  C7  UNL d   1       0.036   2.199   0.689  0.00  0.00    -0.073 A 
ATOM      7  C8  UNL d   1      -1.220   2.954   0.347  0.00  0.00     0.078 C 
ENDROOT
BRANCH   1   8
ATOM      8  C1  UNL d   1      -1.285   0.100   1.329  0.00  0.00     0.053 C 
ATOM      9  C   UNL d   1      -1.276  -1.238   0.606  0.00  0.00     0.018 C 
ENDBRANCH   1   8
TORSDOF 1
ENDMDL
