MODEL 1
REMARK minimizedAffinity 9.77322865
REMARK minimizedRMSD -1
REMARK  1 active torsions:
REMARK  status: ('A' for Active; 'I' for Inactive)
REMARK    1  A    between atoms: C1_2  and  C2_3 
ROOT
ATOM      1  C2  UNL d   1       0.270   2.670   1.231  0.00  0.00    -0.076 A 
ATOM      2  C3  UNL d   1       1.325   2.714   0.303  0.00  0.00     0.004 A 
ATOM      3  C4  UNL d   1       2.624   2.375   0.677  0.00  0.00    -0.003 A 
ATOM      4  C5  UNL d   1       2.889   1.986   1.986  0.00  0.00     0.000 A 
ATOM      5  C6  UNL d   1       1.852   1.919   2.915  0.00  0.00     0.000 A 
ATOM      6  C7  UNL d   1       0.533   2.242   2.550  0.00  0.00    -0.073 A 
ATOM      7  C8  UNL d   1      -0.546   2.159   3.595  0.00  0.00     0.078 C 
ENDROOT
BRANCH   1   8
ATOM      8  C1  UNL d   1      -1.114   3.075   0.775  0.00  0.00     0.053 C 
ATOM      9  C   UNL d   1      -1.086   3.923  -0.487  0.00  0.00     0.018 C 
ENDBRANCH   1   8
TORSDOF 1
ENDMDL
