MODEL 1
REMARK minimizedAffinity 6.68223619
REMARK minimizedRMSD -1
REMARK  1 active torsions:
REMARK  status: ('A' for Active; 'I' for Inactive)
REMARK    1  A    between atoms: C1_2  and  C2_3 
ROOT
ATOM      1  C2  UNL d   1       0.535   2.268   1.504  0.00  0.00    -0.076 A 
ATOM      2  C3  UNL d   1       0.337   1.984   2.867  0.00  0.00     0.004 A 
ATOM      3  C4  UNL d   1      -0.905   2.184   3.468  0.00  0.00    -0.003 A 
ATOM      4  C5  UNL d   1      -1.968   2.672   2.716  0.00  0.00     0.000 A 
ATOM      5  C6  UNL d   1      -1.794   2.942   1.359  0.00  0.00     0.000 A 
ATOM      6  C7  UNL d   1      -0.553   2.731   0.734  0.00  0.00    -0.073 A 
ATOM      7  C8  UNL d   1      -0.419   3.045  -0.731  0.00  0.00     0.078 C 
ENDROOT
BRANCH   1   8
ATOM      8  C1  UNL d   1       1.911   2.057   0.914  0.00  0.00     0.053 C 
ATOM      9  C   UNL d   1       3.017   2.611   1.799  0.00  0.00     0.018 C 
ENDBRANCH   1   8
TORSDOF 1
ENDMDL
