MODEL 1
REMARK minimizedAffinity 3.93537617
REMARK minimizedRMSD -1
REMARK  1 active torsions:
REMARK  status: ('A' for Active; 'I' for Inactive)
REMARK    1  A    between atoms: C1_2  and  C2_3 
ROOT
ATOM      1  C2  UNL d   1       3.471   3.124   0.788  0.00  0.00    -0.076 A 
ATOM      2  C3  UNL d   1       3.611   4.037   1.848  0.00  0.00     0.004 A 
ATOM      3  C4  UNL d   1       4.863   4.528   2.211  0.00  0.00    -0.003 A 
ATOM      4  C5  UNL d   1       5.997   4.115   1.520  0.00  0.00     0.000 A 
ATOM      5  C6  UNL d   1       5.875   3.223   0.455  0.00  0.00     0.000 A 
ATOM      6  C7  UNL d   1       4.618   2.731   0.065  0.00  0.00    -0.073 A 
ATOM      7  C8  UNL d   1       4.545   1.767  -1.087  0.00  0.00     0.078 C 
ENDROOT
BRANCH   1   8
ATOM      8  C1  UNL d   1       2.090   2.605   0.457  0.00  0.00     0.053 C 
ATOM      9  C   UNL d   1       1.427   1.916   1.640  0.00  0.00     0.018 C 
ENDBRANCH   1   8
TORSDOF 1
ENDMDL
