MODEL 1
REMARK minimizedAffinity 16.7901173
REMARK minimizedRMSD -1
REMARK  1 active torsions:
REMARK  status: ('A' for Active; 'I' for Inactive)
REMARK    1  A    between atoms: C1_2  and  C2_3 
ROOT
ATOM      1  C2  UNL d   1       1.003   2.771   0.980  0.00  0.00    -0.076 A 
ATOM      2  C3  UNL d   1       1.521   1.536   1.409  0.00  0.00     0.004 A 
ATOM      3  C4  UNL d   1       2.895   1.303   1.430  0.00  0.00    -0.003 A 
ATOM      4  C5  UNL d   1       3.774   2.300   1.024  0.00  0.00     0.000 A 
ATOM      5  C6  UNL d   1       3.279   3.537   0.612  0.00  0.00     0.000 A 
ATOM      6  C7  UNL d   1       1.898   3.795   0.600  0.00  0.00    -0.073 A 
ATOM      7  C8  UNL d   1       1.419   5.145   0.141  0.00  0.00     0.078 C 
ENDROOT
BRANCH   1   8
ATOM      8  C1  UNL d   1      -0.497   2.958   0.952  0.00  0.00     0.053 C 
ATOM      9  C   UNL d   1      -1.191   2.265   2.114  0.00  0.00     0.018 C 
ENDBRANCH   1   8
TORSDOF 1
ENDMDL
