MODEL 1
REMARK minimizedAffinity 12.5768719
REMARK minimizedRMSD -1
REMARK  1 active torsions:
REMARK  status: ('A' for Active; 'I' for Inactive)
REMARK    1  A    between atoms: C1_2  and  C2_3 
ROOT
ATOM      1  C2  UNL d   1       3.351   1.565   3.751  0.00  0.00    -0.076 A 
ATOM      2  C3  UNL d   1       3.758   1.598   2.406  0.00  0.00     0.004 A 
ATOM      3  C4  UNL d   1       2.859   1.320   1.377  0.00  0.00    -0.003 A 
ATOM      4  C5  UNL d   1       1.538   1.004   1.678  0.00  0.00     0.000 A 
ATOM      5  C6  UNL d   1       1.113   0.983   3.006  0.00  0.00     0.000 A 
ATOM      6  C7  UNL d   1       2.003   1.277   4.053  0.00  0.00    -0.073 A 
ATOM      7  C8  UNL d   1       1.492   1.234   5.468  0.00  0.00     0.078 C 
ENDROOT
BRANCH   1   8
ATOM      8  C1  UNL d   1       4.377   1.849   4.825  0.00  0.00     0.053 C 
ATOM      9  C   UNL d   1       5.286   0.659   5.092  0.00  0.00     0.018 C 
ENDBRANCH   1   8
TORSDOF 1
ENDMDL
