MODEL 1
REMARK minimizedAffinity 8.99009037
REMARK minimizedRMSD -1
REMARK  1 active torsions:
REMARK  status: ('A' for Active; 'I' for Inactive)
REMARK    1  A    between atoms: C1_2  and  C2_3 
ROOT
ATOM      1  C2  UNL d   1       4.035   1.473   2.373  0.00  0.00    -0.076 A 
ATOM      2  C3  UNL d   1       2.679   1.155   2.562  0.00  0.00     0.004 A 
ATOM      3  C4  UNL d   1       1.843   0.902   1.476  0.00  0.00    -0.003 A 
ATOM      4  C5  UNL d   1       2.350   0.963   0.182  0.00  0.00     0.000 A 
ATOM      5  C6  UNL d   1       3.697   1.261  -0.023  0.00  0.00     0.000 A 
ATOM      6  C7  UNL d   1       4.557   1.502   1.062  0.00  0.00    -0.073 A 
ATOM      7  C8  UNL d   1       5.999   1.824   0.783  0.00  0.00     0.078 C 
ENDROOT
BRANCH   1   8
ATOM      8  C1  UNL d   1       4.887   1.764   3.588  0.00  0.00     0.053 C 
ATOM      9  C   UNL d   1       4.548   3.100   4.231  0.00  0.00     0.018 C 
ENDBRANCH   1   8
TORSDOF 1
ENDMDL
