MODEL 1
REMARK minimizedAffinity 3.5079124
REMARK minimizedRMSD -1
REMARK  1 active torsions:
REMARK  status: ('A' for Active; 'I' for Inactive)
REMARK    1  A    between atoms: C1_2  and  C2_3 
ROOT
ATOM      1  C2  UNL d   1       4.892   4.693   3.983  0.00  0.00    -0.076 A 
ATOM      2  C3  UNL d   1       4.430   3.498   3.405  0.00  0.00     0.004 A 
ATOM      3  C4  UNL d   1       4.478   2.296   4.109  0.00  0.00    -0.003 A 
ATOM      4  C5  UNL d   1       4.987   2.270   5.402  0.00  0.00     0.000 A 
ATOM      5  C6  UNL d   1       5.434   3.449   5.997  0.00  0.00     0.000 A 
ATOM      6  C7  UNL d   1       5.378   4.672   5.308  0.00  0.00    -0.073 A 
ATOM      7  C8  UNL d   1       5.878   5.913   5.996  0.00  0.00     0.078 C 
ENDROOT
BRANCH   1   8
ATOM      8  C1  UNL d   1       4.841   5.962   3.161  0.00  0.00     0.053 C 
ATOM      9  C   UNL d   1       5.906   5.996   2.076  0.00  0.00     0.018 C 
ENDBRANCH   1   8
TORSDOF 1
ENDMDL
