MODEL 1
REMARK minimizedAffinity 10.6639032
REMARK minimizedRMSD -1
REMARK  1 active torsions:
REMARK  status: ('A' for Active; 'I' for Inactive)
REMARK    1  A    between atoms: C1_2  and  C2_3 
ROOT
ATOM      1  C2  UNL d   1       0.461   2.723   1.092  0.00  0.00    -0.076 A 
ATOM      2  C3  UNL d   1       0.315   3.101  -0.254  0.00  0.00     0.004 A 
ATOM      3  C4  UNL d   1      -0.946   3.343  -0.798  0.00  0.00    -0.003 A 
ATOM      4  C5  UNL d   1      -2.080   3.212  -0.004  0.00  0.00     0.000 A 
ATOM      5  C6  UNL d   1      -1.952   2.855   1.337  0.00  0.00     0.000 A 
ATOM      6  C7  UNL d   1      -0.687   2.623   1.906  0.00  0.00    -0.073 A 
ATOM      7  C8  UNL d   1      -0.608   2.235   3.357  0.00  0.00     0.078 C 
ENDROOT
BRANCH   1   8
ATOM      8  C1  UNL d   1       1.851   2.446   1.619  0.00  0.00     0.053 C 
ATOM      9  C   UNL d   1       2.596   1.415   0.786  0.00  0.00     0.018 C 
ENDBRANCH   1   8
TORSDOF 1
ENDMDL
