MODEL 1
REMARK minimizedAffinity 5.83051682
REMARK minimizedRMSD -1
REMARK  1 active torsions:
REMARK  status: ('A' for Active; 'I' for Inactive)
REMARK    1  A    between atoms: C1_2  and  C2_3 
ROOT
ATOM      1  C2  UNL d   1      -3.823   4.481  -5.694  0.00  0.00    -0.076 A 
ATOM      2  C3  UNL d   1      -3.032   5.603  -6.000  0.00  0.00     0.004 A 
ATOM      3  C4  UNL d   1      -1.668   5.617  -5.716  0.00  0.00    -0.003 A 
ATOM      4  C5  UNL d   1      -1.071   4.511  -5.121  0.00  0.00     0.000 A 
ATOM      5  C6  UNL d   1      -1.837   3.383  -4.827  0.00  0.00     0.000 A 
ATOM      6  C7  UNL d   1      -3.211   3.345  -5.122  0.00  0.00    -0.073 A 
ATOM      7  C8  UNL d   1      -3.989   2.106  -4.777  0.00  0.00     0.078 C 
ENDROOT
BRANCH   1   8
ATOM      8  C1  UNL d   1      -5.303   4.533  -6.000  0.00  0.00     0.053 C 
ATOM      9  C   UNL d   1      -5.852   5.951  -5.979  0.00  0.00     0.018 C 
ENDBRANCH   1   8
TORSDOF 1
ENDMDL
