MODEL 1
REMARK minimizedAffinity 3.95154691
REMARK minimizedRMSD -1
REMARK  1 active torsions:
REMARK  status: ('A' for Active; 'I' for Inactive)
REMARK    1  A    between atoms: C1_2  and  C2_3 
ROOT
ATOM      1  C2  UNL d   1       3.932   3.919   1.036  0.00  0.00    -0.076 A 
ATOM      2  C3  UNL d   1       4.450   3.463  -0.188  0.00  0.00     0.004 A 
ATOM      3  C4  UNL d   1       5.296   4.265  -0.953  0.00  0.00    -0.003 A 
ATOM      4  C5  UNL d   1       5.638   5.536  -0.505  0.00  0.00     0.000 A 
ATOM      5  C6  UNL d   1       5.148   5.998   0.716  0.00  0.00     0.000 A 
ATOM      6  C7  UNL d   1       4.308   5.196   1.507  0.00  0.00    -0.073 A 
ATOM      7  C8  UNL d   1       3.803   5.747   2.813  0.00  0.00     0.078 C 
ENDROOT
BRANCH   1   8
ATOM      8  C1  UNL d   1       2.998   3.016   1.809  0.00  0.00     0.053 C 
ATOM      9  C   UNL d   1       2.051   2.245   0.903  0.00  0.00     0.018 C 
ENDBRANCH   1   8
TORSDOF 1
ENDMDL
