MODEL 1
REMARK minimizedAffinity -4.97601175
REMARK minimizedRMSD -1
REMARK  1 active torsions:
REMARK  status: ('A' for Active; 'I' for Inactive)
REMARK    1  A    between atoms: N_2  and  C1_3 
ROOT
ATOM      1  C1  UNL d   1      -0.415  -0.150   1.287  0.00  0.00     0.143 A 
ATOM      2  C2  UNL d   1      -0.307  -0.404   2.658  0.00  0.00    -0.057 A 
ATOM      3  C3  UNL d   1      -1.429  -0.364   3.494  0.00  0.00     0.033 A 
ATOM      4  C4  UNL d   1      -2.679  -0.040   2.977  0.00  0.00    -0.042 A 
ATOM      5  C5  UNL d   1      -2.806   0.241   1.621  0.00  0.00     0.033 A 
ATOM      6  C6  UNL d   1      -1.682   0.193   0.790  0.00  0.00    -0.057 A 
ENDROOT
BRANCH   1   7
ATOM      7  N   UNL d   1       0.679  -0.077   0.421  0.00  0.00    -0.732 N 
ATOM      8  C   UNL d   1       0.486  -0.095  -1.014  0.00  0.00     0.284 C 
ATOM      9  H3  UNL d   1       1.382   0.587   0.737  0.00  0.00     0.395 HD
ENDBRANCH   1   7
TORSDOF 1
ENDMDL
