MODEL 1
REMARK minimizedAffinity -4.71265316
REMARK minimizedRMSD -1
REMARK  1 active torsions:
REMARK  status: ('A' for Active; 'I' for Inactive)
REMARK    1  A    between atoms: N_2  and  C1_3 
ROOT
ATOM      1  C1  UNL d   1       0.007   0.157   0.468  0.00  0.00     0.143 A 
ATOM      2  C2  UNL d   1       0.987   0.176   1.466  0.00  0.00    -0.057 A 
ATOM      3  C3  UNL d   1       0.712  -0.278   2.762  0.00  0.00     0.033 A 
ATOM      4  C4  UNL d   1      -0.560  -0.734   3.090  0.00  0.00    -0.042 A 
ATOM      5  C5  UNL d   1      -1.556  -0.739   2.120  0.00  0.00     0.033 A 
ATOM      6  C6  UNL d   1      -1.274  -0.290   0.827  0.00  0.00    -0.057 A 
ENDROOT
BRANCH   1   7
ATOM      7  N   UNL d   1       0.191   0.686  -0.812  0.00  0.00    -0.732 N 
ATOM      8  C   UNL d   1       0.443  -0.184  -1.941  0.00  0.00     0.284 C 
ATOM      9  H3  UNL d   1      -0.451   1.451  -1.012  0.00  0.00     0.395 HD
ENDBRANCH   1   7
TORSDOF 1
ENDMDL
