MODEL 1
REMARK minimizedAffinity -4.9303236
REMARK minimizedRMSD -1
REMARK  1 active torsions:
REMARK  status: ('A' for Active; 'I' for Inactive)
REMARK    1  A    between atoms: N_2  and  C1_3 
ROOT
ATOM      1  C1  UNL d   1       0.035   0.264  -0.890  0.00  0.00     0.143 A 
ATOM      2  C2  UNL d   1      -1.332   0.552  -0.962  0.00  0.00    -0.057 A 
ATOM      3  C3  UNL d   1      -2.210   0.164   0.057  0.00  0.00     0.033 A 
ATOM      4  C4  UNL d   1      -1.740  -0.548   1.155  0.00  0.00    -0.042 A 
ATOM      5  C5  UNL d   1      -0.389  -0.868   1.235  0.00  0.00     0.033 A 
ATOM      6  C6  UNL d   1       0.484  -0.471   0.218  0.00  0.00    -0.057 A 
ENDROOT
BRANCH   1   7
ATOM      7  N   UNL d   1       0.942   0.537  -1.917  0.00  0.00    -0.732 N 
ATOM      8  C   UNL d   1       1.260  -0.470  -2.907  0.00  0.00     0.284 C 
ATOM      9  H3  UNL d   1       0.827   1.473  -2.299  0.00  0.00     0.395 HD
ENDBRANCH   1   7
TORSDOF 1
ENDMDL
