MODEL 1
REMARK minimizedAffinity -4.73438644
REMARK minimizedRMSD -1
REMARK  1 active torsions:
REMARK  status: ('A' for Active; 'I' for Inactive)
REMARK    1  A    between atoms: N_2  and  C1_3 
ROOT
ATOM      1  C1  UNL d   1      -1.420   0.234   1.946  0.00  0.00     0.143 A 
ATOM      2  C2  UNL d   1      -0.567  -0.389   2.863  0.00  0.00    -0.057 A 
ATOM      3  C3  UNL d   1       0.738  -0.752   2.510  0.00  0.00     0.033 A 
ATOM      4  C4  UNL d   1       1.205  -0.524   1.220  0.00  0.00    -0.042 A 
ATOM      5  C5  UNL d   1       0.366   0.071   0.284  0.00  0.00     0.033 A 
ATOM      6  C6  UNL d   1      -0.934   0.438   0.645  0.00  0.00    -0.057 A 
ENDROOT
BRANCH   1   7
ATOM      7  N   UNL d   1      -2.761   0.530   2.207  0.00  0.00    -0.732 N 
ATOM      8  C   UNL d   1      -3.684   0.785   1.122  0.00  0.00     0.284 C 
ATOM      9  H3  UNL d   1      -3.146  -0.042   2.955  0.00  0.00     0.395 HD
ENDBRANCH   1   7
TORSDOF 1
ENDMDL
