MODEL 1
REMARK minimizedAffinity -5.11053419
REMARK minimizedRMSD -1
REMARK  1 active torsions:
REMARK  status: ('A' for Active; 'I' for Inactive)
REMARK    1  A    between atoms: N_2  and  C1_3 
ROOT
ATOM      1  C1  UNL d   1      -0.984  -0.376   0.590  0.00  0.00     0.143 A 
ATOM      2  C2  UNL d   1      -0.003  -0.544   1.573  0.00  0.00    -0.057 A 
ATOM      3  C3  UNL d   1      -0.314  -0.446   2.935  0.00  0.00     0.033 A 
ATOM      4  C4  UNL d   1      -1.612  -0.148   3.338  0.00  0.00    -0.042 A 
ATOM      5  C5  UNL d   1      -2.598   0.048   2.378  0.00  0.00     0.033 A 
ATOM      6  C6  UNL d   1      -2.282  -0.058   1.020  0.00  0.00    -0.057 A 
ENDROOT
BRANCH   1   7
ATOM      7  N   UNL d   1      -0.718  -0.364  -0.781  0.00  0.00    -0.732 N 
ATOM      8  C   UNL d   1       0.645  -0.359  -1.267  0.00  0.00     0.284 C 
ATOM      9  H3  UNL d   1      -1.343  -0.973  -1.304  0.00  0.00     0.395 HD
ENDBRANCH   1   7
TORSDOF 1
ENDMDL
