MODEL 1
REMARK minimizedAffinity -5.31407738
REMARK minimizedRMSD -1
REMARK  1 active torsions:
REMARK  status: ('A' for Active; 'I' for Inactive)
REMARK    1  A    between atoms: N_2  and  C1_3 
ROOT
ATOM      1  C1  UNL d   1       0.077   0.086   0.396  0.00  0.00     0.143 A 
ATOM      2  C2  UNL d   1       0.993   0.003   1.450  0.00  0.00    -0.057 A 
ATOM      3  C3  UNL d   1       0.581  -0.331   2.746  0.00  0.00     0.033 A 
ATOM      4  C4  UNL d   1      -0.764  -0.560   3.017  0.00  0.00    -0.042 A 
ATOM      5  C5  UNL d   1      -1.696  -0.459   1.990  0.00  0.00     0.033 A 
ATOM      6  C6  UNL d   1      -1.277  -0.132   0.696  0.00  0.00    -0.057 A 
ENDROOT
BRANCH   1   7
ATOM      7  N   UNL d   1       0.411   0.509  -0.893  0.00  0.00    -0.732 N 
ATOM      8  C   UNL d   1       0.481  -0.438  -1.985  0.00  0.00     0.284 C 
ATOM      9  H3  UNL d   1      -0.029   1.394  -1.137  0.00  0.00     0.395 HD
ENDBRANCH   1   7
TORSDOF 1
ENDMDL
