MODEL 1
REMARK minimizedAffinity -2.27458906
REMARK minimizedRMSD -1
REMARK  1 active torsions:
REMARK  status: ('A' for Active; 'I' for Inactive)
REMARK    1  A    between atoms: N_2  and  C1_3 
ROOT
ATOM      1  C1  UNL d   1       0.204   0.131   1.593  0.00  0.00     0.143 A 
ATOM      2  C2  UNL d   1      -0.886   0.030   0.723  0.00  0.00    -0.057 A 
ATOM      3  C3  UNL d   1      -0.749   0.295  -0.646  0.00  0.00     0.033 A 
ATOM      4  C4  UNL d   1       0.478   0.696  -1.163  0.00  0.00    -0.042 A 
ATOM      5  C5  UNL d   1       1.569   0.827  -0.312  0.00  0.00     0.033 A 
ATOM      6  C6  UNL d   1       1.428   0.554   1.052  0.00  0.00    -0.057 A 
ENDROOT
BRANCH   1   7
ATOM      7  N   UNL d   1       0.110  -0.023   2.979  0.00  0.00    -0.732 N 
ATOM      8  C   UNL d   1      -0.939  -0.833   3.560  0.00  0.00     0.284 C 
ATOM      9  H3  UNL d   1       1.020  -0.142   3.419  0.00  0.00     0.395 HD
ENDBRANCH   1   7
TORSDOF 1
ENDMDL
