MODEL 1
REMARK minimizedAffinity -1.37863004
REMARK minimizedRMSD -1
REMARK  1 active torsions:
REMARK  status: ('A' for Active; 'I' for Inactive)
REMARK    1  A    between atoms: N_2  and  C1_3 
ROOT
ATOM      1  C1  UNL d   1      -0.124   0.162   0.231  0.00  0.00     0.143 A 
ATOM      2  C2  UNL d   1       0.177   0.969   1.333  0.00  0.00    -0.057 A 
ATOM      3  C3  UNL d   1      -0.233   0.616   2.625  0.00  0.00     0.033 A 
ATOM      4  C4  UNL d   1      -0.978  -0.540   2.833  0.00  0.00    -0.042 A 
ATOM      5  C5  UNL d   1      -1.310  -1.344   1.749  0.00  0.00     0.033 A 
ATOM      6  C6  UNL d   1      -0.893  -0.989   0.462  0.00  0.00    -0.057 A 
ENDROOT
BRANCH   1   7
ATOM      7  N   UNL d   1       0.169   0.509  -1.090  0.00  0.00    -0.732 N 
ATOM      8  C   UNL d   1       0.563  -0.502  -2.048  0.00  0.00     0.284 C 
ATOM      9  H3  UNL d   1      -0.473   1.205  -1.461  0.00  0.00     0.395 HD
ENDBRANCH   1   7
TORSDOF 1
ENDMDL
