MODEL 1
REMARK minimizedAffinity -4.98112202
REMARK minimizedRMSD -1
REMARK  1 active torsions:
REMARK  status: ('A' for Active; 'I' for Inactive)
REMARK    1  A    between atoms: N_2  and  C1_3 
ROOT
ATOM      1  C1  UNL d   1      -0.200  -0.103   0.967  0.00  0.00     0.143 A 
ATOM      2  C2  UNL d   1       0.041   0.375   2.259  0.00  0.00    -0.057 A 
ATOM      3  C3  UNL d   1      -1.011   0.624   3.149  0.00  0.00     0.033 A 
ATOM      4  C4  UNL d   1      -2.329   0.425   2.751  0.00  0.00    -0.042 A 
ATOM      5  C5  UNL d   1      -2.593  -0.026   1.463  0.00  0.00     0.033 A 
ATOM      6  C6  UNL d   1      -1.538  -0.278   0.581  0.00  0.00    -0.057 A 
ENDROOT
BRANCH   1   7
ATOM      7  N   UNL d   1       0.796  -0.275   0.003  0.00  0.00    -0.732 N 
ATOM      8  C   UNL d   1       0.537   0.029  -1.388  0.00  0.00     0.284 C 
ATOM      9  H3  UNL d   1       1.710   0.027   0.331  0.00  0.00     0.395 HD
ENDBRANCH   1   7
TORSDOF 1
ENDMDL
