MODEL 1
REMARK minimizedAffinity -1.43399632
REMARK minimizedRMSD -1
REMARK  1 active torsions:
REMARK  status: ('A' for Active; 'I' for Inactive)
REMARK    1  A    between atoms: N_2  and  C1_3 
ROOT
ATOM      1  C1  UNL d   1       0.319   0.273  -1.825  0.00  0.00     0.143 A 
ATOM      2  C2  UNL d   1      -1.026   0.651  -1.759  0.00  0.00    -0.057 A 
ATOM      3  C3  UNL d   1      -1.659   0.870  -0.529  0.00  0.00     0.033 A 
ATOM      4  C4  UNL d   1      -0.963   0.686   0.661  0.00  0.00    -0.042 A 
ATOM      5  C5  UNL d   1       0.368   0.286   0.619  0.00  0.00     0.033 A 
ATOM      6  C6  UNL d   1       0.997   0.076  -0.612  0.00  0.00    -0.057 A 
ENDROOT
BRANCH   1   7
ATOM      7  N   UNL d   1       0.977  -0.055  -3.013  0.00  0.00    -0.732 N 
ATOM      8  C   UNL d   1       0.987  -1.418  -3.498  0.00  0.00     0.284 C 
ATOM      9  H3  UNL d   1       0.839   0.644  -3.740  0.00  0.00     0.395 HD
ENDBRANCH   1   7
TORSDOF 1
ENDMDL
