MODEL 1
REMARK minimizedAffinity 4.86035872
REMARK minimizedRMSD -1
REMARK  0 active torsions:
REMARK  status: ('A' for Active; 'I' for Inactive)
ROOT
ATOM      1  C   UNL d   1       5.003   2.727   3.019  0.00  0.00     0.172 C 
ATOM      2  N   UNL d   1       4.827   3.501   4.226  0.00  0.00    -0.070 N 
ATOM      3  C1  UNL d   1       5.808   4.204   4.873  0.00  0.00    -0.004 A 
ATOM      4  C2  UNL d   1       5.239   4.804   5.976  0.00  0.00    -0.047 A 
ATOM      5  C3  UNL d   1       3.870   4.448   5.993  0.00  0.00    -0.047 A 
ATOM      6  C4  UNL d   1       3.642   3.641   4.898  0.00  0.00    -0.004 A 
ENDROOT
TORSDOF 0
ENDMDL
