MODEL 1
REMARK minimizedAffinity 0.0657425672
REMARK minimizedRMSD -1
REMARK  0 active torsions:
REMARK  status: ('A' for Active; 'I' for Inactive)
ROOT
ATOM      1  C   UNL d   1       2.507   5.999   5.914  0.00  0.00     0.172 C 
ATOM      2  N   UNL d   1       3.795   5.347   5.940  0.00  0.00    -0.070 N 
ATOM      3  C1  UNL d   1       4.005   3.994   5.988  0.00  0.00    -0.004 A 
ATOM      4  C2  UNL d   1       5.366   3.778   5.999  0.00  0.00    -0.047 A 
ATOM      5  C3  UNL d   1       5.996   5.044   5.958  0.00  0.00    -0.047 A 
ATOM      6  C4  UNL d   1       5.001   5.998   5.922  0.00  0.00    -0.004 A 
ENDROOT
TORSDOF 0
ENDMDL
