MODEL 1
REMARK minimizedAffinity 8.43519688
REMARK minimizedRMSD -1
REMARK  0 active torsions:
REMARK  status: ('A' for Active; 'I' for Inactive)
ROOT
ATOM      1  C   UNL d   1      -1.196  -4.610  -1.206  0.00  0.00     0.172 C 
ATOM      2  N   UNL d   1      -1.657  -3.267  -1.468  0.00  0.00    -0.070 N 
ATOM      3  C1  UNL d   1      -2.292  -2.451  -0.570  0.00  0.00    -0.004 A 
ATOM      4  C2  UNL d   1      -2.566  -1.259  -1.203  0.00  0.00    -0.047 A 
ATOM      5  C3  UNL d   1      -2.082  -1.362  -2.529  0.00  0.00    -0.047 A 
ATOM      6  C4  UNL d   1      -1.524  -2.616  -2.666  0.00  0.00    -0.004 A 
ENDROOT
TORSDOF 0
ENDMDL
