MODEL 1
REMARK minimizedAffinity 1.94312835
REMARK minimizedRMSD -1
REMARK  0 active torsions:
REMARK  status: ('A' for Active; 'I' for Inactive)
ROOT
ATOM      1  C   UNL d   1       4.597   2.378   5.957  0.00  0.00     0.172 C 
ATOM      2  N   UNL d   1       4.782   3.810   5.974  0.00  0.00    -0.070 N 
ATOM      3  C1  UNL d   1       3.781   4.745   5.982  0.00  0.00    -0.004 A 
ATOM      4  C2  UNL d   1       4.368   5.992   5.999  0.00  0.00    -0.047 A 
ATOM      5  C3  UNL d   1       5.770   5.800   5.999  0.00  0.00    -0.047 A 
ATOM      6  C4  UNL d   1       5.999   4.440   5.984  0.00  0.00    -0.004 A 
ENDROOT
TORSDOF 0
ENDMDL
