MODEL 1
REMARK minimizedAffinity 6.22155619
REMARK minimizedRMSD -1
REMARK  0 active torsions:
REMARK  status: ('A' for Active; 'I' for Inactive)
ROOT
ATOM      1  C   UNL d   1       4.158   2.413   5.760  0.00  0.00     0.172 C 
ATOM      2  N   UNL d   1       4.607   3.783   5.850  0.00  0.00    -0.070 N 
ATOM      3  C1  UNL d   1       5.912   4.196   5.873  0.00  0.00    -0.004 A 
ATOM      4  C2  UNL d   1       5.918   5.571   5.965  0.00  0.00    -0.047 A 
ATOM      5  C3  UNL d   1       4.570   5.999   6.000  0.00  0.00    -0.047 A 
ATOM      6  C4  UNL d   1       3.779   4.872   5.927  0.00  0.00    -0.004 A 
ENDROOT
TORSDOF 0
ENDMDL
