MODEL 1
REMARK minimizedAffinity 10.500598
REMARK minimizedRMSD -1
REMARK  0 active torsions:
REMARK  status: ('A' for Active; 'I' for Inactive)
ROOT
ATOM      1  C   UNL d   1       5.409  -0.791  -2.670  0.00  0.00     0.172 C 
ATOM      2  N   UNL d   1       4.282  -0.132  -2.052  0.00  0.00    -0.070 N 
ATOM      3  C1  UNL d   1       3.340  -0.736  -1.263  0.00  0.00    -0.004 A 
ATOM      4  C2  UNL d   1       2.437   0.229  -0.871  0.00  0.00    -0.047 A 
ATOM      5  C3  UNL d   1       2.851   1.455  -1.445  0.00  0.00    -0.047 A 
ATOM      6  C4  UNL d   1       3.996   1.202  -2.171  0.00  0.00    -0.004 A 
ENDROOT
TORSDOF 0
ENDMDL
