MODEL 1
REMARK minimizedAffinity 2.20540619
REMARK minimizedRMSD -1
REMARK  0 active torsions:
REMARK  status: ('A' for Active; 'I' for Inactive)
ROOT
ATOM      1  C   UNL d   1       5.998   3.377   3.740  0.00  0.00     0.172 C 
ATOM      2  N   UNL d   1       5.127   4.072   4.659  0.00  0.00    -0.070 N 
ATOM      3  C1  UNL d   1       5.336   5.329   5.161  0.00  0.00    -0.004 A 
ATOM      4  C2  UNL d   1       4.283   5.629   5.998  0.00  0.00    -0.047 A 
ATOM      5  C3  UNL d   1       3.412   4.514   6.000  0.00  0.00    -0.047 A 
ATOM      6  C4  UNL d   1       3.959   3.564   5.163  0.00  0.00    -0.004 A 
ENDROOT
TORSDOF 0
ENDMDL
