MODEL 1
REMARK minimizedAffinity 2.81300116
REMARK minimizedRMSD -1
REMARK  0 active torsions:
REMARK  status: ('A' for Active; 'I' for Inactive)
ROOT
ATOM      1  C   UNL d   1       2.263   5.596   5.998  0.00  0.00     0.172 C 
ATOM      2  N   UNL d   1       3.477   4.814   5.995  0.00  0.00    -0.070 N 
ATOM      3  C1  UNL d   1       3.546   3.447   5.992  0.00  0.00    -0.004 A 
ATOM      4  C2  UNL d   1       4.877   3.091   5.989  0.00  0.00    -0.047 A 
ATOM      5  C3  UNL d   1       5.635   4.286   5.992  0.00  0.00    -0.047 A 
ATOM      6  C4  UNL d   1       4.743   5.338   5.996  0.00  0.00    -0.004 A 
ENDROOT
TORSDOF 0
ENDMDL
