MODEL 1
REMARK minimizedAffinity 0.0462493896
REMARK minimizedRMSD -1
REMARK  0 active torsions:
REMARK  status: ('A' for Active; 'I' for Inactive)
ROOT
ATOM      1  C   UNL d   1       3.865   2.476   5.975  0.00  0.00     0.172 C 
ATOM      2  N   UNL d   1       4.468   3.787   5.974  0.00  0.00    -0.070 N 
ATOM      3  C1  UNL d   1       5.813   4.048   5.951  0.00  0.00    -0.004 A 
ATOM      4  C2  UNL d   1       5.978   5.416   5.958  0.00  0.00    -0.047 A 
ATOM      5  C3  UNL d   1       4.688   5.998   5.986  0.00  0.00    -0.047 A 
ATOM      6  C4  UNL d   1       3.772   4.967   5.995  0.00  0.00    -0.004 A 
ENDROOT
TORSDOF 0
ENDMDL
