MODEL 1
REMARK minimizedAffinity 2.10749745
REMARK minimizedRMSD -1
REMARK  0 active torsions:
REMARK  status: ('A' for Active; 'I' for Inactive)
ROOT
ATOM      1  C   UNL d   1       4.025   2.402   5.890  0.00  0.00     0.172 C 
ATOM      2  N   UNL d   1       4.455   3.780   5.918  0.00  0.00    -0.070 N 
ATOM      3  C1  UNL d   1       3.633   4.872   5.999  0.00  0.00    -0.004 A 
ATOM      4  C2  UNL d   1       4.427   5.999   6.000  0.00  0.00    -0.047 A 
ATOM      5  C3  UNL d   1       5.772   5.569   5.916  0.00  0.00    -0.047 A 
ATOM      6  C4  UNL d   1       5.761   4.192   5.866  0.00  0.00    -0.004 A 
ENDROOT
TORSDOF 0
ENDMDL
