MODEL 1
REMARK minimizedAffinity 2.97798657
REMARK minimizedRMSD -1
REMARK  0 active torsions:
REMARK  status: ('A' for Active; 'I' for Inactive)
ROOT
ATOM      1  C   UNL d   1       6.000   5.999   5.853  0.00  0.00     0.172 C 
ATOM      2  N   UNL d   1       5.290   4.742   5.893  0.00  0.00    -0.070 N 
ATOM      3  C1  UNL d   1       3.930   4.591   5.840  0.00  0.00    -0.004 A 
ATOM      4  C2  UNL d   1       3.652   3.243   5.904  0.00  0.00    -0.047 A 
ATOM      5  C3  UNL d   1       4.888   2.560   6.000  0.00  0.00    -0.047 A 
ATOM      6  C4  UNL d   1       5.885   3.512   5.991  0.00  0.00    -0.004 A 
ENDROOT
TORSDOF 0
ENDMDL
