MODEL 1
REMARK minimizedAffinity 0.807624578
REMARK minimizedRMSD -1
REMARK  0 active torsions:
REMARK  status: ('A' for Active; 'I' for Inactive)
ROOT
ATOM      1  C   UNL d   1       3.861   2.428   5.997  0.00  0.00     0.172 C 
ATOM      2  N   UNL d   1       4.463   3.740   5.971  0.00  0.00    -0.070 N 
ATOM      3  C1  UNL d   1       3.786   4.930   6.000  0.00  0.00    -0.004 A 
ATOM      4  C2  UNL d   1       4.716   5.946   5.960  0.00  0.00    -0.047 A 
ATOM      5  C3  UNL d   1       5.996   5.347   5.904  0.00  0.00    -0.047 A 
ATOM      6  C4  UNL d   1       5.810   3.980   5.912  0.00  0.00    -0.004 A 
ENDROOT
TORSDOF 0
ENDMDL
