MODEL 1
REMARK minimizedAffinity 4.0823617
REMARK minimizedRMSD -1
REMARK  0 active torsions:
REMARK  status: ('A' for Active; 'I' for Inactive)
ROOT
ATOM      1  C   UNL d   1       2.382   5.299   5.976  0.00  0.00     0.172 C 
ATOM      2  N   UNL d   1       3.798   5.017   5.947  0.00  0.00    -0.070 N 
ATOM      3  C1  UNL d   1       4.363   3.771   5.879  0.00  0.00    -0.004 A 
ATOM      4  C2  UNL d   1       5.732   3.928   5.872  0.00  0.00    -0.047 A 
ATOM      5  C3  UNL d   1       6.000   5.316   5.940  0.00  0.00    -0.047 A 
ATOM      6  C4  UNL d   1       4.785   5.967   5.985  0.00  0.00    -0.004 A 
ENDROOT
TORSDOF 0
ENDMDL
