MODEL 1
REMARK minimizedAffinity 3.03308129
REMARK minimizedRMSD -1
REMARK  0 active torsions:
REMARK  status: ('A' for Active; 'I' for Inactive)
ROOT
ATOM      1  C   UNL d   1       2.384   5.148   5.990  0.00  0.00     0.172 C 
ATOM      2  N   UNL d   1       3.817   4.984   5.910  0.00  0.00    -0.070 N 
ATOM      3  C1  UNL d   1       4.736   5.998   5.875  0.00  0.00    -0.004 A 
ATOM      4  C2  UNL d   1       5.989   5.430   5.799  0.00  0.00    -0.047 A 
ATOM      5  C3  UNL d   1       5.817   4.026   5.787  0.00  0.00    -0.047 A 
ATOM      6  C4  UNL d   1       4.463   3.777   5.856  0.00  0.00    -0.004 A 
ENDROOT
TORSDOF 0
ENDMDL
