MODEL 1
REMARK minimizedAffinity 2.08929443
REMARK minimizedRMSD -1
REMARK  0 active torsions:
REMARK  status: ('A' for Active; 'I' for Inactive)
ROOT
ATOM      1  C   UNL d   1       4.113   1.883   5.554  0.00  0.00     0.172 C 
ATOM      2  N   UNL d   1       4.605   3.233   5.696  0.00  0.00    -0.070 N 
ATOM      3  C1  UNL d   1       3.837   4.343   5.929  0.00  0.00    -0.004 A 
ATOM      4  C2  UNL d   1       4.679   5.432   5.999  0.00  0.00    -0.047 A 
ATOM      5  C3  UNL d   1       5.998   4.961   5.800  0.00  0.00    -0.047 A 
ATOM      6  C4  UNL d   1       5.924   3.596   5.615  0.00  0.00    -0.004 A 
ENDROOT
TORSDOF 0
ENDMDL
