MODEL 1
REMARK minimizedAffinity 5.90469885
REMARK minimizedRMSD -1
REMARK  1 active torsions:
REMARK  status: ('A' for Active; 'I' for Inactive)
REMARK    1  A    between atoms: C3_4  and  O_7 
ROOT
ATOM      1  C   UNL d   1      -2.271  -1.386   0.144  0.00  0.00    -0.033 A 
ATOM      2  C1  UNL d   1      -1.152  -1.877  -0.532  0.00  0.00     0.039 A 
ATOM      3  C2  UNL d   1      -0.503  -3.024  -0.071  0.00  0.00    -0.080 A 
ATOM      4  C3  UNL d   1      -0.983  -3.671   1.065  0.00  0.00     0.150 A 
ATOM      5  C4  UNL d   1      -2.099  -3.190   1.741  0.00  0.00    -0.007 A 
ATOM      6  C5  UNL d   1      -2.746  -2.044   1.280  0.00  0.00     0.039 A 
ENDROOT
BRANCH   4   7
ATOM      7  O   UNL d   1      -0.380  -4.791   1.555  0.00  0.00    -0.526 OA
ATOM      8  H5  UNL d   1       0.395  -4.990   1.003  0.00  0.00     0.418 HD
ENDBRANCH   4   7
TORSDOF 1
ENDMDL
