MODEL 1
REMARK minimizedAffinity 6.87875652
REMARK minimizedRMSD -1
REMARK  1 active torsions:
REMARK  status: ('A' for Active; 'I' for Inactive)
REMARK    1  A    between atoms: C3_4  and  O_7 
ROOT
ATOM      1  C   UNL d   1      -2.269  -0.966   0.938  0.00  0.00    -0.033 A 
ATOM      2  C1  UNL d   1      -1.959  -1.244   2.271  0.00  0.00     0.039 A 
ATOM      3  C2  UNL d   1      -1.021  -2.231   2.579  0.00  0.00    -0.080 A 
ATOM      4  C3  UNL d   1      -0.401  -2.931   1.547  0.00  0.00     0.150 A 
ATOM      5  C4  UNL d   1      -0.702  -2.656   0.218  0.00  0.00    -0.007 A 
ATOM      6  C5  UNL d   1      -1.640  -1.670  -0.088  0.00  0.00     0.039 A 
ENDROOT
BRANCH   4   7
ATOM      7  O   UNL d   1       0.518  -3.906   1.799  0.00  0.00    -0.526 OA
ATOM      8  H5  UNL d   1       0.604  -4.007   2.762  0.00  0.00     0.418 HD
ENDBRANCH   4   7
TORSDOF 1
ENDMDL
