MODEL 1
REMARK minimizedAffinity 1.95670021
REMARK minimizedRMSD -1
REMARK  1 active torsions:
REMARK  status: ('A' for Active; 'I' for Inactive)
REMARK    1  A    between atoms: C3_4  and  O_7 
ROOT
ATOM      1  C   UNL d   1      -1.382  -1.859   0.831  0.00  0.00    -0.033 A 
ATOM      2  C1  UNL d   1      -1.031  -2.936   0.015  0.00  0.00     0.039 A 
ATOM      3  C2  UNL d   1      -0.851  -4.205   0.569  0.00  0.00    -0.080 A 
ATOM      4  C3  UNL d   1      -1.025  -4.383   1.939  0.00  0.00     0.150 A 
ATOM      5  C4  UNL d   1      -1.378  -3.316   2.757  0.00  0.00    -0.007 A 
ATOM      6  C5  UNL d   1      -1.557  -2.049   2.202  0.00  0.00     0.039 A 
ENDROOT
BRANCH   4   7
ATOM      7  O   UNL d   1      -0.855  -5.602   2.526  0.00  0.00    -0.526 OA
ATOM      8  H5  UNL d   1      -0.585  -6.238   1.843  0.00  0.00     0.418 HD
ENDBRANCH   4   7
TORSDOF 1
ENDMDL
