MODEL 1
REMARK minimizedAffinity 6.33677912
REMARK minimizedRMSD -1
REMARK  1 active torsions:
REMARK  status: ('A' for Active; 'I' for Inactive)
REMARK    1  A    between atoms: C3_4  and  O_7 
ROOT
ATOM      1  C   UNL d   1      -1.005  -2.796   1.985  0.00  0.00    -0.033 A 
ATOM      2  C1  UNL d   1      -1.017  -2.103   0.773  0.00  0.00     0.039 A 
ATOM      3  C2  UNL d   1      -1.229  -0.723   0.759  0.00  0.00    -0.080 A 
ATOM      4  C3  UNL d   1      -1.426  -0.049   1.961  0.00  0.00     0.150 A 
ATOM      5  C4  UNL d   1      -1.412  -0.733   3.172  0.00  0.00    -0.007 A 
ATOM      6  C5  UNL d   1      -1.201  -2.111   3.185  0.00  0.00     0.039 A 
ENDROOT
BRANCH   4   7
ATOM      7  O   UNL d   1      -1.641   1.297   1.996  0.00  0.00    -0.526 OA
ATOM      8  H5  UNL d   1      -1.653   1.631   1.084  0.00  0.00     0.418 HD
ENDBRANCH   4   7
TORSDOF 1
ENDMDL
