MODEL 1
REMARK minimizedAffinity 3.26225066
REMARK minimizedRMSD -1
REMARK  1 active torsions:
REMARK  status: ('A' for Active; 'I' for Inactive)
REMARK    1  A    between atoms: C3_4  and  O_7 
ROOT
ATOM      1  C   UNL d   1      -1.954  -1.193   1.462  0.00  0.00    -0.033 A 
ATOM      2  C1  UNL d   1      -1.970  -2.080   2.540  0.00  0.00     0.039 A 
ATOM      3  C2  UNL d   1      -1.370  -3.336   2.422  0.00  0.00    -0.080 A 
ATOM      4  C3  UNL d   1      -0.759  -3.691   1.223  0.00  0.00     0.150 A 
ATOM      5  C4  UNL d   1      -0.737  -2.811   0.146  0.00  0.00    -0.007 A 
ATOM      6  C5  UNL d   1      -1.336  -1.558   0.265  0.00  0.00     0.039 A 
ENDROOT
BRANCH   4   7
ATOM      7  O   UNL d   1      -0.166  -4.907   1.058  0.00  0.00    -0.526 OA
ATOM      8  H5  UNL d   1      -0.284  -5.420   1.875  0.00  0.00     0.418 HD
ENDBRANCH   4   7
TORSDOF 1
ENDMDL
