MODEL 1
REMARK minimizedAffinity 6.35404015
REMARK minimizedRMSD -1
REMARK  1 active torsions:
REMARK  status: ('A' for Active; 'I' for Inactive)
REMARK    1  A    between atoms: C3_4  and  O_7 
ROOT
ATOM      1  C   UNL d   1      -1.404  -3.342   1.485  0.00  0.00    -0.033 A 
ATOM      2  C1  UNL d   1      -1.169  -2.325   0.557  0.00  0.00     0.039 A 
ATOM      3  C2  UNL d   1      -1.054  -1.001   0.983  0.00  0.00    -0.080 A 
ATOM      4  C3  UNL d   1      -1.175  -0.706   2.338  0.00  0.00     0.150 A 
ATOM      5  C4  UNL d   1      -1.405  -1.714   3.269  0.00  0.00    -0.007 A 
ATOM      6  C5  UNL d   1      -1.520  -3.036   2.841  0.00  0.00     0.039 A 
ENDROOT
BRANCH   4   7
ATOM      7  O   UNL d   1      -1.075   0.572   2.801  0.00  0.00    -0.526 OA
ATOM      8  H5  UNL d   1      -0.945   1.165   2.042  0.00  0.00     0.418 HD
ENDBRANCH   4   7
TORSDOF 1
ENDMDL
