MODEL 1
REMARK minimizedAffinity -1.00841975
REMARK minimizedRMSD -1
REMARK  1 active torsions:
REMARK  status: ('A' for Active; 'I' for Inactive)
REMARK    1  A    between atoms: C3_4  and  O_7 
ROOT
ATOM      1  C   UNL d   1      -1.190  -1.750   1.632  0.00  0.00    -0.033 A 
ATOM      2  C1  UNL d   1      -1.920  -1.734   0.442  0.00  0.00     0.039 A 
ATOM      3  C2  UNL d   1      -1.990  -2.881  -0.352  0.00  0.00    -0.080 A 
ATOM      4  C3  UNL d   1      -1.327  -4.035   0.056  0.00  0.00     0.150 A 
ATOM      5  C4  UNL d   1      -0.602  -4.059   1.242  0.00  0.00    -0.007 A 
ATOM      6  C5  UNL d   1      -0.532  -2.913   2.033  0.00  0.00     0.039 A 
ENDROOT
BRANCH   4   7
ATOM      7  O   UNL d   1      -1.363  -5.177  -0.687  0.00  0.00    -0.526 OA
ATOM      8  H5  UNL d   1      -1.877  -5.004  -1.493  0.00  0.00     0.418 HD
ENDBRANCH   4   7
TORSDOF 1
ENDMDL
