MODEL 1
REMARK minimizedAffinity 5.43678665
REMARK minimizedRMSD -1
REMARK  1 active torsions:
REMARK  status: ('A' for Active; 'I' for Inactive)
REMARK    1  A    between atoms: C3_4  and  O_7 
ROOT
ATOM      1  C   UNL d   1      -1.842  -1.582   1.949  0.00  0.00    -0.033 A 
ATOM      2  C1  UNL d   1      -2.675  -1.885   0.870  0.00  0.00     0.039 A 
ATOM      3  C2  UNL d   1      -2.401  -2.992   0.064  0.00  0.00    -0.080 A 
ATOM      4  C3  UNL d   1      -1.295  -3.788   0.349  0.00  0.00     0.150 A 
ATOM      5  C4  UNL d   1      -0.463  -3.494   1.425  0.00  0.00    -0.007 A 
ATOM      6  C5  UNL d   1      -0.737  -2.387   2.227  0.00  0.00     0.039 A 
ENDROOT
BRANCH   4   7
ATOM      7  O   UNL d   1      -0.985  -4.876  -0.412  0.00  0.00    -0.526 OA
ATOM      8  H5  UNL d   1      -1.630  -4.939  -1.136  0.00  0.00     0.418 HD
ENDBRANCH   4   7
TORSDOF 1
ENDMDL
