MODEL 1
REMARK minimizedAffinity 10.978694
REMARK minimizedRMSD -1
REMARK  1 active torsions:
REMARK  status: ('A' for Active; 'I' for Inactive)
REMARK    1  A    between atoms: C3_4  and  O_7 
ROOT
ATOM      1  C   UNL d   1       5.999   0.179  -3.949  0.00  0.00    -0.033 A 
ATOM      2  C1  UNL d   1       5.145   1.250  -3.678  0.00  0.00     0.039 A 
ATOM      3  C2  UNL d   1       3.904   1.022  -3.079  0.00  0.00    -0.080 A 
ATOM      4  C3  UNL d   1       3.530  -0.279  -2.757  0.00  0.00     0.150 A 
ATOM      5  C4  UNL d   1       4.377  -1.351  -3.020  0.00  0.00    -0.007 A 
ATOM      6  C5  UNL d   1       5.615  -1.122  -3.619  0.00  0.00     0.039 A 
ENDROOT
BRANCH   4   7
ATOM      7  O   UNL d   1       2.327  -0.552  -2.176  0.00  0.00    -0.526 OA
ATOM      8  H5  UNL d   1       1.836   0.282  -2.080  0.00  0.00     0.418 HD
ENDBRANCH   4   7
TORSDOF 1
ENDMDL
