MODEL 1
REMARK minimizedAffinity 8.32971478
REMARK minimizedRMSD -1
REMARK  1 active torsions:
REMARK  status: ('A' for Active; 'I' for Inactive)
REMARK    1  A    between atoms: C3_4  and  O_7 
ROOT
ATOM      1  C   UNL d   1      -5.661   5.991  -5.297  0.00  0.00    -0.033 A 
ATOM      2  C1  UNL d   1      -5.980   4.817  -5.983  0.00  0.00     0.039 A 
ATOM      3  C2  UNL d   1      -5.247   3.651  -5.754  0.00  0.00    -0.080 A 
ATOM      4  C3  UNL d   1      -4.199   3.672  -4.838  0.00  0.00     0.150 A 
ATOM      5  C4  UNL d   1      -3.878   4.836  -4.148  0.00  0.00    -0.007 A 
ATOM      6  C5  UNL d   1      -4.611   6.000  -4.378  0.00  0.00     0.039 A 
ENDROOT
BRANCH   4   7
ATOM      7  O   UNL d   1      -3.452   2.560  -4.584  0.00  0.00    -0.526 OA
ATOM      8  H5  UNL d   1      -3.770   1.840  -5.154  0.00  0.00     0.418 HD
ENDBRANCH   4   7
TORSDOF 1
ENDMDL
