MODEL 1
REMARK minimizedAffinity 1.10742009
REMARK minimizedRMSD -1
REMARK  1 active torsions:
REMARK  status: ('A' for Active; 'I' for Inactive)
REMARK    1  A    between atoms: C3_4  and  O_7 
ROOT
ATOM      1  C   UNL d   1      -2.327  -1.893  -1.445  0.00  0.00    -0.033 A 
ATOM      2  C1  UNL d   1      -2.421  -1.453  -0.123  0.00  0.00     0.039 A 
ATOM      3  C2  UNL d   1      -1.775  -2.156   0.896  0.00  0.00    -0.080 A 
ATOM      4  C3  UNL d   1      -1.039  -3.295   0.580  0.00  0.00     0.150 A 
ATOM      5  C4  UNL d   1      -0.939  -3.737  -0.735  0.00  0.00    -0.007 A 
ATOM      6  C5  UNL d   1      -1.585  -3.034  -1.751  0.00  0.00     0.039 A 
ENDROOT
BRANCH   4   7
ATOM      7  O   UNL d   1      -0.396  -4.016   1.542  0.00  0.00    -0.526 OA
ATOM      8  H5  UNL d   1      -0.578  -3.610   2.405  0.00  0.00     0.418 HD
ENDBRANCH   4   7
TORSDOF 1
ENDMDL
