MODEL 1
REMARK minimizedAffinity 1.69234598
REMARK minimizedRMSD -1
REMARK  1 active torsions:
REMARK  status: ('A' for Active; 'I' for Inactive)
REMARK    1  A    between atoms: C3_4  and  O_7 
ROOT
ATOM      1  C   UNL d   1      -1.509  -2.622   2.234  0.00  0.00    -0.033 A 
ATOM      2  C1  UNL d   1      -2.457  -1.709   1.766  0.00  0.00     0.039 A 
ATOM      3  C2  UNL d   1      -2.669  -1.562   0.393  0.00  0.00    -0.080 A 
ATOM      4  C3  UNL d   1      -1.929  -2.333  -0.499  0.00  0.00     0.150 A 
ATOM      5  C4  UNL d   1      -0.986  -3.247  -0.039  0.00  0.00    -0.007 A 
ATOM      6  C5  UNL d   1      -0.775  -3.392   1.331  0.00  0.00     0.039 A 
ENDROOT
BRANCH   4   7
ATOM      7  O   UNL d   1      -2.097  -2.222  -1.847  0.00  0.00    -0.526 OA
ATOM      8  H5  UNL d   1      -2.760  -1.532  -2.018  0.00  0.00     0.418 HD
ENDBRANCH   4   7
TORSDOF 1
ENDMDL
