MODEL 1
REMARK minimizedAffinity 6.11874104
REMARK minimizedRMSD -1
REMARK  1 active torsions:
REMARK  status: ('A' for Active; 'I' for Inactive)
REMARK    1  A    between atoms: C3_4  and  O_7 
ROOT
ATOM      1  C   UNL d   1      -1.317  -0.480   1.618  0.00  0.00    -0.033 A 
ATOM      2  C1  UNL d   1      -1.090  -1.259   2.754  0.00  0.00     0.039 A 
ATOM      3  C2  UNL d   1      -0.762  -2.610   2.623  0.00  0.00    -0.080 A 
ATOM      4  C3  UNL d   1      -0.663  -3.169   1.352  0.00  0.00     0.150 A 
ATOM      5  C4  UNL d   1      -0.884  -2.398   0.215  0.00  0.00    -0.007 A 
ATOM      6  C5  UNL d   1      -1.212  -1.049   0.348  0.00  0.00     0.039 A 
ENDROOT
BRANCH   4   7
ATOM      7  O   UNL d   1      -0.351  -4.484   1.174  0.00  0.00    -0.526 OA
ATOM      8  H5  UNL d   1      -0.254  -4.898   2.047  0.00  0.00     0.418 HD
ENDBRANCH   4   7
TORSDOF 1
ENDMDL
