MODEL 1
REMARK minimizedAffinity 6.46063757
REMARK minimizedRMSD -1
REMARK  1 active torsions:
REMARK  status: ('A' for Active; 'I' for Inactive)
REMARK    1  A    between atoms: C3_4  and  O_7 
ROOT
ATOM      1  C   UNL d   1       4.128   1.415   5.997  0.00  0.00    -0.033 A 
ATOM      2  C1  UNL d   1       4.187   2.704   5.464  0.00  0.00     0.039 A 
ATOM      3  C2  UNL d   1       4.425   2.887   4.100  0.00  0.00    -0.080 A 
ATOM      4  C3  UNL d   1       4.603   1.775   3.282  0.00  0.00     0.150 A 
ATOM      5  C4  UNL d   1       4.542   0.488   3.805  0.00  0.00    -0.007 A 
ATOM      6  C5  UNL d   1       4.304   0.307   5.167  0.00  0.00     0.039 A 
ENDROOT
BRANCH   4   7
ATOM      7  O   UNL d   1       4.843   1.904   1.946  0.00  0.00    -0.526 OA
ATOM      8  H5  UNL d   1       4.887   2.851   1.732  0.00  0.00     0.418 HD
ENDBRANCH   4   7
TORSDOF 1
ENDMDL
