MODEL 1
REMARK minimizedAffinity 5.74545145
REMARK minimizedRMSD -1
REMARK  1 active torsions:
REMARK  status: ('A' for Active; 'I' for Inactive)
REMARK    1  A    between atoms: C3_4  and  O_7 
ROOT
ATOM      1  C   UNL d   1      -0.776  -2.901   1.056  0.00  0.00    -0.033 A 
ATOM      2  C1  UNL d   1      -0.665  -3.343   2.375  0.00  0.00     0.039 A 
ATOM      3  C2  UNL d   1      -0.867  -2.451   3.431  0.00  0.00    -0.080 A 
ATOM      4  C3  UNL d   1      -1.180  -1.124   3.154  0.00  0.00     0.150 A 
ATOM      5  C4  UNL d   1      -1.296  -0.677   1.842  0.00  0.00    -0.007 A 
ATOM      6  C5  UNL d   1      -1.093  -1.568   0.789  0.00  0.00     0.039 A 
ENDROOT
BRANCH   4   7
ATOM      7  O   UNL d   1      -1.381  -0.216   4.151  0.00  0.00    -0.526 OA
ATOM      8  H5  UNL d   1      -1.240  -0.660   5.004  0.00  0.00     0.418 HD
ENDBRANCH   4   7
TORSDOF 1
ENDMDL
