MODEL 1
REMARK minimizedAffinity 0.321432829
REMARK minimizedRMSD -1
REMARK  1 active torsions:
REMARK  status: ('A' for Active; 'I' for Inactive)
REMARK    1  A    between atoms: C3_4  and  O_7 
ROOT
ATOM      1  C   UNL d   1      -5.491   1.871   5.996  0.00  0.00    -0.033 A 
ATOM      2  C1  UNL d   1      -5.973   0.560   5.999  0.00  0.00     0.039 A 
ATOM      3  C2  UNL d   1      -5.081  -0.514   5.990  0.00  0.00    -0.080 A 
ATOM      4  C3  UNL d   1      -3.711  -0.264   5.981  0.00  0.00     0.150 A 
ATOM      5  C4  UNL d   1      -3.224   1.039   5.982  0.00  0.00    -0.007 A 
ATOM      6  C5  UNL d   1      -4.116   2.110   5.989  0.00  0.00     0.039 A 
ENDROOT
BRANCH   4   7
ATOM      7  O   UNL d   1      -2.802  -1.280   5.968  0.00  0.00    -0.526 OA
ATOM      8  H5  UNL d   1      -3.283  -2.124   5.939  0.00  0.00     0.418 HD
ENDBRANCH   4   7
TORSDOF 1
ENDMDL
