MODEL 1
REMARK minimizedAffinity -5.00415707
REMARK minimizedRMSD -1
REMARK  1 active torsions:
REMARK  status: ('A' for Active; 'I' for Inactive)
REMARK    1  A    between atoms: C3_4  and  O_7 
ROOT
ATOM      1  C   UNL d   1      -1.745   2.003   1.299  0.00  0.00    -0.033 A 
ATOM      2  C1  UNL d   1      -0.905   1.211   2.085  0.00  0.00     0.039 A 
ATOM      3  C2  UNL d   1      -0.117   0.224   1.491  0.00  0.00    -0.080 A 
ATOM      4  C3  UNL d   1      -0.177   0.040   0.112  0.00  0.00     0.150 A 
ATOM      5  C4  UNL d   1      -1.008   0.827  -0.677  0.00  0.00    -0.007 A 
ATOM      6  C5  UNL d   1      -1.796   1.812  -0.082  0.00  0.00     0.039 A 
ENDROOT
BRANCH   4   7
ATOM      7  O   UNL d   1       0.570  -0.915  -0.512  0.00  0.00    -0.526 OA
ATOM      8  H5  UNL d   1       1.074  -1.400   0.161  0.00  0.00     0.418 HD
ENDBRANCH   4   7
TORSDOF 1
ENDMDL
