MODEL 1
REMARK minimizedAffinity 1.08193398
REMARK minimizedRMSD -1
REMARK  1 active torsions:
REMARK  status: ('A' for Active; 'I' for Inactive)
REMARK    1  A    between atoms: C3_4  and  O_7 
ROOT
ATOM      1  C   UNL d   1       0.179  -0.658   0.368  0.00  0.00    -0.033 A 
ATOM      2  C1  UNL d   1      -0.620   0.486   0.324  0.00  0.00     0.039 A 
ATOM      3  C2  UNL d   1      -0.228   1.584  -0.445  0.00  0.00    -0.080 A 
ATOM      4  C3  UNL d   1       0.962   1.524  -1.165  0.00  0.00     0.150 A 
ATOM      5  C4  UNL d   1       1.761   0.386  -1.129  0.00  0.00    -0.007 A 
ATOM      6  C5  UNL d   1       1.369  -0.708  -0.359  0.00  0.00     0.039 A 
ENDROOT
BRANCH   4   7
ATOM      7  O   UNL d   1       1.388   2.572  -1.926  0.00  0.00    -0.526 OA
ATOM      8  H5  UNL d   1       0.750   3.300  -1.833  0.00  0.00     0.418 HD
ENDBRANCH   4   7
TORSDOF 1
ENDMDL
