MODEL 1
REMARK minimizedAffinity -2.97286487
REMARK minimizedRMSD -1
REMARK  1 active torsions:
REMARK  status: ('A' for Active; 'I' for Inactive)
REMARK    1  A    between atoms: C3_4  and  O_7 
ROOT
ATOM      1  C   UNL d   1       0.512  -1.140  -1.186  0.00  0.00    -0.033 A 
ATOM      2  C1  UNL d   1       1.420  -0.694  -0.224  0.00  0.00     0.039 A 
ATOM      3  C2  UNL d   1       0.959  -0.069   0.936  0.00  0.00    -0.080 A 
ATOM      4  C3  UNL d   1      -0.410   0.103   1.122  0.00  0.00     0.150 A 
ATOM      5  C4  UNL d   1      -1.320  -0.343   0.169  0.00  0.00    -0.007 A 
ATOM      6  C5  UNL d   1      -0.858  -0.966  -0.989  0.00  0.00     0.039 A 
ENDROOT
BRANCH   4   7
ATOM      7  O   UNL d   1      -0.908   0.711   2.236  0.00  0.00    -0.526 OA
ATOM      8  H5  UNL d   1      -0.162   0.992   2.792  0.00  0.00     0.418 HD
ENDBRANCH   4   7
TORSDOF 1
ENDMDL
