MODEL 1
REMARK minimizedAffinity -4.0510664
REMARK minimizedRMSD -1
REMARK  1 active torsions:
REMARK  status: ('A' for Active; 'I' for Inactive)
REMARK    1  A    between atoms: C3_4  and  O_7 
ROOT
ATOM      1  C   UNL d   1       0.888  -2.302  -2.185  0.00  0.00    -0.033 A 
ATOM      2  C1  UNL d   1       0.027  -3.286  -2.676  0.00  0.00     0.039 A 
ATOM      3  C2  UNL d   1      -0.029  -4.537  -2.060  0.00  0.00    -0.080 A 
ATOM      4  C3  UNL d   1       0.779  -4.792  -0.955  0.00  0.00     0.150 A 
ATOM      5  C4  UNL d   1       1.636  -3.815  -0.458  0.00  0.00    -0.007 A 
ATOM      6  C5  UNL d   1       1.692  -2.566  -1.076  0.00  0.00     0.039 A 
ENDROOT
BRANCH   4   7
ATOM      7  O   UNL d   1       0.762  -6.000  -0.323  0.00  0.00    -0.526 OA
ATOM      8  H5  UNL d   1       0.145  -6.584  -0.793  0.00  0.00     0.418 HD
ENDBRANCH   4   7
TORSDOF 1
ENDMDL
