MODEL 1
REMARK minimizedAffinity -4.77288961
REMARK minimizedRMSD -1
REMARK  1 active torsions:
REMARK  status: ('A' for Active; 'I' for Inactive)
REMARK    1  A    between atoms: C3_4  and  O_7 
ROOT
ATOM      1  C   UNL d   1       1.495  -4.665   0.182  0.00  0.00    -0.033 A 
ATOM      2  C1  UNL d   1       2.006  -3.416  -0.177  0.00  0.00     0.039 A 
ATOM      3  C2  UNL d   1       1.350  -2.639  -1.134  0.00  0.00    -0.080 A 
ATOM      4  C3  UNL d   1       0.185  -3.122  -1.724  0.00  0.00     0.150 A 
ATOM      5  C4  UNL d   1      -0.332  -4.364  -1.369  0.00  0.00    -0.007 A 
ATOM      6  C5  UNL d   1       0.325  -5.138  -0.414  0.00  0.00     0.039 A 
ENDROOT
BRANCH   4   7
ATOM      7  O   UNL d   1      -0.488  -2.402  -2.666  0.00  0.00    -0.526 OA
ATOM      8  H5  UNL d   1       0.001  -1.579  -2.832  0.00  0.00     0.418 HD
ENDBRANCH   4   7
TORSDOF 1
ENDMDL
