MODEL 1
REMARK minimizedAffinity -1.98740721
REMARK minimizedRMSD -1
REMARK  1 active torsions:
REMARK  status: ('A' for Active; 'I' for Inactive)
REMARK    1  A    between atoms: C3_4  and  O_7 
ROOT
ATOM      1  C   UNL d   1       2.122  -5.353   0.547  0.00  0.00    -0.033 A 
ATOM      2  C1  UNL d   1       2.404  -4.005   0.314  0.00  0.00     0.039 A 
ATOM      3  C2  UNL d   1       1.701  -3.302  -0.665  0.00  0.00    -0.080 A 
ATOM      4  C3  UNL d   1       0.718  -3.956  -1.403  0.00  0.00     0.150 A 
ATOM      5  C4  UNL d   1       0.429  -5.297  -1.174  0.00  0.00    -0.007 A 
ATOM      6  C5  UNL d   1       1.133  -5.998  -0.196  0.00  0.00     0.039 A 
ENDROOT
BRANCH   4   7
ATOM      7  O   UNL d   1       0.008  -3.312  -2.373  0.00  0.00    -0.526 OA
ATOM      8  H5  UNL d   1       0.335  -2.400  -2.439  0.00  0.00     0.418 HD
ENDBRANCH   4   7
TORSDOF 1
ENDMDL
