MODEL 1
REMARK minimizedAffinity -3.37236094
REMARK minimizedRMSD -1
REMARK  1 active torsions:
REMARK  status: ('A' for Active; 'I' for Inactive)
REMARK    1  A    between atoms: C3_4  and  O_7 
ROOT
ATOM      1  C   UNL d   1      -2.012   2.098   1.835  0.00  0.00    -0.033 A 
ATOM      2  C1  UNL d   1      -2.180   1.936   0.458  0.00  0.00     0.039 A 
ATOM      3  C2  UNL d   1      -1.287   1.146  -0.268  0.00  0.00    -0.080 A 
ATOM      4  C3  UNL d   1      -0.232   0.524   0.394  0.00  0.00     0.150 A 
ATOM      5  C4  UNL d   1      -0.061   0.677   1.766  0.00  0.00    -0.007 A 
ATOM      6  C5  UNL d   1      -0.953   1.468   2.489  0.00  0.00     0.039 A 
ENDROOT
BRANCH   4   7
ATOM      7  O   UNL d   1       0.668  -0.253  -0.273  0.00  0.00    -0.526 OA
ATOM      8  H5  UNL d   1       0.441  -0.245  -1.218  0.00  0.00     0.418 HD
ENDBRANCH   4   7
TORSDOF 1
ENDMDL
