MODEL 1
REMARK minimizedAffinity -5.0755825
REMARK minimizedRMSD -1
REMARK  1 active torsions:
REMARK  status: ('A' for Active; 'I' for Inactive)
REMARK    1  A    between atoms: C3_4  and  O_7 
ROOT
ATOM      1  C   UNL d   1      -1.424   2.973   1.123  0.00  0.00    -0.033 A 
ATOM      2  C1  UNL d   1      -0.741   3.208  -0.072  0.00  0.00     0.039 A 
ATOM      3  C2  UNL d   1      -0.045   2.171  -0.696  0.00  0.00    -0.080 A 
ATOM      4  C3  UNL d   1      -0.041   0.905  -0.116  0.00  0.00     0.150 A 
ATOM      5  C4  UNL d   1      -0.722   0.663   1.072  0.00  0.00    -0.007 A 
ATOM      6  C5  UNL d   1      -1.416   1.701   1.694  0.00  0.00     0.039 A 
ENDROOT
BRANCH   4   7
ATOM      7  O   UNL d   1       0.628  -0.137  -0.685  0.00  0.00    -0.526 OA
ATOM      8  H5  UNL d   1       1.076   0.185  -1.486  0.00  0.00     0.418 HD
ENDBRANCH   4   7
TORSDOF 1
ENDMDL
