MODEL 1
REMARK minimizedAffinity -5.64489603
REMARK minimizedRMSD -1
REMARK  1 active torsions:
REMARK  status: ('A' for Active; 'I' for Inactive)
REMARK    1  A    between atoms: C3_4  and  O_7 
ROOT
ATOM      1  C   UNL d   1      -1.571   3.112   1.112  0.00  0.00    -0.033 A 
ATOM      2  C1  UNL d   1      -1.527   1.939   1.868  0.00  0.00     0.039 A 
ATOM      3  C2  UNL d   1      -0.779   0.847   1.422  0.00  0.00    -0.080 A 
ATOM      4  C3  UNL d   1      -0.080   0.942   0.222  0.00  0.00     0.150 A 
ATOM      5  C4  UNL d   1      -0.116   2.109  -0.534  0.00  0.00    -0.007 A 
ATOM      6  C5  UNL d   1      -0.864   3.198  -0.088  0.00  0.00     0.039 A 
ENDROOT
BRANCH   4   7
ATOM      7  O   UNL d   1       0.660  -0.098  -0.256  0.00  0.00    -0.526 OA
ATOM      8  H5  UNL d   1       0.568  -0.848   0.356  0.00  0.00     0.418 HD
ENDBRANCH   4   7
TORSDOF 1
ENDMDL
