MODEL 1
REMARK minimizedAffinity -2.49002409
REMARK minimizedRMSD -1
REMARK  1 active torsions:
REMARK  status: ('A' for Active; 'I' for Inactive)
REMARK    1  A    between atoms: C3_4  and  O_7 
ROOT
ATOM      1  C   UNL d   1      -1.398   1.589   2.554  0.00  0.00    -0.033 A 
ATOM      2  C1  UNL d   1      -2.475   2.016   1.775  0.00  0.00     0.039 A 
ATOM      3  C2  UNL d   1      -2.419   1.908   0.384  0.00  0.00    -0.080 A 
ATOM      4  C3  UNL d   1      -1.282   1.370  -0.214  0.00  0.00     0.150 A 
ATOM      5  C4  UNL d   1      -0.208   0.939   0.556  0.00  0.00    -0.007 A 
ATOM      6  C5  UNL d   1      -0.265   1.049   1.945  0.00  0.00     0.039 A 
ENDROOT
BRANCH   4   7
ATOM      7  O   UNL d   1      -1.180   1.249  -1.568  0.00  0.00    -0.526 OA
ATOM      8  H5  UNL d   1      -1.985   1.614  -1.972  0.00  0.00     0.418 HD
ENDBRANCH   4   7
TORSDOF 1
ENDMDL
