MODEL 1
REMARK minimizedAffinity 1.24482751
REMARK minimizedRMSD -1
REMARK  1 active torsions:
REMARK  status: ('A' for Active; 'I' for Inactive)
REMARK    1  A    between atoms: C3_4  and  O_7 
ROOT
ATOM      1  C   UNL d   1       0.664  -0.250  -0.449  0.00  0.00    -0.033 A 
ATOM      2  C1  UNL d   1       0.003  -0.927   0.578  0.00  0.00     0.039 A 
ATOM      3  C2  UNL d   1      -0.648  -0.209   1.584  0.00  0.00    -0.080 A 
ATOM      4  C3  UNL d   1      -0.632   1.182   1.550  0.00  0.00     0.150 A 
ATOM      5  C4  UNL d   1       0.022   1.863   0.528  0.00  0.00    -0.007 A 
ATOM      6  C5  UNL d   1       0.672   1.145  -0.475  0.00  0.00     0.039 A 
ENDROOT
BRANCH   4   7
ATOM      7  O   UNL d   1      -1.249   1.926   2.512  0.00  0.00    -0.526 OA
ATOM      8  H5  UNL d   1      -1.633   1.321   3.168  0.00  0.00     0.418 HD
ENDBRANCH   4   7
TORSDOF 1
ENDMDL
