MODEL 1
REMARK minimizedAffinity -3.46927261
REMARK minimizedRMSD -1
REMARK  1 active torsions:
REMARK  status: ('A' for Active; 'I' for Inactive)
REMARK    1  A    between atoms: C3_4  and  O_7 
ROOT
ATOM      1  C   UNL d   1      -0.928   1.353   2.100  0.00  0.00    -0.033 A 
ATOM      2  C1  UNL d   1      -1.757   2.209   1.373  0.00  0.00     0.039 A 
ATOM      3  C2  UNL d   1      -1.766   2.156  -0.022  0.00  0.00    -0.080 A 
ATOM      4  C3  UNL d   1      -0.943   1.243  -0.677  0.00  0.00     0.150 A 
ATOM      5  C4  UNL d   1      -0.118   0.385   0.042  0.00  0.00    -0.007 A 
ATOM      6  C5  UNL d   1      -0.110   0.440   1.435  0.00  0.00     0.039 A 
ENDROOT
BRANCH   4   7
ATOM      7  O   UNL d   1      -0.914   1.158  -2.037  0.00  0.00    -0.526 OA
ATOM      8  H5  UNL d   1      -1.514   1.831  -2.401  0.00  0.00     0.418 HD
ENDBRANCH   4   7
TORSDOF 1
ENDMDL
