MODEL 1
REMARK minimizedAffinity 0.221295938
REMARK minimizedRMSD -1
REMARK  1 active torsions:
REMARK  status: ('A' for Active; 'I' for Inactive)
REMARK    1  A    between atoms: C3_4  and  O_7 
ROOT
ATOM      1  C   UNL d   1      -0.699  -0.585  -4.798  0.00  0.00    -0.033 A 
ATOM      2  C1  UNL d   1      -1.368   0.443  -4.130  0.00  0.00     0.039 A 
ATOM      3  C2  UNL d   1      -0.911   0.883  -2.886  0.00  0.00    -0.080 A 
ATOM      4  C3  UNL d   1       0.215   0.289  -2.323  0.00  0.00     0.150 A 
ATOM      5  C4  UNL d   1       0.888  -0.733  -2.985  0.00  0.00    -0.007 A 
ATOM      6  C5  UNL d   1       0.430  -1.172  -4.226  0.00  0.00     0.039 A 
ENDROOT
BRANCH   4   7
ATOM      7  O   UNL d   1       0.695   0.681  -1.109  0.00  0.00    -0.526 OA
ATOM      8  H5  UNL d   1       0.113   1.375  -0.757  0.00  0.00     0.418 HD
ENDBRANCH   4   7
TORSDOF 1
ENDMDL
