MODEL 1
REMARK minimizedAffinity 4.31166744
REMARK minimizedRMSD -1
REMARK  1 active torsions:
REMARK  status: ('A' for Active; 'I' for Inactive)
REMARK    1  A    between atoms: C3_4  and  O_7 
ROOT
ATOM      1  C   UNL d   1      -0.258   0.035   3.044  0.00  0.00    -0.033 A 
ATOM      2  C1  UNL d   1       0.374   1.271   3.198  0.00  0.00     0.039 A 
ATOM      3  C2  UNL d   1      -0.378   2.447   3.191  0.00  0.00    -0.080 A 
ATOM      4  C3  UNL d   1      -1.759   2.375   3.030  0.00  0.00     0.150 A 
ATOM      5  C4  UNL d   1      -2.396   1.147   2.880  0.00  0.00    -0.007 A 
ATOM      6  C5  UNL d   1      -1.643  -0.027   2.886  0.00  0.00     0.039 A 
ENDROOT
BRANCH   4   7
ATOM      7  O   UNL d   1      -2.534   3.496   3.012  0.00  0.00    -0.526 OA
ATOM      8  H5  UNL d   1      -1.955   4.272   3.098  0.00  0.00     0.418 HD
ENDBRANCH   4   7
TORSDOF 1
ENDMDL
