MODEL 1
REMARK minimizedAffinity -4.38259649
REMARK minimizedRMSD -1
REMARK  1 active torsions:
REMARK  status: ('A' for Active; 'I' for Inactive)
REMARK    1  A    between atoms: C3_4  and  O_7 
ROOT
ATOM      1  C   UNL d   1      -1.105   1.700   2.355  0.00  0.00    -0.033 A 
ATOM      2  C1  UNL d   1      -2.079   2.285   1.543  0.00  0.00     0.039 A 
ATOM      3  C2  UNL d   1      -2.238   1.858   0.223  0.00  0.00    -0.080 A 
ATOM      4  C3  UNL d   1      -1.421   0.846  -0.271  0.00  0.00     0.150 A 
ATOM      5  C4  UNL d   1      -0.452   0.255   0.534  0.00  0.00    -0.007 A 
ATOM      6  C5  UNL d   1      -0.293   0.684   1.851  0.00  0.00     0.039 A 
ENDROOT
BRANCH   4   7
ATOM      7  O   UNL d   1      -1.536   0.398  -1.554  0.00  0.00    -0.526 OA
ATOM      8  H5  UNL d   1      -2.226   0.917  -1.999  0.00  0.00     0.418 HD
ENDBRANCH   4   7
TORSDOF 1
ENDMDL
