MODEL 1
REMARK minimizedAffinity -3.97728992
REMARK minimizedRMSD -1
REMARK  1 active torsions:
REMARK  status: ('A' for Active; 'I' for Inactive)
REMARK    1  A    between atoms: C3_4  and  O_7 
ROOT
ATOM      1  C   UNL d   1       0.165   0.476  -0.787  0.00  0.00    -0.033 A 
ATOM      2  C1  UNL d   1       0.276   0.183   0.574  0.00  0.00     0.039 A 
ATOM      3  C2  UNL d   1      -0.486   0.889   1.507  0.00  0.00    -0.080 A 
ATOM      4  C3  UNL d   1      -1.355   1.883   1.067  0.00  0.00     0.150 A 
ATOM      5  C4  UNL d   1      -1.474   2.178  -0.288  0.00  0.00    -0.007 A 
ATOM      6  C5  UNL d   1      -0.711   1.472  -1.217  0.00  0.00     0.039 A 
ENDROOT
BRANCH   4   7
ATOM      7  O   UNL d   1      -2.116   2.602   1.940  0.00  0.00    -0.526 OA
ATOM      8  H5  UNL d   1      -1.908   2.309   2.843  0.00  0.00     0.418 HD
ENDBRANCH   4   7
TORSDOF 1
ENDMDL
