MODEL 1
REMARK minimizedAffinity -2.50074196
REMARK minimizedRMSD -1
REMARK  1 active torsions:
REMARK  status: ('A' for Active; 'I' for Inactive)
REMARK    1  A    between atoms: C3_4  and  O_7 
ROOT
ATOM      1  C   UNL d   1       0.639   0.031   0.475  0.00  0.00    -0.033 A 
ATOM      2  C1  UNL d   1       0.147   0.055   1.781  0.00  0.00     0.039 A 
ATOM      3  C2  UNL d   1      -0.965   0.839   2.096  0.00  0.00    -0.080 A 
ATOM      4  C3  UNL d   1      -1.575   1.591   1.096  0.00  0.00     0.150 A 
ATOM      5  C4  UNL d   1      -1.093   1.569  -0.208  0.00  0.00    -0.007 A 
ATOM      6  C5  UNL d   1       0.018   0.787  -0.520  0.00  0.00     0.039 A 
ENDROOT
BRANCH   4   7
ATOM      7  O   UNL d   1      -2.660   2.375   1.356  0.00  0.00    -0.526 OA
ATOM      8  H5  UNL d   1      -2.864   2.314   2.304  0.00  0.00     0.418 HD
ENDBRANCH   4   7
TORSDOF 1
ENDMDL
