MODEL 1
REMARK minimizedAffinity 7.05020523
REMARK minimizedRMSD -1
REMARK  0 active torsions:
REMARK  status: ('A' for Active; 'I' for Inactive)
ROOT
ATOM      1  C   UNL d   1      -1.799  -0.382   2.993  0.00  0.00     0.023 A 
ATOM      2  C1  UNL d   1      -1.268  -1.502   3.634  0.00  0.00     0.003 A 
ATOM      3  C2  UNL d   1       0.112  -1.716   3.640  0.00  0.00     0.048 A 
ATOM      4  C3  UNL d   1       0.956  -0.806   3.004  0.00  0.00     0.023 A 
ATOM      5  C4  UNL d   1       0.429   0.317   2.362  0.00  0.00     0.048 A 
ATOM      6  C5  UNL d   1      -0.951   0.526   2.358  0.00  0.00     0.003 A 
ATOM      7  I   UNL d   1       3.010  -1.122   3.013  0.00  0.00    -0.146 I 
ENDROOT
TORSDOF 0
ENDMDL
