MODEL 1
REMARK minimizedAffinity -3.61432958
REMARK minimizedRMSD -1
REMARK  0 active torsions:
REMARK  status: ('A' for Active; 'I' for Inactive)
ROOT
ATOM      1  C   UNL d   1       0.050   0.099   2.711  0.00  0.00     0.023 A 
ATOM      2  C1  UNL d   1       1.147   0.575   1.994  0.00  0.00     0.003 A 
ATOM      3  C2  UNL d   1       1.208   0.400   0.610  0.00  0.00     0.048 A 
ATOM      4  C3  UNL d   1       0.168  -0.253  -0.051  0.00  0.00     0.023 A 
ATOM      5  C4  UNL d   1      -0.933  -0.731   0.663  0.00  0.00     0.048 A 
ATOM      6  C5  UNL d   1      -0.989  -0.554   2.046  0.00  0.00     0.003 A 
ATOM      7  I   UNL d   1       0.256  -0.515  -2.111  0.00  0.00    -0.146 I 
ENDROOT
TORSDOF 0
ENDMDL
