MODEL 1
REMARK minimizedAffinity 2.94047713
REMARK minimizedRMSD -1
REMARK  0 active torsions:
REMARK  status: ('A' for Active; 'I' for Inactive)
ROOT
ATOM      1  C   UNL d   1      -3.040   0.128   3.022  0.00  0.00     0.023 A 
ATOM      2  C1  UNL d   1      -3.881   0.323   1.926  0.00  0.00     0.003 A 
ATOM      3  C2  UNL d   1      -3.390   0.156   0.630  0.00  0.00     0.048 A 
ATOM      4  C3  UNL d   1      -2.058  -0.207   0.436  0.00  0.00     0.023 A 
ATOM      5  C4  UNL d   1      -1.213  -0.404   1.530  0.00  0.00     0.048 A 
ATOM      6  C5  UNL d   1      -1.708  -0.235   2.824  0.00  0.00     0.003 A 
ATOM      7  I   UNL d   1      -1.325  -0.457  -1.493  0.00  0.00    -0.146 I 
ENDROOT
TORSDOF 0
ENDMDL
