MODEL 1
REMARK minimizedAffinity 7.04562902
REMARK minimizedRMSD -1
REMARK  0 active torsions:
REMARK  status: ('A' for Active; 'I' for Inactive)
ROOT
ATOM      1  C   UNL d   1      -4.038   0.311   1.105  0.00  0.00     0.023 A 
ATOM      2  C1  UNL d   1      -2.979  -0.008   0.255  0.00  0.00     0.003 A 
ATOM      3  C2  UNL d   1      -1.681  -0.103   0.761  0.00  0.00     0.048 A 
ATOM      4  C3  UNL d   1      -1.449   0.119   2.117  0.00  0.00     0.023 A 
ATOM      5  C4  UNL d   1      -2.506   0.437   2.972  0.00  0.00     0.048 A 
ATOM      6  C5  UNL d   1      -3.802   0.533   2.462  0.00  0.00     0.003 A 
ATOM      7  I   UNL d   1       0.482  -0.023   2.872  0.00  0.00    -0.146 I 
ENDROOT
TORSDOF 0
ENDMDL
