MODEL 1
REMARK minimizedAffinity 5.51829815
REMARK minimizedRMSD -1
REMARK  0 active torsions:
REMARK  status: ('A' for Active; 'I' for Inactive)
ROOT
ATOM      1  C   UNL d   1      -3.583   0.565   2.777  0.00  0.00     0.023 A 
ATOM      2  C1  UNL d   1      -2.334  -0.037   2.931  0.00  0.00     0.003 A 
ATOM      3  C2  UNL d   1      -1.659  -0.541   1.817  0.00  0.00     0.048 A 
ATOM      4  C3  UNL d   1      -2.239  -0.439   0.553  0.00  0.00     0.023 A 
ATOM      5  C4  UNL d   1      -3.488   0.164   0.394  0.00  0.00     0.048 A 
ATOM      6  C5  UNL d   1      -4.159   0.666   1.511  0.00  0.00     0.003 A 
ATOM      7  I   UNL d   1      -1.236  -1.188  -1.107  0.00  0.00    -0.146 I 
ENDROOT
TORSDOF 0
ENDMDL
