MODEL 1
REMARK minimizedAffinity 6.81356907
REMARK minimizedRMSD -1
REMARK  0 active torsions:
REMARK  status: ('A' for Active; 'I' for Inactive)
ROOT
ATOM      1  C   UNL d   1      -4.931   0.036   1.096  0.00  0.00     0.023 A 
ATOM      2  C1  UNL d   1      -4.221   0.960   0.329  0.00  0.00     0.003 A 
ATOM      3  C2  UNL d   1      -2.903   1.279   0.660  0.00  0.00     0.048 A 
ATOM      4  C3  UNL d   1      -2.300   0.670   1.760  0.00  0.00     0.023 A 
ATOM      5  C4  UNL d   1      -3.006  -0.256   2.531  0.00  0.00     0.048 A 
ATOM      6  C5  UNL d   1      -4.324  -0.571   2.196  0.00  0.00     0.003 A 
ATOM      7  I   UNL d   1      -0.338   1.143   2.256  0.00  0.00    -0.146 I 
ENDROOT
TORSDOF 0
ENDMDL
