MODEL 1
REMARK minimizedAffinity 5.75641394
REMARK minimizedRMSD -1
REMARK  0 active torsions:
REMARK  status: ('A' for Active; 'I' for Inactive)
ROOT
ATOM      1  C   UNL d   1      -3.201   0.711  -1.868  0.00  0.00     0.023 A 
ATOM      2  C1  UNL d   1      -3.913   0.822  -0.674  0.00  0.00     0.003 A 
ATOM      3  C2  UNL d   1      -3.276   0.581   0.545  0.00  0.00     0.048 A 
ATOM      4  C3  UNL d   1      -1.926   0.232   0.563  0.00  0.00     0.023 A 
ATOM      5  C4  UNL d   1      -1.209   0.121  -0.629  0.00  0.00     0.048 A 
ATOM      6  C5  UNL d   1      -1.851   0.361  -1.846  0.00  0.00     0.003 A 
ATOM      7  I   UNL d   1      -0.976  -0.125   2.377  0.00  0.00    -0.146 I 
ENDROOT
TORSDOF 0
ENDMDL
