MODEL 1
REMARK minimizedAffinity 5.91684437
REMARK minimizedRMSD -1
REMARK  0 active torsions:
REMARK  status: ('A' for Active; 'I' for Inactive)
ROOT
ATOM      1  C   UNL d   1      -3.578   0.549   3.197  0.00  0.00     0.023 A 
ATOM      2  C1  UNL d   1      -4.349   0.689   2.042  0.00  0.00     0.003 A 
ATOM      3  C2  UNL d   1      -3.739   0.662   0.786  0.00  0.00     0.048 A 
ATOM      4  C3  UNL d   1      -2.358   0.494   0.692  0.00  0.00     0.023 A 
ATOM      5  C4  UNL d   1      -1.583   0.353   1.844  0.00  0.00     0.048 A 
ATOM      6  C5  UNL d   1      -2.197   0.381   3.097  0.00  0.00     0.003 A 
ATOM      7  I   UNL d   1      -1.448   0.454  -1.176  0.00  0.00    -0.146 I 
ENDROOT
TORSDOF 0
ENDMDL
