MODEL 1
REMARK minimizedAffinity 4.32364941
REMARK minimizedRMSD -1
REMARK  0 active torsions:
REMARK  status: ('A' for Active; 'I' for Inactive)
ROOT
ATOM      1  C   UNL d   1       0.052  -0.921   3.345  0.00  0.00     0.023 A 
ATOM      2  C1  UNL d   1       0.099   0.182   2.493  0.00  0.00     0.003 A 
ATOM      3  C2  UNL d   1      -1.086   0.758   2.028  0.00  0.00     0.048 A 
ATOM      4  C3  UNL d   1      -2.314   0.225   2.419  0.00  0.00     0.023 A 
ATOM      5  C4  UNL d   1      -2.365  -0.878   3.273  0.00  0.00     0.048 A 
ATOM      6  C5  UNL d   1      -1.179  -1.451   3.734  0.00  0.00     0.003 A 
ATOM      7  I   UNL d   1      -4.078   1.080   1.729  0.00  0.00    -0.146 I 
ENDROOT
TORSDOF 0
ENDMDL
