MODEL 1
REMARK minimizedAffinity 7.09444427
REMARK minimizedRMSD -1
REMARK  0 active torsions:
REMARK  status: ('A' for Active; 'I' for Inactive)
ROOT
ATOM      1  C   UNL d   1       1.382  -0.545   2.856  0.00  0.00     0.023 A 
ATOM      2  C1  UNL d   1       0.398  -1.526   2.731  0.00  0.00     0.003 A 
ATOM      3  C2  UNL d   1      -0.924  -1.161   2.471  0.00  0.00     0.048 A 
ATOM      4  C3  UNL d   1      -1.256   0.187   2.336  0.00  0.00     0.023 A 
ATOM      5  C4  UNL d   1      -0.274   1.171   2.459  0.00  0.00     0.048 A 
ATOM      6  C5  UNL d   1       1.046   0.802   2.720  0.00  0.00     0.003 A 
ATOM      7  I   UNL d   1      -3.223   0.732   1.949  0.00  0.00    -0.146 I 
ENDROOT
TORSDOF 0
ENDMDL
