MODEL 1
REMARK minimizedAffinity 2.78078556
REMARK minimizedRMSD -1
REMARK  0 active torsions:
REMARK  status: ('A' for Active; 'I' for Inactive)
ROOT
ATOM      1  C   UNL d   1       1.863   0.314   0.947  0.00  0.00     0.023 A 
ATOM      2  C1  UNL d   1       1.601   0.333   2.317  0.00  0.00     0.003 A 
ATOM      3  C2  UNL d   1       0.305   0.577   2.778  0.00  0.00     0.048 A 
ATOM      4  C3  UNL d   1      -0.723   0.801   1.863  0.00  0.00     0.023 A 
ATOM      5  C4  UNL d   1      -0.465   0.781   0.491  0.00  0.00     0.048 A 
ATOM      6  C5  UNL d   1       0.832   0.538   0.035  0.00  0.00     0.003 A 
ATOM      7  I   UNL d   1      -2.652   1.164   2.545  0.00  0.00    -0.146 I 
ENDROOT
TORSDOF 0
ENDMDL
