MODEL 1
REMARK minimizedAffinity -0.0492143594
REMARK minimizedRMSD -1
REMARK  0 active torsions:
REMARK  status: ('A' for Active; 'I' for Inactive)
ROOT
ATOM      1  C   UNL d   1       0.970   0.166   1.724  0.00  0.00     0.023 A 
ATOM      2  C1  UNL d   1       1.064   0.687   3.015  0.00  0.00     0.003 A 
ATOM      3  C2  UNL d   1      -0.087   1.110   3.684  0.00  0.00     0.048 A 
ATOM      4  C3  UNL d   1      -1.328   1.007   3.057  0.00  0.00     0.023 A 
ATOM      5  C4  UNL d   1      -1.427   0.485   1.767  0.00  0.00     0.048 A 
ATOM      6  C5  UNL d   1      -0.274   0.065   1.101  0.00  0.00     0.003 A 
ATOM      7  I   UNL d   1      -3.042   1.635   4.052  0.00  0.00    -0.146 I 
ENDROOT
TORSDOF 0
ENDMDL
