MODEL 1
REMARK minimizedAffinity -3.51159716
REMARK minimizedRMSD -1
REMARK  0 active torsions:
REMARK  status: ('A' for Active; 'I' for Inactive)
ROOT
ATOM      1  C   UNL d   1      -0.821  -0.240   3.004  0.00  0.00     0.023 A 
ATOM      2  C1  UNL d   1      -1.838  -0.520   2.091  0.00  0.00     0.003 A 
ATOM      3  C2  UNL d   1      -1.593  -0.421   0.719  0.00  0.00     0.048 A 
ATOM      4  C3  UNL d   1      -0.329  -0.043   0.268  0.00  0.00     0.023 A 
ATOM      5  C4  UNL d   1       0.692   0.237   1.178  0.00  0.00     0.048 A 
ATOM      6  C5  UNL d   1       0.442   0.138   2.548  0.00  0.00     0.003 A 
ATOM      7  I   UNL d   1       0.038   0.104  -1.772  0.00  0.00    -0.146 I 
ENDROOT
TORSDOF 0
ENDMDL
