MODEL 1
REMARK minimizedAffinity -4.00713158
REMARK minimizedRMSD -1
REMARK  0 active torsions:
REMARK  status: ('A' for Active; 'I' for Inactive)
ROOT
ATOM      1  C   UNL d   1      -1.298   1.397  -0.008  0.00  0.00     0.077 C 
ATOM      2  C1  UNL d   1      -0.025   0.608  -0.078  0.00  0.00    -0.074 A 
ATOM      3  C2  UNL d   1       1.159   1.192  -0.540  0.00  0.00    -0.005 A 
ATOM      4  C3  UNL d   1       2.337   0.448  -0.590  0.00  0.00     0.006 A 
ATOM      5  C4  UNL d   1       2.345  -0.885  -0.179  0.00  0.00    -0.005 A 
ATOM      6  C5  UNL d   1       1.171  -1.486   0.287  0.00  0.00    -0.074 A 
ATOM      7  C6  UNL d   1       1.164  -2.915   0.742  0.00  0.00     0.077 C 
ATOM      8  C7  UNL d   1      -0.008  -0.730   0.341  0.00  0.00    -0.001 A 
ENDROOT
TORSDOF 0
ENDMDL
