MODEL 1
REMARK minimizedAffinity 0.566004276
REMARK minimizedRMSD -1
REMARK  0 active torsions:
REMARK  status: ('A' for Active; 'I' for Inactive)
ROOT
ATOM      1  C   UNL d   1       2.184   0.965  -0.410  0.00  0.00     0.077 C 
ATOM      2  C1  UNL d   1       1.476  -0.278   0.041  0.00  0.00    -0.074 A 
ATOM      3  C2  UNL d   1       2.079  -1.534  -0.081  0.00  0.00    -0.005 A 
ATOM      4  C3  UNL d   1       1.412  -2.679   0.352  0.00  0.00     0.006 A 
ATOM      5  C4  UNL d   1       0.136  -2.581   0.910  0.00  0.00    -0.005 A 
ATOM      6  C5  UNL d   1      -0.482  -1.334   1.040  0.00  0.00    -0.074 A 
ATOM      7  C6  UNL d   1      -1.849  -1.210   1.646  0.00  0.00     0.077 C 
ATOM      8  C7  UNL d   1       0.197  -0.187   0.609  0.00  0.00    -0.001 A 
ENDROOT
TORSDOF 0
ENDMDL
