MODEL 1
REMARK minimizedAffinity -2.97497654
REMARK minimizedRMSD -1
REMARK  0 active torsions:
REMARK  status: ('A' for Active; 'I' for Inactive)
ROOT
ATOM      1  C   UNL d   1      -1.874   0.237  -0.692  0.00  0.00     0.077 C 
ATOM      2  C1  UNL d   1      -0.442  -0.065  -0.366  0.00  0.00    -0.074 A 
ATOM      3  C2  UNL d   1       0.563   0.879  -0.602  0.00  0.00    -0.005 A 
ATOM      4  C3  UNL d   1       1.890   0.588  -0.285  0.00  0.00     0.006 A 
ATOM      5  C4  UNL d   1       2.225  -0.648   0.270  0.00  0.00    -0.005 A 
ATOM      6  C5  UNL d   1       1.233  -1.604   0.513  0.00  0.00    -0.074 A 
ATOM      7  C6  UNL d   1       1.575  -2.933   1.118  0.00  0.00     0.077 C 
ATOM      8  C7  UNL d   1      -0.098  -1.301   0.198  0.00  0.00    -0.001 A 
ENDROOT
TORSDOF 0
ENDMDL
