MODEL 1
REMARK minimizedAffinity -4.27431917
REMARK minimizedRMSD -1
REMARK  0 active torsions:
REMARK  status: ('A' for Active; 'I' for Inactive)
ROOT
ATOM      1  C   UNL d   1       3.316  -0.917   1.883  0.00  0.00     0.077 C 
ATOM      2  C1  UNL d   1       2.106  -1.143   1.027  0.00  0.00    -0.074 A 
ATOM      3  C2  UNL d   1       1.623  -2.434   0.791  0.00  0.00    -0.005 A 
ATOM      4  C3  UNL d   1       0.490  -2.627  -0.000  0.00  0.00     0.006 A 
ATOM      5  C4  UNL d   1      -0.170  -1.533  -0.562  0.00  0.00    -0.005 A 
ATOM      6  C5  UNL d   1       0.298  -0.235  -0.336  0.00  0.00    -0.074 A 
ATOM      7  C6  UNL d   1      -0.405   0.953  -0.924  0.00  0.00     0.077 C 
ATOM      8  C7  UNL d   1       1.433  -0.048   0.466  0.00  0.00    -0.001 A 
ENDROOT
TORSDOF 0
ENDMDL
