MODEL 1
REMARK minimizedAffinity -3.29151988
REMARK minimizedRMSD -1
REMARK  0 active torsions:
REMARK  status: ('A' for Active; 'I' for Inactive)
ROOT
ATOM      1  C   UNL d   1      -1.546   0.657   0.982  0.00  0.00     0.077 C 
ATOM      2  C1  UNL d   1      -0.379  -0.152   0.499  0.00  0.00    -0.074 A 
ATOM      3  C2  UNL d   1       0.196   0.091  -0.753  0.00  0.00    -0.005 A 
ATOM      4  C3  UNL d   1       1.287  -0.663  -1.184  0.00  0.00     0.006 A 
ATOM      5  C4  UNL d   1       1.814  -1.666  -0.369  0.00  0.00    -0.005 A 
ATOM      6  C5  UNL d   1       1.254  -1.923   0.886  0.00  0.00    -0.074 A 
ATOM      7  C6  UNL d   1       1.814  -2.990   1.778  0.00  0.00     0.077 C 
ATOM      8  C7  UNL d   1       0.162  -1.156   1.315  0.00  0.00    -0.001 A 
ENDROOT
TORSDOF 0
ENDMDL
