MODEL 1
REMARK minimizedAffinity -1.60173249
REMARK minimizedRMSD -1
REMARK  0 active torsions:
REMARK  status: ('A' for Active; 'I' for Inactive)
ROOT
ATOM      1  C   UNL d   1      -1.665   0.544  -0.568  0.00  0.00     0.077 C 
ATOM      2  C1  UNL d   1      -0.293  -0.047  -0.434  0.00  0.00    -0.074 A 
ATOM      3  C2  UNL d   1       0.774   0.432  -1.200  0.00  0.00    -0.005 A 
ATOM      4  C3  UNL d   1       2.047  -0.121  -1.057  0.00  0.00     0.006 A 
ATOM      5  C4  UNL d   1       2.265  -1.157  -0.148  0.00  0.00    -0.005 A 
ATOM      6  C5  UNL d   1       1.210  -1.649   0.627  0.00  0.00    -0.074 A 
ATOM      7  C6  UNL d   1       1.429  -2.755   1.616  0.00  0.00     0.077 C 
ATOM      8  C7  UNL d   1      -0.064  -1.083   0.483  0.00  0.00    -0.001 A 
ENDROOT
TORSDOF 0
ENDMDL
