MODEL 1
REMARK minimizedAffinity -3.37624454
REMARK minimizedRMSD -1
REMARK  0 active torsions:
REMARK  status: ('A' for Active; 'I' for Inactive)
ROOT
ATOM      1  C   UNL d   1      -0.367   2.046  -0.288  0.00  0.00     0.077 C 
ATOM      2  C1  UNL d   1      -1.060   2.006  -1.618  0.00  0.00    -0.074 A 
ATOM      3  C2  UNL d   1      -0.377   2.327  -2.795  0.00  0.00    -0.005 A 
ATOM      4  C3  UNL d   1      -1.032   2.276  -4.025  0.00  0.00     0.006 A 
ATOM      5  C4  UNL d   1      -2.375   1.903  -4.091  0.00  0.00    -0.005 A 
ATOM      6  C5  UNL d   1      -3.074   1.577  -2.925  0.00  0.00    -0.074 A 
ATOM      7  C6  UNL d   1      -4.516   1.165  -2.979  0.00  0.00     0.077 C 
ATOM      8  C7  UNL d   1      -2.407   1.625  -1.693  0.00  0.00    -0.001 A 
ENDROOT
TORSDOF 0
ENDMDL
