MODEL 1
REMARK minimizedAffinity -3.21954155
REMARK minimizedRMSD -1
REMARK  0 active torsions:
REMARK  status: ('A' for Active; 'I' for Inactive)
ROOT
ATOM      1  C   UNL d   1       3.074  -0.826   1.888  0.00  0.00     0.077 C 
ATOM      2  C1  UNL d   1       2.075  -0.897   0.772  0.00  0.00    -0.074 A 
ATOM      3  C2  UNL d   1       1.972  -2.038  -0.030  0.00  0.00    -0.005 A 
ATOM      4  C3  UNL d   1       1.031  -2.093  -1.058  0.00  0.00     0.006 A 
ATOM      5  C4  UNL d   1       0.185  -1.009  -1.295  0.00  0.00    -0.005 A 
ATOM      6  C5  UNL d   1       0.273   0.140  -0.503  0.00  0.00    -0.074 A 
ATOM      7  C6  UNL d   1      -0.636   1.310  -0.738  0.00  0.00     0.077 C 
ATOM      8  C7  UNL d   1       1.216   0.185   0.533  0.00  0.00    -0.001 A 
ENDROOT
TORSDOF 0
ENDMDL
