MODEL 1
REMARK minimizedAffinity -3.46557236
REMARK minimizedRMSD -1
REMARK  0 active torsions:
REMARK  status: ('A' for Active; 'I' for Inactive)
ROOT
ATOM      1  C   UNL d   1      -1.254  -1.571   3.424  0.00  0.00     0.077 C 
ATOM      2  C1  UNL d   1      -0.238  -1.741   2.334  0.00  0.00    -0.074 A 
ATOM      3  C2  UNL d   1       0.658  -2.815   2.347  0.00  0.00    -0.005 A 
ATOM      4  C3  UNL d   1       1.591  -2.965   1.322  0.00  0.00     0.006 A 
ATOM      5  C4  UNL d   1       1.639  -2.044   0.275  0.00  0.00    -0.005 A 
ATOM      6  C5  UNL d   1       0.751  -0.963   0.245  0.00  0.00    -0.074 A 
ATOM      7  C6  UNL d   1       0.783   0.030  -0.878  0.00  0.00     0.077 C 
ATOM      8  C7  UNL d   1      -0.189  -0.823   1.275  0.00  0.00    -0.001 A 
ENDROOT
TORSDOF 0
ENDMDL
