MODEL 1
REMARK minimizedAffinity -5.16983032
REMARK minimizedRMSD -1
REMARK  0 active torsions:
REMARK  status: ('A' for Active; 'I' for Inactive)
ROOT
ATOM      1  C   UNL d   1       1.415  -2.974   0.815  0.00  0.00     0.077 C 
ATOM      2  C1  UNL d   1       1.390  -1.546   0.358  0.00  0.00    -0.074 A 
ATOM      3  C2  UNL d   1       2.577  -0.853   0.099  0.00  0.00    -0.005 A 
ATOM      4  C3  UNL d   1       2.538   0.472  -0.335  0.00  0.00     0.006 A 
ATOM      5  C4  UNL d   1       1.313   1.116  -0.514  0.00  0.00    -0.005 A 
ATOM      6  C5  UNL d   1       0.116   0.440  -0.261  0.00  0.00    -0.074 A 
ATOM      7  C6  UNL d   1      -1.209   1.115  -0.459  0.00  0.00     0.077 C 
ATOM      8  C7  UNL d   1       0.163  -0.894   0.168  0.00  0.00    -0.001 A 
ENDROOT
TORSDOF 0
ENDMDL
