MODEL 1
REMARK minimizedAffinity -3.74088311
REMARK minimizedRMSD -1
REMARK  0 active torsions:
REMARK  status: ('A' for Active; 'I' for Inactive)
ROOT
ATOM      1  C   UNL d   1       0.106  -3.068   1.746  0.00  0.00     0.077 C 
ATOM      2  C1  UNL d   1      -0.309  -1.731   1.207  0.00  0.00    -0.074 A 
ATOM      3  C2  UNL d   1      -1.394  -1.040   1.755  0.00  0.00    -0.005 A 
ATOM      4  C3  UNL d   1      -1.761   0.207   1.249  0.00  0.00     0.006 A 
ATOM      5  C4  UNL d   1      -1.049   0.774   0.192  0.00  0.00    -0.005 A 
ATOM      6  C5  UNL d   1       0.039   0.098  -0.368  0.00  0.00    -0.074 A 
ATOM      7  C6  UNL d   1       0.822   0.697  -1.499  0.00  0.00     0.077 C 
ATOM      8  C7  UNL d   1       0.407  -1.151   0.150  0.00  0.00    -0.001 A 
ENDROOT
TORSDOF 0
ENDMDL
