MODEL 1
REMARK minimizedAffinity -3.44852805
REMARK minimizedRMSD -1
REMARK  0 active torsions:
REMARK  status: ('A' for Active; 'I' for Inactive)
ROOT
ATOM      1  C   UNL d   1       0.848  -3.363   1.546  0.00  0.00     0.077 C 
ATOM      2  C1  UNL d   1       1.034  -2.080   0.791  0.00  0.00    -0.074 A 
ATOM      3  C2  UNL d   1       2.291  -1.709   0.303  0.00  0.00    -0.005 A 
ATOM      4  C3  UNL d   1       2.446  -0.517  -0.405  0.00  0.00     0.006 A 
ATOM      5  C4  UNL d   1       1.349   0.314  -0.631  0.00  0.00    -0.005 A 
ATOM      6  C5  UNL d   1       0.084  -0.041  -0.151  0.00  0.00    -0.074 A 
ATOM      7  C6  UNL d   1      -1.108   0.836  -0.394  0.00  0.00     0.077 C 
ATOM      8  C7  UNL d   1      -0.066  -1.243   0.553  0.00  0.00    -0.001 A 
ENDROOT
TORSDOF 0
ENDMDL
