MODEL 1
REMARK minimizedAffinity -2.02424598
REMARK minimizedRMSD -1
REMARK  0 active torsions:
REMARK  status: ('A' for Active; 'I' for Inactive)
ROOT
ATOM      1  C   UNL d   1       1.851  -1.725   0.453  0.00  0.00     0.077 C 
ATOM      2  C1  UNL d   1       0.617  -0.876   0.526  0.00  0.00    -0.074 A 
ATOM      3  C2  UNL d   1      -0.322  -1.059   1.546  0.00  0.00    -0.005 A 
ATOM      4  C3  UNL d   1      -1.461  -0.256   1.606  0.00  0.00     0.006 A 
ATOM      5  C4  UNL d   1      -1.671   0.738   0.649  0.00  0.00    -0.005 A 
ATOM      6  C5  UNL d   1      -0.743   0.937  -0.377  0.00  0.00    -0.074 A 
ATOM      7  C6  UNL d   1      -0.949   2.007  -1.408  0.00  0.00     0.077 C 
ATOM      8  C7  UNL d   1       0.402   0.130  -0.427  0.00  0.00    -0.001 A 
ENDROOT
TORSDOF 0
ENDMDL
