MODEL 1
REMARK minimizedAffinity -1.24564028
REMARK minimizedRMSD -1
REMARK  0 active torsions:
REMARK  status: ('A' for Active; 'I' for Inactive)
ROOT
ATOM      1  C   UNL d   1       3.244   1.995  -0.960  0.00  0.00     0.077 C 
ATOM      2  C1  UNL d   1       2.199   1.071  -0.408  0.00  0.00    -0.074 A 
ATOM      3  C2  UNL d   1       0.838   1.334  -0.591  0.00  0.00    -0.005 A 
ATOM      4  C3  UNL d   1      -0.122   0.460  -0.080  0.00  0.00     0.006 A 
ATOM      5  C4  UNL d   1       0.269  -0.683   0.618  0.00  0.00    -0.005 A 
ATOM      6  C5  UNL d   1       1.626  -0.963   0.810  0.00  0.00    -0.074 A 
ATOM      7  C6  UNL d   1       2.063  -2.192   1.549  0.00  0.00     0.077 C 
ATOM      8  C7  UNL d   1       2.584  -0.084   0.288  0.00  0.00    -0.001 A 
ENDROOT
TORSDOF 0
ENDMDL
