MODEL 1
REMARK minimizedAffinity 0.71205765
REMARK minimizedRMSD -1
REMARK  0 active torsions:
REMARK  status: ('A' for Active; 'I' for Inactive)
ROOT
ATOM      1  C   UNL d   1      -0.584   1.200  -1.263  0.00  0.00     0.077 C 
ATOM      2  C1  UNL d   1      -0.535   0.255  -0.099  0.00  0.00    -0.074 A 
ATOM      3  C2  UNL d   1      -1.450   0.363   0.953  0.00  0.00    -0.005 A 
ATOM      4  C3  UNL d   1      -1.398  -0.529   2.024  0.00  0.00     0.006 A 
ATOM      5  C4  UNL d   1      -0.433  -1.536   2.054  0.00  0.00    -0.005 A 
ATOM      6  C5  UNL d   1       0.489  -1.661   1.010  0.00  0.00    -0.074 A 
ATOM      7  C6  UNL d   1       1.527  -2.744   1.022  0.00  0.00     0.077 C 
ATOM      8  C7  UNL d   1       0.427  -0.765  -0.066  0.00  0.00    -0.001 A 
ENDROOT
TORSDOF 0
ENDMDL
