MODEL 1
REMARK minimizedAffinity -5.42490339
REMARK minimizedRMSD -1
REMARK  0 active torsions:
REMARK  status: ('A' for Active; 'I' for Inactive)
ROOT
ATOM      1  C   UNL d   1       1.504   0.574  -0.739  0.00  0.00     0.077 C 
ATOM      2  C1  UNL d   1       0.153   0.420  -1.372  0.00  0.00    -0.074 A 
ATOM      3  C2  UNL d   1      -0.648  -0.693  -1.095  0.00  0.00    -0.005 A 
ATOM      4  C3  UNL d   1      -1.906  -0.817  -1.684  0.00  0.00     0.006 A 
ATOM      5  C4  UNL d   1      -2.376   0.168  -2.554  0.00  0.00    -0.005 A 
ATOM      6  C5  UNL d   1      -1.589   1.288  -2.842  0.00  0.00    -0.074 A 
ATOM      7  C6  UNL d   1      -2.083   2.360  -3.766  0.00  0.00     0.077 C 
ATOM      8  C7  UNL d   1      -0.329   1.409  -2.240  0.00  0.00    -0.001 A 
ENDROOT
TORSDOF 0
ENDMDL
