MODEL 1
REMARK minimizedAffinity -3.7901094
REMARK minimizedRMSD -1
REMARK  2 active torsions:
REMARK  status: ('A' for Active; 'I' for Inactive)
REMARK    1  A    between atoms: C1_2  and  C2_3 
REMARK    2  A    between atoms: C2_3  and  C3_4 
ROOT
ATOM      1  C3  UNL d   1       1.155   0.297  -0.647  0.00  0.00    -0.075 A 
ATOM      2  C4  UNL d   1       0.094  -0.460  -0.129  0.00  0.00     0.002 A 
ATOM      3  C5  UNL d   1      -1.223  -0.017  -0.261  0.00  0.00     0.002 A 
ATOM      4  C6  UNL d   1      -1.494   1.190  -0.902  0.00  0.00    -0.004 A 
ATOM      5  C7  UNL d   1      -0.446   1.958  -1.406  0.00  0.00     0.002 A 
ATOM      6  C8  UNL d   1       0.871   1.515  -1.279  0.00  0.00     0.002 A 
ENDROOT
BRANCH   1   7
ATOM      7  C2  UNL d   1       2.579  -0.191  -0.533  0.00  0.00     0.056 C 
BRANCH   7   8
ATOM      8  C1  UNL d   1       3.214  -0.580  -1.872  0.00  0.00     0.007 C 
ATOM      9  C   UNL d   1       2.205  -1.098  -2.887  0.00  0.00     0.009 C 
ENDBRANCH   7   8
ENDBRANCH   1   7
TORSDOF 2
ENDMDL
