MODEL 1
REMARK minimizedAffinity -3.76862073
REMARK minimizedRMSD -1
REMARK  2 active torsions:
REMARK  status: ('A' for Active; 'I' for Inactive)
REMARK    1  A    between atoms: C1_2  and  C2_3 
REMARK    2  A    between atoms: C2_3  and  C3_4 
ROOT
ATOM      1  C3  UNL d   1       0.243  -0.347   0.040  0.00  0.00    -0.075 A 
ATOM      2  C4  UNL d   1       0.435  -1.510  -0.720  0.00  0.00     0.002 A 
ATOM      3  C5  UNL d   1       1.660  -1.757  -1.339  0.00  0.00     0.002 A 
ATOM      4  C6  UNL d   1       2.704  -0.842  -1.216  0.00  0.00    -0.004 A 
ATOM      5  C7  UNL d   1       2.519   0.325  -0.478  0.00  0.00     0.002 A 
ATOM      6  C8  UNL d   1       1.295   0.572   0.147  0.00  0.00     0.002 A 
ENDROOT
BRANCH   1   7
ATOM      7  C2  UNL d   1      -1.071  -0.088   0.737  0.00  0.00     0.056 C 
BRANCH   7   8
ATOM      8  C1  UNL d   1      -0.935   0.662   2.066  0.00  0.00     0.007 C 
ATOM      9  C   UNL d   1      -1.871   0.141   3.149  0.00  0.00     0.009 C 
ENDBRANCH   7   8
ENDBRANCH   1   7
TORSDOF 2
ENDMDL
