MODEL 1
REMARK minimizedAffinity -1.95661509
REMARK minimizedRMSD -1
REMARK  2 active torsions:
REMARK  status: ('A' for Active; 'I' for Inactive)
REMARK    1  A    between atoms: C1_2  and  C2_3 
REMARK    2  A    between atoms: C2_3  and  C3_4 
ROOT
ATOM      1  C3  UNL d   1       0.806   0.326   0.653  0.00  0.00    -0.075 A 
ATOM      2  C4  UNL d   1       0.024  -0.648   0.014  0.00  0.00     0.002 A 
ATOM      3  C5  UNL d   1       0.527  -1.356  -1.078  0.00  0.00     0.002 A 
ATOM      4  C6  UNL d   1       1.811  -1.094  -1.550  0.00  0.00    -0.004 A 
ATOM      5  C7  UNL d   1       2.590  -0.118  -0.934  0.00  0.00     0.002 A 
ATOM      6  C8  UNL d   1       2.091   0.589   0.162  0.00  0.00     0.002 A 
ENDROOT
BRANCH   1   7
ATOM      7  C2  UNL d   1       0.278   1.075   1.853  0.00  0.00     0.056 C 
BRANCH   7   8
ATOM      8  C1  UNL d   1      -1.104   0.609   2.321  0.00  0.00     0.007 C 
ATOM      9  C   UNL d   1      -1.815   1.628   3.201  0.00  0.00     0.009 C 
ENDBRANCH   7   8
ENDBRANCH   1   7
TORSDOF 2
ENDMDL
