MODEL 1
REMARK minimizedAffinity -4.73360491
REMARK minimizedRMSD -1
REMARK  2 active torsions:
REMARK  status: ('A' for Active; 'I' for Inactive)
REMARK    1  A    between atoms: C1_2  and  C2_3 
REMARK    2  A    between atoms: C2_3  and  C3_4 
ROOT
ATOM      1  C3  UNL d   1      -0.207  -0.160   0.370  0.00  0.00    -0.075 A 
ATOM      2  C4  UNL d   1       0.055  -1.465  -0.071  0.00  0.00     0.002 A 
ATOM      3  C5  UNL d   1       1.200  -1.743  -0.818  0.00  0.00     0.002 A 
ATOM      4  C6  UNL d   1       2.091  -0.721  -1.140  0.00  0.00    -0.004 A 
ATOM      5  C7  UNL d   1       1.832   0.582  -0.721  0.00  0.00     0.002 A 
ATOM      6  C8  UNL d   1       0.689   0.862   0.030  0.00  0.00     0.002 A 
ENDROOT
BRANCH   1   7
ATOM      7  C2  UNL d   1      -1.429   0.142   1.204  0.00  0.00     0.056 C 
BRANCH   7   8
ATOM      8  C1  UNL d   1      -1.210   1.229   2.262  0.00  0.00     0.007 C 
ATOM      9  C   UNL d   1      -1.887   0.919   3.590  0.00  0.00     0.009 C 
ENDBRANCH   7   8
ENDBRANCH   1   7
TORSDOF 2
ENDMDL
