MODEL 1
REMARK minimizedAffinity -5.62132978
REMARK minimizedRMSD -1
REMARK  2 active torsions:
REMARK  status: ('A' for Active; 'I' for Inactive)
REMARK    1  A    between atoms: C1_2  and  C2_3 
REMARK    2  A    between atoms: C2_3  and  C3_4 
ROOT
ATOM      1  C3  UNL d   1       0.263  -0.393   0.150  0.00  0.00    -0.075 A 
ATOM      2  C4  UNL d   1       0.645  -1.459  -0.677  0.00  0.00     0.002 A 
ATOM      3  C5  UNL d   1       1.753  -1.342  -1.516  0.00  0.00     0.002 A 
ATOM      4  C6  UNL d   1       2.485  -0.157  -1.548  0.00  0.00    -0.004 A 
ATOM      5  C7  UNL d   1       2.105   0.914  -0.742  0.00  0.00     0.002 A 
ATOM      6  C8  UNL d   1       0.999   0.798   0.102  0.00  0.00     0.002 A 
ENDROOT
BRANCH   1   7
ATOM      7  C2  UNL d   1      -0.918  -0.524   1.082  0.00  0.00     0.056 C 
BRANCH   7   8
ATOM      8  C1  UNL d   1      -1.491   0.817   1.554  0.00  0.00     0.007 C 
ATOM      9  C   UNL d   1      -2.343   0.696   2.811  0.00  0.00     0.009 C 
ENDBRANCH   7   8
ENDBRANCH   1   7
TORSDOF 2
ENDMDL
