MODEL 1
REMARK minimizedAffinity -5.39964533
REMARK minimizedRMSD -1
REMARK  2 active torsions:
REMARK  status: ('A' for Active; 'I' for Inactive)
REMARK    1  A    between atoms: C1_2  and  C2_3 
REMARK    2  A    between atoms: C2_3  and  C3_4 
ROOT
ATOM      1  C3  UNL d   1      -0.301  -0.378  -0.117  0.00  0.00    -0.075 A 
ATOM      2  C4  UNL d   1       0.695   0.571  -0.389  0.00  0.00     0.002 A 
ATOM      3  C5  UNL d   1       1.872   0.195  -1.038  0.00  0.00     0.002 A 
ATOM      4  C6  UNL d   1       2.072  -1.131  -1.413  0.00  0.00    -0.004 A 
ATOM      5  C7  UNL d   1       1.096  -2.085  -1.132  0.00  0.00     0.002 A 
ATOM      6  C8  UNL d   1      -0.085  -1.712  -0.487  0.00  0.00     0.002 A 
ENDROOT
BRANCH   1   7
ATOM      7  C2  UNL d   1      -1.590   0.027   0.559  0.00  0.00     0.056 C 
BRANCH   7   8
ATOM      8  C1  UNL d   1      -1.394   0.709   1.917  0.00  0.00     0.007 C 
ATOM      9  C   UNL d   1      -2.505   0.396   2.911  0.00  0.00     0.009 C 
ENDBRANCH   7   8
ENDBRANCH   1   7
TORSDOF 2
ENDMDL
