MODEL 1
REMARK minimizedAffinity -2.48784852
REMARK minimizedRMSD -1
REMARK  2 active torsions:
REMARK  status: ('A' for Active; 'I' for Inactive)
REMARK    1  A    between atoms: C1_2  and  C2_3 
REMARK    2  A    between atoms: C2_3  and  C3_4 
ROOT
ATOM      1  C3  UNL d   1      -1.563   0.470   1.500  0.00  0.00    -0.075 A 
ATOM      2  C4  UNL d   1      -1.269   1.742   2.012  0.00  0.00     0.002 A 
ATOM      3  C5  UNL d   1      -1.472   2.027   3.363  0.00  0.00     0.002 A 
ATOM      4  C6  UNL d   1      -1.981   1.048   4.215  0.00  0.00    -0.004 A 
ATOM      5  C7  UNL d   1      -2.292  -0.213   3.714  0.00  0.00     0.002 A 
ATOM      6  C8  UNL d   1      -2.086  -0.502   2.364  0.00  0.00     0.002 A 
ENDROOT
BRANCH   1   7
ATOM      7  C2  UNL d   1      -1.318   0.147   0.046  0.00  0.00     0.056 C 
BRANCH   7   8
ATOM      8  C1  UNL d   1       0.159   0.184  -0.361  0.00  0.00     0.007 C 
ATOM      9  C   UNL d   1       0.832  -1.180  -0.299  0.00  0.00     0.009 C 
ENDBRANCH   7   8
ENDBRANCH   1   7
TORSDOF 2
ENDMDL
