MODEL 1
REMARK minimizedAffinity -3.85264063
REMARK minimizedRMSD -1
REMARK  2 active torsions:
REMARK  status: ('A' for Active; 'I' for Inactive)
REMARK    1  A    between atoms: C1_2  and  C2_3 
REMARK    2  A    between atoms: C2_3  and  C3_4 
ROOT
ATOM      1  C3  UNL d   1      -1.569   0.476   0.719  0.00  0.00    -0.075 A 
ATOM      2  C4  UNL d   1      -0.689  -0.615   0.749  0.00  0.00     0.002 A 
ATOM      3  C5  UNL d   1       0.441  -0.637  -0.069  0.00  0.00     0.002 A 
ATOM      4  C6  UNL d   1       0.699   0.424  -0.933  0.00  0.00    -0.004 A 
ATOM      5  C7  UNL d   1      -0.177   1.506  -0.984  0.00  0.00     0.002 A 
ATOM      6  C8  UNL d   1      -1.306   1.532  -0.163  0.00  0.00     0.002 A 
ENDROOT
BRANCH   1   7
ATOM      7  C2  UNL d   1      -2.778   0.519   1.623  0.00  0.00     0.056 C 
BRANCH   7   8
ATOM      8  C1  UNL d   1      -2.442   0.722   3.104  0.00  0.00     0.007 C 
ATOM      9  C   UNL d   1      -2.120   2.168   3.454  0.00  0.00     0.009 C 
ENDBRANCH   7   8
ENDBRANCH   1   7
TORSDOF 2
ENDMDL
