MODEL 1
REMARK minimizedAffinity -4.57153463
REMARK minimizedRMSD -1
REMARK  2 active torsions:
REMARK  status: ('A' for Active; 'I' for Inactive)
REMARK    1  A    between atoms: C1_2  and  C2_3 
REMARK    2  A    between atoms: C2_3  and  C3_4 
ROOT
ATOM      1  C3  UNL d   1      -0.548   0.025   0.277  0.00  0.00    -0.075 A 
ATOM      2  C4  UNL d   1       0.818  -0.157   0.014  0.00  0.00     0.002 A 
ATOM      3  C5  UNL d   1       1.485   0.684  -0.878  0.00  0.00     0.002 A 
ATOM      4  C6  UNL d   1       0.795   1.707  -1.524  0.00  0.00    -0.004 A 
ATOM      5  C7  UNL d   1      -0.565   1.886  -1.282  0.00  0.00     0.002 A 
ATOM      6  C8  UNL d   1      -1.234   1.050  -0.387  0.00  0.00     0.002 A 
ENDROOT
BRANCH   1   7
ATOM      7  C2  UNL d   1      -1.269  -0.863   1.263  0.00  0.00     0.056 C 
BRANCH   7   8
ATOM      8  C1  UNL d   1      -2.411  -0.166   2.010  0.00  0.00     0.007 C 
ATOM      9  C   UNL d   1      -1.931   0.706   3.162  0.00  0.00     0.009 C 
ENDBRANCH   7   8
ENDBRANCH   1   7
TORSDOF 2
ENDMDL
