MODEL 1
REMARK minimizedAffinity -1.37515318
REMARK minimizedRMSD -1
REMARK  2 active torsions:
REMARK  status: ('A' for Active; 'I' for Inactive)
REMARK    1  A    between atoms: C1_2  and  C2_3 
REMARK    2  A    between atoms: C2_3  and  C3_4 
ROOT
ATOM      1  C3  UNL d   1      -0.191  -0.033  -0.306  0.00  0.00    -0.075 A 
ATOM      2  C4  UNL d   1       0.983   0.614   0.108  0.00  0.00     0.002 A 
ATOM      3  C5  UNL d   1       2.230   0.163  -0.326  0.00  0.00     0.002 A 
ATOM      4  C6  UNL d   1       2.320  -0.943  -1.168  0.00  0.00    -0.004 A 
ATOM      5  C7  UNL d   1       1.161  -1.603  -1.572  0.00  0.00     0.002 A 
ATOM      6  C8  UNL d   1      -0.089  -1.152  -1.143  0.00  0.00     0.002 A 
ENDROOT
BRANCH   1   7
ATOM      7  C2  UNL d   1      -1.546   0.468   0.137  0.00  0.00     0.056 C 
BRANCH   7   8
ATOM      8  C1  UNL d   1      -1.770   0.405   1.651  0.00  0.00     0.007 C 
ATOM      9  C   UNL d   1      -1.841   1.779   2.305  0.00  0.00     0.009 C 
ENDBRANCH   7   8
ENDBRANCH   1   7
TORSDOF 2
ENDMDL
