MODEL 1
REMARK minimizedAffinity -5.44389534
REMARK minimizedRMSD -1
REMARK  2 active torsions:
REMARK  status: ('A' for Active; 'I' for Inactive)
REMARK    1  A    between atoms: C1_2  and  C2_3 
REMARK    2  A    between atoms: C2_3  and  C3_4 
ROOT
ATOM      1  C3  UNL d   1      -0.077   0.129  -0.234  0.00  0.00    -0.075 A 
ATOM      2  C4  UNL d   1       0.083  -1.257  -0.095  0.00  0.00     0.002 A 
ATOM      3  C5  UNL d   1       1.280  -1.872  -0.465  0.00  0.00     0.002 A 
ATOM      4  C6  UNL d   1       2.325  -1.112  -0.987  0.00  0.00    -0.004 A 
ATOM      5  C7  UNL d   1       2.170   0.263  -1.144  0.00  0.00     0.002 A 
ATOM      6  C8  UNL d   1       0.976   0.882  -0.771  0.00  0.00     0.002 A 
ENDROOT
BRANCH   1   7
ATOM      7  C2  UNL d   1      -1.359   0.805   0.192  0.00  0.00     0.056 C 
BRANCH   7   8
ATOM      8  C1  UNL d   1      -1.654   0.694   1.692  0.00  0.00     0.007 C 
ATOM      9  C   UNL d   1      -1.901   2.042   2.356  0.00  0.00     0.009 C 
ENDBRANCH   7   8
ENDBRANCH   1   7
TORSDOF 2
ENDMDL
