MODEL 1
REMARK minimizedAffinity -5.20747089
REMARK minimizedRMSD -1
REMARK  1 active torsions:
REMARK  status: ('A' for Active; 'I' for Inactive)
REMARK    1  A    between atoms: C1_2  and  C2_3 
ROOT
ATOM      1  C2  UNL d   1       0.287   0.429   0.004  0.00  0.00    -0.076 A 
ATOM      2  C3  UNL d   1      -0.193   1.557  -0.684  0.00  0.00     0.004 A 
ATOM      3  C4  UNL d   1      -1.195   2.358  -0.138  0.00  0.00    -0.003 A 
ATOM      4  C5  UNL d   1      -1.732   2.044   1.106  0.00  0.00     0.000 A 
ATOM      5  C6  UNL d   1      -1.255   0.939   1.810  0.00  0.00     0.000 A 
ATOM      6  C7  UNL d   1      -0.234   0.131   1.281  0.00  0.00    -0.073 A 
ATOM      7  C8  UNL d   1       0.238  -1.052   2.081  0.00  0.00     0.078 C 
ENDROOT
BRANCH   1   8
ATOM      8  C1  UNL d   1       1.356  -0.417  -0.650  0.00  0.00     0.053 C 
ATOM      9  C   UNL d   1       0.775  -1.476  -1.575  0.00  0.00     0.018 C 
ENDBRANCH   1   8
TORSDOF 1
ENDMDL
