MODEL 1
REMARK minimizedAffinity -4.60094118
REMARK minimizedRMSD -1
REMARK  1 active torsions:
REMARK  status: ('A' for Active; 'I' for Inactive)
REMARK    1  A    between atoms: C1_2  and  C2_3 
ROOT
ATOM      1  C2  UNL d   1      -0.973   0.932   0.212  0.00  0.00    -0.076 A 
ATOM      2  C3  UNL d   1      -0.537   1.624  -0.931  0.00  0.00     0.004 A 
ATOM      3  C4  UNL d   1       0.617   1.233  -1.609  0.00  0.00    -0.003 A 
ATOM      4  C5  UNL d   1       1.353   0.145  -1.155  0.00  0.00     0.000 A 
ATOM      5  C6  UNL d   1       0.926  -0.563  -0.032  0.00  0.00     0.000 A 
ATOM      6  C7  UNL d   1      -0.244  -0.193   0.654  0.00  0.00    -0.073 A 
ATOM      7  C8  UNL d   1      -0.655  -0.988   1.862  0.00  0.00     0.078 C 
ENDROOT
BRANCH   1   8
ATOM      8  C1  UNL d   1      -2.216   1.418   0.922  0.00  0.00     0.053 C 
ATOM      9  C   UNL d   1      -1.900   2.374   2.063  0.00  0.00     0.018 C 
ENDBRANCH   1   8
TORSDOF 1
ENDMDL
