MODEL 1
REMARK minimizedAffinity -2.77406168
REMARK minimizedRMSD -1
REMARK  1 active torsions:
REMARK  status: ('A' for Active; 'I' for Inactive)
REMARK    1  A    between atoms: C1_2  and  C2_3 
ROOT
ATOM      1  C2  UNL d   1      -0.023   0.417   0.219  0.00  0.00    -0.076 A 
ATOM      2  C3  UNL d   1      -0.013   1.654  -0.450  0.00  0.00     0.004 A 
ATOM      3  C4  UNL d   1      -0.722   2.745   0.051  0.00  0.00    -0.003 A 
ATOM      4  C5  UNL d   1      -1.450   2.617   1.229  0.00  0.00     0.000 A 
ATOM      5  C6  UNL d   1      -1.456   1.403   1.914  0.00  0.00     0.000 A 
ATOM      6  C7  UNL d   1      -0.734   0.298   1.431  0.00  0.00    -0.073 A 
ATOM      7  C8  UNL d   1      -0.781  -0.990   2.208  0.00  0.00     0.078 C 
ENDROOT
BRANCH   1   8
ATOM      8  C1  UNL d   1       0.742  -0.739  -0.386  0.00  0.00     0.053 C 
ATOM      9  C   UNL d   1      -0.032  -1.431  -1.498  0.00  0.00     0.018 C 
ENDBRANCH   1   8
TORSDOF 1
ENDMDL
