MODEL 1
REMARK minimizedAffinity -2.9275322
REMARK minimizedRMSD -1
REMARK  1 active torsions:
REMARK  status: ('A' for Active; 'I' for Inactive)
REMARK    1  A    between atoms: C1_2  and  C2_3 
ROOT
ATOM      1  C2  UNL d   1      -0.365   0.814   0.749  0.00  0.00    -0.076 A 
ATOM      2  C3  UNL d   1      -0.090   1.444  -0.477  0.00  0.00     0.004 A 
ATOM      3  C4  UNL d   1       0.796   0.879  -1.392  0.00  0.00    -0.003 A 
ATOM      4  C5  UNL d   1       1.422  -0.327  -1.097  0.00  0.00     0.000 A 
ATOM      5  C6  UNL d   1       1.148  -0.976   0.107  0.00  0.00     0.000 A 
ATOM      6  C7  UNL d   1       0.244  -0.427   1.033  0.00  0.00    -0.073 A 
ATOM      7  C8  UNL d   1      -0.009  -1.166   2.319  0.00  0.00     0.078 C 
ENDROOT
BRANCH   1   8
ATOM      8  C1  UNL d   1      -1.314   1.488   1.713  0.00  0.00     0.053 C 
ATOM      9  C   UNL d   1      -2.735   1.563   1.176  0.00  0.00     0.018 C 
ENDBRANCH   1   8
TORSDOF 1
ENDMDL
