MODEL 1
REMARK minimizedAffinity 1.00163364
REMARK minimizedRMSD -1
REMARK  1 active torsions:
REMARK  status: ('A' for Active; 'I' for Inactive)
REMARK    1  A    between atoms: C1_2  and  C2_3 
ROOT
ATOM      1  C2  UNL d   1       0.284  -0.512   0.085  0.00  0.00    -0.076 A 
ATOM      2  C3  UNL d   1       0.018  -1.339   1.190  0.00  0.00     0.004 A 
ATOM      3  C4  UNL d   1      -0.774  -0.893   2.246  0.00  0.00    -0.003 A 
ATOM      4  C5  UNL d   1      -1.314   0.388   2.214  0.00  0.00     0.000 A 
ATOM      5  C6  UNL d   1      -1.075   1.216   1.118  0.00  0.00     0.000 A 
ATOM      6  C7  UNL d   1      -0.292   0.776   0.037  0.00  0.00    -0.073 A 
ATOM      7  C8  UNL d   1      -0.062   1.713  -1.117  0.00  0.00     0.078 C 
ENDROOT
BRANCH   1   8
ATOM      8  C1  UNL d   1       1.173  -1.040  -1.019  0.00  0.00     0.053 C 
ATOM      9  C   UNL d   1       1.075  -2.550  -1.173  0.00  0.00     0.018 C 
ENDBRANCH   1   8
TORSDOF 1
ENDMDL
