MODEL 1
REMARK minimizedAffinity -5.50408602
REMARK minimizedRMSD -1
REMARK  1 active torsions:
REMARK  status: ('A' for Active; 'I' for Inactive)
REMARK    1  A    between atoms: C1_2  and  C2_3 
ROOT
ATOM      1  C2  UNL d   1      -0.050   0.656   0.271  0.00  0.00    -0.076 A 
ATOM      2  C3  UNL d   1      -0.035   1.832  -0.498  0.00  0.00     0.004 A 
ATOM      3  C4  UNL d   1      -0.784   2.945  -0.122  0.00  0.00    -0.003 A 
ATOM      4  C5  UNL d   1      -1.560   2.901   1.031  0.00  0.00     0.000 A 
ATOM      5  C6  UNL d   1      -1.574   1.749   1.816  0.00  0.00     0.000 A 
ATOM      6  C7  UNL d   1      -0.812   0.623   1.459  0.00  0.00    -0.073 A 
ATOM      7  C8  UNL d   1      -0.868  -0.595   2.340  0.00  0.00     0.078 C 
ENDROOT
BRANCH   1   8
ATOM      8  C1  UNL d   1       0.761  -0.530  -0.201  0.00  0.00     0.053 C 
ATOM      9  C   UNL d   1       1.874  -0.130  -1.156  0.00  0.00     0.018 C 
ENDBRANCH   1   8
TORSDOF 1
ENDMDL
