MODEL 1
REMARK minimizedAffinity -5.48398829
REMARK minimizedRMSD -1
REMARK  1 active torsions:
REMARK  status: ('A' for Active; 'I' for Inactive)
REMARK    1  A    between atoms: C1_2  and  C2_3 
ROOT
ATOM      1  C2  UNL d   1      -0.611   1.019  -0.290  0.00  0.00    -0.076 A 
ATOM      2  C3  UNL d   1      -1.723   1.271   0.533  0.00  0.00     0.004 A 
ATOM      3  C4  UNL d   1      -2.233   2.561   0.674  0.00  0.00    -0.003 A 
ATOM      4  C5  UNL d   1      -1.640   3.619  -0.006  0.00  0.00     0.000 A 
ATOM      5  C6  UNL d   1      -0.547   3.384  -0.840  0.00  0.00     0.000 A 
ATOM      6  C7  UNL d   1      -0.031   2.088  -1.006  0.00  0.00    -0.073 A 
ATOM      7  C8  UNL d   1       1.153   1.893  -1.914  0.00  0.00     0.078 C 
ENDROOT
BRANCH   1   8
ATOM      8  C1  UNL d   1      -0.085  -0.396  -0.383  0.00  0.00     0.053 C 
ATOM      9  C   UNL d   1       0.446  -0.908   0.946  0.00  0.00     0.018 C 
ENDBRANCH   1   8
TORSDOF 1
ENDMDL
