MODEL 1
REMARK minimizedAffinity -3.95102978
REMARK minimizedRMSD -1
REMARK  1 active torsions:
REMARK  status: ('A' for Active; 'I' for Inactive)
REMARK    1  A    between atoms: C1_2  and  C2_3 
ROOT
ATOM      1  C2  UNL d   1       0.044   0.264   0.092  0.00  0.00    -0.076 A 
ATOM      2  C3  UNL d   1      -0.665   1.221  -0.656  0.00  0.00     0.004 A 
ATOM      3  C4  UNL d   1      -1.727   1.927  -0.094  0.00  0.00    -0.003 A 
ATOM      4  C5  UNL d   1      -2.098   1.688   1.225  0.00  0.00     0.000 A 
ATOM      5  C6  UNL d   1      -1.395   0.755   1.986  0.00  0.00     0.000 A 
ATOM      6  C7  UNL d   1      -0.311   0.046   1.440  0.00  0.00    -0.073 A 
ATOM      7  C8  UNL d   1       0.408  -0.952   2.305  0.00  0.00     0.078 C 
ENDROOT
BRANCH   1   8
ATOM      8  C1  UNL d   1       1.170  -0.490  -0.579  0.00  0.00     0.053 C 
ATOM      9  C   UNL d   1       0.707  -1.802  -1.194  0.00  0.00     0.018 C 
ENDBRANCH   1   8
TORSDOF 1
ENDMDL
