MODEL 1
REMARK minimizedAffinity -3.67455935
REMARK minimizedRMSD -1
REMARK  1 active torsions:
REMARK  status: ('A' for Active; 'I' for Inactive)
REMARK    1  A    between atoms: C1_2  and  C2_3 
ROOT
ATOM      1  C2  UNL d   1       0.098   0.062  -0.133  0.00  0.00    -0.076 A 
ATOM      2  C3  UNL d   1       0.029  -0.821   0.959  0.00  0.00     0.004 A 
ATOM      3  C4  UNL d   1      -0.573  -0.436   2.155  0.00  0.00    -0.003 A 
ATOM      4  C5  UNL d   1      -1.118   0.837   2.279  0.00  0.00     0.000 A 
ATOM      5  C6  UNL d   1      -1.075   1.719   1.200  0.00  0.00     0.000 A 
ATOM      6  C7  UNL d   1      -0.485   1.342  -0.019  0.00  0.00    -0.073 A 
ATOM      7  C8  UNL d   1      -0.461   2.336  -1.147  0.00  0.00     0.078 C 
ENDROOT
BRANCH   1   8
ATOM      8  C1  UNL d   1       0.788  -0.401  -1.396  0.00  0.00     0.053 C 
ATOM      9  C   UNL d   1       0.794  -1.916  -1.535  0.00  0.00     0.018 C 
ENDBRANCH   1   8
TORSDOF 1
ENDMDL
