MODEL 1
REMARK minimizedAffinity -2.2934804
REMARK minimizedRMSD -1
REMARK  1 active torsions:
REMARK  status: ('A' for Active; 'I' for Inactive)
REMARK    1  A    between atoms: C1_2  and  C2_3 
ROOT
ATOM      1  C2  UNL d   1       0.131   0.063  -0.085  0.00  0.00    -0.076 A 
ATOM      2  C3  UNL d   1      -0.187  -0.767   1.004  0.00  0.00     0.004 A 
ATOM      3  C4  UNL d   1      -1.034  -0.326   2.019  0.00  0.00    -0.003 A 
ATOM      4  C5  UNL d   1      -1.578   0.952   1.962  0.00  0.00     0.000 A 
ATOM      5  C6  UNL d   1      -1.288   1.783   0.880  0.00  0.00     0.000 A 
ATOM      6  C7  UNL d   1      -0.448   1.348  -0.160  0.00  0.00    -0.073 A 
ATOM      7  C8  UNL d   1      -0.165   2.288  -1.300  0.00  0.00     0.078 C 
ENDROOT
BRANCH   1   8
ATOM      8  C1  UNL d   1       1.077  -0.459  -1.142  0.00  0.00     0.053 C 
ATOM      9  C   UNL d   1       0.803  -1.911  -1.503  0.00  0.00     0.018 C 
ENDBRANCH   1   8
TORSDOF 1
ENDMDL
