MODEL 1
REMARK minimizedAffinity -4.12850428
REMARK minimizedRMSD -1
REMARK  1 active torsions:
REMARK  status: ('A' for Active; 'I' for Inactive)
REMARK    1  A    between atoms: C1_2  and  C2_3 
ROOT
ATOM      1  C2  UNL d   1      -0.272   1.132  -0.227  0.00  0.00    -0.076 A 
ATOM      2  C3  UNL d   1      -1.105   0.835   0.865  0.00  0.00     0.004 A 
ATOM      3  C4  UNL d   1      -1.846   1.834   1.495  0.00  0.00    -0.003 A 
ATOM      4  C5  UNL d   1      -1.766   3.146   1.041  0.00  0.00     0.000 A 
ATOM      5  C6  UNL d   1      -0.958   3.456  -0.052  0.00  0.00     0.000 A 
ATOM      6  C7  UNL d   1      -0.217   2.458  -0.708  0.00  0.00    -0.073 A 
ATOM      7  C8  UNL d   1       0.643   2.849  -1.879  0.00  0.00     0.078 C 
ENDROOT
BRANCH   1   8
ATOM      8  C1  UNL d   1       0.529   0.012  -0.852  0.00  0.00     0.053 C 
ATOM      9  C   UNL d   1       1.234  -0.849   0.184  0.00  0.00     0.018 C 
ENDBRANCH   1   8
TORSDOF 1
ENDMDL
