MODEL 1
REMARK minimizedAffinity -5.3822813
REMARK minimizedRMSD -1
REMARK  1 active torsions:
REMARK  status: ('A' for Active; 'I' for Inactive)
REMARK    1  A    between atoms: C1_2  and  C2_3 
ROOT
ATOM      1  C2  UNL d   1      -0.137   1.216   0.143  0.00  0.00    -0.076 A 
ATOM      2  C3  UNL d   1      -0.650   0.504   1.241  0.00  0.00     0.004 A 
ATOM      3  C4  UNL d   1      -1.608   1.071   2.080  0.00  0.00    -0.003 A 
ATOM      4  C5  UNL d   1      -2.069   2.359   1.834  0.00  0.00     0.000 A 
ATOM      5  C6  UNL d   1      -1.585   3.074   0.739  0.00  0.00     0.000 A 
ATOM      6  C7  UNL d   1      -0.631   2.511  -0.126  0.00  0.00    -0.073 A 
ATOM      7  C8  UNL d   1      -0.138   3.329  -1.289  0.00  0.00     0.078 C 
ENDROOT
BRANCH   1   8
ATOM      8  C1  UNL d   1       0.921   0.560  -0.716  0.00  0.00     0.053 C 
ATOM      9  C   UNL d   1       0.867  -0.958  -0.648  0.00  0.00     0.018 C 
ENDBRANCH   1   8
TORSDOF 1
ENDMDL
