MODEL 1
REMARK minimizedAffinity -5.2182889
REMARK minimizedRMSD -1
REMARK  1 active torsions:
REMARK  status: ('A' for Active; 'I' for Inactive)
REMARK    1  A    between atoms: C1_2  and  C2_3 
ROOT
ATOM      1  C2  UNL d   1      -0.061   1.227   0.157  0.00  0.00    -0.076 A 
ATOM      2  C3  UNL d   1      -0.879   0.484   1.026  0.00  0.00     0.004 A 
ATOM      3  C4  UNL d   1      -1.997   1.060   1.627  0.00  0.00    -0.003 A 
ATOM      4  C5  UNL d   1      -2.316   2.388   1.367  0.00  0.00     0.000 A 
ATOM      5  C6  UNL d   1      -1.526   3.135   0.494  0.00  0.00     0.000 A 
ATOM      6  C7  UNL d   1      -0.405   2.565  -0.133  0.00  0.00    -0.073 A 
ATOM      7  C8  UNL d   1       0.415   3.418  -1.061  0.00  0.00     0.078 C 
ENDROOT
BRANCH   1   8
ATOM      8  C1  UNL d   1       1.154   0.557  -0.444  0.00  0.00     0.053 C 
ATOM      9  C   UNL d   1       1.011  -0.956  -0.513  0.00  0.00     0.018 C 
ENDBRANCH   1   8
TORSDOF 1
ENDMDL
