MODEL 1
REMARK minimizedAffinity -5.65421438
REMARK minimizedRMSD -1
REMARK  0 active torsions:
REMARK  status: ('A' for Active; 'I' for Inactive)
ROOT
ATOM      1  C2' OXE d   1       1.497  -2.397  -2.288  0.00  0.00     0.078 C 
ATOM      2  C1' OXE d   1       0.473  -3.432   0.112  0.00  0.00     0.078 C 
ATOM      3  C1  OXE d   1       0.209  -1.979  -0.197  0.00  0.00    -0.078 A 
ATOM      4  C2  OXE d   1       0.754  -1.469  -1.351  0.00  0.00    -0.078 A 
ATOM      5  C3  OXE d   1       0.496  -0.150  -1.711  0.00  0.00     0.003 A 
ATOM      6  C4  OXE d   1      -0.183   0.704  -0.834  0.00  0.00    -0.002 A 
ATOM      7  C5  OXE d   1      -0.712   0.216   0.365  0.00  0.00    -0.002 A 
ATOM      8  C6  OXE d   1      -0.562  -1.131   0.678  0.00  0.00     0.003 A 
ENDROOT
TORSDOF 0
ENDMDL
