MODEL 1
REMARK minimizedAffinity -5.46860743
REMARK minimizedRMSD -1
REMARK  0 active torsions:
REMARK  status: ('A' for Active; 'I' for Inactive)
ROOT
ATOM      1  C2' OXE d   1      -0.056   0.728  -1.147  0.00  0.00     0.078 C 
ATOM      2  C1' OXE d   1       0.450  -1.563  -2.688  0.00  0.00     0.078 C 
ATOM      3  C1  OXE d   1       0.270  -1.741  -1.201  0.00  0.00    -0.078 A 
ATOM      4  C2  OXE d   1       0.069  -0.609  -0.448  0.00  0.00    -0.078 A 
ATOM      5  C3  OXE d   1      -0.157  -0.722   0.920  0.00  0.00     0.003 A 
ATOM      6  C4  OXE d   1      -0.030  -1.961   1.560  0.00  0.00    -0.002 A 
ATOM      7  C5  OXE d   1       0.214  -3.122   0.817  0.00  0.00    -0.002 A 
ATOM      8  C6  OXE d   1       0.323  -3.035  -0.566  0.00  0.00     0.003 A 
ENDROOT
TORSDOF 0
ENDMDL
