MODEL 1
REMARK minimizedAffinity -2.78653836
REMARK minimizedRMSD -1
REMARK  0 active torsions:
REMARK  status: ('A' for Active; 'I' for Inactive)
ROOT
ATOM      1  C2' OXE d   1      -0.598  -3.056   0.690  0.00  0.00     0.078 C 
ATOM      2  C1' OXE d   1       1.768  -2.368  -0.656  0.00  0.00     0.078 C 
ATOM      3  C1  OXE d   1       0.852  -1.249  -0.224  0.00  0.00    -0.078 A 
ATOM      4  C2  OXE d   1      -0.325  -1.598   0.392  0.00  0.00    -0.078 A 
ATOM      5  C3  OXE d   1      -1.180  -0.603   0.859  0.00  0.00     0.003 A 
ATOM      6  C4  OXE d   1      -0.925   0.743   0.570  0.00  0.00    -0.002 A 
ATOM      7  C5  OXE d   1       0.249   1.118  -0.091  0.00  0.00    -0.002 A 
ATOM      8  C6  OXE d   1       1.167   0.139  -0.457  0.00  0.00     0.003 A 
ENDROOT
TORSDOF 0
ENDMDL
