MODEL 1
REMARK minimizedAffinity -5.21989822
REMARK minimizedRMSD -1
REMARK  0 active torsions:
REMARK  status: ('A' for Active; 'I' for Inactive)
ROOT
ATOM      1  C2' OXE d   1       0.299   0.190  -0.174  0.00  0.00     0.078 C 
ATOM      2  C1' OXE d   1       0.397  -1.150  -2.639  0.00  0.00     0.078 C 
ATOM      3  C1  OXE d   1       0.162  -1.975  -1.398  0.00  0.00    -0.078 A 
ATOM      4  C2  OXE d   1       0.162  -1.317  -0.192  0.00  0.00    -0.078 A 
ATOM      5  C3  OXE d   1      -0.104  -2.023   0.978  0.00  0.00     0.003 A 
ATOM      6  C4  OXE d   1      -0.219  -3.418   0.954  0.00  0.00    -0.002 A 
ATOM      7  C5  OXE d   1      -0.182  -4.112  -0.260  0.00  0.00    -0.002 A 
ATOM      8  C6  OXE d   1      -0.035  -3.403  -1.447  0.00  0.00     0.003 A 
ENDROOT
TORSDOF 0
ENDMDL
