MODEL 1
REMARK minimizedAffinity -3.08118963
REMARK minimizedRMSD -1
REMARK  0 active torsions:
REMARK  status: ('A' for Active; 'I' for Inactive)
ROOT
ATOM      1  C2' OXE d   1       0.276  -3.310   0.737  0.00  0.00     0.078 C 
ATOM      2  C1' OXE d   1      -1.300  -1.505   2.200  0.00  0.00     0.078 C 
ATOM      3  C1  OXE d   1      -0.637  -1.002   0.941  0.00  0.00    -0.078 A 
ATOM      4  C2  OXE d   1       0.169  -1.879   0.257  0.00  0.00    -0.078 A 
ATOM      5  C3  OXE d   1       0.760  -1.482  -0.939  0.00  0.00     0.003 A 
ATOM      6  C4  OXE d   1       0.665  -0.153  -1.370  0.00  0.00    -0.002 A 
ATOM      7  C5  OXE d   1      -0.119   0.767  -0.667  0.00  0.00    -0.002 A 
ATOM      8  C6  OXE d   1      -0.810   0.348   0.465  0.00  0.00     0.003 A 
ENDROOT
TORSDOF 0
ENDMDL
