MODEL 1
REMARK minimizedAffinity -3.01611304
REMARK minimizedRMSD -1
REMARK  0 active torsions:
REMARK  status: ('A' for Active; 'I' for Inactive)
ROOT
ATOM      1  C2' OXE d   1       0.070   1.506  -0.056  0.00  0.00     0.078 C 
ATOM      2  C1' OXE d   1       0.555   0.331  -2.559  0.00  0.00     0.078 C 
ATOM      3  C1  OXE d   1       0.024  -0.553  -1.458  0.00  0.00    -0.078 A 
ATOM      4  C2  OXE d   1      -0.166   0.020  -0.223  0.00  0.00    -0.078 A 
ATOM      5  C3  OXE d   1      -0.706  -0.737   0.813  0.00  0.00     0.003 A 
ATOM      6  C4  OXE d   1      -0.912  -2.112   0.652  0.00  0.00    -0.002 A 
ATOM      7  C5  OXE d   1      -0.688  -2.724  -0.586  0.00  0.00    -0.002 A 
ATOM      8  C6  OXE d   1      -0.261  -1.952  -1.660  0.00  0.00     0.003 A 
ENDROOT
TORSDOF 0
ENDMDL
