MODEL 1
REMARK minimizedAffinity -4.76858711
REMARK minimizedRMSD -1
REMARK  0 active torsions:
REMARK  status: ('A' for Active; 'I' for Inactive)
ROOT
ATOM      1  C2' OXE d   1      -0.636  -0.395   1.793  0.00  0.00     0.078 C 
ATOM      2  C1' OXE d   1       0.796   0.299  -0.520  0.00  0.00     0.078 C 
ATOM      3  C1  OXE d   1       0.304  -1.121  -0.396  0.00  0.00    -0.078 A 
ATOM      4  C2  OXE d   1      -0.355  -1.464   0.760  0.00  0.00    -0.078 A 
ATOM      5  C3  OXE d   1      -0.877  -2.747   0.901  0.00  0.00     0.003 A 
ATOM      6  C4  OXE d   1      -0.604  -3.733  -0.055  0.00  0.00    -0.002 A 
ATOM      7  C5  OXE d   1       0.100  -3.415  -1.222  0.00  0.00    -0.002 A 
ATOM      8  C6  OXE d   1       0.523  -2.106  -1.427  0.00  0.00     0.003 A 
ENDROOT
TORSDOF 0
ENDMDL
