MODEL 1
REMARK minimizedAffinity -4.38753605
REMARK minimizedRMSD -1
REMARK  0 active torsions:
REMARK  status: ('A' for Active; 'I' for Inactive)
ROOT
ATOM      1  C2' OXE d   1      -1.440  -0.751   1.706  0.00  0.00     0.078 C 
ATOM      2  C1' OXE d   1      -1.105  -3.006   0.068  0.00  0.00     0.078 C 
ATOM      3  C1  OXE d   1      -0.659  -1.671  -0.474  0.00  0.00    -0.078 A 
ATOM      4  C2  OXE d   1      -0.869  -0.566   0.316  0.00  0.00    -0.078 A 
ATOM      5  C3  OXE d   1      -0.427   0.682  -0.113  0.00  0.00     0.003 A 
ATOM      6  C4  OXE d   1       0.091   0.846  -1.403  0.00  0.00    -0.002 A 
ATOM      7  C5  OXE d   1       0.277  -0.260  -2.239  0.00  0.00    -0.002 A 
ATOM      8  C6  OXE d   1      -0.053  -1.529  -1.774  0.00  0.00     0.003 A 
ENDROOT
TORSDOF 0
ENDMDL
