MODEL 1
REMARK minimizedAffinity -2.23253965
REMARK minimizedRMSD -1
REMARK  0 active torsions:
REMARK  status: ('A' for Active; 'I' for Inactive)
ROOT
ATOM      1  C2' OXE d   1      -0.996  -1.002   1.513  0.00  0.00     0.078 C 
ATOM      2  C1' OXE d   1       0.075   0.653  -0.485  0.00  0.00     0.078 C 
ATOM      3  C1  OXE d   1      -0.006  -0.826  -0.766  0.00  0.00    -0.078 A 
ATOM      4  C2  OXE d   1      -0.488  -1.634   0.235  0.00  0.00    -0.078 A 
ATOM      5  C3  OXE d   1      -0.636  -3.000   0.008  0.00  0.00     0.003 A 
ATOM      6  C4  OXE d   1      -0.154  -3.578  -1.173  0.00  0.00    -0.002 A 
ATOM      7  C5  OXE d   1       0.377  -2.778  -2.190  0.00  0.00    -0.002 A 
ATOM      8  C6  OXE d   1       0.419  -1.398  -2.020  0.00  0.00     0.003 A 
ENDROOT
TORSDOF 0
ENDMDL
