MODEL 1
REMARK minimizedAffinity -6.16116667
REMARK minimizedRMSD -1
REMARK  0 active torsions:
REMARK  status: ('A' for Active; 'I' for Inactive)
ROOT
ATOM      1  C2' OXE d   1      -1.128  -0.632   1.564  0.00  0.00     0.078 C 
ATOM      2  C1' OXE d   1      -0.067   0.758  -0.631  0.00  0.00     0.078 C 
ATOM      3  C1  OXE d   1      -0.111  -0.747  -0.707  0.00  0.00    -0.078 A 
ATOM      4  C2  OXE d   1      -0.589  -1.422   0.391  0.00  0.00    -0.078 A 
ATOM      5  C3  OXE d   1      -0.702  -2.808   0.353  0.00  0.00     0.003 A 
ATOM      6  C4  OXE d   1      -0.191  -3.532  -0.731  0.00  0.00    -0.002 A 
ATOM      7  C5  OXE d   1       0.336  -2.866  -1.843  0.00  0.00    -0.002 A 
ATOM      8  C6  OXE d   1       0.345  -1.476  -1.865  0.00  0.00     0.003 A 
ENDROOT
TORSDOF 0
ENDMDL
