MODEL 1
REMARK minimizedAffinity -5.58447266
REMARK minimizedRMSD -1
REMARK  0 active torsions:
REMARK  status: ('A' for Active; 'I' for Inactive)
ROOT
ATOM      1  C2' OXE d   1      -0.861  -0.335   1.782  0.00  0.00     0.078 C 
ATOM      2  C1' OXE d   1       0.020   1.011  -0.519  0.00  0.00     0.078 C 
ATOM      3  C1  OXE d   1      -0.003  -0.497  -0.552  0.00  0.00    -0.078 A 
ATOM      4  C2  OXE d   1      -0.391  -1.148   0.595  0.00  0.00    -0.078 A 
ATOM      5  C3  OXE d   1      -0.483  -2.537   0.601  0.00  0.00     0.003 A 
ATOM      6  C4  OXE d   1      -0.037  -3.282  -0.498  0.00  0.00    -0.002 A 
ATOM      7  C5  OXE d   1       0.399  -2.639  -1.661  0.00  0.00    -0.002 A 
ATOM      8  C6  OXE d   1       0.382  -1.250  -1.719  0.00  0.00     0.003 A 
ENDROOT
TORSDOF 0
ENDMDL
