MODEL 1
REMARK minimizedAffinity -5.96336126
REMARK minimizedRMSD -1
REMARK  0 active torsions:
REMARK  status: ('A' for Active; 'I' for Inactive)
ROOT
ATOM      1  C2' OXE d   1      -1.842   0.689   1.847  0.00  0.00     0.078 C 
ATOM      2  C1' OXE d   1      -0.501   1.205  -0.564  0.00  0.00     0.078 C 
ATOM      3  C1  OXE d   1      -0.331  -0.159   0.057  0.00  0.00    -0.078 A 
ATOM      4  C2  OXE d   1      -0.953  -0.387   1.261  0.00  0.00    -0.078 A 
ATOM      5  C3  OXE d   1      -0.875  -1.645   1.850  0.00  0.00     0.003 A 
ATOM      6  C4  OXE d   1      -0.043  -2.632   1.306  0.00  0.00    -0.002 A 
ATOM      7  C5  OXE d   1       0.631  -2.407   0.101  0.00  0.00    -0.002 A 
ATOM      8  C6  OXE d   1       0.464  -1.193  -0.557  0.00  0.00     0.003 A 
ENDROOT
TORSDOF 0
ENDMDL
