MODEL 1
REMARK minimizedAffinity -6.06853437
REMARK minimizedRMSD -1
REMARK  0 active torsions:
REMARK  status: ('A' for Active; 'I' for Inactive)
ROOT
ATOM      1  C2' OXE d   1      -1.453  -0.102   1.664  0.00  0.00     0.078 C 
ATOM      2  C1' OXE d   1      -0.652   1.036  -0.775  0.00  0.00     0.078 C 
ATOM      3  C1  OXE d   1      -0.466  -0.451  -0.597  0.00  0.00    -0.078 A 
ATOM      4  C2  OXE d   1      -0.817  -0.991   0.617  0.00  0.00    -0.078 A 
ATOM      5  C3  OXE d   1      -0.717  -2.365   0.815  0.00  0.00     0.003 A 
ATOM      6  C4  OXE d   1      -0.119  -3.179  -0.155  0.00  0.00    -0.002 A 
ATOM      7  C5  OXE d   1       0.282  -2.642  -1.383  0.00  0.00    -0.002 A 
ATOM      8  C6  OXE d   1       0.077  -1.290  -1.635  0.00  0.00     0.003 A 
ENDROOT
TORSDOF 0
ENDMDL
