MODEL 1
REMARK minimizedAffinity -4.43874979
REMARK minimizedRMSD -1
REMARK  0 active torsions:
REMARK  status: ('A' for Active; 'I' for Inactive)
ROOT
ATOM      1  C2' OXE d   1      -0.724  -0.446   1.091  0.00  0.00     0.078 C 
ATOM      2  C1' OXE d   1       0.198   0.541  -1.370  0.00  0.00     0.078 C 
ATOM      3  C1  OXE d   1       0.140  -0.955  -1.189  0.00  0.00    -0.078 A 
ATOM      4  C2  OXE d   1      -0.268  -1.429   0.035  0.00  0.00    -0.078 A 
ATOM      5  C3  OXE d   1      -0.391  -2.800   0.237  0.00  0.00     0.003 A 
ATOM      6  C4  OXE d   1       0.043  -3.703  -0.742  0.00  0.00    -0.002 A 
ATOM      7  C5  OXE d   1       0.499  -3.241  -1.981  0.00  0.00    -0.002 A 
ATOM      8  C6  OXE d   1       0.514  -1.874  -2.236  0.00  0.00     0.003 A 
ENDROOT
TORSDOF 0
ENDMDL
