MODEL 1
REMARK minimizedAffinity -6.35765934
REMARK minimizedRMSD -1
REMARK  0 active torsions:
REMARK  status: ('A' for Active; 'I' for Inactive)
ROOT
ATOM      1  C2' OXE d   1      -1.377  -0.153   1.270  0.00  0.00     0.078 C 
ATOM      2  C1' OXE d   1      -0.239   0.614  -1.179  0.00  0.00     0.078 C 
ATOM      3  C1  OXE d   1      -0.203  -0.849  -0.814  0.00  0.00    -0.078 A 
ATOM      4  C2  OXE d   1      -0.720  -1.209   0.407  0.00  0.00    -0.078 A 
ATOM      5  C3  OXE d   1      -0.762  -2.552   0.769  0.00  0.00     0.003 A 
ATOM      6  C4  OXE d   1      -0.143  -3.521  -0.030  0.00  0.00    -0.002 A 
ATOM      7  C5  OXE d   1       0.426  -3.170  -1.259  0.00  0.00    -0.002 A 
ATOM      8  C6  OXE d   1       0.367  -1.848  -1.684  0.00  0.00     0.003 A 
ENDROOT
TORSDOF 0
ENDMDL
