MODEL 1
REMARK minimizedAffinity -4.14795399
REMARK minimizedRMSD -1
REMARK  0 active torsions:
REMARK  status: ('A' for Active; 'I' for Inactive)
ROOT
ATOM      1  C2' OXE d   1      -0.897  -0.510   2.005  0.00  0.00     0.078 C 
ATOM      2  C1' OXE d   1       0.182   0.897  -0.171  0.00  0.00     0.078 C 
ATOM      3  C1  OXE d   1      -0.029  -0.588  -0.329  0.00  0.00    -0.078 A 
ATOM      4  C2  OXE d   1      -0.514  -1.277   0.757  0.00  0.00    -0.078 A 
ATOM      5  C3  OXE d   1      -0.778  -2.639   0.648  0.00  0.00     0.003 A 
ATOM      6  C4  OXE d   1      -0.412  -3.342  -0.506  0.00  0.00    -0.002 A 
ATOM      7  C5  OXE d   1       0.121  -2.666  -1.610  0.00  0.00    -0.002 A 
ATOM      8  C6  OXE d   1       0.279  -1.286  -1.553  0.00  0.00     0.003 A 
ENDROOT
TORSDOF 0
ENDMDL
