MODEL 1
REMARK minimizedAffinity -5.7058301
REMARK minimizedRMSD -1
REMARK  0 active torsions:
REMARK  status: ('A' for Active; 'I' for Inactive)
ROOT
ATOM      1  C2' OXE d   1      -0.756  -0.259   1.411  0.00  0.00     0.078 C 
ATOM      2  C1' OXE d   1       0.454   0.667  -0.947  0.00  0.00     0.078 C 
ATOM      3  C1  OXE d   1       0.308  -0.823  -0.769  0.00  0.00    -0.078 A 
ATOM      4  C2  OXE d   1      -0.243  -1.269   0.408  0.00  0.00    -0.078 A 
ATOM      5  C3  OXE d   1      -0.450  -2.632   0.599  0.00  0.00     0.003 A 
ATOM      6  C4  OXE d   1       0.037  -3.561  -0.329  0.00  0.00    -0.002 A 
ATOM      7  C5  OXE d   1       0.637  -3.129  -1.517  0.00  0.00    -0.002 A 
ATOM      8  C6  OXE d   1       0.741  -1.766  -1.771  0.00  0.00     0.003 A 
ENDROOT
TORSDOF 0
ENDMDL
