MODEL 1
REMARK minimizedAffinity 7.18746471
REMARK minimizedRMSD -1
REMARK  1 active torsions:
REMARK  status: ('A' for Active; 'I' for Inactive)
REMARK    1  A    between atoms: C1_2  and  C2_3 
ROOT
ATOM      1  C2  UNL d   1       0.755   0.781   4.824  0.00  0.00    -0.073 A 
ATOM      2  C3  UNL d   1       0.374   1.225   3.553  0.00  0.00    -0.002 A 
ATOM      3  C4  UNL d   1       0.372   0.345   2.470  0.00  0.00     0.004 A 
ATOM      4  C5  UNL d   1       0.745  -0.987   2.648  0.00  0.00    -0.004 A 
ATOM      5  C6  UNL d   1       1.117  -1.453   3.913  0.00  0.00    -0.075 A 
ATOM      6  C7  UNL d   1       1.522  -2.883   4.121  0.00  0.00     0.076 C 
ATOM      7  C8  UNL d   1       1.119  -0.562   4.995  0.00  0.00     0.001 A 
ENDROOT
BRANCH   1   8
ATOM      8  C1  UNL d   1       0.752   1.726   5.998  0.00  0.00     0.053 C 
ATOM      9  C   UNL d   1      -0.472   2.628   6.000  0.00  0.00     0.018 C 
ENDBRANCH   1   8
TORSDOF 1
ENDMDL
