MODEL 1
REMARK minimizedAffinity 11.5010147
REMARK minimizedRMSD -1
REMARK  1 active torsions:
REMARK  status: ('A' for Active; 'I' for Inactive)
REMARK    1  A    between atoms: C1_2  and  C2_3 
ROOT
ATOM      1  C2  UNL d   1       2.420  -0.276  -4.734  0.00  0.00    -0.073 A 
ATOM      2  C3  UNL d   1       2.659  -1.375  -5.566  0.00  0.00    -0.002 A 
ATOM      3  C4  UNL d   1       1.654  -2.315  -5.800  0.00  0.00     0.004 A 
ATOM      4  C5  UNL d   1       0.400  -2.162  -5.210  0.00  0.00    -0.004 A 
ATOM      5  C6  UNL d   1       0.137  -1.064  -4.385  0.00  0.00    -0.075 A 
ATOM      6  C7  UNL d   1      -1.207  -0.886  -3.741  0.00  0.00     0.076 C 
ATOM      7  C8  UNL d   1       1.152  -0.126  -4.153  0.00  0.00     0.001 A 
ENDROOT
BRANCH   1   8
ATOM      8  C1  UNL d   1       3.500   0.745  -4.483  0.00  0.00     0.053 C 
ATOM      9  C   UNL d   1       4.481   0.832  -5.642  0.00  0.00     0.018 C 
ENDBRANCH   1   8
TORSDOF 1
ENDMDL
