MODEL 1
REMARK minimizedAffinity 20.2805099
REMARK minimizedRMSD -1
REMARK  1 active torsions:
REMARK  status: ('A' for Active; 'I' for Inactive)
REMARK    1  A    between atoms: C1_2  and  C2_3 
ROOT
ATOM      1  C2  UNL d   1       2.141  -1.444   3.892  0.00  0.00    -0.073 A 
ATOM      2  C3  UNL d   1       1.329  -0.771   2.972  0.00  0.00    -0.002 A 
ATOM      3  C4  UNL d   1       1.503   0.595   2.746  0.00  0.00     0.004 A 
ATOM      4  C5  UNL d   1       2.494   1.299   3.430  0.00  0.00    -0.004 A 
ATOM      5  C6  UNL d   1       3.323   0.642   4.345  0.00  0.00    -0.075 A 
ATOM      6  C7  UNL d   1       4.392   1.385   5.090  0.00  0.00     0.076 C 
ATOM      7  C8  UNL d   1       3.140  -0.729   4.569  0.00  0.00     0.001 A 
ENDROOT
BRANCH   1   8
ATOM      8  C1  UNL d   1       1.961  -2.920   4.136  0.00  0.00     0.053 C 
ATOM      9  C   UNL d   1       1.988  -3.261   5.617  0.00  0.00     0.018 C 
ENDBRANCH   1   8
TORSDOF 1
ENDMDL
