MODEL 1
REMARK minimizedAffinity 8.32351303
REMARK minimizedRMSD -1
REMARK  1 active torsions:
REMARK  status: ('A' for Active; 'I' for Inactive)
REMARK    1  A    between atoms: C1_2  and  C2_3 
ROOT
ATOM      1  C2  UNL d   1       4.870   3.335  -5.483  0.00  0.00    -0.073 A 
ATOM      2  C3  UNL d   1       5.971   2.819  -4.788  0.00  0.00    -0.002 A 
ATOM      3  C4  UNL d   1       5.955   1.504  -4.320  0.00  0.00     0.004 A 
ATOM      4  C5  UNL d   1       4.844   0.691  -4.547  0.00  0.00    -0.004 A 
ATOM      5  C6  UNL d   1       3.740   1.185  -5.249  0.00  0.00    -0.075 A 
ATOM      6  C7  UNL d   1       2.537   0.325  -5.499  0.00  0.00     0.076 C 
ATOM      7  C8  UNL d   1       3.762   2.507  -5.714  0.00  0.00     0.001 A 
ENDROOT
BRANCH   1   8
ATOM      8  C1  UNL d   1       4.885   4.751  -5.996  0.00  0.00     0.053 C 
ATOM      9  C   UNL d   1       6.000   5.573  -5.368  0.00  0.00     0.018 C 
ENDBRANCH   1   8
TORSDOF 1
ENDMDL
