MODEL 1
REMARK minimizedAffinity 20.1885986
REMARK minimizedRMSD -1
REMARK  1 active torsions:
REMARK  status: ('A' for Active; 'I' for Inactive)
REMARK    1  A    between atoms: C1_2  and  C2_3 
ROOT
ATOM      1  C2  UNL d   1      -4.150   1.516   0.596  0.00  0.00    -0.073 A 
ATOM      2  C3  UNL d   1      -4.379   0.372  -0.176  0.00  0.00    -0.002 A 
ATOM      3  C4  UNL d   1      -5.030   0.471  -1.406  0.00  0.00     0.004 A 
ATOM      4  C5  UNL d   1      -5.451   1.713  -1.880  0.00  0.00    -0.004 A 
ATOM      5  C6  UNL d   1      -5.221   2.870  -1.128  0.00  0.00    -0.075 A 
ATOM      6  C7  UNL d   1      -5.670   4.213  -1.622  0.00  0.00     0.076 C 
ATOM      7  C8  UNL d   1      -4.569   2.762   0.108  0.00  0.00     0.001 A 
ENDROOT
BRANCH   1   8
ATOM      8  C1  UNL d   1      -3.442   1.415   1.923  0.00  0.00     0.053 C 
ATOM      9  C   UNL d   1      -2.670   0.112   2.059  0.00  0.00     0.018 C 
ENDBRANCH   1   8
TORSDOF 1
ENDMDL
