MODEL 1
REMARK minimizedAffinity 4.01750708
REMARK minimizedRMSD -1
REMARK  1 active torsions:
REMARK  status: ('A' for Active; 'I' for Inactive)
REMARK    1  A    between atoms: C3_4  and  O_7 
ROOT
ATOM      1  C   UNL d   1      -4.384   5.074  -4.261  0.00  0.00    -0.033 A 
ATOM      2  C1  UNL d   1      -4.758   4.576  -3.012  0.00  0.00     0.039 A 
ATOM      3  C2  UNL d   1      -4.334   3.308  -2.608  0.00  0.00    -0.080 A 
ATOM      4  C3  UNL d   1      -3.537   2.551  -3.462  0.00  0.00     0.150 A 
ATOM      5  C4  UNL d   1      -3.157   3.043  -4.706  0.00  0.00    -0.007 A 
ATOM      6  C5  UNL d   1      -3.582   4.308  -5.108  0.00  0.00     0.039 A 
ENDROOT
BRANCH   4   7
ATOM      7  O   UNL d   1      -3.103   1.307  -3.114  0.00  0.00    -0.526 OA
ATOM      8  H5  UNL d   1      -3.466   1.087  -2.240  0.00  0.00     0.418 HD
ENDBRANCH   4   7
TORSDOF 1
ENDMDL
