MODEL 1
REMARK minimizedAffinity 8.17472458
REMARK minimizedRMSD -1
REMARK  1 active torsions:
REMARK  status: ('A' for Active; 'I' for Inactive)
REMARK    1  A    between atoms: C3_4  and  O_7 
ROOT
ATOM      1  C   UNL d   1       5.966  -3.920   0.019  0.00  0.00    -0.033 A 
ATOM      2  C1  UNL d   1       4.756  -3.422   0.506  0.00  0.00     0.039 A 
ATOM      3  C2  UNL d   1       3.556  -3.765  -0.119  0.00  0.00    -0.080 A 
ATOM      4  C3  UNL d   1       3.579  -4.608  -1.227  0.00  0.00     0.150 A 
ATOM      5  C4  UNL d   1       4.781  -5.111  -1.715  0.00  0.00    -0.007 A 
ATOM      6  C5  UNL d   1       5.978  -4.766  -1.091  0.00  0.00     0.039 A 
ENDROOT
BRANCH   4   7
ATOM      7  O   UNL d   1       2.434  -4.967  -1.873  0.00  0.00    -0.526 OA
ATOM      8  H5  UNL d   1       1.685  -4.521  -1.443  0.00  0.00     0.418 HD
ENDBRANCH   4   7
TORSDOF 1
ENDMDL
