MODEL 1
REMARK minimizedAffinity 7.24296284
REMARK minimizedRMSD -1
REMARK  1 active torsions:
REMARK  status: ('A' for Active; 'I' for Inactive)
REMARK    1  A    between atoms: C3_4  and  O_7 
ROOT
ATOM      1  C   UNL d   1       2.802  -0.994   0.257  0.00  0.00    -0.033 A 
ATOM      2  C1  UNL d   1       2.695  -2.295   0.754  0.00  0.00     0.039 A 
ATOM      3  C2  UNL d   1       1.921  -2.550   1.887  0.00  0.00    -0.080 A 
ATOM      4  C3  UNL d   1       1.259  -1.498   2.513  0.00  0.00     0.150 A 
ATOM      5  C4  UNL d   1       1.358  -0.200   2.022  0.00  0.00    -0.007 A 
ATOM      6  C5  UNL d   1       2.132   0.053   0.891  0.00  0.00     0.039 A 
ENDROOT
BRANCH   4   7
ATOM      7  O   UNL d   1       0.496  -1.697   3.625  0.00  0.00    -0.526 OA
ATOM      8  H5  UNL d   1       0.543  -2.637   3.867  0.00  0.00     0.418 HD
ENDBRANCH   4   7
TORSDOF 1
ENDMDL
