MODEL 1
REMARK minimizedAffinity -2.83368564
REMARK minimizedRMSD -1
REMARK  2 active torsions:
REMARK  status: ('A' for Active; 'I' for Inactive)
REMARK    1  A    between atoms: C2'_3  and  C1'_4 
REMARK    2  A    between atoms: C1'_4  and  C1_5 
ROOT
ATOM      1  C1  I4B d   1       4.121   0.917  -0.369  0.00  0.00    -0.075 A 
ATOM      2  C2  I4B d   1       4.102   0.192   0.796  0.00  0.00     0.003 A 
ATOM      3  C3  I4B d   1       5.034   0.471   1.825  0.00  0.00     0.002 A 
ATOM      4  C4  I4B d   1       5.994   1.443   1.627  0.00  0.00    -0.004 A 
ATOM      5  C5  I4B d   1       5.997   2.193   0.455  0.00  0.00     0.002 A 
ATOM      6  C6  I4B d   1       5.047   1.937  -0.545  0.00  0.00     0.003 A 
ENDROOT
BRANCH   1   7
ATOM      7  C1' I4B d   1       3.143   0.574  -1.448  0.00  0.00     0.060 C 
BRANCH   7   8
ATOM      8  C2' I4B d   1       2.956   1.801  -2.316  0.00  0.00    -0.013 C 
ATOM      9  C4' I4B d   1       3.344   1.523  -3.745  0.00  0.00     0.013 C 
ATOM     10  C3' I4B d   1       1.521   2.224  -2.217  0.00  0.00     0.013 C 
ENDBRANCH   7   8
ENDBRANCH   1   7
TORSDOF 2
ENDMDL
