MODEL 1
REMARK minimizedAffinity 2.89048624
REMARK minimizedRMSD -1
REMARK  2 active torsions:
REMARK  status: ('A' for Active; 'I' for Inactive)
REMARK    1  A    between atoms: C2'_3  and  C1'_4 
REMARK    2  A    between atoms: C1'_4  and  C1_5 
ROOT
ATOM      1  C1  I4B d   1       3.116   1.550  -0.795  0.00  0.00    -0.075 A 
ATOM      2  C2  I4B d   1       1.802   1.760  -1.132  0.00  0.00     0.003 A 
ATOM      3  C3  I4B d   1       1.438   1.977  -2.483  0.00  0.00     0.002 A 
ATOM      4  C4  I4B d   1       2.419   2.026  -3.452  0.00  0.00    -0.004 A 
ATOM      5  C5  I4B d   1       3.748   1.789  -3.112  0.00  0.00     0.002 A 
ATOM      6  C6  I4B d   1       4.098   1.538  -1.777  0.00  0.00     0.003 A 
ENDROOT
BRANCH   1   7
ATOM      7  C1' I4B d   1       3.469   1.357   0.645  0.00  0.00     0.060 C 
BRANCH   7   8
ATOM      8  C2' I4B d   1       3.690  -0.124   0.878  0.00  0.00    -0.013 C 
ATOM      9  C4' I4B d   1       5.156  -0.467   0.857  0.00  0.00     0.013 C 
ATOM     10  C3' I4B d   1       3.069  -0.484   2.194  0.00  0.00     0.013 C 
ENDBRANCH   7   8
ENDBRANCH   1   7
TORSDOF 2
ENDMDL
