MODEL 1
REMARK minimizedAffinity -1.53014863
REMARK minimizedRMSD -1
REMARK  2 active torsions:
REMARK  status: ('A' for Active; 'I' for Inactive)
REMARK    1  A    between atoms: C2'_3  and  C1'_4 
REMARK    2  A    between atoms: C1'_4  and  C1_5 
ROOT
ATOM      1  C1  I4B d   1       3.799   1.306  -0.818  0.00  0.00    -0.075 A 
ATOM      2  C2  I4B d   1       5.160   1.250  -0.987  0.00  0.00     0.003 A 
ATOM      3  C3  I4B d   1       5.978   0.656   0.005  0.00  0.00     0.002 A 
ATOM      4  C4  I4B d   1       5.402   0.181   1.165  0.00  0.00    -0.004 A 
ATOM      5  C5  I4B d   1       4.020   0.218   1.325  0.00  0.00     0.002 A 
ATOM      6  C6  I4B d   1       3.212   0.773   0.322  0.00  0.00     0.003 A 
ENDROOT
BRANCH   1   7
ATOM      7  C1' I4B d   1       2.969   1.970  -1.871  0.00  0.00     0.060 C 
BRANCH   7   8
ATOM      8  C2' I4B d   1       3.801   2.059  -3.134  0.00  0.00    -0.013 C 
ATOM      9  C4' I4B d   1       3.186   1.256  -4.250  0.00  0.00     0.013 C 
ATOM     10  C3' I4B d   1       3.918   3.506  -3.509  0.00  0.00     0.013 C 
ENDBRANCH   7   8
ENDBRANCH   1   7
TORSDOF 2
ENDMDL
