MODEL 1
REMARK minimizedAffinity 3.70127368
REMARK minimizedRMSD -1
REMARK  2 active torsions:
REMARK  status: ('A' for Active; 'I' for Inactive)
REMARK    1  A    between atoms: C2'_3  and  C1'_4 
REMARK    2  A    between atoms: C1'_4  and  C1_5 
ROOT
ATOM      1  C1  I4B d   1       4.210   1.218   0.213  0.00  0.00    -0.075 A 
ATOM      2  C2  I4B d   1       4.360  -0.076   0.647  0.00  0.00     0.003 A 
ATOM      3  C3  I4B d   1       5.249  -0.374   1.708  0.00  0.00     0.002 A 
ATOM      4  C4  I4B d   1       6.000   0.639   2.269  0.00  0.00    -0.004 A 
ATOM      5  C5  I4B d   1       5.830   1.953   1.844  0.00  0.00     0.002 A 
ATOM      6  C6  I4B d   1       4.920   2.247   0.818  0.00  0.00     0.003 A 
ENDROOT
BRANCH   1   7
ATOM      7  C1' I4B d   1       3.287   1.492  -0.932  0.00  0.00     0.060 C 
BRANCH   7   8
ATOM      8  C2' I4B d   1       4.112   1.510  -2.202  0.00  0.00    -0.013 C 
ATOM      9  C4' I4B d   1       3.903   0.253  -3.006  0.00  0.00     0.013 C 
ATOM     10  C3' I4B d   1       3.725   2.726  -2.989  0.00  0.00     0.013 C 
ENDBRANCH   7   8
ENDBRANCH   1   7
TORSDOF 2
ENDMDL
