MODEL 1
REMARK minimizedAffinity 3.39973569
REMARK minimizedRMSD -1
REMARK  2 active torsions:
REMARK  status: ('A' for Active; 'I' for Inactive)
REMARK    1  A    between atoms: C2'_3  and  C1'_4 
REMARK    2  A    between atoms: C1'_4  and  C1_5 
ROOT
ATOM      1  C1  I4B d   1       3.687   0.337   1.116  0.00  0.00    -0.075 A 
ATOM      2  C2  I4B d   1       3.714   1.480   0.356  0.00  0.00     0.003 A 
ATOM      3  C3  I4B d   1       2.588   2.337   0.316  0.00  0.00     0.002 A 
ATOM      4  C4  I4B d   1       1.445   1.989   1.008  0.00  0.00    -0.004 A 
ATOM      5  C5  I4B d   1       1.428   0.843   1.797  0.00  0.00     0.002 A 
ATOM      6  C6  I4B d   1       2.560   0.017   1.861  0.00  0.00     0.003 A 
ENDROOT
BRANCH   1   7
ATOM      7  C1' I4B d   1       4.882  -0.562   1.109  0.00  0.00     0.060 C 
BRANCH   7   8
ATOM      8  C2' I4B d   1       5.997   0.137   1.860  0.00  0.00    -0.013 C 
ATOM      9  C4' I4B d   1       5.837   1.633   1.806  0.00  0.00     0.013 C 
ATOM     10  C3' I4B d   1       5.982  -0.358   3.276  0.00  0.00     0.013 C 
ENDBRANCH   7   8
ENDBRANCH   1   7
TORSDOF 2
ENDMDL
