MODEL 1
REMARK minimizedAffinity 18.6561756
REMARK minimizedRMSD -1
REMARK  2 active torsions:
REMARK  status: ('A' for Active; 'I' for Inactive)
REMARK    1  A    between atoms: C2'_3  and  C1'_4 
REMARK    2  A    between atoms: C1'_4  and  C1_5 
ROOT
ATOM      1  C1  I4B d   1       1.813   1.157   1.673  0.00  0.00    -0.075 A 
ATOM      2  C2  I4B d   1       2.147   2.187   0.830  0.00  0.00     0.003 A 
ATOM      3  C3  I4B d   1       3.236   2.050  -0.065  0.00  0.00     0.002 A 
ATOM      4  C4  I4B d   1       3.989   0.894  -0.048  0.00  0.00    -0.004 A 
ATOM      5  C5  I4B d   1       3.634  -0.158   0.792  0.00  0.00     0.002 A 
ATOM      6  C6  I4B d   1       2.532  -0.031   1.649  0.00  0.00     0.003 A 
ENDROOT
BRANCH   1   7
ATOM      7  C1' I4B d   1       0.678   1.347   2.629  0.00  0.00     0.060 C 
BRANCH   7   8
ATOM      8  C2' I4B d   1       0.925   0.458   3.831  0.00  0.00    -0.013 C 
ATOM      9  C4' I4B d   1       1.231   1.274   5.059  0.00  0.00     0.013 C 
ATOM     10  C3' I4B d   1      -0.293  -0.393   4.036  0.00  0.00     0.013 C 
ENDBRANCH   7   8
ENDBRANCH   1   7
TORSDOF 2
ENDMDL
