MODEL 1
REMARK minimizedAffinity 18.7117443
REMARK minimizedRMSD -1
REMARK  2 active torsions:
REMARK  status: ('A' for Active; 'I' for Inactive)
REMARK    1  A    between atoms: C2'_3  and  C1'_4 
REMARK    2  A    between atoms: C1'_4  and  C1_5 
ROOT
ATOM      1  C1  I4B d   1      -1.949  -2.853   0.013  0.00  0.00    -0.075 A 
ATOM      2  C2  I4B d   1      -1.271  -2.191   1.006  0.00  0.00     0.003 A 
ATOM      3  C3  I4B d   1      -1.039  -2.821   2.253  0.00  0.00     0.002 A 
ATOM      4  C4  I4B d   1      -1.542  -4.085   2.480  0.00  0.00    -0.004 A 
ATOM      5  C5  I4B d   1      -2.209  -4.764   1.464  0.00  0.00     0.002 A 
ATOM      6  C6  I4B d   1      -2.403  -4.150   0.218  0.00  0.00     0.003 A 
ENDROOT
BRANCH   1   7
ATOM      7  C1' I4B d   1      -2.206  -2.146  -1.280  0.00  0.00     0.060 C 
BRANCH   7   8
ATOM      8  C2' I4B d   1      -2.592  -3.186  -2.312  0.00  0.00    -0.013 C 
ATOM      9  C4' I4B d   1      -4.088  -3.347  -2.390  0.00  0.00     0.013 C 
ATOM     10  C3' I4B d   1      -2.023  -2.761  -3.633  0.00  0.00     0.013 C 
ENDBRANCH   7   8
ENDBRANCH   1   7
TORSDOF 2
ENDMDL
