MODEL 1
REMARK minimizedAffinity 4.55975056
REMARK minimizedRMSD -1
REMARK  2 active torsions:
REMARK  status: ('A' for Active; 'I' for Inactive)
REMARK    1  A    between atoms: C2'_3  and  C1'_4 
REMARK    2  A    between atoms: C1'_4  and  C1_5 
ROOT
ATOM      1  C1  I4B d   1      -2.165  -2.948  -0.720  0.00  0.00    -0.075 A 
ATOM      2  C2  I4B d   1      -3.069  -3.973  -0.851  0.00  0.00     0.003 A 
ATOM      3  C3  I4B d   1      -3.615  -4.283  -2.120  0.00  0.00     0.002 A 
ATOM      4  C4  I4B d   1      -3.270  -3.517  -3.214  0.00  0.00    -0.004 A 
ATOM      5  C5  I4B d   1      -2.336  -2.494  -3.083  0.00  0.00     0.002 A 
ATOM      6  C6  I4B d   1      -1.770  -2.215  -1.831  0.00  0.00     0.003 A 
ENDROOT
BRANCH   1   7
ATOM      7  C1' I4B d   1      -1.633  -2.626   0.641  0.00  0.00     0.060 C 
BRANCH   7   8
ATOM      8  C2' I4B d   1      -0.505  -3.592   0.942  0.00  0.00    -0.013 C 
ATOM      9  C4' I4B d   1      -1.007  -5.010   1.018  0.00  0.00     0.013 C 
ATOM     10  C3' I4B d   1       0.532  -3.441  -0.131  0.00  0.00     0.013 C 
ENDBRANCH   7   8
ENDBRANCH   1   7
TORSDOF 2
ENDMDL
