MODEL 1
REMARK minimizedAffinity 11.159709
REMARK minimizedRMSD -1
REMARK  2 active torsions:
REMARK  status: ('A' for Active; 'I' for Inactive)
REMARK    1  A    between atoms: C2'_3  and  C1'_4 
REMARK    2  A    between atoms: C1'_4  and  C1_5 
ROOT
ATOM      1  C1  I4B d   1       3.815   1.091  -1.711  0.00  0.00    -0.075 A 
ATOM      2  C2  I4B d   1       2.676   1.143  -0.946  0.00  0.00     0.003 A 
ATOM      3  C3  I4B d   1       2.601   0.420   0.269  0.00  0.00     0.002 A 
ATOM      4  C4  I4B d   1       3.660  -0.376   0.653  0.00  0.00    -0.004 A 
ATOM      5  C5  I4B d   1       4.823  -0.409  -0.112  0.00  0.00     0.002 A 
ATOM      6  C6  I4B d   1       4.905   0.339  -1.295  0.00  0.00     0.003 A 
ENDROOT
BRANCH   1   7
ATOM      7  C1' I4B d   1       3.848   1.841  -3.005  0.00  0.00     0.060 C 
BRANCH   7   8
ATOM      8  C2' I4B d   1       4.255   0.871  -4.096  0.00  0.00    -0.013 C 
ATOM      9  C4' I4B d   1       3.218   0.810  -5.186  0.00  0.00     0.013 C 
ATOM     10  C3' I4B d   1       5.583   1.312  -4.636  0.00  0.00     0.013 C 
ENDBRANCH   7   8
ENDBRANCH   1   7
TORSDOF 2
ENDMDL
