MODEL 1
REMARK minimizedAffinity 2.02630067
REMARK minimizedRMSD -1
REMARK  2 active torsions:
REMARK  status: ('A' for Active; 'I' for Inactive)
REMARK    1  A    between atoms: C2'_3  and  C1'_4 
REMARK    2  A    between atoms: C1'_4  and  C1_5 
ROOT
ATOM      1  C1  I4B d   1      -2.665  -3.499  -0.686  0.00  0.00    -0.075 A 
ATOM      2  C2  I4B d   1      -2.244  -2.640  -1.670  0.00  0.00     0.003 A 
ATOM      3  C3  I4B d   1      -2.473  -2.951  -3.033  0.00  0.00     0.002 A 
ATOM      4  C4  I4B d   1      -3.077  -4.146  -3.365  0.00  0.00    -0.004 A 
ATOM      5  C5  I4B d   1      -3.525  -5.004  -2.365  0.00  0.00     0.002 A 
ATOM      6  C6  I4B d   1      -3.329  -4.673  -1.016  0.00  0.00     0.003 A 
ENDROOT
BRANCH   1   7
ATOM      7  C1' I4B d   1      -2.378  -3.155   0.742  0.00  0.00     0.060 C 
BRANCH   7   8
ATOM      8  C2' I4B d   1      -1.289  -4.086   1.236  0.00  0.00    -0.013 C 
ATOM      9  C4' I4B d   1       0.030  -3.780   0.577  0.00  0.00     0.013 C 
ATOM     10  C3' I4B d   1      -1.198  -3.942   2.725  0.00  0.00     0.013 C 
ENDBRANCH   7   8
ENDBRANCH   1   7
TORSDOF 2
ENDMDL
