MODEL 1
REMARK minimizedAffinity 8.08062744
REMARK minimizedRMSD -1
REMARK  2 active torsions:
REMARK  status: ('A' for Active; 'I' for Inactive)
REMARK    1  A    between atoms: C2'_3  and  C1'_4 
REMARK    2  A    between atoms: C1'_4  and  C1_5 
ROOT
ATOM      1  C1  I4B d   1      -0.572   2.242  -0.813  0.00  0.00    -0.075 A 
ATOM      2  C2  I4B d   1      -0.312   2.032   0.518  0.00  0.00     0.003 A 
ATOM      3  C3  I4B d   1       0.125   3.102   1.336  0.00  0.00     0.002 A 
ATOM      4  C4  I4B d   1       0.335   4.345   0.775  0.00  0.00    -0.004 A 
ATOM      5  C5  I4B d   1       0.049   4.562  -0.570  0.00  0.00     0.002 A 
ATOM      6  C6  I4B d   1      -0.419   3.507  -1.367  0.00  0.00     0.003 A 
ENDROOT
BRANCH   1   7
ATOM      7  C1' I4B d   1      -1.000   1.082  -1.656  0.00  0.00     0.060 C 
BRANCH   7   8
ATOM      8  C2' I4B d   1      -2.416   0.715  -1.260  0.00  0.00    -0.013 C 
ATOM      9  C4' I4B d   1      -3.425   1.484  -2.070  0.00  0.00     0.013 C 
ATOM     10  C3' I4B d   1      -2.581  -0.763  -1.450  0.00  0.00     0.013 C 
ENDBRANCH   7   8
ENDBRANCH   1   7
TORSDOF 2
ENDMDL
