MODEL 1
REMARK minimizedAffinity 8.32859802
REMARK minimizedRMSD -1
REMARK  2 active torsions:
REMARK  status: ('A' for Active; 'I' for Inactive)
REMARK    1  A    between atoms: C2'_3  and  C1'_4 
REMARK    2  A    between atoms: C1'_4  and  C1_5 
ROOT
ATOM      1  C1  I4B d   1       3.814  -4.649  -1.845  0.00  0.00    -0.075 A 
ATOM      2  C2  I4B d   1       3.155  -5.851  -1.765  0.00  0.00     0.003 A 
ATOM      3  C3  I4B d   1       2.048  -6.000  -0.894  0.00  0.00     0.002 A 
ATOM      4  C4  I4B d   1       1.669  -4.944  -0.091  0.00  0.00    -0.004 A 
ATOM      5  C5  I4B d   1       2.323  -3.720  -0.190  0.00  0.00     0.002 A 
ATOM      6  C6  I4B d   1       3.395  -3.567  -1.082  0.00  0.00     0.003 A 
ENDROOT
BRANCH   1   7
ATOM      7  C1' I4B d   1       4.999  -4.536  -2.750  0.00  0.00     0.060 C 
BRANCH   7   8
ATOM      8  C2' I4B d   1       4.579  -5.003  -4.129  0.00  0.00    -0.013 C 
ATOM      9  C4' I4B d   1       4.452  -3.844  -5.083  0.00  0.00     0.013 C 
ATOM     10  C3' I4B d   1       5.597  -5.993  -4.613  0.00  0.00     0.013 C 
ENDBRANCH   7   8
ENDBRANCH   1   7
TORSDOF 2
ENDMDL
