MODEL 1
REMARK minimizedAffinity 10.075676
REMARK minimizedRMSD -1
REMARK  2 active torsions:
REMARK  status: ('A' for Active; 'I' for Inactive)
REMARK    1  A    between atoms: C2'_3  and  C1'_4 
REMARK    2  A    between atoms: C1'_4  and  C1_5 
ROOT
ATOM      1  C1  I4B d   1      -1.304   0.917  -0.068  0.00  0.00    -0.075 A 
ATOM      2  C2  I4B d   1      -1.216   0.817   1.298  0.00  0.00     0.003 A 
ATOM      3  C3  I4B d   1      -0.823   1.936   2.071  0.00  0.00     0.002 A 
ATOM      4  C4  I4B d   1      -0.480   3.113   1.437  0.00  0.00    -0.004 A 
ATOM      5  C5  I4B d   1      -0.591   3.220   0.054  0.00  0.00     0.002 A 
ATOM      6  C6  I4B d   1      -1.018   2.119  -0.703  0.00  0.00     0.003 A 
ENDROOT
BRANCH   1   7
ATOM      7  C1' I4B d   1      -1.691  -0.294  -0.856  0.00  0.00     0.060 C 
BRANCH   7   8
ATOM      8  C2' I4B d   1      -0.993  -0.219  -2.199  0.00  0.00    -0.013 C 
ATOM      9  C4' I4B d   1       0.416  -0.743  -2.112  0.00  0.00     0.013 C 
ATOM     10  C3' I4B d   1      -1.804  -1.006  -3.186  0.00  0.00     0.013 C 
ENDBRANCH   7   8
ENDBRANCH   1   7
TORSDOF 2
ENDMDL
