MODEL 1
REMARK minimizedAffinity 9.43205547
REMARK minimizedRMSD -1
REMARK  2 active torsions:
REMARK  status: ('A' for Active; 'I' for Inactive)
REMARK    1  A    between atoms: C2'_3  and  C1'_4 
REMARK    2  A    between atoms: C1'_4  and  C1_5 
ROOT
ATOM      1  C1  I4B d   1      -1.008   0.804  -1.111  0.00  0.00    -0.075 A 
ATOM      2  C2  I4B d   1      -0.601  -0.424  -1.569  0.00  0.00     0.003 A 
ATOM      3  C3  I4B d   1      -1.546  -1.460  -1.765  0.00  0.00     0.002 A 
ATOM      4  C4  I4B d   1      -2.871  -1.241  -1.445  0.00  0.00    -0.004 A 
ATOM      5  C5  I4B d   1      -3.285   0.012  -1.003  0.00  0.00     0.002 A 
ATOM      6  C6  I4B d   1      -2.350   1.045  -0.847  0.00  0.00     0.003 A 
ENDROOT
BRANCH   1   7
ATOM      7  C1' I4B d   1       0.022   1.866  -0.885  0.00  0.00     0.060 C 
BRANCH   7   8
ATOM      8  C2' I4B d   1      -0.504   2.806   0.180  0.00  0.00    -0.013 C 
ATOM      9  C4' I4B d   1       0.071   2.476   1.532  0.00  0.00     0.013 C 
ATOM     10  C3' I4B d   1      -0.159   4.207  -0.227  0.00  0.00     0.013 C 
ENDBRANCH   7   8
ENDBRANCH   1   7
TORSDOF 2
ENDMDL
