MODEL 1
REMARK minimizedAffinity 10.7095118
REMARK minimizedRMSD -1
REMARK  2 active torsions:
REMARK  status: ('A' for Active; 'I' for Inactive)
REMARK    1  A    between atoms: C2'_3  and  C1'_4 
REMARK    2  A    between atoms: C1'_4  and  C1_5 
ROOT
ATOM      1  C1  I4B d   1      -1.007   1.079  -0.479  0.00  0.00    -0.075 A 
ATOM      2  C2  I4B d   1      -0.196   0.223  -1.181  0.00  0.00     0.003 A 
ATOM      3  C3  I4B d   1      -0.749  -0.899  -1.846  0.00  0.00     0.002 A 
ATOM      4  C4  I4B d   1      -2.102  -1.152  -1.741  0.00  0.00    -0.004 A 
ATOM      5  C5  I4B d   1      -2.926  -0.270  -1.048  0.00  0.00     0.002 A 
ATOM      6  C6  I4B d   1      -2.377   0.860  -0.423  0.00  0.00     0.003 A 
ENDROOT
BRANCH   1   7
ATOM      7  C1' I4B d   1      -0.385   2.235   0.238  0.00  0.00     0.060 C 
BRANCH   7   8
ATOM      8  C2' I4B d   1      -0.396   1.925   1.721  0.00  0.00    -0.013 C 
ATOM      9  C4' I4B d   1       0.786   2.546   2.417  0.00  0.00     0.013 C 
ATOM     10  C3' I4B d   1      -1.687   2.432   2.291  0.00  0.00     0.013 C 
ENDBRANCH   7   8
ENDBRANCH   1   7
TORSDOF 2
ENDMDL
