MODEL 1
REMARK minimizedAffinity 3.55886459
REMARK minimizedRMSD -1
REMARK  2 active torsions:
REMARK  status: ('A' for Active; 'I' for Inactive)
REMARK    1  A    between atoms: C2'_3  and  C1'_4 
REMARK    2  A    between atoms: C1'_4  and  C1_5 
ROOT
ATOM      1  C1  I4B d   1      -0.901   2.038  -1.033  0.00  0.00    -0.075 A 
ATOM      2  C2  I4B d   1      -0.910   3.075  -1.932  0.00  0.00     0.003 A 
ATOM      3  C3  I4B d   1      -0.313   4.314  -1.596  0.00  0.00     0.002 A 
ATOM      4  C4  I4B d   1       0.234   4.487  -0.340  0.00  0.00    -0.004 A 
ATOM      5  C5  I4B d   1       0.262   3.427   0.561  0.00  0.00     0.002 A 
ATOM      6  C6  I4B d   1      -0.297   2.190   0.208  0.00  0.00     0.003 A 
ENDROOT
BRANCH   1   7
ATOM      7  C1' I4B d   1      -1.570   0.753  -1.408  0.00  0.00     0.060 C 
BRANCH   7   8
ATOM      8  C2' I4B d   1      -3.067   0.982  -1.382  0.00  0.00    -0.013 C 
ATOM      9  C4' I4B d   1      -3.659   0.878  -2.763  0.00  0.00     0.013 C 
ATOM     10  C3' I4B d   1      -3.674  -0.029  -0.456  0.00  0.00     0.013 C 
ENDBRANCH   7   8
ENDBRANCH   1   7
TORSDOF 2
ENDMDL
