MODEL 1
REMARK minimizedAffinity 2.18592811
REMARK minimizedRMSD -1
REMARK  2 active torsions:
REMARK  status: ('A' for Active; 'I' for Inactive)
REMARK    1  A    between atoms: C2'_3  and  C1'_4 
REMARK    2  A    between atoms: C1'_4  and  C1_5 
ROOT
ATOM      1  C1  I4B d   1      -0.712   1.591  -0.779  0.00  0.00    -0.075 A 
ATOM      2  C2  I4B d   1       0.012   0.426  -0.832  0.00  0.00     0.003 A 
ATOM      3  C3  I4B d   1      -0.640  -0.809  -1.067  0.00  0.00     0.002 A 
ATOM      4  C4  I4B d   1      -2.014  -0.839  -1.192  0.00  0.00    -0.004 A 
ATOM      5  C5  I4B d   1      -2.744   0.346  -1.161  0.00  0.00     0.002 A 
ATOM      6  C6  I4B d   1      -2.088   1.570  -0.965  0.00  0.00     0.003 A 
ENDROOT
BRANCH   1   7
ATOM      7  C1' I4B d   1       0.005   2.873  -0.497  0.00  0.00     0.060 C 
BRANCH   7   8
ATOM      8  C2' I4B d   1       0.670   2.747   0.859  0.00  0.00    -0.013 C 
ATOM      9  C4' I4B d   1       1.819   3.712   0.994  0.00  0.00     0.013 C 
ATOM     10  C3' I4B d   1      -0.371   2.994   1.910  0.00  0.00     0.013 C 
ENDBRANCH   7   8
ENDBRANCH   1   7
TORSDOF 2
ENDMDL
