MODEL 1
REMARK minimizedAffinity 9.76657486
REMARK minimizedRMSD -1
REMARK  2 active torsions:
REMARK  status: ('A' for Active; 'I' for Inactive)
REMARK    1  A    between atoms: C2'_3  and  C1'_4 
REMARK    2  A    between atoms: C1'_4  and  C1_5 
ROOT
ATOM      1  C1  I4B d   1       0.444   3.478   1.491  0.00  0.00    -0.075 A 
ATOM      2  C2  I4B d   1      -0.574   2.558   1.432  0.00  0.00     0.003 A 
ATOM      3  C3  I4B d   1      -0.634   1.501   2.372  0.00  0.00     0.002 A 
ATOM      4  C4  I4B d   1       0.364   1.372   3.316  0.00  0.00    -0.004 A 
ATOM      5  C5  I4B d   1       1.382   2.318   3.388  0.00  0.00     0.002 A 
ATOM      6  C6  I4B d   1       1.416   3.385   2.478  0.00  0.00     0.003 A 
ENDROOT
BRANCH   1   7
ATOM      7  C1' I4B d   1       0.495   4.563   0.463  0.00  0.00     0.060 C 
BRANCH   7   8
ATOM      8  C2' I4B d   1      -0.878   4.672  -0.169  0.00  0.00    -0.013 C 
ATOM      9  C4' I4B d   1      -1.524   5.993   0.156  0.00  0.00     0.013 C 
ATOM     10  C3' I4B d   1      -0.721   4.496  -1.650  0.00  0.00     0.013 C 
ENDBRANCH   7   8
ENDBRANCH   1   7
TORSDOF 2
ENDMDL
