MODEL 1
REMARK minimizedAffinity 11.4646635
REMARK minimizedRMSD -1
REMARK  0 active torsions:
REMARK  status: ('A' for Active; 'I' for Inactive)
ROOT
ATOM      1  C   UNL d   1       1.406   2.933   1.035  0.00  0.00    -0.002 A 
ATOM      2  C1  UNL d   1       0.527   2.173   1.793  0.00  0.00     0.010 A 
ATOM      3  C2  UNL d   1       0.952   0.989   2.400  0.00  0.00     0.041 A 
ATOM      4  C3  UNL d   1       2.289   0.579   2.231  0.00  0.00    -0.075 A 
ATOM      5  S   UNL d   1       3.032  -0.835   2.881  0.00  0.00     0.015 SA
ATOM      6  C4  UNL d   1       4.535  -0.463   2.168  0.00  0.00     0.022 A 
ATOM      7  C5  UNL d   1       4.489   0.708   1.448  0.00  0.00     0.026 A 
ATOM      8  C6  UNL d   1       3.194   1.328   1.473  0.00  0.00    -0.082 A 
ATOM      9  C7  UNL d   1       2.732   2.523   0.870  0.00  0.00     0.045 A 
ENDROOT
TORSDOF 0
ENDMDL
