MODEL 1
REMARK minimizedAffinity 11.8711128
REMARK minimizedRMSD -1
REMARK  0 active torsions:
REMARK  status: ('A' for Active; 'I' for Inactive)
ROOT
ATOM      1  C   UNL d   1       5.998   3.191  -0.564  0.00  0.00    -0.002 A 
ATOM      2  C1  UNL d   1       5.998   3.539   0.779  0.00  0.00     0.010 A 
ATOM      3  C2  UNL d   1       5.996   2.554   1.768  0.00  0.00     0.041 A 
ATOM      4  C3  UNL d   1       5.996   1.199   1.381  0.00  0.00    -0.075 A 
ATOM      5  S   UNL d   1       5.994  -0.178   2.417  0.00  0.00     0.015 SA
ATOM      6  C4  UNL d   1       5.994  -1.261   1.101  0.00  0.00     0.022 A 
ATOM      7  C5  UNL d   1       5.995  -0.605  -0.107  0.00  0.00     0.026 A 
ATOM      8  C6  UNL d   1       5.997   0.824   0.034  0.00  0.00    -0.082 A 
ATOM      9  C7  UNL d   1       5.998   1.847  -0.945  0.00  0.00     0.045 A 
ENDROOT
TORSDOF 0
ENDMDL
