MODEL 1
REMARK minimizedAffinity 14.2881346
REMARK minimizedRMSD -1
REMARK  0 active torsions:
REMARK  status: ('A' for Active; 'I' for Inactive)
ROOT
ATOM      1  C   UNL d   1       6.000  -0.761   1.571  0.00  0.00    -0.002 A 
ATOM      2  C1  UNL d   1       5.945  -0.941   0.196  0.00  0.00     0.010 A 
ATOM      3  C2  UNL d   1       5.841   0.157  -0.660  0.00  0.00     0.041 A 
ATOM      4  C3  UNL d   1       5.796   1.452  -0.106  0.00  0.00    -0.075 A 
ATOM      5  S   UNL d   1       5.671   2.944  -0.960  0.00  0.00     0.015 SA
ATOM      6  C4  UNL d   1       5.689   3.856   0.481  0.00  0.00     0.022 A 
ATOM      7  C5  UNL d   1       5.787   3.057   1.595  0.00  0.00     0.026 A 
ATOM      8  C6  UNL d   1       5.851   1.658   1.276  0.00  0.00    -0.082 A 
ATOM      9  C7  UNL d   1       5.954   0.525   2.117  0.00  0.00     0.045 A 
ENDROOT
TORSDOF 0
ENDMDL
