MODEL 1
REMARK minimizedAffinity 1.93293893
REMARK minimizedRMSD -1
REMARK  0 active torsions:
REMARK  status: ('A' for Active; 'I' for Inactive)
ROOT
ATOM      1  C   UNL d   1      -5.152  -6.000  -1.542  0.00  0.00    -0.002 A 
ATOM      2  C1  UNL d   1      -3.764  -6.000  -1.504  0.00  0.00     0.010 A 
ATOM      3  C2  UNL d   1      -3.023  -5.601  -2.618  0.00  0.00     0.041 A 
ATOM      4  C3  UNL d   1      -3.706  -5.197  -3.782  0.00  0.00    -0.075 A 
ATOM      5  S   UNL d   1      -3.008  -4.668  -5.267  0.00  0.00     0.015 SA
ATOM      6  C4  UNL d   1      -4.534  -4.428  -5.986  0.00  0.00     0.022 A 
ATOM      7  C5  UNL d   1      -5.563  -4.740  -5.129  0.00  0.00     0.026 A 
ATOM      8  C6  UNL d   1      -5.103  -5.188  -3.844  0.00  0.00    -0.082 A 
ATOM      9  C7  UNL d   1      -5.826  -5.598  -2.699  0.00  0.00     0.045 A 
ENDROOT
TORSDOF 0
ENDMDL
