MODEL 1
REMARK minimizedAffinity 1.0699954
REMARK minimizedRMSD -1
REMARK  0 active torsions:
REMARK  status: ('A' for Active; 'I' for Inactive)
ROOT
ATOM      1  C   UNL d   1      -2.256  -2.497  -2.921  0.00  0.00    -0.002 A 
ATOM      2  C1  UNL d   1      -1.831  -3.818  -2.946  0.00  0.00     0.010 A 
ATOM      3  C2  UNL d   1      -1.326  -4.424  -1.793  0.00  0.00     0.041 A 
ATOM      4  C3  UNL d   1      -1.257  -3.673  -0.603  0.00  0.00    -0.075 A 
ATOM      5  S   UNL d   1      -0.676  -4.206   0.930  0.00  0.00     0.015 SA
ATOM      6  C4  UNL d   1      -0.980  -2.693   1.654  0.00  0.00     0.022 A 
ATOM      7  C5  UNL d   1      -1.511  -1.792   0.763  0.00  0.00     0.026 A 
ATOM      8  C6  UNL d   1      -1.680  -2.341  -0.553  0.00  0.00    -0.082 A 
ATOM      9  C7  UNL d   1      -2.186  -1.756  -1.739  0.00  0.00     0.045 A 
ENDROOT
TORSDOF 0
ENDMDL
