MODEL 1
REMARK minimizedAffinity 7.55728865
REMARK minimizedRMSD -1
REMARK  0 active torsions:
REMARK  status: ('A' for Active; 'I' for Inactive)
ROOT
ATOM      1  C   UNL d   1      -5.778  -4.738  -2.988  0.00  0.00    -0.002 A 
ATOM      2  C1  UNL d   1      -4.997  -5.625  -2.262  0.00  0.00     0.010 A 
ATOM      3  C2  UNL d   1      -3.733  -6.000  -2.723  0.00  0.00     0.041 A 
ATOM      4  C3  UNL d   1      -3.262  -5.461  -3.936  0.00  0.00    -0.075 A 
ATOM      5  S   UNL d   1      -1.746  -5.775  -4.694  0.00  0.00     0.015 SA
ATOM      6  C4  UNL d   1      -2.099  -4.737  -5.999  0.00  0.00     0.022 A 
ATOM      7  C5  UNL d   1      -3.339  -4.157  -5.876  0.00  0.00     0.026 A 
ATOM      8  C6  UNL d   1      -4.030  -4.564  -4.684  0.00  0.00    -0.082 A 
ATOM      9  C7  UNL d   1      -5.307  -4.205  -4.192  0.00  0.00     0.045 A 
ENDROOT
TORSDOF 0
ENDMDL
