MODEL 1
REMARK minimizedAffinity 11.1069984
REMARK minimizedRMSD -1
REMARK  0 active torsions:
REMARK  status: ('A' for Active; 'I' for Inactive)
ROOT
ATOM      1  C   UNL d   1      -2.268  -3.403   0.234  0.00  0.00    -0.002 A 
ATOM      2  C1  UNL d   1      -2.315  -2.456  -0.779  0.00  0.00     0.010 A 
ATOM      3  C2  UNL d   1      -3.069  -2.685  -1.932  0.00  0.00     0.041 A 
ATOM      4  C3  UNL d   1      -3.784  -3.893  -2.049  0.00  0.00    -0.075 A 
ATOM      5  S   UNL d   1      -4.775  -4.390  -3.370  0.00  0.00     0.015 SA
ATOM      6  C4  UNL d   1      -5.160  -5.871  -2.620  0.00  0.00     0.022 A 
ATOM      7  C5  UNL d   1      -4.556  -6.000  -1.392  0.00  0.00     0.026 A 
ATOM      8  C6  UNL d   1      -3.753  -4.862  -1.042  0.00  0.00    -0.082 A 
ATOM      9  C7  UNL d   1      -2.978  -4.600   0.113  0.00  0.00     0.045 A 
ENDROOT
TORSDOF 0
ENDMDL
