MODEL 1
REMARK minimizedAffinity 16.7562542
REMARK minimizedRMSD -1
REMARK  0 active torsions:
REMARK  status: ('A' for Active; 'I' for Inactive)
ROOT
ATOM      1  C   UNL d   1       5.204   3.716   0.409  0.00  0.00    -0.002 A 
ATOM      2  C1  UNL d   1       3.821   3.607   0.415  0.00  0.00     0.010 A 
ATOM      3  C2  UNL d   1       3.204   2.406   0.770  0.00  0.00     0.041 A 
ATOM      4  C3  UNL d   1       4.009   1.305   1.123  0.00  0.00    -0.075 A 
ATOM      5  S   UNL d   1       3.474  -0.265   1.592  0.00  0.00     0.015 SA
ATOM      6  C4  UNL d   1       5.070  -0.829   1.796  0.00  0.00     0.022 A 
ATOM      7  C5  UNL d   1       6.000   0.144   1.517  0.00  0.00     0.026 A 
ATOM      8  C6  UNL d   1       5.404   1.390   1.124  0.00  0.00    -0.082 A 
ATOM      9  C7  UNL d   1       5.999   2.621   0.759  0.00  0.00     0.045 A 
ENDROOT
TORSDOF 0
ENDMDL
