MODEL 1
REMARK minimizedAffinity 6.10003519
REMARK minimizedRMSD -1
REMARK  0 active torsions:
REMARK  status: ('A' for Active; 'I' for Inactive)
ROOT
ATOM      1  C   UNL d   1      -0.170  -2.534   1.404  0.00  0.00    -0.002 A 
ATOM      2  C1  UNL d   1      -1.104  -3.507   1.729  0.00  0.00     0.010 A 
ATOM      3  C2  UNL d   1      -2.127  -3.837   0.837  0.00  0.00     0.041 A 
ATOM      4  C3  UNL d   1      -2.195  -3.166  -0.400  0.00  0.00    -0.075 A 
ATOM      5  S   UNL d   1      -3.359  -3.404  -1.649  0.00  0.00     0.015 SA
ATOM      6  C4  UNL d   1      -2.643  -2.220  -2.644  0.00  0.00     0.022 A 
ATOM      7  C5  UNL d   1      -1.543  -1.646  -2.054  0.00  0.00     0.026 A 
ATOM      8  C6  UNL d   1      -1.265  -2.182  -0.750  0.00  0.00    -0.082 A 
ATOM      9  C7  UNL d   1      -0.241  -1.871   0.176  0.00  0.00     0.045 A 
ENDROOT
TORSDOF 0
ENDMDL
