MODEL 1
REMARK minimizedAffinity -0.219531804
REMARK minimizedRMSD -1
REMARK  0 active torsions:
REMARK  status: ('A' for Active; 'I' for Inactive)
ROOT
ATOM      1  C   UNL d   1      -5.960  -5.205  -3.053  0.00  0.00    -0.002 A 
ATOM      2  C1  UNL d   1      -5.068  -5.753  -2.142  0.00  0.00     0.010 A 
ATOM      3  C2  UNL d   1      -3.742  -5.997  -2.504  0.00  0.00     0.041 A 
ATOM      4  C3  UNL d   1      -3.322  -5.676  -3.810  0.00  0.00    -0.075 A 
ATOM      5  S   UNL d   1      -1.746  -5.886  -4.476  0.00  0.00     0.015 SA
ATOM      6  C4  UNL d   1      -2.219  -5.253  -5.986  0.00  0.00     0.022 A 
ATOM      7  C5  UNL d   1      -3.544  -4.886  -5.999  0.00  0.00     0.026 A 
ATOM      8  C6  UNL d   1      -4.201  -5.123  -4.745  0.00  0.00    -0.082 A 
ATOM      9  C7  UNL d   1      -5.540  -4.888  -4.348  0.00  0.00     0.045 A 
ENDROOT
TORSDOF 0
ENDMDL
