MODEL 1
REMARK minimizedAffinity 9.07216835
REMARK minimizedRMSD -1
REMARK  0 active torsions:
REMARK  status: ('A' for Active; 'I' for Inactive)
ROOT
ATOM      1  C   UNL d   1      -1.710  -3.132  -5.998  0.00  0.00    -0.002 A 
ATOM      2  C1  UNL d   1      -1.429  -4.491  -5.999  0.00  0.00     0.010 A 
ATOM      3  C2  UNL d   1      -0.108  -4.943  -5.999  0.00  0.00     0.041 A 
ATOM      4  C3  UNL d   1       0.936  -3.997  -5.997  0.00  0.00    -0.075 A 
ATOM      5  S   UNL d   1       2.630  -4.319  -5.996  0.00  0.00     0.015 SA
ATOM      6  C4  UNL d   1       3.021  -2.660  -5.993  0.00  0.00     0.022 A 
ATOM      7  C5  UNL d   1       1.898  -1.866  -5.993  0.00  0.00     0.026 A 
ATOM      8  C6  UNL d   1       0.679  -2.624  -5.995  0.00  0.00    -0.082 A 
ATOM      9  C7  UNL d   1      -0.671  -2.197  -5.995  0.00  0.00     0.045 A 
ENDROOT
TORSDOF 0
ENDMDL
