MODEL 1
REMARK minimizedAffinity 7.21345472
REMARK minimizedRMSD -1
REMARK  0 active torsions:
REMARK  status: ('A' for Active; 'I' for Inactive)
ROOT
ATOM      1  O1  BZF d   1       2.687  -0.025  -0.866  0.00  0.00    -0.204 OA
ATOM      2  C2  BZF d   1       2.606  -0.293   0.487  0.00  0.00     0.174 A 
ATOM      3  C3  BZF d   1       3.647   0.255   1.147  0.00  0.00    -0.012 A 
ATOM      4  C3A BZF d   1       4.377   0.985   0.156  0.00  0.00    -0.107 A 
ATOM      5  C4  BZF d   1       5.504   1.756   0.199  0.00  0.00     0.055 A 
ATOM      6  C5  BZF d   1       5.998   2.268  -0.959  0.00  0.00    -0.016 A 
ATOM      7  C6  BZF d   1       5.396   2.025  -2.176  0.00  0.00     0.022 A 
ATOM      8  C7  BZF d   1       4.274   1.270  -2.268  0.00  0.00     0.029 A 
ATOM      9  C7A BZF d   1       3.753   0.779  -1.096  0.00  0.00     0.058 A 
ENDROOT
TORSDOF 0
ENDMDL
