MODEL 1
REMARK minimizedAffinity 13.5816507
REMARK minimizedRMSD -1
REMARK  0 active torsions:
REMARK  status: ('A' for Active; 'I' for Inactive)
ROOT
ATOM      1  O1  BZF d   1       4.509   1.583  -2.686  0.00  0.00    -0.204 OA
ATOM      2  C2  BZF d   1       5.579   2.348  -2.263  0.00  0.00     0.174 A 
ATOM      3  C3  BZF d   1       5.640   2.381  -0.916  0.00  0.00    -0.012 A 
ATOM      4  C3A BZF d   1       4.594   1.513  -0.470  0.00  0.00    -0.107 A 
ATOM      5  C4  BZF d   1       4.160   1.122   0.764  0.00  0.00     0.055 A 
ATOM      6  C5  BZF d   1       3.066   0.321   0.857  0.00  0.00    -0.016 A 
ATOM      7  C6  BZF d   1       2.379  -0.102  -0.262  0.00  0.00     0.022 A 
ATOM      8  C7  BZF d   1       2.774   0.256  -1.508  0.00  0.00     0.029 A 
ATOM      9  C7A BZF d   1       3.899   1.038  -1.606  0.00  0.00     0.058 A 
ENDROOT
TORSDOF 0
ENDMDL
