MODEL 1
REMARK minimizedAffinity 5.77428627
REMARK minimizedRMSD -1
REMARK  0 active torsions:
REMARK  status: ('A' for Active; 'I' for Inactive)
ROOT
ATOM      1  O1  BZF d   1       4.375   1.452  -2.583  0.00  0.00    -0.204 OA
ATOM      2  C2  BZF d   1       5.520   2.224  -2.573  0.00  0.00     0.174 A 
ATOM      3  C3  BZF d   1       5.794   2.656  -1.325  0.00  0.00    -0.012 A 
ATOM      4  C3A BZF d   1       4.807   2.044  -0.489  0.00  0.00    -0.107 A 
ATOM      5  C4  BZF d   1       4.563   2.076   0.854  0.00  0.00     0.055 A 
ATOM      6  C5  BZF d   1       3.475   1.426   1.344  0.00  0.00    -0.016 A 
ATOM      7  C6  BZF d   1       2.608   0.739   0.519  0.00  0.00     0.022 A 
ATOM      8  C7  BZF d   1       2.810   0.676  -0.819  0.00  0.00     0.029 A 
ATOM      9  C7A BZF d   1       3.928   1.304  -1.313  0.00  0.00     0.058 A 
ENDROOT
TORSDOF 0
ENDMDL
