MODEL 1
REMARK minimizedAffinity 11.5511284
REMARK minimizedRMSD -1
REMARK  0 active torsions:
REMARK  status: ('A' for Active; 'I' for Inactive)
ROOT
ATOM      1  O1  BZF d   1       4.810   1.356  -2.821  0.00  0.00    -0.204 OA
ATOM      2  C2  BZF d   1       5.844   2.251  -2.631  0.00  0.00     0.174 A 
ATOM      3  C3  BZF d   1       6.000   2.530  -1.321  0.00  0.00    -0.012 A 
ATOM      4  C3A BZF d   1       5.060   1.691  -0.643  0.00  0.00    -0.107 A 
ATOM      5  C4  BZF d   1       4.750   1.501   0.674  0.00  0.00     0.055 A 
ATOM      6  C5  BZF d   1       3.732   0.662   0.998  0.00  0.00    -0.016 A 
ATOM      7  C6  BZF d   1       3.001   0.001   0.033  0.00  0.00     0.022 A 
ATOM      8  C7  BZF d   1       3.274   0.153  -1.286  0.00  0.00     0.029 A 
ATOM      9  C7A BZF d   1       4.324   0.976  -1.615  0.00  0.00     0.058 A 
ENDROOT
TORSDOF 0
ENDMDL
