MODEL 1
REMARK minimizedAffinity 9.19775581
REMARK minimizedRMSD -1
REMARK  0 active torsions:
REMARK  status: ('A' for Active; 'I' for Inactive)
ROOT
ATOM      1  O1  BZF d   1       5.025   1.982  -2.999  0.00  0.00    -0.204 OA
ATOM      2  C2  BZF d   1       5.999   2.823  -2.496  0.00  0.00     0.174 A 
ATOM      3  C3  BZF d   1       6.000   2.800  -1.147  0.00  0.00    -0.012 A 
ATOM      4  C3A BZF d   1       5.023   1.819  -0.787  0.00  0.00    -0.107 A 
ATOM      5  C4  BZF d   1       4.577   1.334   0.409  0.00  0.00     0.055 A 
ATOM      6  C5  BZF d   1       3.561   0.432   0.418  0.00  0.00    -0.016 A 
ATOM      7  C6  BZF d   1       2.964  -0.002  -0.747  0.00  0.00     0.022 A 
ATOM      8  C7  BZF d   1       3.375   0.448  -1.958  0.00  0.00     0.029 A 
ATOM      9  C7A BZF d   1       4.424   1.334  -1.973  0.00  0.00     0.058 A 
ENDROOT
TORSDOF 0
ENDMDL
