MODEL 1
REMARK minimizedAffinity 15.1877651
REMARK minimizedRMSD -1
REMARK  0 active torsions:
REMARK  status: ('A' for Active; 'I' for Inactive)
ROOT
ATOM      1  O1  BZF d   1       4.516   2.233  -2.592  0.00  0.00    -0.204 OA
ATOM      2  C2  BZF d   1       5.682   2.962  -2.457  0.00  0.00     0.174 A 
ATOM      3  C3  BZF d   1       5.998   3.122  -1.156  0.00  0.00    -0.012 A 
ATOM      4  C3A BZF d   1       5.014   2.374  -0.435  0.00  0.00    -0.107 A 
ATOM      5  C4  BZF d   1       4.804   2.134   0.893  0.00  0.00     0.055 A 
ATOM      6  C5  BZF d   1       3.710   1.422   1.271  0.00  0.00    -0.016 A 
ATOM      7  C6  BZF d   1       2.804   0.939   0.349  0.00  0.00     0.022 A 
ATOM      8  C7  BZF d   1       2.973   1.147  -0.979  0.00  0.00     0.029 A 
ATOM      9  C7A BZF d   1       4.095   1.838  -1.366  0.00  0.00     0.058 A 
ENDROOT
TORSDOF 0
ENDMDL
