MODEL 1
REMARK minimizedAffinity 5.39960146
REMARK minimizedRMSD -1
REMARK  0 active torsions:
REMARK  status: ('A' for Active; 'I' for Inactive)
ROOT
ATOM      1  O1  BZF d   1       4.527   0.968  -3.168  0.00  0.00    -0.204 OA
ATOM      2  C2  BZF d   1       5.667   1.740  -3.280  0.00  0.00     0.174 A 
ATOM      3  C3  BZF d   1       5.996   2.283  -2.089  0.00  0.00    -0.012 A 
ATOM      4  C3A BZF d   1       5.052   1.746  -1.157  0.00  0.00    -0.107 A 
ATOM      5  C4  BZF d   1       4.871   1.897   0.188  0.00  0.00     0.055 A 
ATOM      6  C5  BZF d   1       3.811   1.292   0.784  0.00  0.00    -0.016 A 
ATOM      7  C6  BZF d   1       2.910   0.533   0.065  0.00  0.00     0.022 A 
ATOM      8  C7  BZF d   1       3.050   0.350  -1.270  0.00  0.00     0.029 A 
ATOM      9  C7A BZF d   1       4.140   0.934  -1.870  0.00  0.00     0.058 A 
ENDROOT
TORSDOF 0
ENDMDL
