MODEL 1
REMARK minimizedAffinity 13.6806555
REMARK minimizedRMSD -1
REMARK  0 active torsions:
REMARK  status: ('A' for Active; 'I' for Inactive)
ROOT
ATOM      1  O1  BZF d   1       0.087   3.564   0.276  0.00  0.00    -0.204 OA
ATOM      2  C2  BZF d   1       0.395   4.436   1.303  0.00  0.00     0.174 A 
ATOM      3  C3  BZF d   1       1.477   4.009   1.985  0.00  0.00    -0.012 A 
ATOM      4  C3A BZF d   1       1.925   2.842   1.288  0.00  0.00    -0.107 A 
ATOM      5  C4  BZF d   1       2.968   1.980   1.473  0.00  0.00     0.055 A 
ATOM      6  C5  BZF d   1       3.084   0.899   0.659  0.00  0.00    -0.016 A 
ATOM      7  C6  BZF d   1       2.174   0.646  -0.347  0.00  0.00     0.022 A 
ATOM      8  C7  BZF d   1       1.126   1.475  -0.572  0.00  0.00     0.029 A 
ATOM      9  C7A BZF d   1       1.024   2.587   0.228  0.00  0.00     0.058 A 
ENDROOT
TORSDOF 0
ENDMDL
