MODEL 1
REMARK minimizedAffinity 14.5900345
REMARK minimizedRMSD -1
REMARK  0 active torsions:
REMARK  status: ('A' for Active; 'I' for Inactive)
ROOT
ATOM      1  O1  BZF d   1       1.119   4.262   1.476  0.00  0.00    -0.204 OA
ATOM      2  C2  BZF d   1      -0.123   4.834   1.674  0.00  0.00     0.174 A 
ATOM      3  C3  BZF d   1      -0.716   4.320   2.771  0.00  0.00    -0.012 A 
ATOM      4  C3A BZF d   1       0.251   3.434   3.342  0.00  0.00    -0.107 A 
ATOM      5  C4  BZF d   1       0.257   2.639   4.453  0.00  0.00     0.055 A 
ATOM      6  C5  BZF d   1       1.331   1.841   4.688  0.00  0.00    -0.016 A 
ATOM      7  C6  BZF d   1       2.413   1.808   3.833  0.00  0.00     0.022 A 
ATOM      8  C7  BZF d   1       2.455   2.583   2.722  0.00  0.00     0.029 A 
ATOM      9  C7A BZF d   1       1.386   3.415   2.498  0.00  0.00     0.058 A 
ENDROOT
TORSDOF 0
ENDMDL
