MODEL 1
REMARK minimizedAffinity 8.26111603
REMARK minimizedRMSD -1
REMARK  0 active torsions:
REMARK  status: ('A' for Active; 'I' for Inactive)
ROOT
ATOM      1  O1  BZF d   1       2.689   0.476  -0.986  0.00  0.00    -0.204 OA
ATOM      2  C2  BZF d   1       2.388   0.266   0.346  0.00  0.00     0.174 A 
ATOM      3  C3  BZF d   1       3.315   0.837   1.142  0.00  0.00    -0.012 A 
ATOM      4  C3A BZF d   1       4.204   1.521   0.254  0.00  0.00    -0.107 A 
ATOM      5  C4  BZF d   1       5.317   2.288   0.447  0.00  0.00     0.055 A 
ATOM      6  C5  BZF d   1       5.998   2.748  -0.636  0.00  0.00    -0.016 A 
ATOM      7  C6  BZF d   1       5.597   2.456  -1.923  0.00  0.00     0.022 A 
ATOM      8  C7  BZF d   1       4.496   1.703  -2.164  0.00  0.00     0.029 A 
ATOM      9  C7A BZF d   1       3.787   1.265  -1.073  0.00  0.00     0.058 A 
ENDROOT
TORSDOF 0
ENDMDL
