MODEL 1
REMARK minimizedAffinity -3.19618344
REMARK minimizedRMSD -1
REMARK  0 active torsions:
REMARK  status: ('A' for Active; 'I' for Inactive)
ROOT
ATOM      1  C   UNL d   1       1.073   2.609   1.541  0.00  0.00     0.020 A 
ATOM      2  C1  UNL d   1       2.211   2.059   2.130  0.00  0.00     0.020 A 
ATOM      3  C2  UNL d   1       2.123   0.847   2.819  0.00  0.00     0.034 A 
ATOM      4  C3  UNL d   1       0.896   0.182   2.920  0.00  0.00     0.017 A 
ATOM      5  C4  UNL d   1      -0.245   0.735   2.328  0.00  0.00     0.017 A 
ATOM      6  C5  UNL d   1      -0.152   1.948   1.640  0.00  0.00     0.034 A 
ATOM      7 Cl   UNL d   1      -1.794  -0.027   2.411  0.00  0.00    -0.070 Cl
ATOM      8 Cl1  UNL d   1       0.862  -1.313   3.786  0.00  0.00    -0.070 Cl
ENDROOT
TORSDOF 0
ENDMDL
