MODEL 1
REMARK minimizedAffinity -0.949689269
REMARK minimizedRMSD -1
REMARK  0 active torsions:
REMARK  status: ('A' for Active; 'I' for Inactive)
ROOT
ATOM      1  C   UNL d   1       2.202   0.145   0.466  0.00  0.00     0.020 A 
ATOM      2  C1  UNL d   1       1.452  -0.779  -0.261  0.00  0.00     0.020 A 
ATOM      3  C2  UNL d   1       0.057  -0.728  -0.226  0.00  0.00     0.034 A 
ATOM      4  C3  UNL d   1      -0.593   0.249   0.537  0.00  0.00     0.017 A 
ATOM      5  C4  UNL d   1       0.161   1.176   1.266  0.00  0.00     0.017 A 
ATOM      6  C5  UNL d   1       1.557   1.120   1.228  0.00  0.00     0.034 A 
ATOM      7 Cl   UNL d   1      -0.570   2.410   2.231  0.00  0.00    -0.070 Cl
ATOM      8 Cl1  UNL d   1      -2.321   0.253   0.534  0.00  0.00    -0.070 Cl
ENDROOT
TORSDOF 0
ENDMDL
