MODEL 1
REMARK minimizedAffinity -1.88490129
REMARK minimizedRMSD -1
REMARK  0 active torsions:
REMARK  status: ('A' for Active; 'I' for Inactive)
ROOT
ATOM      1  C   UNL d   1       2.093  -0.644   1.103  0.00  0.00     0.020 A 
ATOM      2  C1  UNL d   1       1.557  -0.953  -0.147  0.00  0.00     0.020 A 
ATOM      3  C2  UNL d   1       0.214  -0.681  -0.417  0.00  0.00     0.034 A 
ATOM      4  C3  UNL d   1      -0.598  -0.098   0.563  0.00  0.00     0.017 A 
ATOM      5  C4  UNL d   1      -0.059   0.212   1.817  0.00  0.00     0.017 A 
ATOM      6  C5  UNL d   1       1.286  -0.063   2.083  0.00  0.00     0.034 A 
ATOM      7 Cl   UNL d   1      -0.998   0.931   3.077  0.00  0.00    -0.070 Cl
ATOM      8 Cl1  UNL d   1      -2.249   0.210   0.159  0.00  0.00    -0.070 Cl
ENDROOT
TORSDOF 0
ENDMDL
