MODEL 1
REMARK minimizedAffinity -0.864239991
REMARK minimizedRMSD -1
REMARK  0 active torsions:
REMARK  status: ('A' for Active; 'I' for Inactive)
ROOT
ATOM      1  C   UNL d   1      -0.843  -0.319   3.964  0.00  0.00     0.020 A 
ATOM      2  C1  UNL d   1      -0.132   0.720   4.564  0.00  0.00     0.020 A 
ATOM      3  C2  UNL d   1       0.917   1.336   3.878  0.00  0.00     0.034 A 
ATOM      4  C3  UNL d   1       1.257   0.915   2.587  0.00  0.00     0.017 A 
ATOM      5  C4  UNL d   1       0.543  -0.128   1.986  0.00  0.00     0.017 A 
ATOM      6  C5  UNL d   1      -0.506  -0.741   2.677  0.00  0.00     0.034 A 
ATOM      7 Cl   UNL d   1       0.905  -0.703   0.396  0.00  0.00    -0.070 Cl
ATOM      8 Cl1  UNL d   1       2.565   1.722   1.797  0.00  0.00    -0.070 Cl
ENDROOT
TORSDOF 0
ENDMDL
