MODEL 1
REMARK minimizedAffinity -2.42285991
REMARK minimizedRMSD -1
REMARK  0 active torsions:
REMARK  status: ('A' for Active; 'I' for Inactive)
ROOT
ATOM      1  C   UNL d   1      -1.926  -0.427  -0.173  0.00  0.00     0.020 A 
ATOM      2  C1  UNL d   1      -0.771  -0.836  -0.838  0.00  0.00     0.020 A 
ATOM      3  C2  UNL d   1       0.474  -0.700  -0.222  0.00  0.00     0.034 A 
ATOM      4  C3  UNL d   1       0.568  -0.153   1.063  0.00  0.00     0.017 A 
ATOM      5  C4  UNL d   1      -0.591   0.258   1.730  0.00  0.00     0.017 A 
ATOM      6  C5  UNL d   1      -1.836   0.119   1.108  0.00  0.00     0.034 A 
ATOM      7 Cl   UNL d   1      -0.555   0.942   3.316  0.00  0.00    -0.070 Cl
ATOM      8 Cl1  UNL d   1       2.142  -0.015   1.764  0.00  0.00    -0.070 Cl
ENDROOT
TORSDOF 0
ENDMDL
