MODEL 1
REMARK minimizedAffinity -5.21203852
REMARK minimizedRMSD -1
REMARK  0 active torsions:
REMARK  status: ('A' for Active; 'I' for Inactive)
ROOT
ATOM      1  C   UNL d   1       0.882  -0.456  -1.052  0.00  0.00     0.020 A 
ATOM      2  C1  UNL d   1      -0.510  -0.401  -1.006  0.00  0.00     0.020 A 
ATOM      3  C2  UNL d   1      -1.156  -0.047   0.180  0.00  0.00     0.034 A 
ATOM      4  C3  UNL d   1      -0.410   0.253   1.326  0.00  0.00     0.017 A 
ATOM      5  C4  UNL d   1       0.988   0.197   1.279  0.00  0.00     0.017 A 
ATOM      6  C5  UNL d   1       1.629  -0.158   0.088  0.00  0.00     0.034 A 
ATOM      7 Cl   UNL d   1       1.976   0.554   2.651  0.00  0.00    -0.070 Cl
ATOM      8 Cl1  UNL d   1      -1.275   0.683   2.758  0.00  0.00    -0.070 Cl
ENDROOT
TORSDOF 0
ENDMDL
