MODEL 1
REMARK minimizedAffinity -3.7238133
REMARK minimizedRMSD -1
REMARK  0 active torsions:
REMARK  status: ('A' for Active; 'I' for Inactive)
ROOT
ATOM      1  C   UNL d   1       0.173  -0.634  -1.113  0.00  0.00     0.020 A 
ATOM      2  C1  UNL d   1       1.471  -0.967  -0.728  0.00  0.00     0.020 A 
ATOM      3  C2  UNL d   1       1.831  -0.925   0.621  0.00  0.00     0.034 A 
ATOM      4  C3  UNL d   1       0.892  -0.550   1.589  0.00  0.00     0.017 A 
ATOM      5  C4  UNL d   1      -0.410  -0.216   1.200  0.00  0.00     0.017 A 
ATOM      6  C5  UNL d   1      -0.765  -0.260  -0.151  0.00  0.00     0.034 A 
ATOM      7 Cl   UNL d   1      -1.624   0.257   2.337  0.00  0.00    -0.070 Cl
ATOM      8 Cl1  UNL d   1       1.407  -0.520   3.238  0.00  0.00    -0.070 Cl
ENDROOT
TORSDOF 0
ENDMDL
