MODEL 1
REMARK minimizedAffinity -4.72461653
REMARK minimizedRMSD -1
REMARK  0 active torsions:
REMARK  status: ('A' for Active; 'I' for Inactive)
ROOT
ATOM      1  C   UNL d   1       1.179  -0.241  -1.446  0.00  0.00     0.020 A 
ATOM      2  C1  UNL d   1      -0.101   0.275  -1.648  0.00  0.00     0.020 A 
ATOM      3  C2  UNL d   1      -0.918   0.564  -0.553  0.00  0.00     0.034 A 
ATOM      4  C3  UNL d   1      -0.457   0.336   0.749  0.00  0.00     0.017 A 
ATOM      5  C4  UNL d   1       0.827  -0.182   0.950  0.00  0.00     0.017 A 
ATOM      6  C5  UNL d   1       1.641  -0.469  -0.149  0.00  0.00     0.034 A 
ATOM      7 Cl   UNL d   1       1.465  -0.490   2.527  0.00  0.00    -0.070 Cl
ATOM      8 Cl1  UNL d   1      -1.521   0.716   2.056  0.00  0.00    -0.070 Cl
ENDROOT
TORSDOF 0
ENDMDL
