MODEL 1
REMARK minimizedAffinity 1.22191644
REMARK minimizedRMSD -1
REMARK  0 active torsions:
REMARK  status: ('A' for Active; 'I' for Inactive)
ROOT
ATOM      1  C2' OXE d   1      -2.984  -1.474  -3.196  0.00  0.00     0.078 C 
ATOM      2  C1' OXE d   1      -3.898   1.085  -2.494  0.00  0.00     0.078 C 
ATOM      3  C1  OXE d   1      -2.982   0.376  -1.529  0.00  0.00    -0.078 A 
ATOM      4  C2  OXE d   1      -2.577  -0.895  -1.859  0.00  0.00    -0.078 A 
ATOM      5  C3  OXE d   1      -1.688  -1.572  -1.030  0.00  0.00     0.003 A 
ATOM      6  C4  OXE d   1      -1.324  -1.033   0.210  0.00  0.00    -0.002 A 
ATOM      7  C5  OXE d   1      -1.756   0.243   0.584  0.00  0.00    -0.002 A 
ATOM      8  C6  OXE d   1      -2.550   0.977  -0.291  0.00  0.00     0.003 A 
ENDROOT
TORSDOF 0
ENDMDL
