MODEL 1
REMARK minimizedAffinity 7.26484489
REMARK minimizedRMSD -1
REMARK  0 active torsions:
REMARK  status: ('A' for Active; 'I' for Inactive)
ROOT
ATOM      1  C2' OXE d   1       1.603  -2.459  -0.688  0.00  0.00     0.078 C 
ATOM      2  C1' OXE d   1       1.571  -1.170   1.806  0.00  0.00     0.078 C 
ATOM      3  C1  OXE d   1       0.434  -0.891   0.855  0.00  0.00    -0.078 A 
ATOM      4  C2  OXE d   1       0.482  -1.489  -0.381  0.00  0.00    -0.078 A 
ATOM      5  C3  OXE d   1      -0.569  -1.309  -1.276  0.00  0.00     0.003 A 
ATOM      6  C4  OXE d   1      -1.597  -0.402  -0.989  0.00  0.00    -0.002 A 
ATOM      7  C5  OXE d   1      -1.644   0.249   0.249  0.00  0.00    -0.002 A 
ATOM      8  C6  OXE d   1      -0.661  -0.016   1.196  0.00  0.00     0.003 A 
ENDROOT
TORSDOF 0
ENDMDL
