MODEL 1
REMARK minimizedAffinity 10.9059639
REMARK minimizedRMSD -1
REMARK  0 active torsions:
REMARK  status: ('A' for Active; 'I' for Inactive)
ROOT
ATOM      1  C2' OXE d   1       5.996  -2.427   5.470  0.00  0.00     0.078 C 
ATOM      2  C1' OXE d   1       6.000  -2.115   2.680  0.00  0.00     0.078 C 
ATOM      3  C1  OXE d   1       4.672  -2.053   3.394  0.00  0.00    -0.078 A 
ATOM      4  C2  OXE d   1       4.675  -2.254   4.753  0.00  0.00    -0.078 A 
ATOM      5  C3  OXE d   1       3.484  -2.153   5.467  0.00  0.00     0.003 A 
ATOM      6  C4  OXE d   1       2.265  -2.002   4.795  0.00  0.00    -0.002 A 
ATOM      7  C5  OXE d   1       2.236  -1.836   3.406  0.00  0.00    -0.002 A 
ATOM      8  C6  OXE d   1       3.432  -1.816   2.697  0.00  0.00     0.003 A 
ENDROOT
TORSDOF 0
ENDMDL
