MODEL 1
REMARK minimizedAffinity 4.26750898
REMARK minimizedRMSD -1
REMARK  0 active torsions:
REMARK  status: ('A' for Active; 'I' for Inactive)
ROOT
ATOM      1  C2' OXE d   1       3.167   5.849  -5.173  0.00  0.00     0.078 C 
ATOM      2  C1' OXE d   1       5.974   5.820  -5.184  0.00  0.00     0.078 C 
ATOM      3  C1  OXE d   1       5.276   5.865  -3.848  0.00  0.00    -0.078 A 
ATOM      4  C2  OXE d   1       3.903   5.926  -3.853  0.00  0.00    -0.078 A 
ATOM      5  C3  OXE d   1       3.208   5.914  -2.647  0.00  0.00     0.003 A 
ATOM      6  C4  OXE d   1       3.897   5.996  -1.431  0.00  0.00    -0.002 A 
ATOM      7  C5  OXE d   1       5.296   5.975  -1.404  0.00  0.00    -0.002 A 
ATOM      8  C6  OXE d   1       5.998   5.867  -2.599  0.00  0.00     0.003 A 
ENDROOT
TORSDOF 0
ENDMDL
