MODEL 1
REMARK minimizedAffinity 1.71706355
REMARK minimizedRMSD -1
REMARK  0 active torsions:
REMARK  status: ('A' for Active; 'I' for Inactive)
ROOT
ATOM      1  C2' OXE d   1       6.000  -1.754   3.339  0.00  0.00     0.078 C 
ATOM      2  C1' OXE d   1       5.745  -2.673   5.980  0.00  0.00     0.078 C 
ATOM      3  C1  OXE d   1       4.529  -2.067   5.325  0.00  0.00    -0.078 A 
ATOM      4  C2  OXE d   1       4.675  -1.577   4.050  0.00  0.00    -0.078 A 
ATOM      5  C3  OXE d   1       3.571  -1.058   3.380  0.00  0.00     0.003 A 
ATOM      6  C4  OXE d   1       2.352  -0.888   4.048  0.00  0.00    -0.002 A 
ATOM      7  C5  OXE d   1       2.193  -1.344   5.361  0.00  0.00    -0.002 A 
ATOM      8  C6  OXE d   1       3.257  -1.972   5.998  0.00  0.00     0.003 A 
ENDROOT
TORSDOF 0
ENDMDL
