MODEL 1
REMARK minimizedAffinity 14.5869865
REMARK minimizedRMSD -1
REMARK  0 active torsions:
REMARK  status: ('A' for Active; 'I' for Inactive)
ROOT
ATOM      1  C2' OXE d   1       3.443  -2.748   5.968  0.00  0.00     0.078 C 
ATOM      2  C1' OXE d   1       2.904  -4.414   3.774  0.00  0.00     0.078 C 
ATOM      3  C1  OXE d   1       2.637  -2.938   3.619  0.00  0.00    -0.078 A 
ATOM      4  C2  OXE d   1       2.859  -2.136   4.713  0.00  0.00    -0.078 A 
ATOM      5  C3  OXE d   1       2.681  -0.760   4.606  0.00  0.00     0.003 A 
ATOM      6  C4  OXE d   1       2.131  -0.204   3.445  0.00  0.00    -0.002 A 
ATOM      7  C5  OXE d   1       1.860  -1.008   2.333  0.00  0.00    -0.002 A 
ATOM      8  C6  OXE d   1       2.147  -2.367   2.388  0.00  0.00     0.003 A 
ENDROOT
TORSDOF 0
ENDMDL
