MODEL 1
REMARK minimizedAffinity 3.63483763
REMARK minimizedRMSD -1
REMARK  0 active torsions:
REMARK  status: ('A' for Active; 'I' for Inactive)
ROOT
ATOM      1  C2' OXE d   1       3.606   3.055   3.247  0.00  0.00     0.078 C 
ATOM      2  C1' OXE d   1       2.528   2.504   0.714  0.00  0.00     0.078 C 
ATOM      3  C1  OXE d   1       2.454   1.421   1.761  0.00  0.00    -0.078 A 
ATOM      4  C2  OXE d   1       3.026   1.682   2.983  0.00  0.00    -0.078 A 
ATOM      5  C3  OXE d   1       2.938   0.738   4.002  0.00  0.00     0.003 A 
ATOM      6  C4  OXE d   1       2.408  -0.533   3.747  0.00  0.00    -0.002 A 
ATOM      7  C5  OXE d   1       1.856  -0.834   2.497  0.00  0.00    -0.002 A 
ATOM      8  C6  OXE d   1       1.833   0.144   1.509  0.00  0.00     0.003 A 
ENDROOT
TORSDOF 0
ENDMDL
