MODEL 1
REMARK minimizedAffinity 3.86695981
REMARK minimizedRMSD -1
REMARK  0 active torsions:
REMARK  status: ('A' for Active; 'I' for Inactive)
ROOT
ATOM      1  C2' OXE d   1       3.737  -2.304  -3.165  0.00  0.00     0.078 C 
ATOM      2  C1' OXE d   1       2.242  -2.244  -0.790  0.00  0.00     0.078 C 
ATOM      3  C1  OXE d   1       2.774  -3.577  -1.253  0.00  0.00    -0.078 A 
ATOM      4  C2  OXE d   1       3.465  -3.605  -2.441  0.00  0.00    -0.078 A 
ATOM      5  C3  OXE d   1       4.024  -4.799  -2.885  0.00  0.00     0.003 A 
ATOM      6  C4  OXE d   1       3.759  -5.999  -2.215  0.00  0.00    -0.002 A 
ATOM      7  C5  OXE d   1       3.024  -6.000  -1.024  0.00  0.00    -0.002 A 
ATOM      8  C6  OXE d   1       2.561  -4.794  -0.509  0.00  0.00     0.003 A 
ENDROOT
TORSDOF 0
ENDMDL
