MODEL 1
REMARK minimizedAffinity -4.45385599
REMARK minimizedRMSD -1
REMARK  1 active torsions:
REMARK  status: ('A' for Active; 'I' for Inactive)
REMARK    1  A    between atoms: C1_2  and  C2_3 
ROOT
ATOM      1  C2  UNL d   1      -0.203  -0.138   0.260  0.00  0.00    -0.077 A 
ATOM      2  C3  UNL d   1      -1.437  -0.599   0.740  0.00  0.00     0.002 A 
ATOM      3  C4  UNL d   1      -1.625  -0.821   2.105  0.00  0.00     0.002 A 
ATOM      4  C5  UNL d   1      -0.585  -0.582   3.001  0.00  0.00    -0.004 A 
ATOM      5  C6  UNL d   1       0.646  -0.126   2.534  0.00  0.00     0.002 A 
ATOM      6  C7  UNL d   1       0.836   0.096   1.169  0.00  0.00     0.002 A 
ENDROOT
BRANCH   1   7
ATOM      7  C1  UNL d   1      -0.014   0.150  -1.207  0.00  0.00     0.055 C 
ATOM      8  C   UNL d   1       0.259  -1.126  -1.991  0.00  0.00     0.019 C 
ENDBRANCH   1   7
TORSDOF 1
ENDMDL
