MODEL 1
REMARK minimizedAffinity -2.95555377
REMARK minimizedRMSD -1
REMARK  1 active torsions:
REMARK  status: ('A' for Active; 'I' for Inactive)
REMARK    1  A    between atoms: C1_2  and  C2_3 
ROOT
ATOM      1  C2  UNL d   1      -0.226  -0.409   1.280  0.00  0.00    -0.077 A 
ATOM      2  C3  UNL d   1       0.967  -0.555   0.556  0.00  0.00     0.002 A 
ATOM      3  C4  UNL d   1       0.958  -0.497  -0.839  0.00  0.00     0.002 A 
ATOM      4  C5  UNL d   1      -0.239  -0.290  -1.522  0.00  0.00    -0.004 A 
ATOM      5  C6  UNL d   1      -1.430  -0.145  -0.811  0.00  0.00     0.002 A 
ATOM      6  C7  UNL d   1      -1.423  -0.204   0.583  0.00  0.00     0.002 A 
ENDROOT
BRANCH   1   7
ATOM      7  C1  UNL d   1      -0.211  -0.421   2.786  0.00  0.00     0.055 C 
ATOM      8  C   UNL d   1       0.011   0.975   3.349  0.00  0.00     0.019 C 
ENDBRANCH   1   7
TORSDOF 1
ENDMDL
