MODEL 1
REMARK minimizedAffinity -4.78436184
REMARK minimizedRMSD -1
REMARK  1 active torsions:
REMARK  status: ('A' for Active; 'I' for Inactive)
REMARK    1  A    between atoms: C1_2  and  C2_3 
ROOT
ATOM      1  C2  UNL d   1       0.563  -0.313  -1.231  0.00  0.00    -0.077 A 
ATOM      2  C3  UNL d   1       0.442  -1.671  -1.555  0.00  0.00     0.002 A 
ATOM      3  C4  UNL d   1       0.810  -2.131  -2.821  0.00  0.00     0.002 A 
ATOM      4  C5  UNL d   1       1.306  -1.240  -3.771  0.00  0.00    -0.004 A 
ATOM      5  C6  UNL d   1       1.429   0.113  -3.459  0.00  0.00     0.002 A 
ATOM      6  C7  UNL d   1       1.060   0.575  -2.194  0.00  0.00     0.002 A 
ENDROOT
BRANCH   1   7
ATOM      7  C1  UNL d   1       0.213   0.177   0.150  0.00  0.00     0.055 C 
ATOM      8  C   UNL d   1      -1.139  -0.357   0.600  0.00  0.00     0.019 C 
ENDBRANCH   1   7
TORSDOF 1
ENDMDL
