MODEL 1
REMARK minimizedAffinity -3.6560576
REMARK minimizedRMSD -1
REMARK  1 active torsions:
REMARK  status: ('A' for Active; 'I' for Inactive)
REMARK    1  A    between atoms: C1_2  and  C2_3 
ROOT
ATOM      1  C2  UNL d   1      -1.198   0.085   2.060  0.00  0.00    -0.077 A 
ATOM      2  C3  UNL d   1      -0.143   0.102   2.983  0.00  0.00     0.002 A 
ATOM      3  C4  UNL d   1       1.169  -0.123   2.561  0.00  0.00     0.002 A 
ATOM      4  C5  UNL d   1       1.438  -0.361   1.215  0.00  0.00    -0.004 A 
ATOM      5  C6  UNL d   1       0.396  -0.381   0.289  0.00  0.00     0.002 A 
ATOM      6  C7  UNL d   1      -0.916  -0.158   0.710  0.00  0.00     0.002 A 
ENDROOT
BRANCH   1   7
ATOM      7  C1  UNL d   1      -2.607   0.376   2.506  0.00  0.00     0.055 C 
ATOM      8  C   UNL d   1      -3.560   0.444   1.321  0.00  0.00     0.019 C 
ENDBRANCH   1   7
TORSDOF 1
ENDMDL
