MODEL 1
REMARK minimizedAffinity -4.51673031
REMARK minimizedRMSD -1
REMARK  1 active torsions:
REMARK  status: ('A' for Active; 'I' for Inactive)
REMARK    1  A    between atoms: C1_2  and  C2_3 
ROOT
ATOM      1  C2  UNL d   1      -0.007   0.023   0.162  0.00  0.00    -0.077 A 
ATOM      2  C3  UNL d   1       0.903   0.329   1.183  0.00  0.00     0.002 A 
ATOM      3  C4  UNL d   1       0.745  -0.217   2.458  0.00  0.00     0.002 A 
ATOM      4  C5  UNL d   1      -0.320  -1.076   2.723  0.00  0.00    -0.004 A 
ATOM      5  C6  UNL d   1      -1.232  -1.385   1.715  0.00  0.00     0.002 A 
ATOM      6  C7  UNL d   1      -1.076  -0.839   0.440  0.00  0.00     0.002 A 
ENDROOT
BRANCH   1   7
ATOM      7  C1  UNL d   1       0.189   0.572  -1.226  0.00  0.00     0.055 C 
ATOM      8  C   UNL d   1       0.443  -0.542  -2.231  0.00  0.00     0.019 C 
ENDBRANCH   1   7
TORSDOF 1
ENDMDL
