MODEL 1
REMARK minimizedAffinity -3.91941023
REMARK minimizedRMSD -1
REMARK  1 active torsions:
REMARK  status: ('A' for Active; 'I' for Inactive)
REMARK    1  A    between atoms: C1_2  and  C2_3 
ROOT
ATOM      1  C2  UNL d   1       0.191  -0.109   1.471  0.00  0.00    -0.077 A 
ATOM      2  C3  UNL d   1      -0.821   0.323   0.602  0.00  0.00     0.002 A 
ATOM      3  C4  UNL d   1      -0.699   0.129  -0.776  0.00  0.00     0.002 A 
ATOM      4  C5  UNL d   1       0.430  -0.501  -1.295  0.00  0.00    -0.004 A 
ATOM      5  C6  UNL d   1       1.442  -0.932  -0.439  0.00  0.00     0.002 A 
ATOM      6  C7  UNL d   1       1.323  -0.738   0.937  0.00  0.00     0.002 A 
ENDROOT
BRANCH   1   7
ATOM      7  C1  UNL d   1       0.040   0.056   2.960  0.00  0.00     0.055 C 
ATOM      8  C   UNL d   1      -1.426   0.078   3.369  0.00  0.00     0.019 C 
ENDBRANCH   1   7
TORSDOF 1
ENDMDL
