MODEL 1
REMARK minimizedAffinity -4.67108488
REMARK minimizedRMSD -1
REMARK  1 active torsions:
REMARK  status: ('A' for Active; 'I' for Inactive)
REMARK    1  A    between atoms: C1_2  and  C2_3 
ROOT
ATOM      1  C2  UNL d   1      -0.124   0.317   0.250  0.00  0.00    -0.077 A 
ATOM      2  C3  UNL d   1       0.646   0.871   1.282  0.00  0.00     0.002 A 
ATOM      3  C4  UNL d   1       0.433   0.486   2.607  0.00  0.00     0.002 A 
ATOM      4  C5  UNL d   1      -0.546  -0.457   2.911  0.00  0.00    -0.004 A 
ATOM      5  C6  UNL d   1      -1.319  -1.012   1.892  0.00  0.00     0.002 A 
ATOM      6  C7  UNL d   1      -1.108  -0.628   0.567  0.00  0.00     0.002 A 
ENDROOT
BRANCH   1   7
ATOM      7  C1  UNL d   1       0.138   0.694  -1.185  0.00  0.00     0.055 C 
ATOM      8  C   UNL d   1       0.161  -0.533  -2.085  0.00  0.00     0.019 C 
ENDBRANCH   1   7
TORSDOF 1
ENDMDL
