MODEL 1
REMARK minimizedAffinity -4.03829241
REMARK minimizedRMSD -1
REMARK  1 active torsions:
REMARK  status: ('A' for Active; 'I' for Inactive)
REMARK    1  A    between atoms: C1_2  and  C2_3 
ROOT
ATOM      1  C2  UNL d   1       0.288   0.006  -0.366  0.00  0.00    -0.077 A 
ATOM      2  C3  UNL d   1      -0.190  -1.248   0.041  0.00  0.00     0.002 A 
ATOM      3  C4  UNL d   1      -0.152  -1.614   1.388  0.00  0.00     0.002 A 
ATOM      4  C5  UNL d   1       0.357  -0.731   2.338  0.00  0.00    -0.004 A 
ATOM      5  C6  UNL d   1       0.837   0.517   1.942  0.00  0.00     0.002 A 
ATOM      6  C7  UNL d   1       0.801   0.884   0.597  0.00  0.00     0.002 A 
ENDROOT
BRANCH   1   7
ATOM      7  C1  UNL d   1       0.203   0.422  -1.812  0.00  0.00     0.055 C 
ATOM      8  C   UNL d   1       0.626  -0.708  -2.739  0.00  0.00     0.019 C 
ENDBRANCH   1   7
TORSDOF 1
ENDMDL
