MODEL 1
REMARK minimizedAffinity -4.62749481
REMARK minimizedRMSD -1
REMARK  1 active torsions:
REMARK  status: ('A' for Active; 'I' for Inactive)
REMARK    1  A    between atoms: C1_2  and  C2_3 
ROOT
ATOM      1  C2  UNL d   1       0.249  -0.192   0.412  0.00  0.00    -0.077 A 
ATOM      2  C3  UNL d   1       0.209   0.714  -0.657  0.00  0.00     0.002 A 
ATOM      3  C4  UNL d   1       0.335   0.262  -1.972  0.00  0.00     0.002 A 
ATOM      4  C5  UNL d   1       0.496  -1.097  -2.230  0.00  0.00    -0.004 A 
ATOM      5  C6  UNL d   1       0.539  -2.007  -1.174  0.00  0.00     0.002 A 
ATOM      6  C7  UNL d   1       0.415  -1.557   0.141  0.00  0.00     0.002 A 
ENDROOT
BRANCH   1   7
ATOM      7  C1  UNL d   1       0.064   0.288   1.828  0.00  0.00     0.055 C 
ATOM      8  C   UNL d   1      -0.584  -0.782   2.695  0.00  0.00     0.019 C 
ENDBRANCH   1   7
TORSDOF 1
ENDMDL
