MODEL 1
REMARK minimizedAffinity -3.2058382
REMARK minimizedRMSD -1
REMARK  1 active torsions:
REMARK  status: ('A' for Active; 'I' for Inactive)
REMARK    1  A    between atoms: C1_2  and  C2_3 
ROOT
ATOM      1  C2  UNL d   1       0.938  -0.724  -2.549  0.00  0.00    -0.077 A 
ATOM      2  C3  UNL d   1       0.794  -1.787  -1.646  0.00  0.00     0.002 A 
ATOM      3  C4  UNL d   1       0.444  -1.542  -0.317  0.00  0.00     0.002 A 
ATOM      4  C5  UNL d   1       0.231  -0.236   0.120  0.00  0.00    -0.004 A 
ATOM      5  C6  UNL d   1       0.374   0.828  -0.770  0.00  0.00     0.002 A 
ATOM      6  C7  UNL d   1       0.725   0.585  -2.099  0.00  0.00     0.002 A 
ENDROOT
BRANCH   1   7
ATOM      7  C1  UNL d   1       1.267  -0.991  -3.995  0.00  0.00     0.055 C 
ATOM      8  C   UNL d   1       0.488  -2.184  -4.529  0.00  0.00     0.019 C 
ENDBRANCH   1   7
TORSDOF 1
ENDMDL
