MODEL 1
REMARK minimizedAffinity 13.8152256
REMARK minimizedRMSD -1
REMARK  0 active torsions:
REMARK  status: ('A' for Active; 'I' for Inactive)
ROOT
ATOM      1  N1  IND d   1       0.485   3.268  -1.128  0.00  0.00    -0.196 N 
ATOM      2  C2  IND d   1       0.102   2.870   0.123  0.00  0.00     0.054 A 
ATOM      3  C3  IND d   1      -1.080   2.217   0.067  0.00  0.00    -0.031 A 
ATOM      4  C4  IND d   1      -2.511   1.597  -1.981  0.00  0.00     0.051 A 
ATOM      5  C5  IND d   1      -2.591   1.776  -3.334  0.00  0.00    -0.031 A 
ATOM      6  C6  IND d   1      -1.628   2.473  -4.035  0.00  0.00     0.015 A 
ATOM      7  C7  IND d   1      -0.539   3.009  -3.408  0.00  0.00    -0.016 A 
ATOM      8  C8  IND d   1      -0.459   2.836  -2.033  0.00  0.00    -0.047 A 
ATOM      9  C9  IND d   1      -1.455   2.166  -1.311  0.00  0.00    -0.096 A 
ATOM     10  HN1 IND d   1       1.197   3.712  -1.317  0.00  0.00     0.298 HD
ENDROOT
TORSDOF 0
ENDMDL
