MODEL 1
REMARK minimizedAffinity 16.6424084
REMARK minimizedRMSD -1
REMARK  0 active torsions:
REMARK  status: ('A' for Active; 'I' for Inactive)
ROOT
ATOM      1  N1  IND d   1      -5.955   2.970  -4.017  0.00  0.00    -0.196 N 
ATOM      2  C2  IND d   1      -5.998   1.664  -4.420  0.00  0.00     0.054 A 
ATOM      3  C3  IND d   1      -4.763   1.117  -4.374  0.00  0.00    -0.031 A 
ATOM      4  C4  IND d   1      -2.546   2.148  -3.570  0.00  0.00     0.051 A 
ATOM      5  C5  IND d   1      -1.998   3.325  -3.142  0.00  0.00    -0.031 A 
ATOM      6  C6  IND d   1      -2.756   4.465  -2.978  0.00  0.00     0.015 A 
ATOM      7  C7  IND d   1      -4.100   4.469  -3.226  0.00  0.00    -0.016 A 
ATOM      8  C8  IND d   1      -4.659   3.278  -3.667  0.00  0.00    -0.047 A 
ATOM      9  C9  IND d   1      -3.886   2.128  -3.877  0.00  0.00    -0.096 A 
ATOM     10  HN1 IND d   1      -6.625   3.508  -3.986  0.00  0.00     0.298 HD
ENDROOT
TORSDOF 0
ENDMDL
