MODEL 1
REMARK minimizedAffinity 25.4404297
REMARK minimizedRMSD -1
REMARK  0 active torsions:
REMARK  status: ('A' for Active; 'I' for Inactive)
ROOT
ATOM      1  N1  IND d   1      -1.007   3.573  -4.481  0.00  0.00    -0.196 N 
ATOM      2  C2  IND d   1      -0.767   3.001  -3.262  0.00  0.00     0.054 A 
ATOM      3  C3  IND d   1       0.400   3.454  -2.752  0.00  0.00    -0.031 A 
ATOM      4  C4  IND d   1       2.026   5.211  -3.698  0.00  0.00     0.051 A 
ATOM      5  C5  IND d   1       2.252   5.987  -4.800  0.00  0.00    -0.031 A 
ATOM      6  C6  IND d   1       1.384   6.000  -5.873  0.00  0.00     0.015 A 
ATOM      7  C7  IND d   1       0.247   5.243  -5.878  0.00  0.00    -0.016 A 
ATOM      8  C8  IND d   1       0.018   4.449  -4.763  0.00  0.00    -0.047 A 
ATOM      9  C9  IND d   1       0.917   4.399  -3.690  0.00  0.00    -0.096 A 
ATOM     10  HN1 IND d   1      -1.685   3.413  -4.985  0.00  0.00     0.298 HD
ENDROOT
TORSDOF 0
ENDMDL
