MODEL 1
REMARK minimizedAffinity 23.4728432
REMARK minimizedRMSD -1
REMARK  0 active torsions:
REMARK  status: ('A' for Active; 'I' for Inactive)
ROOT
ATOM      1  N1  IND d   1       1.738  -4.291  -5.972  0.00  0.00    -0.196 N 
ATOM      2  C2  IND d   1       2.346  -3.067  -5.999  0.00  0.00     0.054 A 
ATOM      3  C3  IND d   1       2.651  -2.666  -4.744  0.00  0.00    -0.031 A 
ATOM      4  C4  IND d   1       2.335  -3.904  -2.509  0.00  0.00     0.051 A 
ATOM      5  C5  IND d   1       1.791  -5.037  -1.973  0.00  0.00    -0.031 A 
ATOM      6  C6  IND d   1       1.191  -6.000  -2.759  0.00  0.00     0.015 A 
ATOM      7  C7  IND d   1       1.124  -5.871  -4.117  0.00  0.00    -0.016 A 
ATOM      8  C8  IND d   1       1.669  -4.718  -4.664  0.00  0.00    -0.047 A 
ATOM      9  C9  IND d   1       2.241  -3.717  -3.868  0.00  0.00    -0.096 A 
ATOM     10  HN1 IND d   1       1.448  -4.722  -6.657  0.00  0.00     0.298 HD
ENDROOT
TORSDOF 0
ENDMDL
