MODEL 1
REMARK minimizedAffinity 24.6708221
REMARK minimizedRMSD -1
REMARK  0 active torsions:
REMARK  status: ('A' for Active; 'I' for Inactive)
ROOT
ATOM      1  N1  IND d   1       1.138  -4.842  -1.179  0.00  0.00    -0.196 N 
ATOM      2  C2  IND d   1       1.569  -4.427  -2.408  0.00  0.00     0.054 A 
ATOM      3  C3  IND d   1       2.087  -3.181  -2.328  0.00  0.00    -0.031 A 
ATOM      4  C4  IND d   1       2.421  -1.677  -0.265  0.00  0.00     0.051 A 
ATOM      5  C5  IND d   1       2.151  -1.608   1.073  0.00  0.00    -0.031 A 
ATOM      6  C6  IND d   1       1.519  -2.636   1.743  0.00  0.00     0.015 A 
ATOM      7  C7  IND d   1       1.142  -3.780   1.099  0.00  0.00    -0.016 A 
ATOM      8  C8  IND d   1       1.409  -3.851  -0.261  0.00  0.00    -0.047 A 
ATOM      9  C9  IND d   1       2.012  -2.794  -0.955  0.00  0.00    -0.096 A 
ATOM     10  HN1 IND d   1       0.761  -5.596  -1.008  0.00  0.00     0.298 HD
ENDROOT
TORSDOF 0
ENDMDL
