MODEL 1
REMARK minimizedAffinity 18.7096481
REMARK minimizedRMSD -1
REMARK  0 active torsions:
REMARK  status: ('A' for Active; 'I' for Inactive)
ROOT
ATOM      1  N1  IND d   1       0.014   5.230  -5.243  0.00  0.00    -0.196 N 
ATOM      2  C2  IND d   1       1.136   5.999  -5.374  0.00  0.00     0.054 A 
ATOM      3  C3  IND d   1       1.895   5.918  -4.258  0.00  0.00    -0.031 A 
ATOM      4  C4  IND d   1       1.538   4.504  -2.137  0.00  0.00     0.051 A 
ATOM      5  C5  IND d   1       0.637   3.668  -1.538  0.00  0.00    -0.031 A 
ATOM      6  C6  IND d   1      -0.540   3.301  -2.158  0.00  0.00     0.015 A 
ATOM      7  C7  IND d   1      -0.856   3.749  -3.409  0.00  0.00    -0.016 A 
ATOM      8  C8  IND d   1       0.053   4.603  -4.017  0.00  0.00    -0.047 A 
ATOM      9  C9  IND d   1       1.229   5.013  -3.376  0.00  0.00    -0.096 A 
ATOM     10  HN1 IND d   1      -0.612   5.151  -5.828  0.00  0.00     0.298 HD
ENDROOT
TORSDOF 0
ENDMDL
