MODEL 1
REMARK minimizedAffinity 9.46908951
REMARK minimizedRMSD -1
REMARK  0 active torsions:
REMARK  status: ('A' for Active; 'I' for Inactive)
ROOT
ATOM      1  N1  IND d   1      -1.835  -3.818   4.279  0.00  0.00    -0.196 N 
ATOM      2  C2  IND d   1      -1.195  -2.935   5.103  0.00  0.00     0.054 A 
ATOM      3  C3  IND d   1      -2.091  -2.269   5.865  0.00  0.00    -0.031 A 
ATOM      4  C4  IND d   1      -4.648  -2.542   5.999  0.00  0.00     0.051 A 
ATOM      5  C5  IND d   1      -5.693  -3.199   5.413  0.00  0.00    -0.031 A 
ATOM      6  C6  IND d   1      -5.501  -4.117   4.401  0.00  0.00     0.015 A 
ATOM      7  C7  IND d   1      -4.251  -4.422   3.942  0.00  0.00    -0.016 A 
ATOM      8  C8  IND d   1      -3.188  -3.751   4.530  0.00  0.00    -0.047 A 
ATOM      9  C9  IND d   1      -3.379  -2.787   5.528  0.00  0.00    -0.096 A 
ATOM     10  HN1 IND d   1      -1.456  -4.330   3.701  0.00  0.00     0.298 HD
ENDROOT
TORSDOF 0
ENDMDL
