MODEL 1
REMARK minimizedAffinity 19.0315838
REMARK minimizedRMSD -1
REMARK  0 active torsions:
REMARK  status: ('A' for Active; 'I' for Inactive)
ROOT
ATOM      1  N1  IND d   1       0.995   2.938  -0.357  0.00  0.00    -0.196 N 
ATOM      2  C2  IND d   1       0.272   2.289   0.604  0.00  0.00     0.054 A 
ATOM      3  C3  IND d   1      -0.972   2.015   0.151  0.00  0.00    -0.031 A 
ATOM      4  C4  IND d   1      -2.001   2.450  -2.169  0.00  0.00     0.051 A 
ATOM      5  C5  IND d   1      -1.739   3.050  -3.368  0.00  0.00    -0.031 A 
ATOM      6  C6  IND d   1      -0.526   3.654  -3.631  0.00  0.00     0.015 A 
ATOM      7  C7  IND d   1       0.478   3.670  -2.705  0.00  0.00    -0.016 A 
ATOM      8  C8  IND d   1       0.213   3.067  -1.483  0.00  0.00    -0.047 A 
ATOM      9  C9  IND d   1      -1.031   2.490  -1.195  0.00  0.00    -0.096 A 
ATOM     10  HN1 IND d   1       1.804   3.219  -0.272  0.00  0.00     0.298 HD
ENDROOT
TORSDOF 0
ENDMDL
