MODEL 1
REMARK minimizedAffinity 16.2795105
REMARK minimizedRMSD -1
REMARK  0 active torsions:
REMARK  status: ('A' for Active; 'I' for Inactive)
ROOT
ATOM      1  N1  IND d   1       0.570   2.658   0.098  0.00  0.00    -0.196 N 
ATOM      2  C2  IND d   1      -0.526   2.032   0.624  0.00  0.00     0.054 A 
ATOM      3  C3  IND d   1      -1.573   2.123  -0.226  0.00  0.00    -0.031 A 
ATOM      4  C4  IND d   1      -1.685   3.164  -2.578  0.00  0.00     0.051 A 
ATOM      5  C5  IND d   1      -0.946   3.886  -3.472  0.00  0.00    -0.031 A 
ATOM      6  C6  IND d   1       0.363   4.241  -3.218  0.00  0.00     0.015 A 
ATOM      7  C7  IND d   1       0.989   3.875  -2.060  0.00  0.00    -0.016 A 
ATOM      8  C8  IND d   1       0.239   3.147  -1.146  0.00  0.00    -0.047 A 
ATOM      9  C9  IND d   1      -1.103   2.821  -1.380  0.00  0.00    -0.096 A 
ATOM     10  HN1 IND d   1       1.337   2.733   0.480  0.00  0.00     0.298 HD
ENDROOT
TORSDOF 0
ENDMDL
