MODEL 1
REMARK minimizedAffinity 20.0005302
REMARK minimizedRMSD -1
REMARK  0 active torsions:
REMARK  status: ('A' for Active; 'I' for Inactive)
ROOT
ATOM      1  N1  IND d   1      -5.830   5.915  -0.399  0.00  0.00    -0.196 N 
ATOM      2  C2  IND d   1      -5.476   5.990   0.919  0.00  0.00     0.054 A 
ATOM      3  C3  IND d   1      -4.255   5.442   1.110  0.00  0.00    -0.031 A 
ATOM      4  C4  IND d   1      -2.617   4.457  -0.614  0.00  0.00     0.051 A 
ATOM      5  C5  IND d   1      -2.510   4.136  -1.938  0.00  0.00    -0.031 A 
ATOM      6  C6  IND d   1      -3.525   4.400  -2.836  0.00  0.00     0.015 A 
ATOM      7  C7  IND d   1      -4.684   5.007  -2.443  0.00  0.00    -0.016 A 
ATOM      8  C8  IND d   1      -4.798   5.328  -1.097  0.00  0.00    -0.047 A 
ATOM      9  C9  IND d   1      -3.789   5.024  -0.174  0.00  0.00    -0.096 A 
ATOM     10  HN1 IND d   1      -6.573   6.188  -0.736  0.00  0.00     0.298 HD
ENDROOT
TORSDOF 0
ENDMDL
