MODEL 1
REMARK minimizedAffinity 19.0423775
REMARK minimizedRMSD -1
REMARK  0 active torsions:
REMARK  status: ('A' for Active; 'I' for Inactive)
ROOT
ATOM      1  N1  IND d   1      -5.161   4.721   1.963  0.00  0.00    -0.196 N 
ATOM      2  C2  IND d   1      -4.878   5.996   1.557  0.00  0.00     0.054 A 
ATOM      3  C3  IND d   1      -3.806   6.000   0.733  0.00  0.00    -0.031 A 
ATOM      4  C4  IND d   1      -2.426   4.021  -0.166  0.00  0.00     0.051 A 
ATOM      5  C5  IND d   1      -2.282   2.667  -0.049  0.00  0.00    -0.031 A 
ATOM      6  C6  IND d   1      -3.108   1.913   0.758  0.00  0.00     0.015 A 
ATOM      7  C7  IND d   1      -4.121   2.486   1.474  0.00  0.00    -0.016 A 
ATOM      8  C8  IND d   1      -4.266   3.862   1.363  0.00  0.00    -0.047 A 
ATOM      9  C9  IND d   1      -3.404   4.638   0.578  0.00  0.00    -0.096 A 
ATOM     10  HN1 IND d   1      -5.791   4.494   2.502  0.00  0.00     0.298 HD
ENDROOT
TORSDOF 0
ENDMDL
