MODEL 1
REMARK minimizedAffinity 17.9361629
REMARK minimizedRMSD -1
REMARK  0 active torsions:
REMARK  status: ('A' for Active; 'I' for Inactive)
ROOT
ATOM      1  N1  IND d   1       1.103   2.510   0.437  0.00  0.00    -0.196 N 
ATOM      2  C2  IND d   1       0.265   1.879   1.314  0.00  0.00     0.054 A 
ATOM      3  C3  IND d   1      -0.972   1.760   0.780  0.00  0.00    -0.031 A 
ATOM      4  C4  IND d   1      -1.817   2.438  -1.555  0.00  0.00     0.051 A 
ATOM      5  C5  IND d   1      -1.428   3.082  -2.697  0.00  0.00    -0.031 A 
ATOM      6  C6  IND d   1      -0.149   3.576  -2.856  0.00  0.00     0.015 A 
ATOM      7  C7  IND d   1       0.796   3.433  -1.880  0.00  0.00    -0.016 A 
ATOM      8  C8  IND d   1       0.403   2.786  -0.717  0.00  0.00    -0.047 A 
ATOM      9  C9  IND d   1      -0.906   2.321  -0.532  0.00  0.00    -0.096 A 
ATOM     10  HN1 IND d   1       1.928   2.702   0.582  0.00  0.00     0.298 HD
ENDROOT
TORSDOF 0
ENDMDL
