MODEL 1
REMARK minimizedAffinity 16.4298725
REMARK minimizedRMSD -1
REMARK  0 active torsions:
REMARK  status: ('A' for Active; 'I' for Inactive)
ROOT
ATOM      1  N1  IND d   1      -6.000   5.950   2.897  0.00  0.00    -0.196 N 
ATOM      2  C2  IND d   1      -5.006   5.999   3.834  0.00  0.00     0.054 A 
ATOM      3  C3  IND d   1      -3.793   5.964   3.237  0.00  0.00    -0.031 A 
ATOM      4  C4  IND d   1      -3.206   5.929   0.730  0.00  0.00     0.051 A 
ATOM      5  C5  IND d   1      -3.776   5.841  -0.509  0.00  0.00    -0.031 A 
ATOM      6  C6  IND d   1      -5.144   5.785  -0.679  0.00  0.00     0.015 A 
ATOM      7  C7  IND d   1      -5.997   5.828   0.387  0.00  0.00    -0.016 A 
ATOM      8  C8  IND d   1      -5.422   5.911   1.647  0.00  0.00    -0.047 A 
ATOM      9  C9  IND d   1      -4.033   5.925   1.829  0.00  0.00    -0.096 A 
ATOM     10  HN1 IND d   1      -6.844   5.944   3.061  0.00  0.00     0.298 HD
ENDROOT
TORSDOF 0
ENDMDL
