MODEL 1
REMARK minimizedAffinity 15.9472828
REMARK minimizedRMSD -1
REMARK  0 active torsions:
REMARK  status: ('A' for Active; 'I' for Inactive)
ROOT
ATOM      1  N1  IND d   1      -5.882   5.980   3.321  0.00  0.00    -0.196 N 
ATOM      2  C2  IND d   1      -4.850   5.994   4.217  0.00  0.00     0.054 A 
ATOM      3  C3  IND d   1      -3.665   5.932   3.571  0.00  0.00    -0.031 A 
ATOM      4  C4  IND d   1      -3.180   5.904   1.043  0.00  0.00     0.051 A 
ATOM      5  C5  IND d   1      -3.802   5.842  -0.173  0.00  0.00    -0.031 A 
ATOM      6  C6  IND d   1      -5.177   5.825  -0.288  0.00  0.00     0.015 A 
ATOM      7  C7  IND d   1      -5.985   5.882   0.812  0.00  0.00    -0.016 A 
ATOM      8  C8  IND d   1      -5.357   5.937   2.048  0.00  0.00    -0.047 A 
ATOM      9  C9  IND d   1      -3.962   5.912   2.174  0.00  0.00    -0.096 A 
ATOM     10  HN1 IND d   1      -6.719   5.995   3.518  0.00  0.00     0.298 HD
ENDROOT
TORSDOF 0
ENDMDL
