MODEL 1
REMARK minimizedAffinity 15.6206112
REMARK minimizedRMSD -1
REMARK  0 active torsions:
REMARK  status: ('A' for Active; 'I' for Inactive)
ROOT
ATOM      1  N1  IND d   1      -5.999   5.749  -1.337  0.00  0.00    -0.196 N 
ATOM      2  C2  IND d   1      -5.010   5.634  -2.273  0.00  0.00     0.054 A 
ATOM      3  C3  IND d   1      -3.796   5.645  -1.677  0.00  0.00    -0.031 A 
ATOM      4  C4  IND d   1      -3.202   5.741   0.826  0.00  0.00     0.051 A 
ATOM      5  C5  IND d   1      -3.766   5.890   2.062  0.00  0.00    -0.031 A 
ATOM      6  C6  IND d   1      -5.131   5.999   2.232  0.00  0.00     0.015 A 
ATOM      7  C7  IND d   1      -5.988   5.952   1.168  0.00  0.00    -0.016 A 
ATOM      8  C8  IND d   1      -5.418   5.808  -0.089  0.00  0.00    -0.047 A 
ATOM      9  C9  IND d   1      -4.031   5.739  -0.271  0.00  0.00    -0.096 A 
ATOM     10  HN1 IND d   1      -6.843   5.780  -1.500  0.00  0.00     0.298 HD
ENDROOT
TORSDOF 0
ENDMDL
