MODEL 1
REMARK minimizedAffinity 15.1174383
REMARK minimizedRMSD -1
REMARK  0 active torsions:
REMARK  status: ('A' for Active; 'I' for Inactive)
ROOT
ATOM      1  N1  IND d   1       1.028  -5.158  -3.411  0.00  0.00    -0.196 N 
ATOM      2  C2  IND d   1       1.745  -5.051  -2.252  0.00  0.00     0.054 A 
ATOM      3  C3  IND d   1       2.498  -3.929  -2.266  0.00  0.00    -0.031 A 
ATOM      4  C4  IND d   1       2.633  -2.072  -4.044  0.00  0.00     0.051 A 
ATOM      5  C5  IND d   1       2.190  -1.743  -5.294  0.00  0.00    -0.031 A 
ATOM      6  C6  IND d   1       1.317  -2.552  -5.994  0.00  0.00     0.015 A 
ATOM      7  C7  IND d   1       0.844  -3.718  -5.462  0.00  0.00    -0.016 A 
ATOM      8  C8  IND d   1       1.297  -4.058  -4.196  0.00  0.00    -0.047 A 
ATOM      9  C9  IND d   1       2.216  -3.263  -3.498  0.00  0.00    -0.096 A 
ATOM     10  HN1 IND d   1       0.499  -5.803  -3.616  0.00  0.00     0.298 HD
ENDROOT
TORSDOF 0
ENDMDL
