MODEL 1
REMARK minimizedAffinity 7.82651758
REMARK minimizedRMSD -1
REMARK  0 active torsions:
REMARK  status: ('A' for Active; 'I' for Inactive)
ROOT
ATOM      1  N1  IND d   1       3.445  -4.207  -2.786  0.00  0.00    -0.196 N 
ATOM      2  C2  IND d   1       2.254  -4.395  -2.140  0.00  0.00     0.054 A 
ATOM      3  C3  IND d   1       1.252  -3.787  -2.814  0.00  0.00    -0.031 A 
ATOM      4  C4  IND d   1       1.322  -2.515  -5.051  0.00  0.00     0.051 A 
ATOM      5  C5  IND d   1       2.190  -2.051  -6.000  0.00  0.00    -0.031 A 
ATOM      6  C6  IND d   1       3.547  -2.289  -5.925  0.00  0.00     0.015 A 
ATOM      7  C7  IND d   1       4.088  -3.013  -4.901  0.00  0.00    -0.016 A 
ATOM      8  C8  IND d   1       3.211  -3.480  -3.932  0.00  0.00    -0.047 A 
ATOM      9  C9  IND d   1       1.838  -3.205  -3.980  0.00  0.00    -0.096 A 
ATOM     10  HN1 IND d   1       4.210  -4.494  -2.520  0.00  0.00     0.298 HD
ENDROOT
TORSDOF 0
ENDMDL
