MODEL 1
REMARK minimizedAffinity 9.57623196
REMARK minimizedRMSD -1
REMARK  0 active torsions:
REMARK  status: ('A' for Active; 'I' for Inactive)
ROOT
ATOM      1  N1  IND d   1      -1.607   4.812  -3.157  0.00  0.00    -0.196 N 
ATOM      2  C2  IND d   1      -1.890   3.555  -3.613  0.00  0.00     0.054 A 
ATOM      3  C3  IND d   1      -1.374   2.625  -2.778  0.00  0.00    -0.031 A 
ATOM      4  C4  IND d   1      -0.118   2.941  -0.553  0.00  0.00     0.051 A 
ATOM      5  C5  IND d   1       0.411   3.906   0.258  0.00  0.00    -0.031 A 
ATOM      6  C6  IND d   1       0.289   5.249  -0.033  0.00  0.00     0.015 A 
ATOM      7  C7  IND d   1      -0.379   5.680  -1.144  0.00  0.00    -0.016 A 
ATOM      8  C8  IND d   1      -0.911   4.703  -1.973  0.00  0.00    -0.047 A 
ATOM      9  C9  IND d   1      -0.754   3.337  -1.706  0.00  0.00    -0.096 A 
ATOM     10  HN1 IND d   1      -1.827   5.548  -3.545  0.00  0.00     0.298 HD
ENDROOT
TORSDOF 0
ENDMDL
