MODEL 1
REMARK minimizedAffinity 11.3873806
REMARK minimizedRMSD -1
REMARK  0 active torsions:
REMARK  status: ('A' for Active; 'I' for Inactive)
ROOT
ATOM      1  N1  IND d   1      -4.956   0.380   1.133  0.00  0.00    -0.196 N 
ATOM      2  C2  IND d   1      -4.748  -0.078  -0.138  0.00  0.00     0.054 A 
ATOM      3  C3  IND d   1      -3.424  -0.139  -0.404  0.00  0.00    -0.031 A 
ATOM      4  C4  IND d   1      -1.421   0.366   1.132  0.00  0.00     0.051 A 
ATOM      5  C5  IND d   1      -1.109   0.850   2.371  0.00  0.00    -0.031 A 
ATOM      6  C6  IND d   1      -2.084   1.207   3.281  0.00  0.00     0.015 A 
ATOM      7  C7  IND d   1      -3.412   1.081   2.988  0.00  0.00    -0.016 A 
ATOM      8  C8  IND d   1      -3.733   0.597   1.727  0.00  0.00    -0.047 A 
ATOM      9  C9  IND d   1      -2.748   0.274   0.784  0.00  0.00    -0.096 A 
ATOM     10  HN1 IND d   1      -5.723   0.510   1.500  0.00  0.00     0.298 HD
ENDROOT
TORSDOF 0
ENDMDL
