MODEL 1
REMARK minimizedAffinity -3.37864876
REMARK minimizedRMSD -1
REMARK  1 active torsions:
REMARK  status: ('A' for Active; 'I' for Inactive)
REMARK    1  A    between atoms: N_2  and  C1_3 
ROOT
ATOM      1  C1  UNL d   1       0.022  -0.180   0.683  0.00  0.00     0.143 A 
ATOM      2  C2  UNL d   1      -0.785  -0.673   1.715  0.00  0.00    -0.057 A 
ATOM      3  C3  UNL d   1      -0.285  -0.837   3.012  0.00  0.00     0.033 A 
ATOM      4  C4  UNL d   1       1.043  -0.537   3.295  0.00  0.00    -0.042 A 
ATOM      5  C5  UNL d   1       1.870  -0.070   2.280  0.00  0.00     0.033 A 
ATOM      6  C6  UNL d   1       1.363   0.098   0.988  0.00  0.00    -0.057 A 
ENDROOT
BRANCH   1   7
ATOM      7  N   UNL d   1      -0.389  -0.088  -0.649  0.00  0.00    -0.732 N 
ATOM      8  C   UNL d   1      -0.319   1.173  -1.356  0.00  0.00     0.284 C 
ATOM      9  H3  UNL d   1      -0.098  -0.891  -1.201  0.00  0.00     0.395 HD
ENDBRANCH   1   7
TORSDOF 1
ENDMDL
