MODEL 1
REMARK minimizedAffinity -3.29888129
REMARK minimizedRMSD -1
REMARK  1 active torsions:
REMARK  status: ('A' for Active; 'I' for Inactive)
REMARK    1  A    between atoms: N_2  and  C1_3 
ROOT
ATOM      1  C1  UNL d   1       0.478  -0.650   0.499  0.00  0.00     0.143 A 
ATOM      2  C2  UNL d   1       1.685  -1.249   0.122  0.00  0.00    -0.057 A 
ATOM      3  C3  UNL d   1       2.594  -1.714   1.080  0.00  0.00     0.033 A 
ATOM      4  C4  UNL d   1       2.324  -1.562   2.436  0.00  0.00    -0.042 A 
ATOM      5  C5  UNL d   1       1.142  -0.947   2.833  0.00  0.00     0.033 A 
ATOM      6  C6  UNL d   1       0.235  -0.491   1.872  0.00  0.00    -0.057 A 
ENDROOT
BRANCH   1   7
ATOM      7  N   UNL d   1      -0.422  -0.078  -0.404  0.00  0.00    -0.732 N 
ATOM      8  C   UNL d   1      -0.171   1.232  -0.964  0.00  0.00     0.284 C 
ATOM      9  H3  UNL d   1      -0.783  -0.754  -1.074  0.00  0.00     0.395 HD
ENDBRANCH   1   7
TORSDOF 1
ENDMDL
