MODEL 1
REMARK minimizedAffinity -3.21467304
REMARK minimizedRMSD -1
REMARK  1 active torsions:
REMARK  status: ('A' for Active; 'I' for Inactive)
REMARK    1  A    between atoms: N_2  and  C1_3 
ROOT
ATOM      1  C1  UNL d   1       0.107  -0.464   1.026  0.00  0.00     0.143 A 
ATOM      2  C2  UNL d   1      -0.990  -0.237   0.187  0.00  0.00    -0.057 A 
ATOM      3  C3  UNL d   1      -0.836  -0.155  -1.202  0.00  0.00     0.033 A 
ATOM      4  C4  UNL d   1       0.425  -0.271  -1.777  0.00  0.00    -0.042 A 
ATOM      5  C5  UNL d   1       1.533  -0.472  -0.960  0.00  0.00     0.033 A 
ATOM      6  C6  UNL d   1       1.372  -0.559   0.426  0.00  0.00    -0.057 A 
ENDROOT
BRANCH   1   7
ATOM      7  N   UNL d   1       0.033  -0.456   2.421  0.00  0.00    -0.732 N 
ATOM      8  C   UNL d   1       1.225  -0.636   3.223  0.00  0.00     0.284 C 
ATOM      9  H3  UNL d   1      -0.601   0.257   2.773  0.00  0.00     0.395 HD
ENDBRANCH   1   7
TORSDOF 1
ENDMDL
