MODEL 1
REMARK minimizedAffinity -3.74795175
REMARK minimizedRMSD -1
REMARK  1 active torsions:
REMARK  status: ('A' for Active; 'I' for Inactive)
REMARK    1  A    between atoms: N_2  and  C1_3 
ROOT
ATOM      1  C1  UNL d   1       0.587  -1.154  -0.217  0.00  0.00     0.143 A 
ATOM      2  C2  UNL d   1      -0.745  -0.759  -0.379  0.00  0.00    -0.057 A 
ATOM      3  C3  UNL d   1      -1.566  -0.500   0.725  0.00  0.00     0.033 A 
ATOM      4  C4  UNL d   1      -1.074  -0.659   2.017  0.00  0.00    -0.042 A 
ATOM      5  C5  UNL d   1       0.240  -1.074   2.202  0.00  0.00     0.033 A 
ATOM      6  C6  UNL d   1       1.056  -1.325   1.095  0.00  0.00    -0.057 A 
ENDROOT
BRANCH   1   7
ATOM      7  N   UNL d   1       1.424  -1.521  -1.274  0.00  0.00    -0.732 N 
ATOM      8  C   UNL d   1       2.802  -1.889  -1.029  0.00  0.00     0.284 C 
ATOM      9  H3  UNL d   1       0.951  -2.109  -1.957  0.00  0.00     0.395 HD
ENDBRANCH   1   7
TORSDOF 1
ENDMDL
