MODEL 1
REMARK minimizedAffinity -3.68639064
REMARK minimizedRMSD -1
REMARK  1 active torsions:
REMARK  status: ('A' for Active; 'I' for Inactive)
REMARK    1  A    between atoms: N_2  and  C1_3 
ROOT
ATOM      1  C1  UNL d   1       0.104  -0.371   0.160  0.00  0.00     0.143 A 
ATOM      2  C2  UNL d   1      -0.751  -0.591   1.246  0.00  0.00    -0.057 A 
ATOM      3  C3  UNL d   1      -0.246  -0.856   2.524  0.00  0.00     0.033 A 
ATOM      4  C4  UNL d   1       1.127  -0.936   2.734  0.00  0.00    -0.042 A 
ATOM      5  C5  UNL d   1       1.994  -0.746   1.664  0.00  0.00     0.033 A 
ATOM      6  C6  UNL d   1       1.484  -0.474   0.391  0.00  0.00    -0.057 A 
ENDROOT
BRANCH   1   7
ATOM      7  N   UNL d   1      -0.338  -0.201  -1.155  0.00  0.00    -0.732 N 
ATOM      8  C   UNL d   1      -0.996   1.023  -1.558  0.00  0.00     0.284 C 
ATOM      9  H3  UNL d   1       0.326  -0.560  -1.837  0.00  0.00     0.395 HD
ENDBRANCH   1   7
TORSDOF 1
ENDMDL
