MODEL 1
REMARK minimizedAffinity -4.78912973
REMARK minimizedRMSD -1
REMARK  1 active torsions:
REMARK  status: ('A' for Active; 'I' for Inactive)
REMARK    1  A    between atoms: N_2  and  C1_3 
ROOT
ATOM      1  C1  UNL d   1      -0.037   0.078   0.068  0.00  0.00     0.143 A 
ATOM      2  C2  UNL d   1       1.289   0.237   0.484  0.00  0.00    -0.057 A 
ATOM      3  C3  UNL d   1       1.677  -0.048   1.800  0.00  0.00     0.033 A 
ATOM      4  C4  UNL d   1       0.735  -0.470   2.732  0.00  0.00    -0.042 A 
ATOM      5  C5  UNL d   1      -0.593  -0.611   2.348  0.00  0.00     0.033 A 
ATOM      6  C6  UNL d   1      -0.973  -0.332   1.031  0.00  0.00    -0.057 A 
ENDROOT
BRANCH   1   7
ATOM      7  N   UNL d   1      -0.503   0.438  -1.198  0.00  0.00    -0.732 N 
ATOM      8  C   UNL d   1      -0.371   1.799  -1.673  0.00  0.00     0.284 C 
ATOM      9  H3  UNL d   1      -0.302  -0.269  -1.902  0.00  0.00     0.395 HD
ENDBRANCH   1   7
TORSDOF 1
ENDMDL
