MODEL 1
REMARK minimizedAffinity -4.12097454
REMARK minimizedRMSD -1
REMARK  1 active torsions:
REMARK  status: ('A' for Active; 'I' for Inactive)
REMARK    1  A    between atoms: N_2  and  C1_3 
ROOT
ATOM      1  C1  UNL d   1       0.915  -0.697   0.614  0.00  0.00     0.143 A 
ATOM      2  C2  UNL d   1       2.278  -1.013   0.605  0.00  0.00    -0.057 A 
ATOM      3  C3  UNL d   1       2.840  -1.833   1.591  0.00  0.00     0.033 A 
ATOM      4  C4  UNL d   1       2.051  -2.328   2.624  0.00  0.00    -0.042 A 
ATOM      5  C5  UNL d   1       0.700  -2.006   2.668  0.00  0.00     0.033 A 
ATOM      6  C6  UNL d   1       0.143  -1.193   1.676  0.00  0.00    -0.057 A 
ENDROOT
BRANCH   1   7
ATOM      7  N   UNL d   1       0.317   0.193  -0.282  0.00  0.00    -0.732 N 
ATOM      8  C   UNL d   1      -1.121   0.218  -0.446  0.00  0.00     0.284 C 
ATOM      9  H3  UNL d   1       0.749   1.113  -0.263  0.00  0.00     0.395 HD
ENDBRANCH   1   7
TORSDOF 1
ENDMDL
