MODEL 1
REMARK minimizedAffinity 4.77938175
REMARK minimizedRMSD -1
REMARK  0 active torsions:
REMARK  status: ('A' for Active; 'I' for Inactive)
ROOT
ATOM      1  C   UNL d   1       0.367   0.961   1.698  0.00  0.00     0.020 A 
ATOM      2  C1  UNL d   1       0.488  -0.359   1.266  0.00  0.00     0.020 A 
ATOM      3  C2  UNL d   1      -0.652  -1.088   0.921  0.00  0.00     0.034 A 
ATOM      4  C3  UNL d   1      -1.917  -0.497   1.007  0.00  0.00     0.017 A 
ATOM      5  C4  UNL d   1      -2.038   0.828   1.440  0.00  0.00     0.017 A 
ATOM      6  C5  UNL d   1      -0.893   1.553   1.785  0.00  0.00     0.034 A 
ATOM      7 Cl   UNL d   1      -3.566   1.625   1.572  0.00  0.00    -0.070 Cl
ATOM      8 Cl1  UNL d   1      -3.284  -1.457   0.563  0.00  0.00    -0.070 Cl
ENDROOT
TORSDOF 0
ENDMDL
