MODEL 1
REMARK minimizedAffinity 3.6848135
REMARK minimizedRMSD -1
REMARK  0 active torsions:
REMARK  status: ('A' for Active; 'I' for Inactive)
ROOT
ATOM      1  C   UNL d   1      -2.484   1.398   1.621  0.00  0.00     0.020 A 
ATOM      2  C1  UNL d   1      -2.062   0.165   1.123  0.00  0.00     0.020 A 
ATOM      3  C2  UNL d   1      -0.760  -0.277   1.366  0.00  0.00     0.034 A 
ATOM      4  C3  UNL d   1       0.125   0.514   2.108  0.00  0.00     0.017 A 
ATOM      5  C4  UNL d   1      -0.299   1.750   2.608  0.00  0.00     0.017 A 
ATOM      6  C5  UNL d   1      -1.604   2.188   2.362  0.00  0.00     0.034 A 
ATOM      7 Cl   UNL d   1       0.735   2.781   3.533  0.00  0.00    -0.070 Cl
ATOM      8 Cl1  UNL d   1       1.721  -0.096   2.370  0.00  0.00    -0.070 Cl
ENDROOT
TORSDOF 0
ENDMDL
