MODEL 1
REMARK minimizedAffinity 5.10683584
REMARK minimizedRMSD -1
REMARK  0 active torsions:
REMARK  status: ('A' for Active; 'I' for Inactive)
ROOT
ATOM      1  C   UNL d   1       2.857   1.600   0.232  0.00  0.00     0.020 A 
ATOM      2  C1  UNL d   1       1.664   0.894   0.386  0.00  0.00     0.020 A 
ATOM      3  C2  UNL d   1       1.600  -0.183   1.273  0.00  0.00     0.034 A 
ATOM      4  C3  UNL d   1       2.729  -0.556   2.010  0.00  0.00     0.017 A 
ATOM      5  C4  UNL d   1       3.926   0.153   1.855  0.00  0.00     0.017 A 
ATOM      6  C5  UNL d   1       3.985   1.230   0.965  0.00  0.00     0.034 A 
ATOM      7 Cl   UNL d   1       5.361  -0.248   2.730  0.00  0.00    -0.070 Cl
ATOM      8 Cl1  UNL d   1       2.577  -1.896   3.090  0.00  0.00    -0.070 Cl
ENDROOT
TORSDOF 0
ENDMDL
