MODEL 1
REMARK minimizedAffinity 13.5683308
REMARK minimizedRMSD -1
REMARK  0 active torsions:
REMARK  status: ('A' for Active; 'I' for Inactive)
ROOT
ATOM      1  C   UNL d   1      -2.356  -2.515   0.201  0.00  0.00     0.020 A 
ATOM      2  C1  UNL d   1      -2.733  -2.303   1.526  0.00  0.00     0.020 A 
ATOM      3  C2  UNL d   1      -3.564  -1.229   1.852  0.00  0.00     0.034 A 
ATOM      4  C3  UNL d   1      -4.021  -0.363   0.851  0.00  0.00     0.017 A 
ATOM      5  C4  UNL d   1      -3.642  -0.578  -0.479  0.00  0.00     0.017 A 
ATOM      6  C5  UNL d   1      -2.809  -1.654  -0.800  0.00  0.00     0.034 A 
ATOM      7 Cl   UNL d   1      -4.165   0.447  -1.769  0.00  0.00    -0.070 Cl
ATOM      8 Cl1  UNL d   1      -5.046   0.944   1.325  0.00  0.00    -0.070 Cl
ENDROOT
TORSDOF 0
ENDMDL
