MODEL 1
REMARK minimizedAffinity 0.614177883
REMARK minimizedRMSD -1
REMARK  0 active torsions:
REMARK  status: ('A' for Active; 'I' for Inactive)
ROOT
ATOM      1  C   UNL d   1      -4.203  -2.970   5.998  0.00  0.00     0.020 A 
ATOM      2  C1  UNL d   1      -3.582  -1.814   5.527  0.00  0.00     0.020 A 
ATOM      3  C2  UNL d   1      -3.492  -1.580   4.153  0.00  0.00     0.034 A 
ATOM      4  C3  UNL d   1      -4.023  -2.504   3.246  0.00  0.00     0.017 A 
ATOM      5  C4  UNL d   1      -4.646  -3.664   3.719  0.00  0.00     0.017 A 
ATOM      6  C5  UNL d   1      -4.733  -3.893   5.096  0.00  0.00     0.034 A 
ATOM      7 Cl   UNL d   1      -5.324  -4.850   2.661  0.00  0.00    -0.070 Cl
ATOM      8 Cl1  UNL d   1      -3.876  -2.150   1.561  0.00  0.00    -0.070 Cl
ENDROOT
TORSDOF 0
ENDMDL
