MODEL 1
REMARK minimizedAffinity 7.66872168
REMARK minimizedRMSD -1
REMARK  0 active torsions:
REMARK  status: ('A' for Active; 'I' for Inactive)
ROOT
ATOM      1  C   UNL d   1       2.177  -1.947  -4.480  0.00  0.00     0.020 A 
ATOM      2  C1  UNL d   1       3.057  -2.507  -3.554  0.00  0.00     0.020 A 
ATOM      3  C2  UNL d   1       4.091  -1.737  -3.020  0.00  0.00     0.034 A 
ATOM      4  C3  UNL d   1       4.250  -0.402  -3.411  0.00  0.00     0.017 A 
ATOM      5  C4  UNL d   1       3.367   0.159  -4.340  0.00  0.00     0.017 A 
ATOM      6  C5  UNL d   1       2.332  -0.617  -4.872  0.00  0.00     0.034 A 
ATOM      7 Cl   UNL d   1       3.498   1.798  -4.871  0.00  0.00    -0.070 Cl
ATOM      8 Cl1  UNL d   1       5.551   0.492  -2.709  0.00  0.00    -0.070 Cl
ENDROOT
TORSDOF 0
ENDMDL
