MODEL 1
REMARK minimizedAffinity 13.4296436
REMARK minimizedRMSD -1
REMARK  0 active torsions:
REMARK  status: ('A' for Active; 'I' for Inactive)
ROOT
ATOM      1  C   UNL d   1       1.957   0.760   1.235  0.00  0.00     0.020 A 
ATOM      2  C1  UNL d   1       2.129  -0.170   2.261  0.00  0.00     0.020 A 
ATOM      3  C2  UNL d   1       3.385  -0.339   2.846  0.00  0.00     0.034 A 
ATOM      4  C3  UNL d   1       4.475   0.422   2.406  0.00  0.00     0.017 A 
ATOM      5  C4  UNL d   1       4.301   1.354   1.377  0.00  0.00     0.017 A 
ATOM      6  C5  UNL d   1       3.040   1.520   0.794  0.00  0.00     0.034 A 
ATOM      7 Cl   UNL d   1       5.598   2.329   0.781  0.00  0.00    -0.070 Cl
ATOM      8 Cl1  UNL d   1       6.000   0.160   3.175  0.00  0.00    -0.070 Cl
ENDROOT
TORSDOF 0
ENDMDL
