MODEL 1
REMARK minimizedAffinity -1.05211008
REMARK minimizedRMSD -1
REMARK  0 active torsions:
REMARK  status: ('A' for Active; 'I' for Inactive)
ROOT
ATOM      1  C   UNL d   1      -4.609   1.668   4.064  0.00  0.00     0.020 A 
ATOM      2  C1  UNL d   1      -5.295   1.523   2.859  0.00  0.00     0.020 A 
ATOM      3  C2  UNL d   1      -4.596   1.214   1.690  0.00  0.00     0.034 A 
ATOM      4  C3  UNL d   1      -3.206   1.049   1.724  0.00  0.00     0.017 A 
ATOM      5  C4  UNL d   1      -2.519   1.196   2.935  0.00  0.00     0.017 A 
ATOM      6  C5  UNL d   1      -3.224   1.505   4.102  0.00  0.00     0.034 A 
ATOM      7 Cl   UNL d   1      -0.805   1.008   3.055  0.00  0.00    -0.070 Cl
ATOM      8 Cl1  UNL d   1      -2.406   0.668   0.241  0.00  0.00    -0.070 Cl
ENDROOT
TORSDOF 0
ENDMDL
