MODEL 1
REMARK minimizedAffinity 6.11807537
REMARK minimizedRMSD -1
REMARK  0 active torsions:
REMARK  status: ('A' for Active; 'I' for Inactive)
ROOT
ATOM      1  C   UNL d   1      -3.170   1.158   1.837  0.00  0.00     0.020 A 
ATOM      2  C1  UNL d   1      -3.002   0.534   0.601  0.00  0.00     0.020 A 
ATOM      3  C2  UNL d   1      -1.720   0.223   0.145  0.00  0.00     0.034 A 
ATOM      4  C3  UNL d   1      -0.600   0.536   0.923  0.00  0.00     0.017 A 
ATOM      5  C4  UNL d   1      -0.769   1.163   2.163  0.00  0.00     0.017 A 
ATOM      6  C5  UNL d   1      -2.055   1.472   2.616  0.00  0.00     0.034 A 
ATOM      7 Cl   UNL d   1       0.565   1.581   3.180  0.00  0.00    -0.070 Cl
ATOM      8 Cl1  UNL d   1       0.956   0.122   0.296  0.00  0.00    -0.070 Cl
ENDROOT
TORSDOF 0
ENDMDL
