MODEL 1
REMARK minimizedAffinity 3.89337182
REMARK minimizedRMSD -1
REMARK  0 active torsions:
REMARK  status: ('A' for Active; 'I' for Inactive)
ROOT
ATOM      1  C   UNL d   1       0.185  -0.388   0.354  0.00  0.00     0.020 A 
ATOM      2  C1  UNL d   1       1.469   0.086   0.620  0.00  0.00     0.020 A 
ATOM      3  C2  UNL d   1       1.674   1.006   1.650  0.00  0.00     0.034 A 
ATOM      4  C3  UNL d   1       0.594   1.455   2.419  0.00  0.00     0.017 A 
ATOM      5  C4  UNL d   1      -0.695   0.978   2.151  0.00  0.00     0.017 A 
ATOM      6  C5  UNL d   1      -0.894   0.057   1.119  0.00  0.00     0.034 A 
ATOM      7 Cl   UNL d   1      -2.077   1.486   3.057  0.00  0.00    -0.070 Cl
ATOM      8 Cl1  UNL d   1       0.921   2.593   3.677  0.00  0.00    -0.070 Cl
ENDROOT
TORSDOF 0
ENDMDL
