MODEL 1
REMARK minimizedAffinity 8.69124794
REMARK minimizedRMSD -1
REMARK  0 active torsions:
REMARK  status: ('A' for Active; 'I' for Inactive)
ROOT
ATOM      1  C   UNL d   1      -2.790   0.506   1.200  0.00  0.00     0.020 A 
ATOM      2  C1  UNL d   1      -2.972   1.396   2.258  0.00  0.00     0.020 A 
ATOM      3  C2  UNL d   1      -1.864   1.916   2.931  0.00  0.00     0.034 A 
ATOM      4  C3  UNL d   1      -0.570   1.546   2.547  0.00  0.00     0.017 A 
ATOM      5  C4  UNL d   1      -0.389   0.653   1.484  0.00  0.00     0.017 A 
ATOM      6  C5  UNL d   1      -1.501   0.136   0.814  0.00  0.00     0.034 A 
ATOM      7 Cl   UNL d   1       1.177   0.151   0.953  0.00  0.00    -0.070 Cl
ATOM      8 Cl1  UNL d   1       0.754   2.228   3.423  0.00  0.00    -0.070 Cl
ENDROOT
TORSDOF 0
ENDMDL
