MODEL 1
REMARK minimizedAffinity 1.90301025
REMARK minimizedRMSD -1
REMARK  0 active torsions:
REMARK  status: ('A' for Active; 'I' for Inactive)
ROOT
ATOM      1  C   UNL d   1      -1.188  -0.557   0.572  0.00  0.00     0.020 A 
ATOM      2  C1  UNL d   1       0.157  -0.424   0.914  0.00  0.00     0.020 A 
ATOM      3  C2  UNL d   1       0.545   0.516   1.871  0.00  0.00     0.034 A 
ATOM      4  C3  UNL d   1      -0.413   1.328   2.489  0.00  0.00     0.017 A 
ATOM      5  C4  UNL d   1      -1.763   1.194   2.145  0.00  0.00     0.017 A 
ATOM      6  C5  UNL d   1      -2.146   0.251   1.187  0.00  0.00     0.034 A 
ATOM      7 Cl   UNL d   1      -3.003   2.160   2.865  0.00  0.00    -0.070 Cl
ATOM      8 Cl1  UNL d   1       0.138   2.469   3.663  0.00  0.00    -0.070 Cl
ENDROOT
TORSDOF 0
ENDMDL
