MODEL 1
REMARK minimizedAffinity 7.14505577
REMARK minimizedRMSD -1
REMARK  0 active torsions:
REMARK  status: ('A' for Active; 'I' for Inactive)
ROOT
ATOM      1  C   UNL d   1      -2.693   0.292   0.479  0.00  0.00     0.020 A 
ATOM      2  C1  UNL d   1      -3.004   0.828   1.728  0.00  0.00     0.020 A 
ATOM      3  C2  UNL d   1      -1.988   1.331   2.544  0.00  0.00     0.034 A 
ATOM      4  C3  UNL d   1      -0.657   1.299   2.112  0.00  0.00     0.017 A 
ATOM      5  C4  UNL d   1      -0.346   0.760   0.858  0.00  0.00     0.017 A 
ATOM      6  C5  UNL d   1      -1.367   0.258   0.045  0.00  0.00     0.034 A 
ATOM      7 Cl   UNL d   1       1.272   0.686   0.256  0.00  0.00    -0.070 Cl
ATOM      8 Cl1  UNL d   1       0.548   1.938   3.172  0.00  0.00    -0.070 Cl
ENDROOT
TORSDOF 0
ENDMDL
