MODEL 1
REMARK minimizedAffinity 10.5625429
REMARK minimizedRMSD -1
REMARK  0 active torsions:
REMARK  status: ('A' for Active; 'I' for Inactive)
ROOT
ATOM      1  C   UNL d   1      -5.999   1.833   2.840  0.00  0.00     0.020 A 
ATOM      2  C1  UNL d   1      -5.269   2.279   3.941  0.00  0.00     0.020 A 
ATOM      3  C2  UNL d   1      -3.878   2.160   3.951  0.00  0.00     0.034 A 
ATOM      4  C3  UNL d   1      -3.212   1.594   2.858  0.00  0.00     0.017 A 
ATOM      5  C4  UNL d   1      -3.945   1.146   1.753  0.00  0.00     0.017 A 
ATOM      6  C5  UNL d   1      -5.338   1.267   1.748  0.00  0.00     0.034 A 
ATOM      7 Cl   UNL d   1      -3.194   0.437   0.368  0.00  0.00    -0.070 Cl
ATOM      8 Cl1  UNL d   1      -1.490   1.478   2.938  0.00  0.00    -0.070 Cl
ENDROOT
TORSDOF 0
ENDMDL
