MODEL 1
REMARK minimizedAffinity 5.4939971
REMARK minimizedRMSD -1
REMARK  0 active torsions:
REMARK  status: ('A' for Active; 'I' for Inactive)
ROOT
ATOM      1  C   UNL d   1      -0.029   1.798   3.524  0.00  0.00     0.020 A 
ATOM      2  C1  UNL d   1      -1.221   2.368   3.970  0.00  0.00     0.020 A 
ATOM      3  C2  UNL d   1      -2.403   2.162   3.257  0.00  0.00     0.034 A 
ATOM      4  C3  UNL d   1      -2.397   1.384   2.093  0.00  0.00     0.017 A 
ATOM      5  C4  UNL d   1      -1.200   0.813   1.646  0.00  0.00     0.017 A 
ATOM      6  C5  UNL d   1      -0.019   1.022   2.364  0.00  0.00     0.034 A 
ATOM      7 Cl   UNL d   1      -1.114  -0.159   0.219  0.00  0.00    -0.070 Cl
ATOM      8 Cl1  UNL d   1      -3.896   1.172   1.260  0.00  0.00    -0.070 Cl
ENDROOT
TORSDOF 0
ENDMDL
