MODEL 1
REMARK minimizedAffinity -0.751889348
REMARK minimizedRMSD -1
REMARK  0 active torsions:
REMARK  status: ('A' for Active; 'I' for Inactive)
ROOT
ATOM      1  C   UNL d   1       0.396   6.000  -4.664  0.00  0.00     0.020 A 
ATOM      2  C1  UNL d   1      -0.647   5.585  -5.492  0.00  0.00     0.020 A 
ATOM      3  C2  UNL d   1      -0.731   4.250  -5.893  0.00  0.00     0.034 A 
ATOM      4  C3  UNL d   1       0.228   3.325  -5.466  0.00  0.00     0.017 A 
ATOM      5  C4  UNL d   1       1.274   3.742  -4.635  0.00  0.00     0.017 A 
ATOM      6  C5  UNL d   1       1.354   5.080  -4.236  0.00  0.00     0.034 A 
ATOM      7 Cl   UNL d   1       2.495   2.659  -4.067  0.00  0.00    -0.070 Cl
ATOM      8 Cl1  UNL d   1       0.061   1.690  -6.000  0.00  0.00    -0.070 Cl
ENDROOT
TORSDOF 0
ENDMDL
