MODEL 1
REMARK minimizedAffinity 19.7647514
REMARK minimizedRMSD -1
REMARK  1 active torsions:
REMARK  status: ('A' for Active; 'I' for Inactive)
REMARK    1  A    between atoms: C1_2  and  C2_3 
ROOT
ATOM      1  C2  UNL d   1      -4.153  -1.224   0.783  0.00  0.00    -0.073 A 
ATOM      2  C3  UNL d   1      -3.023  -1.382  -0.028  0.00  0.00    -0.002 A 
ATOM      3  C4  UNL d   1      -1.813  -0.785   0.326  0.00  0.00     0.004 A 
ATOM      4  C5  UNL d   1      -1.717  -0.030   1.495  0.00  0.00    -0.004 A 
ATOM      5  C6  UNL d   1      -2.832   0.130   2.324  0.00  0.00    -0.075 A 
ATOM      6  C7  UNL d   1      -2.747   0.940   3.584  0.00  0.00     0.076 C 
ATOM      7  C8  UNL d   1      -4.045  -0.471   1.961  0.00  0.00     0.001 A 
ENDROOT
BRANCH   1   8
ATOM      8  C1  UNL d   1      -5.461  -1.872   0.408  0.00  0.00     0.053 C 
ATOM      9  C   UNL d   1      -5.997  -2.758   1.521  0.00  0.00     0.018 C 
ENDBRANCH   1   8
TORSDOF 1
ENDMDL
