MODEL 1
REMARK minimizedAffinity 13.7152376
REMARK minimizedRMSD -1
REMARK  1 active torsions:
REMARK  status: ('A' for Active; 'I' for Inactive)
REMARK    1  A    between atoms: C1_2  and  C2_3 
ROOT
ATOM      1  C2  UNL d   1       1.276   0.437  -1.902  0.00  0.00    -0.073 A 
ATOM      2  C3  UNL d   1       2.352   0.107  -1.069  0.00  0.00    -0.002 A 
ATOM      3  C4  UNL d   1       2.836  -1.201  -1.029  0.00  0.00     0.004 A 
ATOM      4  C5  UNL d   1       2.257  -2.190  -1.824  0.00  0.00    -0.004 A 
ATOM      5  C6  UNL d   1       1.189  -1.877  -2.672  0.00  0.00    -0.075 A 
ATOM      6  C7  UNL d   1       0.553  -2.929  -3.532  0.00  0.00     0.076 C 
ATOM      7  C8  UNL d   1       0.706  -0.562  -2.705  0.00  0.00     0.001 A 
ENDROOT
BRANCH   1   8
ATOM      8  C1  UNL d   1       0.754   1.849  -1.954  0.00  0.00     0.053 C 
ATOM      9  C   UNL d   1       1.677   2.825  -1.243  0.00  0.00     0.018 C 
ENDBRANCH   1   8
TORSDOF 1
ENDMDL
