MODEL 1
REMARK minimizedAffinity 17.6718941
REMARK minimizedRMSD -1
REMARK  1 active torsions:
REMARK  status: ('A' for Active; 'I' for Inactive)
REMARK    1  A    between atoms: C1_2  and  C2_3 
ROOT
ATOM      1  C2  UNL d   1       3.600   1.032  -2.524  0.00  0.00    -0.073 A 
ATOM      2  C3  UNL d   1       3.447  -0.134  -1.765  0.00  0.00    -0.002 A 
ATOM      3  C4  UNL d   1       2.193  -0.493  -1.269  0.00  0.00     0.004 A 
ATOM      4  C5  UNL d   1       1.079   0.305  -1.532  0.00  0.00    -0.004 A 
ATOM      5  C6  UNL d   1       1.209   1.467  -2.299  0.00  0.00    -0.075 A 
ATOM      6  C7  UNL d   1       0.022   2.337  -2.590  0.00  0.00     0.076 C 
ATOM      7  C8  UNL d   1       2.473   1.822  -2.792  0.00  0.00     0.001 A 
ENDROOT
BRANCH   1   8
ATOM      8  C1  UNL d   1       4.951   1.420  -3.067  0.00  0.00     0.053 C 
ATOM      9  C   UNL d   1       6.000   0.352  -2.802  0.00  0.00     0.018 C 
ENDBRANCH   1   8
TORSDOF 1
ENDMDL
