MODEL 1
REMARK minimizedAffinity 16.8988686
REMARK minimizedRMSD -1
REMARK  1 active torsions:
REMARK  status: ('A' for Active; 'I' for Inactive)
REMARK    1  A    between atoms: C1_2  and  C2_3 
ROOT
ATOM      1  C2  UNL d   1       4.285   4.350   1.239  0.00  0.00    -0.073 A 
ATOM      2  C3  UNL d   1       5.259   4.648   0.280  0.00  0.00    -0.002 A 
ATOM      3  C4  UNL d   1       4.886   4.992  -1.020  0.00  0.00     0.004 A 
ATOM      4  C5  UNL d   1       3.538   5.049  -1.372  0.00  0.00    -0.004 A 
ATOM      5  C6  UNL d   1       2.549   4.765  -0.424  0.00  0.00    -0.075 A 
ATOM      6  C7  UNL d   1       1.094   4.819  -0.788  0.00  0.00     0.076 C 
ATOM      7  C8  UNL d   1       2.932   4.418   0.878  0.00  0.00     0.001 A 
ENDROOT
BRANCH   1   8
ATOM      8  C1  UNL d   1       4.682   3.984   2.646  0.00  0.00     0.053 C 
ATOM      9  C   UNL d   1       5.283   5.163   3.393  0.00  0.00     0.018 C 
ENDBRANCH   1   8
TORSDOF 1
ENDMDL
