MODEL 1
REMARK minimizedAffinity -0.691366613
REMARK minimizedRMSD -1
REMARK  1 active torsions:
REMARK  status: ('A' for Active; 'I' for Inactive)
REMARK    1  A    between atoms: C1_2  and  C2_3 
ROOT
ATOM      1  C2  UNL d   1       4.237   5.247   1.073  0.00  0.00    -0.073 A 
ATOM      2  C3  UNL d   1       2.889   5.251   0.696  0.00  0.00    -0.002 A 
ATOM      3  C4  UNL d   1       2.529   5.503  -0.629  0.00  0.00     0.004 A 
ATOM      4  C5  UNL d   1       3.510   5.748  -1.589  0.00  0.00    -0.004 A 
ATOM      5  C6  UNL d   1       4.863   5.737  -1.233  0.00  0.00    -0.075 A 
ATOM      6  C7  UNL d   1       5.931   6.000  -2.254  0.00  0.00     0.076 C 
ATOM      7  C8  UNL d   1       5.217   5.485   0.099  0.00  0.00     0.001 A 
ENDROOT
BRANCH   1   8
ATOM      8  C1  UNL d   1       4.631   4.969   2.501  0.00  0.00     0.053 C 
ATOM      9  C   UNL d   1       5.620   5.995   3.030  0.00  0.00     0.018 C 
ENDBRANCH   1   8
TORSDOF 1
ENDMDL
