MODEL 1
REMARK minimizedAffinity 19.8194141
REMARK minimizedRMSD -1
REMARK  1 active torsions:
REMARK  status: ('A' for Active; 'I' for Inactive)
REMARK    1  A    between atoms: C1_2  and  C2_3 
ROOT
ATOM      1  C2  UNL d   1      -4.900   4.509   3.710  0.00  0.00    -0.073 A 
ATOM      2  C3  UNL d   1      -5.841   5.278   4.403  0.00  0.00    -0.002 A 
ATOM      3  C4  UNL d   1      -5.466   5.998   5.538  0.00  0.00     0.004 A 
ATOM      4  C5  UNL d   1      -4.146   5.961   5.987  0.00  0.00    -0.004 A 
ATOM      5  C6  UNL d   1      -3.188   5.207   5.302  0.00  0.00    -0.075 A 
ATOM      6  C7  UNL d   1      -1.764   5.156   5.774  0.00  0.00     0.076 C 
ATOM      7  C8  UNL d   1      -3.573   4.485   4.164  0.00  0.00     0.001 A 
ENDROOT
BRANCH   1   8
ATOM      8  C1  UNL d   1      -5.299   3.735   2.480  0.00  0.00     0.053 C 
ATOM      9  C   UNL d   1      -5.946   4.626   1.431  0.00  0.00     0.018 C 
ENDBRANCH   1   8
TORSDOF 1
ENDMDL
