MODEL 1
REMARK minimizedAffinity 8.99452209
REMARK minimizedRMSD -1
REMARK  1 active torsions:
REMARK  status: ('A' for Active; 'I' for Inactive)
REMARK    1  A    between atoms: C1_2  and  C2_3 
ROOT
ATOM      1  C2  UNL d   1       4.897  -3.669   5.164  0.00  0.00    -0.073 A 
ATOM      2  C3  UNL d   1       5.861  -3.058   5.974  0.00  0.00    -0.002 A 
ATOM      3  C4  UNL d   1       5.981  -1.668   6.000  0.00  0.00     0.004 A 
ATOM      4  C5  UNL d   1       5.136  -0.875   5.223  0.00  0.00    -0.004 A 
ATOM      5  C6  UNL d   1       4.159  -1.467   4.416  0.00  0.00    -0.075 A 
ATOM      6  C7  UNL d   1       3.243  -0.629   3.573  0.00  0.00     0.076 C 
ATOM      7  C8  UNL d   1       4.046  -2.864   4.393  0.00  0.00     0.001 A 
ENDROOT
BRANCH   1   8
ATOM      8  C1  UNL d   1       4.759  -5.169   5.137  0.00  0.00     0.053 C 
ATOM      9  C   UNL d   1       5.665  -5.806   4.095  0.00  0.00     0.018 C 
ENDBRANCH   1   8
TORSDOF 1
ENDMDL
