MODEL 1
REMARK minimizedAffinity 8.97796154
REMARK minimizedRMSD -1
REMARK  1 active torsions:
REMARK  status: ('A' for Active; 'I' for Inactive)
REMARK    1  A    between atoms: C1_2  and  C2_3 
ROOT
ATOM      1  C2  UNL d   1       1.405  -0.642  -2.294  0.00  0.00    -0.073 A 
ATOM      2  C3  UNL d   1       2.398  -0.125  -1.455  0.00  0.00    -0.002 A 
ATOM      3  C4  UNL d   1       2.683   1.242  -1.460  0.00  0.00     0.004 A 
ATOM      4  C5  UNL d   1       1.973   2.104  -2.295  0.00  0.00    -0.004 A 
ATOM      5  C6  UNL d   1       0.968   1.607  -3.131  0.00  0.00    -0.075 A 
ATOM      6  C7  UNL d   1       0.197   2.521  -4.038  0.00  0.00     0.076 C 
ATOM      7  C8  UNL d   1       0.690   0.234  -3.124  0.00  0.00     0.001 A 
ENDROOT
BRANCH   1   8
ATOM      8  C1  UNL d   1       1.090  -2.116  -2.288  0.00  0.00     0.053 C 
ATOM      9  C   UNL d   1       0.738  -2.629  -3.676  0.00  0.00     0.018 C 
ENDBRANCH   1   8
TORSDOF 1
ENDMDL
