MODEL 1
REMARK minimizedAffinity 8.67895603
REMARK minimizedRMSD -1
REMARK  1 active torsions:
REMARK  status: ('A' for Active; 'I' for Inactive)
REMARK    1  A    between atoms: C1_2  and  C2_3 
ROOT
ATOM      1  C2  UNL d   1      -3.447   5.802   5.200  0.00  0.00    -0.073 A 
ATOM      2  C3  UNL d   1      -4.592   5.903   5.998  0.00  0.00    -0.002 A 
ATOM      3  C4  UNL d   1      -5.861   5.848   5.421  0.00  0.00     0.004 A 
ATOM      4  C5  UNL d   1      -5.999   5.684   4.042  0.00  0.00    -0.004 A 
ATOM      5  C6  UNL d   1      -4.867   5.569   3.229  0.00  0.00    -0.075 A 
ATOM      6  C7  UNL d   1      -4.998   5.395   1.745  0.00  0.00     0.076 C 
ATOM      7  C8  UNL d   1      -3.595   5.628   3.816  0.00  0.00     0.001 A 
ENDROOT
BRANCH   1   8
ATOM      8  C1  UNL d   1      -2.074   5.854   5.820  0.00  0.00     0.053 C 
ATOM      9  C   UNL d   1      -1.472   4.469   5.989  0.00  0.00     0.018 C 
ENDBRANCH   1   8
TORSDOF 1
ENDMDL
