MODEL 1
REMARK minimizedAffinity 13.7063093
REMARK minimizedRMSD -1
REMARK  1 active torsions:
REMARK  status: ('A' for Active; 'I' for Inactive)
REMARK    1  A    between atoms: C1_2  and  C2_3 
ROOT
ATOM      1  C2  UNL d   1       4.903  -2.996   5.271  0.00  0.00    -0.073 A 
ATOM      2  C3  UNL d   1       5.820  -2.227   5.996  0.00  0.00    -0.002 A 
ATOM      3  C4  UNL d   1       6.000  -0.876   5.695  0.00  0.00     0.004 A 
ATOM      4  C5  UNL d   1       5.262  -0.280   4.672  0.00  0.00    -0.004 A 
ATOM      5  C6  UNL d   1       4.333  -1.030   3.944  0.00  0.00    -0.075 A 
ATOM      6  C7  UNL d   1       3.533  -0.405   2.839  0.00  0.00     0.076 C 
ATOM      7  C8  UNL d   1       4.160  -2.386   4.250  0.00  0.00     0.001 A 
ENDROOT
BRANCH   1   8
ATOM      8  C1  UNL d   1       4.701  -4.454   5.597  0.00  0.00     0.053 C 
ATOM      9  C   UNL d   1       6.000  -5.134   5.997  0.00  0.00     0.018 C 
ENDBRANCH   1   8
TORSDOF 1
ENDMDL
