MODEL 1
REMARK minimizedAffinity -3.66284609
REMARK minimizedRMSD -1
REMARK  0 active torsions:
REMARK  status: ('A' for Active; 'I' for Inactive)
ROOT
ATOM      1  C4' PXY d   1       0.222   0.333   2.011  0.00  0.00     0.077 C 
ATOM      2  C1' PXY d   1       1.181  -1.728  -3.304  0.00  0.00     0.077 C 
ATOM      3  C1  PXY d   1       0.933  -1.175  -1.914  0.00  0.00    -0.082 A 
ATOM      4  C2  PXY d   1       0.994  -1.984  -0.869  0.00  0.00     0.003 A 
ATOM      5  C3  PXY d   1       0.741  -1.508   0.392  0.00  0.00     0.003 A 
ATOM      6  C4  PXY d   1       0.475  -0.179   0.590  0.00  0.00    -0.082 A 
ATOM      7  C5  PXY d   1       0.422   0.654  -0.470  0.00  0.00     0.003 A 
ATOM      8  C6  PXY d   1       0.641   0.143  -1.746  0.00  0.00     0.003 A 
ENDROOT
TORSDOF 0
ENDMDL
