MODEL 1
REMARK minimizedAffinity -2.90659976
REMARK minimizedRMSD -1
REMARK  0 active torsions:
REMARK  status: ('A' for Active; 'I' for Inactive)
ROOT
ATOM      1  C4' PXY d   1       2.724   0.659   1.685  0.00  0.00     0.077 C 
ATOM      2  C1' PXY d   1      -2.740   0.827  -0.194  0.00  0.00     0.077 C 
ATOM      3  C1  PXY d   1      -1.311   0.787   0.311  0.00  0.00    -0.082 A 
ATOM      4  C2  PXY d   1      -0.311   0.938  -0.543  0.00  0.00     0.003 A 
ATOM      5  C3  PXY d   1       0.988   0.872  -0.108  0.00  0.00     0.003 A 
ATOM      6  C4  PXY d   1       1.266   0.702   1.222  0.00  0.00    -0.082 A 
ATOM      7  C5  PXY d   1       0.251   0.558   2.100  0.00  0.00     0.003 A 
ATOM      8  C6  PXY d   1      -1.060   0.587   1.633  0.00  0.00     0.003 A 
ENDROOT
TORSDOF 0
ENDMDL
