MODEL 1
REMARK minimizedAffinity -3.24781966
REMARK minimizedRMSD -1
REMARK  0 active torsions:
REMARK  status: ('A' for Active; 'I' for Inactive)
ROOT
ATOM      1  C4' PXY d   1       2.124  -1.723  -3.874  0.00  0.00     0.077 C 
ATOM      2  C1' PXY d   1      -1.655   0.520  -0.118  0.00  0.00     0.077 C 
ATOM      3  C1  PXY d   1      -0.669  -0.080  -1.101  0.00  0.00    -0.082 A 
ATOM      4  C2  PXY d   1       0.489   0.523  -1.317  0.00  0.00     0.003 A 
ATOM      5  C3  PXY d   1       1.378   0.011  -2.227  0.00  0.00     0.003 A 
ATOM      6  C4  PXY d   1       1.103  -1.158  -2.883  0.00  0.00    -0.082 A 
ATOM      7  C5  PXY d   1      -0.072  -1.785  -2.660  0.00  0.00     0.003 A 
ATOM      8  C6  PXY d   1      -0.979  -1.228  -1.763  0.00  0.00     0.003 A 
ENDROOT
TORSDOF 0
ENDMDL
