MODEL 1
REMARK minimizedAffinity -0.167870656
REMARK minimizedRMSD -1
REMARK  0 active torsions:
REMARK  status: ('A' for Active; 'I' for Inactive)
ROOT
ATOM      1  C4' PXY d   1       0.847  -0.127  -2.532  0.00  0.00     0.077 C 
ATOM      2  C1' PXY d   1      -0.303   0.694   3.073  0.00  0.00     0.077 C 
ATOM      3  C1  PXY d   1      -0.014   0.474   1.601  0.00  0.00    -0.082 A 
ATOM      4  C2  PXY d   1       1.233   0.286   1.201  0.00  0.00     0.003 A 
ATOM      5  C3  PXY d   1       1.516   0.118  -0.130  0.00  0.00     0.003 A 
ATOM      6  C4  PXY d   1       0.507   0.089  -1.055  0.00  0.00    -0.082 A 
ATOM      7  C5  PXY d   1      -0.769   0.270  -0.653  0.00  0.00     0.003 A 
ATOM      8  C6  PXY d   1      -1.031   0.480   0.698  0.00  0.00     0.003 A 
ENDROOT
TORSDOF 0
ENDMDL
