MODEL 1
REMARK minimizedAffinity -2.13460898
REMARK minimizedRMSD -1
REMARK  0 active torsions:
REMARK  status: ('A' for Active; 'I' for Inactive)
ROOT
ATOM      1  C4' PXY d   1       0.678   0.129  -2.771  0.00  0.00     0.077 C 
ATOM      2  C1' PXY d   1      -0.259   0.591   2.915  0.00  0.00     0.077 C 
ATOM      3  C1  PXY d   1      -0.025   0.465   1.422  0.00  0.00    -0.082 A 
ATOM      4  C2  PXY d   1       1.207   0.322   0.963  0.00  0.00     0.003 A 
ATOM      5  C3  PXY d   1       1.439   0.239  -0.386  0.00  0.00     0.003 A 
ATOM      6  C4  PXY d   1       0.395   0.250  -1.271  0.00  0.00    -0.082 A 
ATOM      7  C5  PXY d   1      -0.867   0.386  -0.810  0.00  0.00     0.003 A 
ATOM      8  C6  PXY d   1      -1.078   0.510   0.561  0.00  0.00     0.003 A 
ENDROOT
TORSDOF 0
ENDMDL
