MODEL 1
REMARK minimizedAffinity -3.80655766
REMARK minimizedRMSD -1
REMARK  0 active torsions:
REMARK  status: ('A' for Active; 'I' for Inactive)
ROOT
ATOM      1  C4' PXY d   1      -2.555   0.663  -1.069  0.00  0.00     0.077 C 
ATOM      2  C1' PXY d   1       2.680  -0.522   1.077  0.00  0.00     0.077 C 
ATOM      3  C1  PXY d   1       1.313  -0.208   0.503  0.00  0.00    -0.082 A 
ATOM      4  C2  PXY d   1       0.320   0.114   1.316  0.00  0.00     0.003 A 
ATOM      5  C3  PXY d   1      -0.931   0.370   0.816  0.00  0.00     0.003 A 
ATOM      6  C4  PXY d   1      -1.155   0.348  -0.534  0.00  0.00    -0.082 A 
ATOM      7  C5  PXY d   1      -0.145   0.030  -1.371  0.00  0.00     0.003 A 
ATOM      8  C6  PXY d   1       1.107  -0.266  -0.841  0.00  0.00     0.003 A 
ENDROOT
TORSDOF 0
ENDMDL
