MODEL 1
REMARK minimizedAffinity -3.24850917
REMARK minimizedRMSD -1
REMARK  0 active torsions:
REMARK  status: ('A' for Active; 'I' for Inactive)
ROOT
ATOM      1  C4' PXY d   1      -0.037   0.826   2.964  0.00  0.00     0.077 C 
ATOM      2  C1' PXY d   1       0.383  -0.939  -2.524  0.00  0.00     0.077 C 
ATOM      3  C1  PXY d   1       0.260  -0.476  -1.086  0.00  0.00    -0.082 A 
ATOM      4  C2  PXY d   1       1.270   0.158  -0.514  0.00  0.00     0.003 A 
ATOM      5  C3  PXY d   1       1.188   0.555   0.795  0.00  0.00     0.003 A 
ATOM      6  C4  PXY d   1       0.039   0.349   1.511  0.00  0.00    -0.082 A 
ATOM      7  C5  PXY d   1      -1.000  -0.288   0.932  0.00  0.00     0.003 A 
ATOM      8  C6  PXY d   1      -0.882  -0.720  -0.386  0.00  0.00     0.003 A 
ENDROOT
TORSDOF 0
ENDMDL
