MODEL 1
REMARK minimizedAffinity -4.67258644
REMARK minimizedRMSD -1
REMARK  0 active torsions:
REMARK  status: ('A' for Active; 'I' for Inactive)
ROOT
ATOM      1  C4' PXY d   1       1.359  -0.303  -2.933  0.00  0.00     0.077 C 
ATOM      2  C1' PXY d   1       0.249   0.334   2.704  0.00  0.00     0.077 C 
ATOM      3  C1  PXY d   1       0.527   0.164   1.223  0.00  0.00    -0.082 A 
ATOM      4  C2  PXY d   1       1.750  -0.140   0.818  0.00  0.00     0.003 A 
ATOM      5  C3  PXY d   1       2.026  -0.265  -0.519  0.00  0.00     0.003 A 
ATOM      6  C4  PXY d   1       1.029  -0.131  -1.448  0.00  0.00    -0.082 A 
ATOM      7  C5  PXY d   1      -0.223   0.168  -1.042  0.00  0.00     0.003 A 
ATOM      8  C6  PXY d   1      -0.474   0.332   0.317  0.00  0.00     0.003 A 
ENDROOT
TORSDOF 0
ENDMDL
