MODEL 1
REMARK minimizedAffinity -2.36069155
REMARK minimizedRMSD -1
REMARK  0 active torsions:
REMARK  status: ('A' for Active; 'I' for Inactive)
ROOT
ATOM      1  C4' PXY d   1       1.002   0.403  -2.350  0.00  0.00     0.077 C 
ATOM      2  C1' PXY d   1      -1.152   0.086   3.005  0.00  0.00     0.077 C 
ATOM      3  C1  PXY d   1      -0.597   0.163   1.596  0.00  0.00    -0.082 A 
ATOM      4  C2  PXY d   1       0.706   0.294   1.412  0.00  0.00     0.003 A 
ATOM      5  C3  PXY d   1       1.221   0.397   0.145  0.00  0.00     0.003 A 
ATOM      6  C4  PXY d   1       0.399   0.312  -0.946  0.00  0.00    -0.082 A 
ATOM      7  C5  PXY d   1      -0.931   0.167  -0.767  0.00  0.00     0.003 A 
ATOM      8  C6  PXY d   1      -1.438   0.105   0.528  0.00  0.00     0.003 A 
ENDROOT
TORSDOF 0
ENDMDL
