MODEL 1
REMARK minimizedAffinity -2.38247538
REMARK minimizedRMSD -1
REMARK  0 active torsions:
REMARK  status: ('A' for Active; 'I' for Inactive)
ROOT
ATOM      1  C4' PXY d   1       5.963  -4.190   6.000  0.00  0.00     0.077 C 
ATOM      2  C1' PXY d   1       1.350  -5.996   3.021  0.00  0.00     0.077 C 
ATOM      3  C1  PXY d   1       2.567  -5.523   3.792  0.00  0.00    -0.082 A 
ATOM      4  C2  PXY d   1       2.609  -5.675   5.106  0.00  0.00     0.003 A 
ATOM      5  C3  PXY d   1       3.688  -5.224   5.822  0.00  0.00     0.003 A 
ATOM      6  C4  PXY d   1       4.759  -4.660   5.180  0.00  0.00    -0.082 A 
ATOM      7  C5  PXY d   1       4.728  -4.512   3.839  0.00  0.00     0.003 A 
ATOM      8  C6  PXY d   1       3.606  -4.939   3.135  0.00  0.00     0.003 A 
ENDROOT
TORSDOF 0
ENDMDL
