MODEL 1
REMARK minimizedAffinity -0.451970249
REMARK minimizedRMSD -1
REMARK  0 active torsions:
REMARK  status: ('A' for Active; 'I' for Inactive)
ROOT
ATOM      1  C4' PXY d   1      -2.253   0.565  -0.447  0.00  0.00     0.077 C 
ATOM      2  C1' PXY d   1       2.719   0.288   2.490  0.00  0.00     0.077 C 
ATOM      3  C1  PXY d   1       1.421   0.365   1.709  0.00  0.00    -0.082 A 
ATOM      4  C2  PXY d   1       0.274   0.481   2.357  0.00  0.00     0.003 A 
ATOM      5  C3  PXY d   1      -0.911   0.519   1.669  0.00  0.00     0.003 A 
ATOM      6  C4  PXY d   1      -0.918   0.494   0.300  0.00  0.00    -0.082 A 
ATOM      7  C5  PXY d   1       0.250   0.387  -0.370  0.00  0.00     0.003 A 
ATOM      8  C6  PXY d   1       1.439   0.308   0.350  0.00  0.00     0.003 A 
ENDROOT
TORSDOF 0
ENDMDL
