MODEL 1
REMARK minimizedAffinity -3.43270636
REMARK minimizedRMSD -1
REMARK  0 active torsions:
REMARK  status: ('A' for Active; 'I' for Inactive)
ROOT
ATOM      1  C4' PXY d   1       1.360   0.185  -2.720  0.00  0.00     0.077 C 
ATOM      2  C1' PXY d   1      -0.350   0.502   2.793  0.00  0.00     0.077 C 
ATOM      3  C1  PXY d   1       0.087   0.413   1.344  0.00  0.00    -0.082 A 
ATOM      4  C2  PXY d   1       1.375   0.466   1.045  0.00  0.00     0.003 A 
ATOM      5  C3  PXY d   1       1.786   0.418  -0.262  0.00  0.00     0.003 A 
ATOM      6  C4  PXY d   1       0.873   0.262  -1.270  0.00  0.00    -0.082 A 
ATOM      7  C5  PXY d   1      -0.442   0.197  -0.972  0.00  0.00     0.003 A 
ATOM      8  C6  PXY d   1      -0.842   0.288   0.358  0.00  0.00     0.003 A 
ENDROOT
TORSDOF 0
ENDMDL
