MODEL 1
REMARK minimizedAffinity -3.46831179
REMARK minimizedRMSD -1
REMARK  0 active torsions:
REMARK  status: ('A' for Active; 'I' for Inactive)
ROOT
ATOM      1  C4' PXY d   1      -3.175   0.659   0.735  0.00  0.00     0.077 C 
ATOM      2  C1' PXY d   1       2.469  -0.349   1.474  0.00  0.00     0.077 C 
ATOM      3  C1  PXY d   1       0.986  -0.091   1.291  0.00  0.00    -0.082 A 
ATOM      4  C2  PXY d   1       0.507   0.137   0.080  0.00  0.00     0.003 A 
ATOM      5  C3  PXY d   1      -0.826   0.404  -0.100  0.00  0.00     0.003 A 
ATOM      6  C4  PXY d   1      -1.686   0.384   0.965  0.00  0.00    -0.082 A 
ATOM      7  C5  PXY d   1      -1.206   0.142   2.204  0.00  0.00     0.003 A 
ATOM      8  C6  PXY d   1       0.157  -0.086   2.370  0.00  0.00     0.003 A 
ENDROOT
TORSDOF 0
ENDMDL
