MODEL 1
REMARK minimizedAffinity -5.90448999
REMARK minimizedRMSD -1
REMARK  0 active torsions:
REMARK  status: ('A' for Active; 'I' for Inactive)
ROOT
ATOM      1  C4' PXY d   1      -1.151  -0.513   3.455  0.00  0.00     0.077 C 
ATOM      2  C1' PXY d   1       0.574   0.520  -1.965  0.00  0.00     0.077 C 
ATOM      3  C1  PXY d   1       0.133   0.246  -0.541  0.00  0.00    -0.082 A 
ATOM      4  C2  PXY d   1      -1.135  -0.036  -0.291  0.00  0.00     0.003 A 
ATOM      5  C3  PXY d   1      -1.556  -0.256   0.996  0.00  0.00     0.003 A 
ATOM      6  C4  PXY d   1      -0.660  -0.238   2.031  0.00  0.00    -0.082 A 
ATOM      7  C5  PXY d   1       0.638   0.038   1.782  0.00  0.00     0.003 A 
ATOM      8  C6  PXY d   1       1.038   0.298   0.475  0.00  0.00     0.003 A 
ENDROOT
TORSDOF 0
ENDMDL
