MODEL 1
REMARK minimizedAffinity -2.05345774
REMARK minimizedRMSD -1
REMARK  0 active torsions:
REMARK  status: ('A' for Active; 'I' for Inactive)
ROOT
ATOM      1  C4' PXY d   1      -1.685   0.741   3.045  0.00  0.00     0.077 C 
ATOM      2  C1' PXY d   1       0.885  -0.262  -2.035  0.00  0.00     0.077 C 
ATOM      3  C1  PXY d   1       0.221  -0.005  -0.697  0.00  0.00    -0.082 A 
ATOM      4  C2  PXY d   1      -1.091   0.153  -0.637  0.00  0.00     0.003 A 
ATOM      5  C3  PXY d   1      -1.704   0.418   0.560  0.00  0.00     0.003 A 
ATOM      6  C4  PXY d   1      -0.973   0.470   1.716  0.00  0.00    -0.082 A 
ATOM      7  C5  PXY d   1       0.365   0.299   1.665  0.00  0.00     0.003 A 
ATOM      8  C6  PXY d   1       0.973   0.072   0.434  0.00  0.00     0.003 A 
ENDROOT
TORSDOF 0
ENDMDL
