MODEL 1
REMARK minimizedAffinity -1.62750566
REMARK minimizedRMSD -1
REMARK  0 active torsions:
REMARK  status: ('A' for Active; 'I' for Inactive)
ROOT
ATOM      1  C4' PXY d   1      -0.300   0.189   2.655  0.00  0.00     0.077 C 
ATOM      2  C1' PXY d   1       1.354  -0.488  -2.843  0.00  0.00     0.077 C 
ATOM      3  C1  PXY d   1       0.933  -0.311  -1.397  0.00  0.00    -0.082 A 
ATOM      4  C2  PXY d   1      -0.294  -0.642  -1.028  0.00  0.00     0.003 A 
ATOM      5  C3  PXY d   1      -0.702  -0.458   0.268  0.00  0.00     0.003 A 
ATOM      6  C4  PXY d   1       0.172   0.018   1.208  0.00  0.00    -0.082 A 
ATOM      7  C5  PXY d   1       1.429   0.348   0.842  0.00  0.00     0.003 A 
ATOM      8  C6  PXY d   1       1.811   0.193  -0.488  0.00  0.00     0.003 A 
ENDROOT
TORSDOF 0
ENDMDL
