MODEL 1
REMARK minimizedAffinity -2.11349773
REMARK minimizedRMSD -1
REMARK  0 active torsions:
REMARK  status: ('A' for Active; 'I' for Inactive)
ROOT
ATOM      1  C4' PXY d   1      -1.081   0.355   3.325  0.00  0.00     0.077 C 
ATOM      2  C1' PXY d   1       0.509   0.268  -2.232  0.00  0.00     0.077 C 
ATOM      3  C1  PXY d   1       0.104   0.286  -0.771  0.00  0.00    -0.082 A 
ATOM      4  C2  PXY d   1      -1.178   0.221  -0.447  0.00  0.00     0.003 A 
ATOM      5  C3  PXY d   1      -1.563   0.269   0.868  0.00  0.00     0.003 A 
ATOM      6  C4  PXY d   1      -0.625   0.330   1.863  0.00  0.00    -0.082 A 
ATOM      7  C5  PXY d   1       0.684   0.386   1.541  0.00  0.00     0.003 A 
ATOM      8  C6  PXY d   1       1.053   0.378   0.199  0.00  0.00     0.003 A 
ENDROOT
TORSDOF 0
ENDMDL
