MODEL 1
REMARK minimizedAffinity -4.89859486
REMARK minimizedRMSD -1
REMARK  0 active torsions:
REMARK  status: ('A' for Active; 'I' for Inactive)
ROOT
ATOM      1  C4' PXY d   1       1.122  -0.091  -2.986  0.00  0.00     0.077 C 
ATOM      2  C1' PXY d   1       0.142   0.615   2.667  0.00  0.00     0.077 C 
ATOM      3  C1  PXY d   1       0.386   0.427   1.182  0.00  0.00    -0.082 A 
ATOM      4  C2  PXY d   1       1.599   0.116   0.753  0.00  0.00     0.003 A 
ATOM      5  C3  PXY d   1       1.845  -0.026  -0.588  0.00  0.00     0.003 A 
ATOM      6  C4  PXY d   1       0.827   0.099  -1.496  0.00  0.00    -0.082 A 
ATOM      7  C5  PXY d   1      -0.415   0.405  -1.065  0.00  0.00     0.003 A 
ATOM      8  C6  PXY d   1      -0.635   0.586   0.297  0.00  0.00     0.003 A 
ENDROOT
TORSDOF 0
ENDMDL
