MODEL 1
REMARK minimizedAffinity -3.49321246
REMARK minimizedRMSD -1
REMARK  0 active torsions:
REMARK  status: ('A' for Active; 'I' for Inactive)
ROOT
ATOM      1  C4' PXY d   1       0.895  -0.774  -2.729  0.00  0.00     0.077 C 
ATOM      2  C1' PXY d   1       0.014   0.708   2.789  0.00  0.00     0.077 C 
ATOM      3  C1  PXY d   1       0.232   0.321   1.339  0.00  0.00    -0.082 A 
ATOM      4  C2  PXY d   1       1.266  -0.437   1.013  0.00  0.00     0.003 A 
ATOM      5  C3  PXY d   1       1.497  -0.770  -0.297  0.00  0.00     0.003 A 
ATOM      6  C4  PXY d   1       0.630  -0.367  -1.277  0.00  0.00    -0.082 A 
ATOM      7  C5  PXY d   1      -0.434   0.399  -0.951  0.00  0.00     0.003 A 
ATOM      8  C6  PXY d   1      -0.627   0.760   0.379  0.00  0.00     0.003 A 
ENDROOT
TORSDOF 0
ENDMDL
