MODEL 1
REMARK minimizedAffinity -3.25952506
REMARK minimizedRMSD -1
REMARK  0 active torsions:
REMARK  status: ('A' for Active; 'I' for Inactive)
ROOT
ATOM      1  C4' PXY d   1       0.421  -0.008  -2.170  0.00  0.00     0.077 C 
ATOM      2  C1' PXY d   1      -1.281  -0.025   3.354  0.00  0.00     0.077 C 
ATOM      3  C1  PXY d   1      -0.822  -0.017   1.909  0.00  0.00    -0.082 A 
ATOM      4  C2  PXY d   1      -1.700   0.211   0.946  0.00  0.00     0.003 A 
ATOM      5  C3  PXY d   1      -1.308   0.190  -0.368  0.00  0.00     0.003 A 
ATOM      6  C4  PXY d   1       0.005  -0.015  -0.697  0.00  0.00    -0.082 A 
ATOM      7  C5  PXY d   1       0.908  -0.239   0.281  0.00  0.00     0.003 A 
ATOM      8  C6  PXY d   1       0.483  -0.254   1.607  0.00  0.00     0.003 A 
ENDROOT
TORSDOF 0
ENDMDL
