MODEL 1
REMARK minimizedAffinity 6.55796623
REMARK minimizedRMSD -1
REMARK  0 active torsions:
REMARK  status: ('A' for Active; 'I' for Inactive)
ROOT
ATOM      1  C4' PXY d   1       0.732   5.997  -4.541  0.00  0.00     0.077 C 
ATOM      2  C1' PXY d   1      -0.974   3.786   0.520  0.00  0.00     0.077 C 
ATOM      3  C1  PXY d   1      -0.539   4.364  -0.812  0.00  0.00    -0.082 A 
ATOM      4  C2  PXY d   1       0.736   4.311  -1.163  0.00  0.00     0.003 A 
ATOM      5  C3  PXY d   1       1.152   4.858  -2.349  0.00  0.00     0.003 A 
ATOM      6  C4  PXY d   1       0.245   5.417  -3.210  0.00  0.00    -0.082 A 
ATOM      7  C5  PXY d   1      -1.058   5.466  -2.864  0.00  0.00     0.003 A 
ATOM      8  C6  PXY d   1      -1.454   4.942  -1.636  0.00  0.00     0.003 A 
ENDROOT
TORSDOF 0
ENDMDL
