MODEL 1
REMARK minimizedAffinity 5.28569555
REMARK minimizedRMSD -1
REMARK  0 active torsions:
REMARK  status: ('A' for Active; 'I' for Inactive)
ROOT
ATOM      1  C4' PXY d   1      -0.018   2.254   1.213  0.00  0.00     0.077 C 
ATOM      2  C1' PXY d   1      -0.136   5.999  -3.189  0.00  0.00     0.077 C 
ATOM      3  C1  PXY d   1      -0.092   5.018  -2.033  0.00  0.00    -0.082 A 
ATOM      4  C2  PXY d   1      -1.057   4.124  -1.898  0.00  0.00     0.003 A 
ATOM      5  C3  PXY d   1      -1.050   3.250  -0.841  0.00  0.00     0.003 A 
ATOM      6  C4  PXY d   1      -0.016   3.257   0.057  0.00  0.00    -0.082 A 
ATOM      7  C5  PXY d   1       0.978   4.160  -0.081  0.00  0.00     0.003 A 
ATOM      8  C6  PXY d   1       0.931   5.065  -1.137  0.00  0.00     0.003 A 
ENDROOT
TORSDOF 0
ENDMDL
