MODEL 1
REMARK minimizedAffinity 4.99669027
REMARK minimizedRMSD -1
REMARK  0 active torsions:
REMARK  status: ('A' for Active; 'I' for Inactive)
ROOT
ATOM      1  C4' PXY d   1       0.422   2.414   1.159  0.00  0.00     0.077 C 
ATOM      2  C1' PXY d   1       0.152   5.998  -3.368  0.00  0.00     0.077 C 
ATOM      3  C1  PXY d   1       0.211   5.053  -2.184  0.00  0.00    -0.082 A 
ATOM      4  C2  PXY d   1       0.959   5.363  -1.137  0.00  0.00     0.003 A 
ATOM      5  C3  PXY d   1       1.049   4.505  -0.071  0.00  0.00     0.003 A 
ATOM      6  C4  PXY d   1       0.325   3.343  -0.055  0.00  0.00    -0.082 A 
ATOM      7  C5  PXY d   1      -0.448   3.025  -1.114  0.00  0.00     0.003 A 
ATOM      8  C6  PXY d   1      -0.494   3.890  -2.204  0.00  0.00     0.003 A 
ENDROOT
TORSDOF 0
ENDMDL
