MODEL 1
REMARK minimizedAffinity 8.5092268
REMARK minimizedRMSD -1
REMARK  0 active torsions:
REMARK  status: ('A' for Active; 'I' for Inactive)
ROOT
ATOM      1  C4' PXY d   1       0.475   1.595   4.061  0.00  0.00     0.077 C 
ATOM      2  C1' PXY d   1       2.612   4.651  -0.356  0.00  0.00     0.077 C 
ATOM      3  C1  PXY d   1       2.040   3.854   0.800  0.00  0.00    -0.082 A 
ATOM      4  C2  PXY d   1       2.830   3.487   1.795  0.00  0.00     0.003 A 
ATOM      5  C3  PXY d   1       2.336   2.738   2.832  0.00  0.00     0.003 A 
ATOM      6  C4  PXY d   1       1.008   2.408   2.878  0.00  0.00    -0.082 A 
ATOM      7  C5  PXY d   1       0.193   2.789   1.871  0.00  0.00     0.003 A 
ATOM      8  C6  PXY d   1       0.723   3.513   0.807  0.00  0.00     0.003 A 
ENDROOT
TORSDOF 0
ENDMDL
