MODEL 1
REMARK minimizedAffinity 10.7371826
REMARK minimizedRMSD -1
REMARK  0 active torsions:
REMARK  status: ('A' for Active; 'I' for Inactive)
ROOT
ATOM      1  C4' PXY d   1       0.839  -0.746   4.739  0.00  0.00     0.077 C 
ATOM      2  C1' PXY d   1       0.210   3.331   0.690  0.00  0.00     0.077 C 
ATOM      3  C1  PXY d   1       0.386   2.257   1.746  0.00  0.00    -0.082 A 
ATOM      4  C2  PXY d   1      -0.659   1.856   2.451  0.00  0.00     0.003 A 
ATOM      5  C3  PXY d   1      -0.512   0.909   3.432  0.00  0.00     0.003 A 
ATOM      6  C4  PXY d   1       0.707   0.328   3.656  0.00  0.00    -0.082 A 
ATOM      7  C5  PXY d   1       1.776   0.724   2.934  0.00  0.00     0.003 A 
ATOM      8  C6  PXY d   1       1.614   1.717   1.971  0.00  0.00     0.003 A 
ENDROOT
TORSDOF 0
ENDMDL
