MODEL 1
REMARK minimizedAffinity 6.83695841
REMARK minimizedRMSD -1
REMARK  0 active torsions:
REMARK  status: ('A' for Active; 'I' for Inactive)
ROOT
ATOM      1  C4' PXY d   1      -1.594  -3.911  -2.937  0.00  0.00     0.077 C 
ATOM      2  C1' PXY d   1       2.436  -2.477   0.951  0.00  0.00     0.077 C 
ATOM      3  C1  PXY d   1       1.386  -2.863  -0.073  0.00  0.00    -0.082 A 
ATOM      4  C2  PXY d   1       0.555  -1.944  -0.536  0.00  0.00     0.003 A 
ATOM      5  C3  PXY d   1      -0.421  -2.282  -1.437  0.00  0.00     0.003 A 
ATOM      6  C4  PXY d   1      -0.513  -3.564  -1.911  0.00  0.00    -0.082 A 
ATOM      7  C5  PXY d   1       0.339  -4.505  -1.451  0.00  0.00     0.003 A 
ATOM      8  C6  PXY d   1       1.296  -4.150  -0.505  0.00  0.00     0.003 A 
ENDROOT
TORSDOF 0
ENDMDL
