MODEL 1
REMARK minimizedAffinity 11.6664467
REMARK minimizedRMSD -1
REMARK  0 active torsions:
REMARK  status: ('A' for Active; 'I' for Inactive)
ROOT
ATOM      1  C4' PXY d   1       0.039  -0.311  -0.495  0.00  0.00     0.077 C 
ATOM      2  C1' PXY d   1      -0.781   5.411  -0.387  0.00  0.00     0.077 C 
ATOM      3  C1  PXY d   1      -0.564   3.910  -0.403  0.00  0.00    -0.082 A 
ATOM      4  C2  PXY d   1      -0.152   3.320  -1.513  0.00  0.00     0.003 A 
ATOM      5  C3  PXY d   1       0.018   1.960  -1.553  0.00  0.00     0.003 A 
ATOM      6  C4  PXY d   1      -0.184   1.203  -0.431  0.00  0.00    -0.082 A 
ATOM      7  C5  PXY d   1      -0.595   1.799   0.709  0.00  0.00     0.003 A 
ATOM      8  C6  PXY d   1      -0.801   3.175   0.718  0.00  0.00     0.003 A 
ENDROOT
TORSDOF 0
ENDMDL
