MODEL 1
REMARK minimizedAffinity 3.22506666
REMARK minimizedRMSD -1
REMARK  0 active torsions:
REMARK  status: ('A' for Active; 'I' for Inactive)
ROOT
ATOM      1  C4' PXY d   1       2.572   2.891   1.962  0.00  0.00     0.077 C 
ATOM      2  C1' PXY d   1      -1.663   4.650  -1.556  0.00  0.00     0.077 C 
ATOM      3  C1  PXY d   1      -0.545   4.188  -0.644  0.00  0.00    -0.082 A 
ATOM      4  C2  PXY d   1      -0.838   3.628   0.519  0.00  0.00     0.003 A 
ATOM      5  C3  PXY d   1       0.162   3.234   1.370  0.00  0.00     0.003 A 
ATOM      6  C4  PXY d   1       1.475   3.364   1.005  0.00  0.00    -0.082 A 
ATOM      7  C5  PXY d   1       1.782   3.924  -0.184  0.00  0.00     0.003 A 
ATOM      8  C6  PXY d   1       0.753   4.356  -1.016  0.00  0.00     0.003 A 
ENDROOT
TORSDOF 0
ENDMDL
