MODEL 1
REMARK minimizedAffinity 7.29839706
REMARK minimizedRMSD -1
REMARK  0 active torsions:
REMARK  status: ('A' for Active; 'I' for Inactive)
ROOT
ATOM      1  C4' PXY d   1       3.179  -5.999  -5.320  0.00  0.00     0.077 C 
ATOM      2  C1' PXY d   1       5.999  -4.765  -0.428  0.00  0.00     0.077 C 
ATOM      3  C1  PXY d   1       5.266  -5.079  -1.717  0.00  0.00    -0.082 A 
ATOM      4  C2  PXY d   1       4.086  -5.675  -1.670  0.00  0.00     0.003 A 
ATOM      5  C3  PXY d   1       3.424  -5.996  -2.827  0.00  0.00     0.003 A 
ATOM      6  C4  PXY d   1       3.950  -5.654  -4.044  0.00  0.00    -0.082 A 
ATOM      7  C5  PXY d   1       5.149  -5.036  -4.100  0.00  0.00     0.003 A 
ATOM      8  C6  PXY d   1       5.824  -4.757  -2.915  0.00  0.00     0.003 A 
ENDROOT
TORSDOF 0
ENDMDL
