MODEL 1
REMARK minimizedAffinity -4.72871399
REMARK minimizedRMSD -1
REMARK  1 active torsions:
REMARK  status: ('A' for Active; 'I' for Inactive)
REMARK    1  A    between atoms: C1_2  and  C2_3 
ROOT
ATOM      1  C2  UNL d   1      -0.557   1.066   0.149  0.00  0.00    -0.077 A 
ATOM      2  C3  UNL d   1       0.098  -0.143   0.422  0.00  0.00     0.002 A 
ATOM      3  C4  UNL d   1       1.265  -0.485  -0.266  0.00  0.00     0.002 A 
ATOM      4  C5  UNL d   1       1.787   0.378  -1.227  0.00  0.00    -0.004 A 
ATOM      5  C6  UNL d   1       1.141   1.581  -1.507  0.00  0.00     0.002 A 
ATOM      6  C7  UNL d   1      -0.025   1.924  -0.822  0.00  0.00     0.002 A 
ENDROOT
BRANCH   1   7
ATOM      7  C1  UNL d   1      -1.788   1.459   0.924  0.00  0.00     0.055 C 
ATOM      8  C   UNL d   1      -1.452   1.766   2.376  0.00  0.00     0.019 C 
ENDBRANCH   1   7
TORSDOF 1
ENDMDL
