MODEL 1
REMARK minimizedAffinity -4.6604023
REMARK minimizedRMSD -1
REMARK  1 active torsions:
REMARK  status: ('A' for Active; 'I' for Inactive)
REMARK    1  A    between atoms: C1_2  and  C2_3 
ROOT
ATOM      1  C2  UNL d   1      -1.020   1.410   0.592  0.00  0.00    -0.077 A 
ATOM      2  C3  UNL d   1      -0.439   2.052  -0.510  0.00  0.00     0.002 A 
ATOM      3  C4  UNL d   1       0.598   1.441  -1.218  0.00  0.00     0.002 A 
ATOM      4  C5  UNL d   1       1.060   0.184  -0.833  0.00  0.00    -0.004 A 
ATOM      5  C6  UNL d   1       0.490  -0.462   0.263  0.00  0.00     0.002 A 
ATOM      6  C7  UNL d   1      -0.545   0.148   0.972  0.00  0.00     0.002 A 
ENDROOT
BRANCH   1   7
ATOM      7  C1  UNL d   1      -2.171   2.046   1.327  0.00  0.00     0.055 C 
ATOM      8  C   UNL d   1      -1.738   2.568   2.689  0.00  0.00     0.019 C 
ENDBRANCH   1   7
TORSDOF 1
ENDMDL
