MODEL 1
REMARK minimizedAffinity -4.92261982
REMARK minimizedRMSD -1
REMARK  1 active torsions:
REMARK  status: ('A' for Active; 'I' for Inactive)
REMARK    1  A    between atoms: C1_2  and  C2_3 
ROOT
ATOM      1  C2  UNL d   1      -0.390   0.311   0.616  0.00  0.00    -0.077 A 
ATOM      2  C3  UNL d   1       0.446   0.807  -0.394  0.00  0.00     0.002 A 
ATOM      3  C4  UNL d   1       0.238   2.084  -0.919  0.00  0.00     0.002 A 
ATOM      4  C5  UNL d   1      -0.802   2.876  -0.437  0.00  0.00    -0.004 A 
ATOM      5  C6  UNL d   1      -1.640   2.391   0.566  0.00  0.00     0.002 A 
ATOM      6  C7  UNL d   1      -1.434   1.114   1.091  0.00  0.00     0.002 A 
ENDROOT
BRANCH   1   7
ATOM      7  C1  UNL d   1      -0.137  -1.047   1.218  0.00  0.00     0.055 C 
ATOM      8  C   UNL d   1      -0.174  -0.994   2.739  0.00  0.00     0.019 C 
ENDBRANCH   1   7
TORSDOF 1
ENDMDL
