MODEL 1
REMARK minimizedAffinity -3.0295434
REMARK minimizedRMSD -1
REMARK  1 active torsions:
REMARK  status: ('A' for Active; 'I' for Inactive)
REMARK    1  A    between atoms: C1_2  and  C2_3 
ROOT
ATOM      1  C2  UNL d   1       0.122  -0.088   0.005  0.00  0.00    -0.077 A 
ATOM      2  C3  UNL d   1      -0.337   1.110  -0.561  0.00  0.00     0.002 A 
ATOM      3  C4  UNL d   1      -1.238   1.920   0.133  0.00  0.00     0.002 A 
ATOM      4  C5  UNL d   1      -1.686   1.543   1.397  0.00  0.00    -0.004 A 
ATOM      5  C6  UNL d   1      -1.237   0.352   1.968  0.00  0.00     0.002 A 
ATOM      6  C7  UNL d   1      -0.337  -0.459   1.276  0.00  0.00     0.002 A 
ENDROOT
BRANCH   1   7
ATOM      7  C1  UNL d   1       1.132  -0.938  -0.720  0.00  0.00     0.055 C 
ATOM      8  C   UNL d   1       0.455  -1.891  -1.694  0.00  0.00     0.019 C 
ENDBRANCH   1   7
TORSDOF 1
ENDMDL
