MODEL 1
REMARK minimizedAffinity -4.02927876
REMARK minimizedRMSD -1
REMARK  1 active torsions:
REMARK  status: ('A' for Active; 'I' for Inactive)
REMARK    1  A    between atoms: C1_2  and  C2_3 
ROOT
ATOM      1  C2  UNL d   1       0.103  -0.373   0.081  0.00  0.00    -0.077 A 
ATOM      2  C3  UNL d   1      -0.646   0.631  -0.549  0.00  0.00     0.002 A 
ATOM      3  C4  UNL d   1      -1.405   1.526   0.208  0.00  0.00     0.002 A 
ATOM      4  C5  UNL d   1      -1.419   1.429   1.597  0.00  0.00    -0.004 A 
ATOM      5  C6  UNL d   1      -0.678   0.433   2.233  0.00  0.00     0.002 A 
ATOM      6  C7  UNL d   1       0.080  -0.463   1.479  0.00  0.00     0.002 A 
ENDROOT
BRANCH   1   7
ATOM      7  C1  UNL d   1       0.962  -1.308  -0.730  0.00  0.00     0.055 C 
ATOM      8  C   UNL d   1       0.367  -1.549  -2.110  0.00  0.00     0.019 C 
ENDBRANCH   1   7
TORSDOF 1
ENDMDL
