MODEL 1
REMARK minimizedAffinity -5.71536064
REMARK minimizedRMSD -1
REMARK  1 active torsions:
REMARK  status: ('A' for Active; 'I' for Inactive)
REMARK    1  A    between atoms: C1_2  and  C2_3 
ROOT
ATOM      1  C2  UNL d   1       0.239   1.031  -0.362  0.00  0.00    -0.077 A 
ATOM      2  C3  UNL d   1       0.025   2.361  -0.748  0.00  0.00     0.002 A 
ATOM      3  C4  UNL d   1      -0.983   3.118  -0.147  0.00  0.00     0.002 A 
ATOM      4  C5  UNL d   1      -1.781   2.554   0.846  0.00  0.00    -0.004 A 
ATOM      5  C6  UNL d   1      -1.578   1.231   1.236  0.00  0.00     0.002 A 
ATOM      6  C7  UNL d   1      -0.572   0.473   0.635  0.00  0.00     0.002 A 
ENDROOT
BRANCH   1   7
ATOM      7  C1  UNL d   1       1.357   0.228  -0.974  0.00  0.00     0.055 C 
ATOM      8  C   UNL d   1       1.192  -1.257  -0.690  0.00  0.00     0.019 C 
ENDBRANCH   1   7
TORSDOF 1
ENDMDL
