MODEL 1
REMARK minimizedAffinity -4.45478153
REMARK minimizedRMSD -1
REMARK  1 active torsions:
REMARK  status: ('A' for Active; 'I' for Inactive)
REMARK    1  A    between atoms: C1_2  and  C2_3 
ROOT
ATOM      1  C2  UNL d   1       0.907  -0.495  -0.061  0.00  0.00    -0.077 A 
ATOM      2  C3  UNL d   1       0.148  -0.505   1.117  0.00  0.00     0.002 A 
ATOM      3  C4  UNL d   1      -0.698   0.563   1.422  0.00  0.00     0.002 A 
ATOM      4  C5  UNL d   1      -0.797   1.646   0.551  0.00  0.00    -0.004 A 
ATOM      5  C6  UNL d   1      -0.045   1.666  -0.623  0.00  0.00     0.002 A 
ATOM      6  C7  UNL d   1       0.803   0.600  -0.928  0.00  0.00     0.002 A 
ENDROOT
BRANCH   1   7
ATOM      7  C1  UNL d   1       1.783  -1.669  -0.416  0.00  0.00     0.055 C 
ATOM      8  C   UNL d   1       1.132  -2.545  -1.476  0.00  0.00     0.019 C 
ENDBRANCH   1   7
TORSDOF 1
ENDMDL
