MODEL 1
REMARK minimizedAffinity -4.64462566
REMARK minimizedRMSD -1
REMARK  1 active torsions:
REMARK  status: ('A' for Active; 'I' for Inactive)
REMARK    1  A    between atoms: C1_2  and  C2_3 
ROOT
ATOM      1  C2  UNL d   1      -0.356  -0.211   0.494  0.00  0.00    -0.077 A 
ATOM      2  C3  UNL d   1      -1.064   0.896   0.006  0.00  0.00     0.002 A 
ATOM      3  C4  UNL d   1      -1.468   1.914   0.873  0.00  0.00     0.002 A 
ATOM      4  C5  UNL d   1      -1.165   1.837   2.230  0.00  0.00    -0.004 A 
ATOM      5  C6  UNL d   1      -0.463   0.739   2.726  0.00  0.00     0.002 A 
ATOM      6  C7  UNL d   1      -0.059  -0.280   1.862  0.00  0.00     0.002 A 
ENDROOT
BRANCH   1   7
ATOM      7  C1  UNL d   1       0.124  -1.286  -0.446  0.00  0.00     0.055 C 
ATOM      8  C   UNL d   1       1.441  -0.900  -1.102  0.00  0.00     0.019 C 
ENDBRANCH   1   7
TORSDOF 1
ENDMDL
