MODEL 1
REMARK minimizedAffinity -4.38023043
REMARK minimizedRMSD -1
REMARK  1 active torsions:
REMARK  status: ('A' for Active; 'I' for Inactive)
REMARK    1  A    between atoms: C1_2  and  C2_3 
ROOT
ATOM      1  C2  UNL d   1      -0.897   0.863  -0.145  0.00  0.00    -0.077 A 
ATOM      2  C3  UNL d   1      -1.249  -0.421  -0.584  0.00  0.00     0.002 A 
ATOM      3  C4  UNL d   1      -0.275  -1.289  -1.083  0.00  0.00     0.002 A 
ATOM      4  C5  UNL d   1       1.056  -0.883  -1.145  0.00  0.00    -0.004 A 
ATOM      5  C6  UNL d   1       1.416   0.392  -0.712  0.00  0.00     0.002 A 
ATOM      6  C7  UNL d   1       0.445   1.261  -0.214  0.00  0.00     0.002 A 
ENDROOT
BRANCH   1   7
ATOM      7  C1  UNL d   1      -1.937   1.782   0.440  0.00  0.00     0.055 C 
ATOM      8  C   UNL d   1      -1.529   2.272   1.822  0.00  0.00     0.019 C 
ENDBRANCH   1   7
TORSDOF 1
ENDMDL
