MODEL 1
REMARK minimizedAffinity -5.62637615
REMARK minimizedRMSD -1
REMARK  1 active torsions:
REMARK  status: ('A' for Active; 'I' for Inactive)
REMARK    1  A    between atoms: C1_2  and  C2_3 
ROOT
ATOM      1  C2  UNL d   1       0.117   0.371  -0.089  0.00  0.00    -0.077 A 
ATOM      2  C3  UNL d   1      -0.433   1.598  -0.486  0.00  0.00     0.002 A 
ATOM      3  C4  UNL d   1      -1.546   2.120   0.176  0.00  0.00     0.002 A 
ATOM      4  C5  UNL d   1      -2.116   1.424   1.240  0.00  0.00    -0.004 A 
ATOM      5  C6  UNL d   1      -1.577   0.202   1.640  0.00  0.00     0.002 A 
ATOM      6  C7  UNL d   1      -0.465  -0.322   0.979  0.00  0.00     0.002 A 
ENDROOT
BRANCH   1   7
ATOM      7  C1  UNL d   1       1.348  -0.169  -0.770  0.00  0.00     0.055 C 
ATOM      8  C   UNL d   1       1.194  -1.646  -1.101  0.00  0.00     0.019 C 
ENDBRANCH   1   7
TORSDOF 1
ENDMDL
