MODEL 1
REMARK minimizedAffinity 2.35729051
REMARK minimizedRMSD -1
REMARK  0 active torsions:
REMARK  status: ('A' for Active; 'I' for Inactive)
ROOT
ATOM      1  C   UNL d   1      -1.930   1.626  -0.720  0.00  0.00     0.020 A 
ATOM      2  C1  UNL d   1      -2.740   2.272   0.213  0.00  0.00     0.020 A 
ATOM      3  C2  UNL d   1      -2.395   2.258   1.566  0.00  0.00     0.034 A 
ATOM      4  C3  UNL d   1      -1.237   1.595   1.990  0.00  0.00     0.017 A 
ATOM      5  C4  UNL d   1      -0.424   0.947   1.053  0.00  0.00     0.017 A 
ATOM      6  C5  UNL d   1      -0.775   0.965  -0.301  0.00  0.00     0.034 A 
ATOM      7 Cl   UNL d   1       1.020   0.109   1.500  0.00  0.00    -0.070 Cl
ATOM      8 Cl1  UNL d   1      -0.871   1.618   3.679  0.00  0.00    -0.070 Cl
ENDROOT
TORSDOF 0
ENDMDL
