MODEL 1
REMARK minimizedAffinity -0.0206938945
REMARK minimizedRMSD -1
REMARK  0 active torsions:
REMARK  status: ('A' for Active; 'I' for Inactive)
ROOT
ATOM      1  C   UNL d   1      -0.377   2.406  -1.528  0.00  0.00     0.020 A 
ATOM      2  C1  UNL d   1       0.376   1.353  -1.008  0.00  0.00     0.020 A 
ATOM      3  C2  UNL d   1      -0.218   0.432  -0.141  0.00  0.00     0.034 A 
ATOM      4  C3  UNL d   1      -1.567   0.562   0.207  0.00  0.00     0.017 A 
ATOM      5  C4  UNL d   1      -2.321   1.618  -0.316  0.00  0.00     0.017 A 
ATOM      6  C5  UNL d   1      -1.722   2.538  -1.183  0.00  0.00     0.034 A 
ATOM      7 Cl   UNL d   1      -3.992   1.843   0.067  0.00  0.00    -0.070 Cl
ATOM      8 Cl1  UNL d   1      -2.235  -0.614   1.283  0.00  0.00    -0.070 Cl
ENDROOT
TORSDOF 0
ENDMDL
