MODEL 1
REMARK minimizedAffinity -1.1362623
REMARK minimizedRMSD -1
REMARK  0 active torsions:
REMARK  status: ('A' for Active; 'I' for Inactive)
ROOT
ATOM      1  C   UNL d   1       0.074   1.526   0.209  0.00  0.00     0.020 A 
ATOM      2  C1  UNL d   1      -0.577   2.513  -0.530  0.00  0.00     0.020 A 
ATOM      3  C2  UNL d   1      -1.970   2.606  -0.495  0.00  0.00     0.034 A 
ATOM      4  C3  UNL d   1      -2.716   1.711   0.280  0.00  0.00     0.017 A 
ATOM      5  C4  UNL d   1      -2.062   0.721   1.022  0.00  0.00     0.017 A 
ATOM      6  C5  UNL d   1      -0.667   0.632   0.984  0.00  0.00     0.034 A 
ATOM      7 Cl   UNL d   1      -2.914  -0.419   2.003  0.00  0.00    -0.070 Cl
ATOM      8 Cl1  UNL d   1      -4.436   1.885   0.277  0.00  0.00    -0.070 Cl
ENDROOT
TORSDOF 0
ENDMDL
