MODEL 1
REMARK minimizedAffinity -2.11917615
REMARK minimizedRMSD -1
REMARK  0 active torsions:
REMARK  status: ('A' for Active; 'I' for Inactive)
ROOT
ATOM      1  C   UNL d   1      -2.719   2.225   0.075  0.00  0.00     0.020 A 
ATOM      2  C1  UNL d   1      -3.327   1.019   0.425  0.00  0.00     0.020 A 
ATOM      3  C2  UNL d   1      -2.547  -0.059   0.847  0.00  0.00     0.034 A 
ATOM      4  C3  UNL d   1      -1.155   0.065   0.922  0.00  0.00     0.017 A 
ATOM      5  C4  UNL d   1      -0.545   1.275   0.571  0.00  0.00     0.017 A 
ATOM      6  C5  UNL d   1      -1.331   2.352   0.148  0.00  0.00     0.034 A 
ATOM      7 Cl   UNL d   1       1.166   1.505   0.637  0.00  0.00    -0.070 Cl
ATOM      8 Cl1  UNL d   1      -0.253  -1.309   1.453  0.00  0.00    -0.070 Cl
ENDROOT
TORSDOF 0
ENDMDL
