MODEL 1
REMARK minimizedAffinity -0.857759476
REMARK minimizedRMSD -1
REMARK  0 active torsions:
REMARK  status: ('A' for Active; 'I' for Inactive)
ROOT
ATOM      1  C   UNL d   1      -3.317   1.972  -0.264  0.00  0.00     0.020 A 
ATOM      2  C1  UNL d   1      -3.350   0.986   0.721  0.00  0.00     0.020 A 
ATOM      3  C2  UNL d   1      -2.159   0.519   1.281  0.00  0.00     0.034 A 
ATOM      4  C3  UNL d   1      -0.930   1.037   0.856  0.00  0.00     0.017 A 
ATOM      5  C4  UNL d   1      -0.899   2.027  -0.134  0.00  0.00     0.017 A 
ATOM      6  C5  UNL d   1      -2.094   2.491  -0.691  0.00  0.00     0.034 A 
ATOM      7 Cl   UNL d   1       0.579   2.715  -0.709  0.00  0.00    -0.070 Cl
ATOM      8 Cl1  UNL d   1       0.503   0.413   1.592  0.00  0.00    -0.070 Cl
ENDROOT
TORSDOF 0
ENDMDL
