MODEL 1
REMARK minimizedAffinity 6.73880911
REMARK minimizedRMSD -1
REMARK  0 active torsions:
REMARK  status: ('A' for Active; 'I' for Inactive)
ROOT
ATOM      1  C   UNL d   1      -0.175   0.727   2.167  0.00  0.00     0.020 A 
ATOM      2  C1  UNL d   1       0.477   1.361   1.110  0.00  0.00     0.020 A 
ATOM      3  C2  UNL d   1      -0.191   1.568  -0.099  0.00  0.00     0.034 A 
ATOM      4  C3  UNL d   1      -1.515   1.141  -0.253  0.00  0.00     0.017 A 
ATOM      5  C4  UNL d   1      -2.168   0.505   0.808  0.00  0.00     0.017 A 
ATOM      6  C5  UNL d   1      -1.495   0.300   2.016  0.00  0.00     0.034 A 
ATOM      7 Cl   UNL d   1      -3.801  -0.049   0.693  0.00  0.00    -0.070 Cl
ATOM      8 Cl1  UNL d   1      -2.279   1.431  -1.776  0.00  0.00    -0.070 Cl
ENDROOT
TORSDOF 0
ENDMDL
