MODEL 1
REMARK minimizedAffinity 7.62327385
REMARK minimizedRMSD -1
REMARK  0 active torsions:
REMARK  status: ('A' for Active; 'I' for Inactive)
ROOT
ATOM      1  C   UNL d   1      -2.236   2.853  -0.310  0.00  0.00     0.020 A 
ATOM      2  C1  UNL d   1      -1.939   1.505  -0.507  0.00  0.00     0.020 A 
ATOM      3  C2  UNL d   1      -0.632   1.115  -0.804  0.00  0.00     0.034 A 
ATOM      4  C3  UNL d   1       0.383   2.073  -0.905  0.00  0.00     0.017 A 
ATOM      5  C4  UNL d   1       0.084   3.426  -0.707  0.00  0.00     0.017 A 
ATOM      6  C5  UNL d   1      -1.227   3.811  -0.409  0.00  0.00     0.034 A 
ATOM      7 Cl   UNL d   1       1.283   4.666  -0.815  0.00  0.00    -0.070 Cl
ATOM      8 Cl1  UNL d   1       1.978   1.519  -1.275  0.00  0.00    -0.070 Cl
ENDROOT
TORSDOF 0
ENDMDL
