MODEL 1
REMARK minimizedAffinity -1.07081711
REMARK minimizedRMSD -1
REMARK  0 active torsions:
REMARK  status: ('A' for Active; 'I' for Inactive)
ROOT
ATOM      1  C   UNL d   1       0.294   2.011  -0.128  0.00  0.00     0.020 A 
ATOM      2  C1  UNL d   1       0.201   1.809   1.248  0.00  0.00     0.020 A 
ATOM      3  C2  UNL d   1       1.335   1.450   1.980  0.00  0.00     0.034 A 
ATOM      4  C3  UNL d   1       2.568   1.292   1.335  0.00  0.00     0.017 A 
ATOM      5  C4  UNL d   1       2.660   1.495  -0.046  0.00  0.00     0.017 A 
ATOM      6  C5  UNL d   1       1.521   1.854  -0.774  0.00  0.00     0.034 A 
ATOM      7 Cl   UNL d   1       4.146   1.319  -0.912  0.00  0.00    -0.070 Cl
ATOM      8 Cl1  UNL d   1       3.929   0.848   2.302  0.00  0.00    -0.070 Cl
ENDROOT
TORSDOF 0
ENDMDL
