MODEL 1
REMARK minimizedAffinity 4.17641306
REMARK minimizedRMSD -1
REMARK  0 active torsions:
REMARK  status: ('A' for Active; 'I' for Inactive)
ROOT
ATOM      1  C   UNL d   1      -0.910   2.328   0.447  0.00  0.00     0.020 A 
ATOM      2  C1  UNL d   1      -0.651   1.301   1.353  0.00  0.00     0.020 A 
ATOM      3  C2  UNL d   1      -1.666   0.410   1.708  0.00  0.00     0.034 A 
ATOM      4  C3  UNL d   1      -2.945   0.544   1.156  0.00  0.00     0.017 A 
ATOM      5  C4  UNL d   1      -3.204   1.575   0.246  0.00  0.00     0.017 A 
ATOM      6  C5  UNL d   1      -2.184   2.465  -0.106  0.00  0.00     0.034 A 
ATOM      7 Cl   UNL d   1      -4.757   1.805  -0.478  0.00  0.00    -0.070 Cl
ATOM      8 Cl1  UNL d   1      -4.152  -0.594   1.639  0.00  0.00    -0.070 Cl
ENDROOT
TORSDOF 0
ENDMDL
