MODEL 1
REMARK minimizedAffinity 8.89729977
REMARK minimizedRMSD -1
REMARK  0 active torsions:
REMARK  status: ('A' for Active; 'I' for Inactive)
ROOT
ATOM      1  C   UNL d   1       0.133   2.861  -0.109  0.00  0.00     0.020 A 
ATOM      2  C1  UNL d   1       0.545   1.936   0.849  0.00  0.00     0.020 A 
ATOM      3  C2  UNL d   1      -0.391   1.101   1.462  0.00  0.00     0.034 A 
ATOM      4  C3  UNL d   1      -1.745   1.190   1.117  0.00  0.00     0.017 A 
ATOM      5  C4  UNL d   1      -2.158   2.118   0.155  0.00  0.00     0.017 A 
ATOM      6  C5  UNL d   1      -1.216   2.952  -0.456  0.00  0.00     0.034 A 
ATOM      7 Cl   UNL d   1      -3.810   2.285  -0.323  0.00  0.00    -0.070 Cl
ATOM      8 Cl1  UNL d   1      -2.848   0.126   1.915  0.00  0.00    -0.070 Cl
ENDROOT
TORSDOF 0
ENDMDL
