MODEL 1
REMARK minimizedAffinity 2.24908757
REMARK minimizedRMSD -1
REMARK  0 active torsions:
REMARK  status: ('A' for Active; 'I' for Inactive)
ROOT
ATOM      1  C   UNL d   1      -2.135   1.437   0.006  0.00  0.00     0.020 A 
ATOM      2  C1  UNL d   1      -0.967   1.894  -0.602  0.00  0.00     0.020 A 
ATOM      3  C2  UNL d   1       0.278   1.500  -0.108  0.00  0.00     0.034 A 
ATOM      4  C3  UNL d   1       0.358   0.645   0.998  0.00  0.00     0.017 A 
ATOM      5  C4  UNL d   1      -0.815   0.187   1.608  0.00  0.00     0.017 A 
ATOM      6  C5  UNL d   1      -2.059   0.585   1.109  0.00  0.00     0.034 A 
ATOM      7 Cl   UNL d   1      -0.797  -0.869   2.976  0.00  0.00    -0.070 Cl
ATOM      8 Cl1  UNL d   1       1.931   0.198   1.555  0.00  0.00    -0.070 Cl
ENDROOT
TORSDOF 0
ENDMDL
