MODEL 1
REMARK minimizedAffinity 2.58425713
REMARK minimizedRMSD -1
REMARK  0 active torsions:
REMARK  status: ('A' for Active; 'I' for Inactive)
ROOT
ATOM      1  C   UNL d   1      -1.215   2.494  -0.106  0.00  0.00     0.020 A 
ATOM      2  C1  UNL d   1      -0.736   1.481   0.724  0.00  0.00     0.020 A 
ATOM      3  C2  UNL d   1      -1.631   0.611   1.352  0.00  0.00     0.034 A 
ATOM      4  C3  UNL d   1      -3.009   0.754   1.152  0.00  0.00     0.017 A 
ATOM      5  C4  UNL d   1      -3.488   1.771   0.319  0.00  0.00     0.017 A 
ATOM      6  C5  UNL d   1      -2.589   2.639  -0.307  0.00  0.00     0.034 A 
ATOM      7 Cl   UNL d   1      -5.175   2.009   0.024  0.00  0.00    -0.070 Cl
ATOM      8 Cl1  UNL d   1      -4.057  -0.357   1.960  0.00  0.00    -0.070 Cl
ENDROOT
TORSDOF 0
ENDMDL
