MODEL 1
REMARK minimizedAffinity 0.211672843
REMARK minimizedRMSD -1
REMARK  0 active torsions:
REMARK  status: ('A' for Active; 'I' for Inactive)
ROOT
ATOM      1  C   UNL d   1       0.440   0.698   0.732  0.00  0.00     0.020 A 
ATOM      2  C1  UNL d   1       0.133   1.854   0.015  0.00  0.00     0.020 A 
ATOM      3  C2  UNL d   1      -1.200   2.217  -0.187  0.00  0.00     0.034 A 
ATOM      4  C3  UNL d   1      -2.232   1.424   0.329  0.00  0.00     0.017 A 
ATOM      5  C4  UNL d   1      -1.923   0.264   1.049  0.00  0.00     0.017 A 
ATOM      6  C5  UNL d   1      -0.586  -0.095   1.248  0.00  0.00     0.034 A 
ATOM      7 Cl   UNL d   1      -3.140  -0.765   1.716  0.00  0.00    -0.070 Cl
ATOM      8 Cl1  UNL d   1      -3.858   1.933   0.042  0.00  0.00    -0.070 Cl
ENDROOT
TORSDOF 0
ENDMDL
