MODEL 1
REMARK minimizedAffinity 3.47841144
REMARK minimizedRMSD -1
REMARK  0 active torsions:
REMARK  status: ('A' for Active; 'I' for Inactive)
ROOT
ATOM      1  C   UNL d   1       2.591   2.169   1.847  0.00  0.00     0.020 A 
ATOM      2  C1  UNL d   1       2.578   1.366   0.707  0.00  0.00     0.020 A 
ATOM      3  C2  UNL d   1       1.363   0.983   0.136  0.00  0.00     0.034 A 
ATOM      4  C3  UNL d   1       0.155   1.403   0.704  0.00  0.00     0.017 A 
ATOM      5  C4  UNL d   1       0.169   2.209   1.849  0.00  0.00     0.017 A 
ATOM      6  C5  UNL d   1       1.389   2.589   2.416  0.00  0.00     0.034 A 
ATOM      7 Cl   UNL d   1      -1.281   2.767   2.607  0.00  0.00    -0.070 Cl
ATOM      8 Cl1  UNL d   1      -1.311   0.893  -0.055  0.00  0.00    -0.070 Cl
ENDROOT
TORSDOF 0
ENDMDL
