MODEL 1
REMARK minimizedAffinity 3.11315155
REMARK minimizedRMSD -1
REMARK  0 active torsions:
REMARK  status: ('A' for Active; 'I' for Inactive)
ROOT
ATOM      1  C   UNL d   1       2.505   2.288   1.520  0.00  0.00     0.020 A 
ATOM      2  C1  UNL d   1       2.453   1.316   0.521  0.00  0.00     0.020 A 
ATOM      3  C2  UNL d   1       1.223   0.784   0.127  0.00  0.00     0.034 A 
ATOM      4  C3  UNL d   1       0.040   1.222   0.733  0.00  0.00     0.017 A 
ATOM      5  C4  UNL d   1       0.093   2.197   1.736  0.00  0.00     0.017 A 
ATOM      6  C5  UNL d   1       1.327   2.727   2.126  0.00  0.00     0.034 A 
ATOM      7 Cl   UNL d   1      -1.324   2.788   2.530  0.00  0.00    -0.070 Cl
ATOM      8 Cl1  UNL d   1      -1.445   0.521   0.197  0.00  0.00    -0.070 Cl
ENDROOT
TORSDOF 0
ENDMDL
