MODEL 1
REMARK minimizedAffinity 2.57133555
REMARK minimizedRMSD -1
REMARK  0 active torsions:
REMARK  status: ('A' for Active; 'I' for Inactive)
ROOT
ATOM      1  C   UNL d   1       0.418   0.815   0.157  0.00  0.00     0.020 A 
ATOM      2  C1  UNL d   1       1.784   1.027   0.335  0.00  0.00     0.020 A 
ATOM      3  C2  UNL d   1       2.232   1.907   1.323  0.00  0.00     0.034 A 
ATOM      4  C3  UNL d   1       1.312   2.578   2.137  0.00  0.00     0.017 A 
ATOM      5  C4  UNL d   1      -0.059   2.365   1.958  0.00  0.00     0.017 A 
ATOM      6  C5  UNL d   1      -0.502   1.483   0.967  0.00  0.00     0.034 A 
ATOM      7 Cl   UNL d   1      -1.254   3.156   2.923  0.00  0.00    -0.070 Cl
ATOM      8 Cl1  UNL d   1       1.936   3.651   3.338  0.00  0.00    -0.070 Cl
ENDROOT
TORSDOF 0
ENDMDL
