MODEL 1
REMARK minimizedAffinity -0.438919127
REMARK minimizedRMSD -1
REMARK  0 active torsions:
REMARK  status: ('A' for Active; 'I' for Inactive)
ROOT
ATOM      1  C   UNL d   1       1.359   2.978   2.700  0.00  0.00     0.020 A 
ATOM      2  C1  UNL d   1      -0.033   2.986   2.621  0.00  0.00     0.020 A 
ATOM      3  C2  UNL d   1      -0.686   2.147   1.716  0.00  0.00     0.034 A 
ATOM      4  C3  UNL d   1       0.053   1.295   0.887  0.00  0.00     0.017 A 
ATOM      5  C4  UNL d   1       1.450   1.287   0.967  0.00  0.00     0.017 A 
ATOM      6  C5  UNL d   1       2.099   2.130   1.875  0.00  0.00     0.034 A 
ATOM      7 Cl   UNL d   1       2.430   0.264  -0.024  0.00  0.00    -0.070 Cl
ATOM      8 Cl1  UNL d   1      -0.821   0.283  -0.208  0.00  0.00    -0.070 Cl
ENDROOT
TORSDOF 0
ENDMDL
