MODEL 1
REMARK minimizedAffinity 7.67292738
REMARK minimizedRMSD -1
REMARK  0 active torsions:
REMARK  status: ('A' for Active; 'I' for Inactive)
ROOT
ATOM      1  C   UNL d   1       0.033   3.247   3.186  0.00  0.00     0.020 A 
ATOM      2  C1  UNL d   1      -0.946   2.857   2.273  0.00  0.00     0.020 A 
ATOM      3  C2  UNL d   1      -0.581   2.201   1.096  0.00  0.00     0.034 A 
ATOM      4  C3  UNL d   1       0.766   1.933   0.828  0.00  0.00     0.017 A 
ATOM      5  C4  UNL d   1       1.748   2.324   1.745  0.00  0.00     0.017 A 
ATOM      6  C5  UNL d   1       1.377   2.981   2.923  0.00  0.00     0.034 A 
ATOM      7 Cl   UNL d   1       3.431   2.028   1.484  0.00  0.00    -0.070 Cl
ATOM      8 Cl1  UNL d   1       1.145   1.118  -0.648  0.00  0.00    -0.070 Cl
ENDROOT
TORSDOF 0
ENDMDL
