MODEL 1
REMARK minimizedAffinity 4.85935211
REMARK minimizedRMSD -1
REMARK  1 active torsions:
REMARK  status: ('A' for Active; 'I' for Inactive)
REMARK    1  A    between atoms: C1_2  and  C2_3 
ROOT
ATOM      1  C2  UNL d   1      -4.123  -0.402  -1.780  0.00  0.00    -0.077 A 
ATOM      2  C3  UNL d   1      -3.591  -1.647  -2.145  0.00  0.00     0.002 A 
ATOM      3  C4  UNL d   1      -3.821  -2.167  -3.419  0.00  0.00     0.002 A 
ATOM      4  C5  UNL d   1      -4.580  -1.449  -4.341  0.00  0.00    -0.004 A 
ATOM      5  C6  UNL d   1      -5.115  -0.211  -3.987  0.00  0.00     0.002 A 
ATOM      6  C7  UNL d   1      -4.887   0.311  -2.713  0.00  0.00     0.002 A 
ENDROOT
BRANCH   1   7
ATOM      7  C1  UNL d   1      -3.834   0.184  -0.423  0.00  0.00     0.055 C 
ATOM      8  C   UNL d   1      -4.684   1.419  -0.161  0.00  0.00     0.019 C 
ENDBRANCH   1   7
TORSDOF 1
ENDMDL
