MODEL 1
REMARK minimizedAffinity 12.6524992
REMARK minimizedRMSD -1
REMARK  1 active torsions:
REMARK  status: ('A' for Active; 'I' for Inactive)
REMARK    1  A    between atoms: C1_2  and  C2_3 
ROOT
ATOM      1  C2  UNL d   1      -1.638  -1.409   3.352  0.00  0.00    -0.077 A 
ATOM      2  C3  UNL d   1      -2.565  -1.925   2.436  0.00  0.00     0.002 A 
ATOM      3  C4  UNL d   1      -3.793  -1.290   2.240  0.00  0.00     0.002 A 
ATOM      4  C5  UNL d   1      -4.103  -0.134   2.952  0.00  0.00    -0.004 A 
ATOM      5  C6  UNL d   1      -3.188   0.387   3.867  0.00  0.00     0.002 A 
ATOM      6  C7  UNL d   1      -1.961  -0.247   4.065  0.00  0.00     0.002 A 
ENDROOT
BRANCH   1   7
ATOM      7  C1  UNL d   1      -0.293  -2.064   3.528  0.00  0.00     0.055 C 
ATOM      8  C   UNL d   1       0.345  -2.390   2.185  0.00  0.00     0.019 C 
ENDBRANCH   1   7
TORSDOF 1
ENDMDL
