MODEL 1
REMARK minimizedAffinity 2.98376679
REMARK minimizedRMSD -1
REMARK  1 active torsions:
REMARK  status: ('A' for Active; 'I' for Inactive)
REMARK    1  A    between atoms: C1_2  and  C2_3 
ROOT
ATOM      1  C2  UNL d   1       3.152  -4.313   1.121  0.00  0.00    -0.077 A 
ATOM      2  C3  UNL d   1       3.398  -5.465   0.361  0.00  0.00     0.002 A 
ATOM      3  C4  UNL d   1       4.684  -5.743  -0.106  0.00  0.00     0.002 A 
ATOM      4  C5  UNL d   1       5.735  -4.876   0.187  0.00  0.00    -0.004 A 
ATOM      5  C6  UNL d   1       5.501  -3.726   0.940  0.00  0.00     0.002 A 
ATOM      6  C7  UNL d   1       4.215  -3.446   1.406  0.00  0.00     0.002 A 
ENDROOT
BRANCH   1   7
ATOM      7  C1  UNL d   1       1.775  -4.037   1.666  0.00  0.00     0.055 C 
ATOM      8  C   UNL d   1       1.551  -2.546   1.874  0.00  0.00     0.019 C 
ENDBRANCH   1   7
TORSDOF 1
ENDMDL
