MODEL 1
REMARK minimizedAffinity 6.80702972
REMARK minimizedRMSD -1
REMARK  1 active torsions:
REMARK  status: ('A' for Active; 'I' for Inactive)
REMARK    1  A    between atoms: C1_2  and  C2_3 
ROOT
ATOM      1  C2  UNL d   1       3.126  -3.951   3.616  0.00  0.00    -0.077 A 
ATOM      2  C3  UNL d   1       3.325  -2.870   4.486  0.00  0.00     0.002 A 
ATOM      3  C4  UNL d   1       4.046  -3.040   5.670  0.00  0.00     0.002 A 
ATOM      4  C5  UNL d   1       4.576  -4.287   5.992  0.00  0.00    -0.004 A 
ATOM      5  C6  UNL d   1       4.382  -5.369   5.134  0.00  0.00     0.002 A 
ATOM      6  C7  UNL d   1       3.661  -5.202   3.951  0.00  0.00     0.002 A 
ENDROOT
BRANCH   1   7
ATOM      7  C1  UNL d   1       2.391  -3.759   2.315  0.00  0.00     0.055 C 
ATOM      8  C   UNL d   1       1.895  -2.328   2.166  0.00  0.00     0.019 C 
ENDBRANCH   1   7
TORSDOF 1
ENDMDL
