MODEL 1
REMARK minimizedAffinity -4.34639072
REMARK minimizedRMSD -1
REMARK  1 active torsions:
REMARK  status: ('A' for Active; 'I' for Inactive)
REMARK    1  A    between atoms: C1_2  and  C2_3 
ROOT
ATOM      1  C2  UNL d   1       4.335  -3.423   3.452  0.00  0.00    -0.077 A 
ATOM      2  C3  UNL d   1       4.111  -2.617   4.577  0.00  0.00     0.002 A 
ATOM      3  C4  UNL d   1       3.990  -3.190   5.844  0.00  0.00     0.002 A 
ATOM      4  C5  UNL d   1       4.095  -4.571   5.999  0.00  0.00    -0.004 A 
ATOM      5  C6  UNL d   1       4.315  -5.382   4.886  0.00  0.00     0.002 A 
ATOM      6  C7  UNL d   1       4.436  -4.810   3.619  0.00  0.00     0.002 A 
ENDROOT
BRANCH   1   7
ATOM      7  C1  UNL d   1       4.516  -2.803   2.091  0.00  0.00     0.055 C 
ATOM      8  C   UNL d   1       4.978  -1.357   2.199  0.00  0.00     0.019 C 
ENDBRANCH   1   7
TORSDOF 1
ENDMDL
