MODEL 1
REMARK minimizedAffinity 12.7166061
REMARK minimizedRMSD -1
REMARK  1 active torsions:
REMARK  status: ('A' for Active; 'I' for Inactive)
REMARK    1  A    between atoms: C1_2  and  C2_3 
ROOT
ATOM      1  C2  UNL d   1      -3.742  -1.619  -1.706  0.00  0.00    -0.077 A 
ATOM      2  C3  UNL d   1      -3.985  -2.710  -2.552  0.00  0.00     0.002 A 
ATOM      3  C4  UNL d   1      -4.876  -2.590  -3.621  0.00  0.00     0.002 A 
ATOM      4  C5  UNL d   1      -5.525  -1.380  -3.856  0.00  0.00    -0.004 A 
ATOM      5  C6  UNL d   1      -5.291  -0.290  -3.018  0.00  0.00     0.002 A 
ATOM      6  C7  UNL d   1      -4.403  -0.409  -1.949  0.00  0.00     0.002 A 
ENDROOT
BRANCH   1   7
ATOM      7  C1  UNL d   1      -2.745  -1.733  -0.582  0.00  0.00     0.055 C 
ATOM      8  C   UNL d   1      -1.344  -1.358  -1.044  0.00  0.00     0.019 C 
ENDBRANCH   1   7
TORSDOF 1
ENDMDL
