MODEL 1
REMARK minimizedAffinity 6.03715515
REMARK minimizedRMSD -1
REMARK  1 active torsions:
REMARK  status: ('A' for Active; 'I' for Inactive)
REMARK    1  A    between atoms: C1_2  and  C2_3 
ROOT
ATOM      1  C2  UNL d   1       5.272  -4.971   0.428  0.00  0.00    -0.077 A 
ATOM      2  C3  UNL d   1       3.871  -4.942   0.453  0.00  0.00     0.002 A 
ATOM      3  C4  UNL d   1       3.198  -3.959   1.182  0.00  0.00     0.002 A 
ATOM      4  C5  UNL d   1       3.918  -2.997   1.886  0.00  0.00    -0.004 A 
ATOM      5  C6  UNL d   1       5.312  -3.018   1.869  0.00  0.00     0.002 A 
ATOM      6  C7  UNL d   1       5.986  -4.000   1.142  0.00  0.00     0.002 A 
ENDROOT
BRANCH   1   7
ATOM      7  C1  UNL d   1       6.000  -6.000  -0.398  0.00  0.00     0.055 C 
ATOM      8  C   UNL d   1       5.999  -5.627  -1.873  0.00  0.00     0.019 C 
ENDBRANCH   1   7
TORSDOF 1
ENDMDL
