MODEL 1
REMARK minimizedAffinity 10.2033577
REMARK minimizedRMSD -1
REMARK  1 active torsions:
REMARK  status: ('A' for Active; 'I' for Inactive)
REMARK    1  A    between atoms: C1_2  and  C2_3 
ROOT
ATOM      1  C2  UNL d   1      -3.675  -1.116  -2.053  0.00  0.00    -0.077 A 
ATOM      2  C3  UNL d   1      -4.534  -0.010  -2.116  0.00  0.00     0.002 A 
ATOM      3  C4  UNL d   1      -5.468   0.102  -3.148  0.00  0.00     0.002 A 
ATOM      4  C5  UNL d   1      -5.555  -0.891  -4.121  0.00  0.00    -0.004 A 
ATOM      5  C6  UNL d   1      -4.704  -1.994  -4.069  0.00  0.00     0.002 A 
ATOM      6  C7  UNL d   1      -3.768  -2.106  -3.039  0.00  0.00     0.002 A 
ENDROOT
BRANCH   1   7
ATOM      7  C1  UNL d   1      -2.700  -1.262  -0.914  0.00  0.00     0.055 C 
ATOM      8  C   UNL d   1      -1.279  -0.945  -1.357  0.00  0.00     0.019 C 
ENDBRANCH   1   7
TORSDOF 1
ENDMDL
