MODEL 1
REMARK minimizedAffinity -0.472549528
REMARK minimizedRMSD -1
REMARK  1 active torsions:
REMARK  status: ('A' for Active; 'I' for Inactive)
REMARK    1  A    between atoms: C1_2  and  C2_3 
ROOT
ATOM      1  C2  UNL d   1       3.288  -4.472   3.627  0.00  0.00    -0.077 A 
ATOM      2  C3  UNL d   1       3.648  -5.774   4.002  0.00  0.00     0.002 A 
ATOM      3  C4  UNL d   1       4.361  -5.997   5.182  0.00  0.00     0.002 A 
ATOM      4  C5  UNL d   1       4.716  -4.925   5.997  0.00  0.00    -0.004 A 
ATOM      5  C6  UNL d   1       4.363  -3.626   5.632  0.00  0.00     0.002 A 
ATOM      6  C7  UNL d   1       3.652  -3.401   4.453  0.00  0.00     0.002 A 
ENDROOT
BRANCH   1   7
ATOM      7  C1  UNL d   1       2.476  -4.233   2.381  0.00  0.00     0.055 C 
ATOM      8  C   UNL d   1       1.653  -2.958   2.492  0.00  0.00     0.019 C 
ENDBRANCH   1   7
TORSDOF 1
ENDMDL
