MODEL 1
REMARK minimizedAffinity -0.00931893103
REMARK minimizedRMSD -1
REMARK  1 active torsions:
REMARK  status: ('A' for Active; 'I' for Inactive)
REMARK    1  A    between atoms: C1_2  and  C2_3 
ROOT
ATOM      1  C2  UNL d   1       2.987  -4.143   3.961  0.00  0.00    -0.077 A 
ATOM      2  C3  UNL d   1       3.609  -5.264   3.394  0.00  0.00     0.002 A 
ATOM      3  C4  UNL d   1       4.549  -5.995   4.123  0.00  0.00     0.002 A 
ATOM      4  C5  UNL d   1       4.870  -5.617   5.425  0.00  0.00    -0.004 A 
ATOM      5  C6  UNL d   1       4.258  -4.502   5.998  0.00  0.00     0.002 A 
ATOM      6  C7  UNL d   1       3.320  -3.770   5.270  0.00  0.00     0.002 A 
ENDROOT
BRANCH   1   7
ATOM      7  C1  UNL d   1       1.937  -3.383   3.194  0.00  0.00     0.055 C 
ATOM      8  C   UNL d   1       2.237  -3.379   1.702  0.00  0.00     0.019 C 
ENDBRANCH   1   7
TORSDOF 1
ENDMDL
