MODEL 1
REMARK minimizedAffinity -3.66109467
REMARK minimizedRMSD -1
REMARK  1 active torsions:
REMARK  status: ('A' for Active; 'I' for Inactive)
REMARK    1  A    between atoms: C1_2  and  C2_3 
ROOT
ATOM      1  C2  UNL d   1       3.595  -4.483   3.502  0.00  0.00    -0.077 A 
ATOM      2  C3  UNL d   1       4.360  -5.649   3.645  0.00  0.00     0.002 A 
ATOM      3  C4  UNL d   1       4.888  -5.998   4.889  0.00  0.00     0.002 A 
ATOM      4  C5  UNL d   1       4.654  -5.190   6.000  0.00  0.00    -0.004 A 
ATOM      5  C6  UNL d   1       3.896  -4.027   5.867  0.00  0.00     0.002 A 
ATOM      6  C7  UNL d   1       3.368  -3.675   4.624  0.00  0.00     0.002 A 
ENDROOT
BRANCH   1   7
ATOM      7  C1  UNL d   1       2.983  -4.130   2.171  0.00  0.00     0.055 C 
ATOM      8  C   UNL d   1       1.877  -3.096   2.327  0.00  0.00     0.019 C 
ENDBRANCH   1   7
TORSDOF 1
ENDMDL
