MODEL 1
REMARK minimizedAffinity 0.481674045
REMARK minimizedRMSD -1
REMARK  0 active torsions:
REMARK  status: ('A' for Active; 'I' for Inactive)
ROOT
ATOM      1  C1  DEN d   1       1.187   5.997   3.748  0.00  0.00     0.130 A 
ATOM      2  C2  DEN d   1       0.304   6.000   4.911  0.00  0.00    -0.031 A 
ATOM      3  C3  DEN d   1       0.980   5.266   6.000  0.00  0.00     0.027 A 
ATOM      4  C4  DEN d   1       3.299   4.137   6.000  0.00  0.00     0.027 A 
ATOM      5  C5  DEN d   1       4.413   3.860   5.238  0.00  0.00    -0.003 A 
ATOM      6  C6  DEN d   1       4.514   4.244   3.927  0.00  0.00     0.001 A 
ATOM      7  C7  DEN d   1       3.503   4.965   3.350  0.00  0.00     0.017 A 
ATOM      8  C8  DEN d   1       2.373   5.242   4.110  0.00  0.00    -0.094 A 
ATOM      9  C9  DEN d   1       2.295   4.856   5.437  0.00  0.00    -0.072 A 
ENDROOT
TORSDOF 0
ENDMDL
