MODEL 1
REMARK minimizedAffinity 12.0150328
REMARK minimizedRMSD -1
REMARK  0 active torsions:
REMARK  status: ('A' for Active; 'I' for Inactive)
ROOT
ATOM      1  C1  DEN d   1      -5.115   3.683   4.472  0.00  0.00     0.130 A 
ATOM      2  C2  DEN d   1      -5.999   4.838   4.600  0.00  0.00    -0.031 A 
ATOM      3  C3  DEN d   1      -5.977   5.574   3.320  0.00  0.00     0.027 A 
ATOM      4  C4  DEN d   1      -4.668   5.037   1.163  0.00  0.00     0.027 A 
ATOM      5  C5  DEN d   1      -3.776   4.166   0.578  0.00  0.00    -0.003 A 
ATOM      6  C6  DEN d   1      -3.246   3.100   1.256  0.00  0.00     0.001 A 
ATOM      7  C7  DEN d   1      -3.638   2.853   2.545  0.00  0.00     0.017 A 
ATOM      8  C8  DEN d   1      -4.531   3.731   3.143  0.00  0.00    -0.094 A 
ATOM      9  C9  DEN d   1      -5.066   4.796   2.437  0.00  0.00    -0.072 A 
ENDROOT
TORSDOF 0
ENDMDL
