MODEL 1
REMARK minimizedAffinity 8.36936474
REMARK minimizedRMSD -1
REMARK  0 active torsions:
REMARK  status: ('A' for Active; 'I' for Inactive)
ROOT
ATOM      1  C1  DEN d   1       2.437   3.620   5.997  0.00  0.00     0.130 A 
ATOM      2  C2  DEN d   1       2.630   2.173   5.998  0.00  0.00    -0.031 A 
ATOM      3  C3  DEN d   1       3.218   1.790   4.698  0.00  0.00     0.027 A 
ATOM      4  C4  DEN d   1       3.848   3.291   2.698  0.00  0.00     0.027 A 
ATOM      5  C5  DEN d   1       3.859   4.585   2.224  0.00  0.00    -0.003 A 
ATOM      6  C6  DEN d   1       3.368   5.634   2.956  0.00  0.00     0.001 A 
ATOM      7  C7  DEN d   1       2.888   5.414   4.220  0.00  0.00     0.017 A 
ATOM      8  C8  DEN d   1       2.868   4.112   4.701  0.00  0.00    -0.094 A 
ATOM      9  C9  DEN d   1       3.379   3.067   3.951  0.00  0.00    -0.072 A 
ENDROOT
TORSDOF 0
ENDMDL
