MODEL 1
REMARK minimizedAffinity 8.32241154
REMARK minimizedRMSD -1
REMARK  0 active torsions:
REMARK  status: ('A' for Active; 'I' for Inactive)
ROOT
ATOM      1  C1  DEN d   1       1.545  -1.549  -1.804  0.00  0.00     0.130 A 
ATOM      2  C2  DEN d   1       2.412  -2.535  -1.164  0.00  0.00    -0.031 A 
ATOM      3  C3  DEN d   1       3.175  -1.851  -0.101  0.00  0.00     0.027 A 
ATOM      4  C4  DEN d   1       3.096   0.625   0.616  0.00  0.00     0.027 A 
ATOM      5  C5  DEN d   1       2.521   1.851   0.359  0.00  0.00    -0.003 A 
ATOM      6  C6  DEN d   1       1.613   2.034  -0.650  0.00  0.00     0.001 A 
ATOM      7  C7  DEN d   1       1.220   0.965  -1.412  0.00  0.00     0.017 A 
ATOM      8  C8  DEN d   1       1.800  -0.271  -1.164  0.00  0.00    -0.094 A 
ATOM      9  C9  DEN d   1       2.707  -0.439  -0.131  0.00  0.00    -0.072 A 
ENDROOT
TORSDOF 0
ENDMDL
