MODEL 1
REMARK minimizedAffinity 10.2766657
REMARK minimizedRMSD -1
REMARK  0 active torsions:
REMARK  status: ('A' for Active; 'I' for Inactive)
ROOT
ATOM      1  C1  DEN d   1       2.911  -1.886  -2.423  0.00  0.00     0.130 A 
ATOM      2  C2  DEN d   1       1.973  -2.502  -1.488  0.00  0.00    -0.031 A 
ATOM      3  C3  DEN d   1       1.739  -1.551  -0.383  0.00  0.00     0.027 A 
ATOM      4  C4  DEN d   1       2.729   0.804  -0.032  0.00  0.00     0.027 A 
ATOM      5  C5  DEN d   1       3.582   1.753  -0.553  0.00  0.00    -0.003 A 
ATOM      6  C6  DEN d   1       4.291   1.543  -1.706  0.00  0.00     0.001 A 
ATOM      7  C7  DEN d   1       4.126   0.374  -2.401  0.00  0.00     0.017 A 
ATOM      8  C8  DEN d   1       3.273  -0.590  -1.878  0.00  0.00    -0.094 A 
ATOM      9  C9  DEN d   1       2.556  -0.354  -0.718  0.00  0.00    -0.072 A 
ENDROOT
TORSDOF 0
ENDMDL
