MODEL 1
REMARK minimizedAffinity 10.2000208
REMARK minimizedRMSD -1
REMARK  0 active torsions:
REMARK  status: ('A' for Active; 'I' for Inactive)
ROOT
ATOM      1  C1  DEN d   1       0.753  -2.591  -1.334  0.00  0.00     0.130 A 
ATOM      2  C2  DEN d   1       2.207  -2.503  -1.433  0.00  0.00    -0.031 A 
ATOM      3  C3  DEN d   1       2.685  -1.614  -0.354  0.00  0.00     0.027 A 
ATOM      4  C4  DEN d   1       1.320  -0.378   1.453  0.00  0.00     0.027 A 
ATOM      5  C5  DEN d   1       0.052  -0.137   1.933  0.00  0.00    -0.003 A 
ATOM      6  C6  DEN d   1      -1.065  -0.665   1.341  0.00  0.00     0.001 A 
ATOM      7  C7  DEN d   1      -0.932  -1.498   0.262  0.00  0.00     0.017 A 
ATOM      8  C8  DEN d   1       0.343  -1.740  -0.232  0.00  0.00    -0.094 A 
ATOM      9  C9  DEN d   1       1.461  -1.207   0.388  0.00  0.00    -0.072 A 
ENDROOT
TORSDOF 0
ENDMDL
