MODEL 1
REMARK minimizedAffinity 3.29200578
REMARK minimizedRMSD -1
REMARK  1 active torsions:
REMARK  status: ('A' for Active; 'I' for Inactive)
REMARK    1  A    between atoms: C1_2  and  C2_3 
ROOT
ATOM      1  C2  UNL d   1      -2.594   1.776  -3.176  0.00  0.00    -0.076 A 
ATOM      2  C3  UNL d   1      -3.369   2.803  -3.744  0.00  0.00     0.004 A 
ATOM      3  C4  UNL d   1      -3.905   3.818  -2.954  0.00  0.00    -0.003 A 
ATOM      4  C5  UNL d   1      -3.674   3.824  -1.583  0.00  0.00     0.000 A 
ATOM      5  C6  UNL d   1      -2.893   2.823  -1.005  0.00  0.00     0.000 A 
ATOM      6  C7  UNL d   1      -2.332   1.802  -1.790  0.00  0.00    -0.073 A 
ATOM      7  C8  UNL d   1      -1.503   0.745  -1.113  0.00  0.00     0.078 C 
ENDROOT
BRANCH   1   8
ATOM      8  C1  UNL d   1      -2.062   0.687  -4.079  0.00  0.00     0.053 C 
ATOM      9  C   UNL d   1      -3.023  -0.485  -4.208  0.00  0.00     0.018 C 
ENDBRANCH   1   8
TORSDOF 1
ENDMDL
