MODEL 1
REMARK minimizedAffinity 3.46038079
REMARK minimizedRMSD -1
REMARK  1 active torsions:
REMARK  status: ('A' for Active; 'I' for Inactive)
REMARK    1  A    between atoms: C1_2  and  C2_3 
ROOT
ATOM      1  C2  UNL d   1      -0.518  -1.115  -0.350  0.00  0.00    -0.076 A 
ATOM      2  C3  UNL d   1      -0.302  -0.018  -1.202  0.00  0.00     0.004 A 
ATOM      3  C4  UNL d   1      -0.047   1.251  -0.686  0.00  0.00    -0.003 A 
ATOM      4  C5  UNL d   1      -0.004   1.444   0.690  0.00  0.00     0.000 A 
ATOM      5  C6  UNL d   1      -0.199   0.364   1.550  0.00  0.00     0.000 A 
ATOM      6  C7  UNL d   1      -0.441  -0.926   1.046  0.00  0.00    -0.073 A 
ATOM      7  C8  UNL d   1      -0.650  -2.053   2.019  0.00  0.00     0.078 C 
ENDROOT
BRANCH   1   8
ATOM      8  C1  UNL d   1      -0.817  -2.463  -0.967  0.00  0.00     0.053 C 
ATOM      9  C   UNL d   1       0.224  -2.877  -1.995  0.00  0.00     0.018 C 
ENDBRANCH   1   8
TORSDOF 1
ENDMDL
