MODEL 1
REMARK minimizedAffinity 6.56622982
REMARK minimizedRMSD -1
REMARK  1 active torsions:
REMARK  status: ('A' for Active; 'I' for Inactive)
REMARK    1  A    between atoms: C1_2  and  C2_3 
ROOT
ATOM      1  C2  UNL d   1      -2.903  -1.805  -3.151  0.00  0.00    -0.076 A 
ATOM      2  C3  UNL d   1      -1.580  -2.239  -2.958  0.00  0.00     0.004 A 
ATOM      3  C4  UNL d   1      -1.307  -3.433  -2.294  0.00  0.00    -0.003 A 
ATOM      4  C5  UNL d   1      -2.352  -4.214  -1.812  0.00  0.00     0.000 A 
ATOM      5  C6  UNL d   1      -3.672  -3.807  -2.011  0.00  0.00     0.000 A 
ATOM      6  C7  UNL d   1      -3.965  -2.614  -2.692  0.00  0.00    -0.073 A 
ATOM      7  C8  UNL d   1      -5.406  -2.221  -2.873  0.00  0.00     0.078 C 
ENDROOT
BRANCH   1   8
ATOM      8  C1  UNL d   1      -3.138  -0.487  -3.855  0.00  0.00     0.053 C 
ATOM      9  C   UNL d   1      -2.361   0.657  -3.223  0.00  0.00     0.018 C 
ENDBRANCH   1   8
TORSDOF 1
ENDMDL
