MODEL 1
REMARK minimizedAffinity 8.55230618
REMARK minimizedRMSD -1
REMARK  1 active torsions:
REMARK  status: ('A' for Active; 'I' for Inactive)
REMARK    1  A    between atoms: C1_2  and  C2_3 
ROOT
ATOM      1  C2  UNL d   1       1.134   1.794   0.481  0.00  0.00    -0.076 A 
ATOM      2  C3  UNL d   1       0.790   3.152   0.366  0.00  0.00     0.004 A 
ATOM      3  C4  UNL d   1      -0.535   3.545   0.185  0.00  0.00    -0.003 A 
ATOM      4  C5  UNL d   1      -1.539   2.585   0.118  0.00  0.00     0.000 A 
ATOM      5  C6  UNL d   1      -1.218   1.234   0.247  0.00  0.00     0.000 A 
ATOM      6  C7  UNL d   1       0.111   0.822   0.446  0.00  0.00    -0.073 A 
ATOM      7  C8  UNL d   1       0.400  -0.648   0.574  0.00  0.00     0.078 C 
ENDROOT
BRANCH   1   8
ATOM      8  C1  UNL d   1       2.591   1.427   0.648  0.00  0.00     0.053 C 
ATOM      9  C   UNL d   1       3.009   1.353   2.108  0.00  0.00     0.018 C 
ENDBRANCH   1   8
TORSDOF 1
ENDMDL
