MODEL 1
REMARK minimizedAffinity 8.79014683
REMARK minimizedRMSD -1
REMARK  1 active torsions:
REMARK  status: ('A' for Active; 'I' for Inactive)
REMARK    1  A    between atoms: C1_2  and  C2_3 
ROOT
ATOM      1  C2  UNL d   1      -0.243   1.359  -0.282  0.00  0.00    -0.076 A 
ATOM      2  C3  UNL d   1       0.393   2.599  -0.464  0.00  0.00     0.004 A 
ATOM      3  C4  UNL d   1       1.718   2.790  -0.075  0.00  0.00    -0.003 A 
ATOM      4  C5  UNL d   1       2.429   1.743   0.500  0.00  0.00     0.000 A 
ATOM      5  C6  UNL d   1       1.820   0.500   0.672  0.00  0.00     0.000 A 
ATOM      6  C7  UNL d   1       0.490   0.286   0.271  0.00  0.00    -0.073 A 
ATOM      7  C8  UNL d   1      -0.119  -1.072   0.485  0.00  0.00     0.078 C 
ENDROOT
BRANCH   1   8
ATOM      8  C1  UNL d   1      -1.690   1.219  -0.698  0.00  0.00     0.053 C 
ATOM      9  C   UNL d   1      -1.867   1.235  -2.208  0.00  0.00     0.018 C 
ENDBRANCH   1   8
TORSDOF 1
ENDMDL
