MODEL 1
REMARK minimizedAffinity 0.272606432
REMARK minimizedRMSD -1
REMARK  1 active torsions:
REMARK  status: ('A' for Active; 'I' for Inactive)
REMARK    1  A    between atoms: C1_2  and  C2_3 
ROOT
ATOM      1  C2  UNL d   1      -1.162  -0.050  -0.753  0.00  0.00    -0.076 A 
ATOM      2  C3  UNL d   1      -1.713   0.415  -1.960  0.00  0.00     0.004 A 
ATOM      3  C4  UNL d   1      -2.088  -0.474  -2.966  0.00  0.00    -0.003 A 
ATOM      4  C5  UNL d   1      -1.919  -1.841  -2.782  0.00  0.00     0.000 A 
ATOM      5  C6  UNL d   1      -1.391  -2.321  -1.584  0.00  0.00     0.000 A 
ATOM      6  C7  UNL d   1      -1.022  -1.440  -0.553  0.00  0.00    -0.073 A 
ATOM      7  C8  UNL d   1      -0.452  -2.012   0.716  0.00  0.00     0.078 C 
ENDROOT
BRANCH   1   8
ATOM      8  C1  UNL d   1      -0.748   0.962   0.291  0.00  0.00     0.053 C 
ATOM      9  C   UNL d   1       0.633   1.542   0.026  0.00  0.00     0.018 C 
ENDBRANCH   1   8
TORSDOF 1
ENDMDL
