MODEL 1
REMARK minimizedAffinity 5.31273699
REMARK minimizedRMSD -1
REMARK  1 active torsions:
REMARK  status: ('A' for Active; 'I' for Inactive)
REMARK    1  A    between atoms: C1_2  and  C2_3 
ROOT
ATOM      1  C2  UNL d   1       0.284   0.017   0.731  0.00  0.00    -0.076 A 
ATOM      2  C3  UNL d   1       1.645   0.351   0.831  0.00  0.00     0.004 A 
ATOM      3  C4  UNL d   1       2.103   1.614   0.459  0.00  0.00    -0.003 A 
ATOM      4  C5  UNL d   1       1.206   2.563  -0.018  0.00  0.00     0.000 A 
ATOM      5  C6  UNL d   1      -0.151   2.255  -0.107  0.00  0.00     0.000 A 
ATOM      6  C7  UNL d   1      -0.631   0.992   0.279  0.00  0.00    -0.073 A 
ATOM      7  C8  UNL d   1      -2.104   0.711   0.157  0.00  0.00     0.078 C 
ENDROOT
BRANCH   1   8
ATOM      8  C1  UNL d   1      -0.150  -1.378   1.124  0.00  0.00     0.053 C 
ATOM      9  C   UNL d   1       0.178  -2.411   0.058  0.00  0.00     0.018 C 
ENDBRANCH   1   8
TORSDOF 1
ENDMDL
