MODEL 1
REMARK minimizedAffinity -3.14598513
REMARK minimizedRMSD -1
REMARK  0 active torsions:
REMARK  status: ('A' for Active; 'I' for Inactive)
ROOT
ATOM      1  O1  BZF d   1       0.910   0.019   2.046  0.00  0.00    -0.204 OA
ATOM      2  C2  BZF d   1      -0.057   0.499   2.909  0.00  0.00     0.174 A 
ATOM      3  C3  BZF d   1      -1.205   0.753   2.248  0.00  0.00    -0.012 A 
ATOM      4  C3A BZF d   1      -0.968   0.324   0.904  0.00  0.00    -0.107 A 
ATOM      5  C4  BZF d   1      -1.737   0.303  -0.224  0.00  0.00     0.055 A 
ATOM      6  C5  BZF d   1      -1.183  -0.111  -1.394  0.00  0.00    -0.016 A 
ATOM      7  C6  BZF d   1       0.137  -0.506  -1.472  0.00  0.00     0.022 A 
ATOM      8  C7  BZF d   1       0.937  -0.508  -0.379  0.00  0.00     0.029 A 
ATOM      9  C7A BZF d   1       0.371  -0.121   0.811  0.00  0.00     0.058 A 
ENDROOT
TORSDOF 0
ENDMDL
