MODEL 1
REMARK minimizedAffinity -1.48981953
REMARK minimizedRMSD -1
REMARK  0 active torsions:
REMARK  status: ('A' for Active; 'I' for Inactive)
ROOT
ATOM      1  O1  BZF d   1      -0.955  -0.369  -1.699  0.00  0.00    -0.204 OA
ATOM      2  C2  BZF d   1      -0.105  -0.667  -0.652  0.00  0.00     0.174 A 
ATOM      3  C3  BZF d   1       1.181  -0.641  -1.057  0.00  0.00    -0.012 A 
ATOM      4  C3A BZF d   1       1.137  -0.216  -2.422  0.00  0.00    -0.107 A 
ATOM      5  C4  BZF d   1       2.097   0.016  -3.365  0.00  0.00     0.055 A 
ATOM      6  C5  BZF d   1       1.718   0.351  -4.626  0.00  0.00    -0.016 A 
ATOM      7  C6  BZF d   1       0.389   0.458  -4.980  0.00  0.00     0.022 A 
ATOM      8  C7  BZF d   1      -0.600   0.242  -4.079  0.00  0.00     0.029 A 
ATOM      9  C7A BZF d   1      -0.219  -0.065  -2.795  0.00  0.00     0.058 A 
ENDROOT
TORSDOF 0
ENDMDL
