MODEL 1
REMARK minimizedAffinity -3.59029365
REMARK minimizedRMSD -1
REMARK  0 active torsions:
REMARK  status: ('A' for Active; 'I' for Inactive)
ROOT
ATOM      1  O1  BZF d   1       1.863  -0.757   2.001  0.00  0.00    -0.204 OA
ATOM      2  C2  BZF d   1       1.885  -0.710   3.382  0.00  0.00     0.174 A 
ATOM      3  C3  BZF d   1       0.721  -0.228   3.863  0.00  0.00    -0.012 A 
ATOM      4  C3A BZF d   1      -0.113  -0.044   2.715  0.00  0.00    -0.107 A 
ATOM      5  C4  BZF d   1      -1.395   0.395   2.547  0.00  0.00     0.055 A 
ATOM      6  C5  BZF d   1      -1.889   0.526   1.287  0.00  0.00    -0.016 A 
ATOM      7  C6  BZF d   1      -1.127   0.233   0.175  0.00  0.00     0.022 A 
ATOM      8  C7  BZF d   1       0.148  -0.211   0.292  0.00  0.00     0.029 A 
ATOM      9  C7A BZF d   1       0.638  -0.376   1.564  0.00  0.00     0.058 A 
ENDROOT
TORSDOF 0
ENDMDL
