MODEL 1
REMARK minimizedAffinity -2.41605282
REMARK minimizedRMSD -1
REMARK  0 active torsions:
REMARK  status: ('A' for Active; 'I' for Inactive)
ROOT
ATOM      1  O1  BZF d   1       0.850   0.633  -0.284  0.00  0.00    -0.204 OA
ATOM      2  C2  BZF d   1       0.247  -0.502   0.223  0.00  0.00     0.174 A 
ATOM      3  C3  BZF d   1      -0.123  -1.333  -0.773  0.00  0.00    -0.012 A 
ATOM      4  C3A BZF d   1       0.357  -0.719  -1.973  0.00  0.00    -0.107 A 
ATOM      5  C4  BZF d   1       0.312  -1.072  -3.291  0.00  0.00     0.055 A 
ATOM      6  C5  BZF d   1       0.810  -0.216  -4.222  0.00  0.00    -0.016 A 
ATOM      7  C6  BZF d   1       1.354   1.002  -3.871  0.00  0.00     0.022 A 
ATOM      8  C7  BZF d   1       1.425   1.394  -2.575  0.00  0.00     0.029 A 
ATOM      9  C7A BZF d   1       0.953   0.517  -1.630  0.00  0.00     0.058 A 
ENDROOT
TORSDOF 0
ENDMDL
