MODEL 1
REMARK minimizedAffinity -3.95605826
REMARK minimizedRMSD -1
REMARK  0 active torsions:
REMARK  status: ('A' for Active; 'I' for Inactive)
ROOT
ATOM      1  O1  BZF d   1       0.970  -0.834  -0.157  0.00  0.00    -0.204 OA
ATOM      2  C2  BZF d   1       1.909  -0.733   0.851  0.00  0.00     0.174 A 
ATOM      3  C3  BZF d   1       1.396  -0.091   1.920  0.00  0.00    -0.012 A 
ATOM      4  C3A BZF d   1       0.024   0.148   1.593  0.00  0.00    -0.107 A 
ATOM      5  C4  BZF d   1      -1.012   0.735   2.262  0.00  0.00     0.055 A 
ATOM      6  C5  BZF d   1      -2.209   0.874   1.633  0.00  0.00    -0.016 A 
ATOM      7  C6  BZF d   1      -2.404   0.443   0.338  0.00  0.00     0.022 A 
ATOM      8  C7  BZF d   1      -1.407  -0.150  -0.364  0.00  0.00     0.029 A 
ATOM      9  C7A BZF d   1      -0.206  -0.322   0.280  0.00  0.00     0.058 A 
ENDROOT
TORSDOF 0
ENDMDL
