MODEL 1
REMARK minimizedAffinity -1.25351214
REMARK minimizedRMSD -1
REMARK  0 active torsions:
REMARK  status: ('A' for Active; 'I' for Inactive)
ROOT
ATOM      1  O1  BZF d   1      -1.859   0.416   2.107  0.00  0.00    -0.204 OA
ATOM      2  C2  BZF d   1      -1.955   0.464   0.730  0.00  0.00     0.174 A 
ATOM      3  C3  BZF d   1      -0.746   0.285   0.160  0.00  0.00    -0.012 A 
ATOM      4  C3A BZF d   1       0.147   0.022   1.246  0.00  0.00    -0.107 A 
ATOM      5  C4  BZF d   1       1.483  -0.253   1.317  0.00  0.00     0.055 A 
ATOM      6  C5  BZF d   1       2.065  -0.387   2.538  0.00  0.00    -0.016 A 
ATOM      7  C6  BZF d   1       1.344  -0.249   3.706  0.00  0.00     0.022 A 
ATOM      8  C7  BZF d   1       0.015   0.018   3.685  0.00  0.00     0.029 A 
ATOM      9  C7A BZF d   1      -0.583   0.122   2.453  0.00  0.00     0.058 A 
ENDROOT
TORSDOF 0
ENDMDL
