MODEL 1
REMARK minimizedAffinity -4.63105965
REMARK minimizedRMSD -1
REMARK  0 active torsions:
REMARK  status: ('A' for Active; 'I' for Inactive)
ROOT
ATOM      1  O1  BZF d   1      -0.583  -0.762  -1.682  0.00  0.00    -0.204 OA
ATOM      2  C2  BZF d   1       0.715  -1.211  -1.824  0.00  0.00     0.174 A 
ATOM      3  C3  BZF d   1       1.401  -1.063  -0.672  0.00  0.00    -0.012 A 
ATOM      4  C3A BZF d   1       0.447  -0.571   0.273  0.00  0.00    -0.107 A 
ATOM      5  C4  BZF d   1       0.520  -0.242   1.597  0.00  0.00     0.055 A 
ATOM      6  C5  BZF d   1      -0.575   0.278   2.210  0.00  0.00    -0.016 A 
ATOM      7  C6  BZF d   1      -1.757   0.488   1.530  0.00  0.00     0.022 A 
ATOM      8  C7  BZF d   1      -1.879   0.172   0.217  0.00  0.00     0.029 A 
ATOM      9  C7A BZF d   1      -0.784  -0.384  -0.397  0.00  0.00     0.058 A 
ENDROOT
TORSDOF 0
ENDMDL
