MODEL 1
REMARK minimizedAffinity -0.680138052
REMARK minimizedRMSD -1
REMARK  0 active torsions:
REMARK  status: ('A' for Active; 'I' for Inactive)
ROOT
ATOM      1  O1  BZF d   1       0.081  -0.542   2.034  0.00  0.00    -0.204 OA
ATOM      2  C2  BZF d   1      -1.026   0.034   2.627  0.00  0.00     0.174 A 
ATOM      3  C3  BZF d   1      -1.848   0.560   1.695  0.00  0.00    -0.012 A 
ATOM      4  C3A BZF d   1      -1.260   0.214   0.437  0.00  0.00    -0.107 A 
ATOM      5  C4  BZF d   1      -1.620   0.441  -0.861  0.00  0.00     0.055 A 
ATOM      6  C5  BZF d   1      -0.790   0.034  -1.857  0.00  0.00    -0.016 A 
ATOM      7  C6  BZF d   1       0.408  -0.597  -1.591  0.00  0.00     0.022 A 
ATOM      8  C7  BZF d   1       0.805  -0.848  -0.320  0.00  0.00     0.029 A 
ATOM      9  C7A BZF d   1      -0.047  -0.468   0.688  0.00  0.00     0.058 A 
ENDROOT
TORSDOF 0
ENDMDL
