MODEL 1
REMARK minimizedAffinity -2.12941217
REMARK minimizedRMSD -1
REMARK  1 active torsions:
REMARK  status: ('A' for Active; 'I' for Inactive)
REMARK    1  A    between atoms: C3_4  and  O_7 
ROOT
ATOM      1  C   UNL d   1       0.412   0.778  -0.154  0.00  0.00    -0.033 A 
ATOM      2  C1  UNL d   1       1.580   0.210   0.358  0.00  0.00     0.039 A 
ATOM      3  C2  UNL d   1       1.528  -1.015   1.026  0.00  0.00    -0.080 A 
ATOM      4  C3  UNL d   1       0.303  -1.661   1.174  0.00  0.00     0.150 A 
ATOM      5  C4  UNL d   1      -0.864  -1.102   0.664  0.00  0.00    -0.007 A 
ATOM      6  C5  UNL d   1      -0.810   0.122  -0.002  0.00  0.00     0.039 A 
ENDROOT
BRANCH   4   7
ATOM      7  O   UNL d   1       0.201  -2.856   1.823  0.00  0.00    -0.526 OA
ATOM      8  H5  UNL d   1       1.083  -3.106   2.146  0.00  0.00     0.418 HD
ENDBRANCH   4   7
TORSDOF 1
ENDMDL
