MODEL 1
REMARK minimizedAffinity -1.42845368
REMARK minimizedRMSD -1
REMARK  1 active torsions:
REMARK  status: ('A' for Active; 'I' for Inactive)
REMARK    1  A    between atoms: C3_4  and  O_7 
ROOT
ATOM      1  C   UNL d   1       0.602  -3.040   0.816  0.00  0.00    -0.033 A 
ATOM      2  C1  UNL d   1       1.251  -2.451  -0.272  0.00  0.00     0.039 A 
ATOM      3  C2  UNL d   1       1.133  -1.079  -0.499  0.00  0.00    -0.080 A 
ATOM      4  C3  UNL d   1       0.364  -0.307   0.368  0.00  0.00     0.150 A 
ATOM      5  C4  UNL d   1      -0.282  -0.886   1.456  0.00  0.00    -0.007 A 
ATOM      6  C5  UNL d   1      -0.163  -2.256   1.680  0.00  0.00     0.039 A 
ENDROOT
BRANCH   4   7
ATOM      7  O   UNL d   1       0.215   1.036   0.185  0.00  0.00    -0.526 OA
ATOM      8  H5  UNL d   1       0.693   1.291  -0.621  0.00  0.00     0.418 HD
ENDBRANCH   4   7
TORSDOF 1
ENDMDL
