MODEL 1
REMARK minimizedAffinity -3.25296044
REMARK minimizedRMSD -1
REMARK  1 active torsions:
REMARK  status: ('A' for Active; 'I' for Inactive)
REMARK    1  A    between atoms: C3_4  and  O_7 
ROOT
ATOM      1  C   UNL d   1       0.688  -1.554   0.267  0.00  0.00    -0.033 A 
ATOM      2  C1  UNL d   1       0.253  -0.241   0.072  0.00  0.00     0.039 A 
ATOM      3  C2  UNL d   1      -0.886   0.223   0.733  0.00  0.00    -0.080 A 
ATOM      4  C3  UNL d   1      -1.579  -0.633   1.585  0.00  0.00     0.150 A 
ATOM      5  C4  UNL d   1      -1.149  -1.940   1.786  0.00  0.00    -0.007 A 
ATOM      6  C5  UNL d   1      -0.012  -2.403   1.124  0.00  0.00     0.039 A 
ENDROOT
BRANCH   4   7
ATOM      7  O   UNL d   1      -2.699  -0.226   2.247  0.00  0.00    -0.526 OA
ATOM      8  H5  UNL d   1      -2.893   0.690   1.989  0.00  0.00     0.418 HD
ENDBRANCH   4   7
TORSDOF 1
ENDMDL
