MODEL 1
REMARK minimizedAffinity -2.97458529
REMARK minimizedRMSD -1
REMARK  1 active torsions:
REMARK  status: ('A' for Active; 'I' for Inactive)
REMARK    1  A    between atoms: C3_4  and  O_7 
ROOT
ATOM      1  C   UNL d   1       0.246  -1.376   0.384  0.00  0.00    -0.033 A 
ATOM      2  C1  UNL d   1      -0.455  -2.080   1.366  0.00  0.00     0.039 A 
ATOM      3  C2  UNL d   1      -1.411  -1.427   2.146  0.00  0.00    -0.080 A 
ATOM      4  C3  UNL d   1      -1.658  -0.074   1.934  0.00  0.00     0.150 A 
ATOM      5  C4  UNL d   1      -0.967   0.632   0.955  0.00  0.00    -0.007 A 
ATOM      6  C5  UNL d   1      -0.011  -0.021   0.178  0.00  0.00     0.039 A 
ENDROOT
BRANCH   4   7
ATOM      7  O   UNL d   1      -2.579   0.607   2.674  0.00  0.00    -0.526 OA
ATOM      8  H5  UNL d   1      -2.957  -0.001   3.331  0.00  0.00     0.418 HD
ENDBRANCH   4   7
TORSDOF 1
ENDMDL
