MODEL 1
REMARK minimizedAffinity -2.92576218
REMARK minimizedRMSD -1
REMARK  1 active torsions:
REMARK  status: ('A' for Active; 'I' for Inactive)
REMARK    1  A    between atoms: C3_4  and  O_7 
ROOT
ATOM      1  C   UNL d   1       1.148  -1.183   0.142  0.00  0.00    -0.033 A 
ATOM      2  C1  UNL d   1       0.858   0.170  -0.045  0.00  0.00     0.039 A 
ATOM      3  C2  UNL d   1      -0.290   0.725   0.522  0.00  0.00    -0.080 A 
ATOM      4  C3  UNL d   1      -1.139  -0.082   1.274  0.00  0.00     0.150 A 
ATOM      5  C4  UNL d   1      -0.855  -1.430   1.468  0.00  0.00    -0.007 A 
ATOM      6  C5  UNL d   1       0.292  -1.983   0.900  0.00  0.00     0.039 A 
ENDROOT
BRANCH   4   7
ATOM      7  O   UNL d   1      -2.275   0.413   1.843  0.00  0.00    -0.526 OA
ATOM      8  H5  UNL d   1      -2.356   1.351   1.601  0.00  0.00     0.418 HD
ENDBRANCH   4   7
TORSDOF 1
ENDMDL
