MODEL 1
REMARK minimizedAffinity -3.5476017
REMARK minimizedRMSD -1
REMARK  1 active torsions:
REMARK  status: ('A' for Active; 'I' for Inactive)
REMARK    1  A    between atoms: C3_4  and  O_7 
ROOT
ATOM      1  C   UNL d   1       0.182  -1.761   1.334  0.00  0.00    -0.033 A 
ATOM      2  C1  UNL d   1      -0.353  -0.475   1.420  0.00  0.00     0.039 A 
ATOM      3  C2  UNL d   1      -0.255   0.398   0.334  0.00  0.00    -0.080 A 
ATOM      4  C3  UNL d   1       0.379  -0.028  -0.829  0.00  0.00     0.150 A 
ATOM      5  C4  UNL d   1       0.911  -1.310  -0.923  0.00  0.00    -0.007 A 
ATOM      6  C5  UNL d   1       0.813  -2.179   0.162  0.00  0.00     0.039 A 
ENDROOT
BRANCH   4   7
ATOM      7  O   UNL d   1       0.503   0.789  -1.913  0.00  0.00    -0.526 OA
ATOM      8  H5  UNL d   1       0.115   1.653  -1.694  0.00  0.00     0.418 HD
ENDBRANCH   4   7
TORSDOF 1
ENDMDL
