MODEL 1
REMARK minimizedAffinity -2.35895777
REMARK minimizedRMSD -1
REMARK  1 active torsions:
REMARK  status: ('A' for Active; 'I' for Inactive)
REMARK    1  A    between atoms: C3_4  and  O_7 
ROOT
ATOM      1  C   UNL d   1      -0.542  -2.415   1.667  0.00  0.00    -0.033 A 
ATOM      2  C1  UNL d   1      -1.368  -1.289   1.638  0.00  0.00     0.039 A 
ATOM      3  C2  UNL d   1      -1.008  -0.176   0.876  0.00  0.00    -0.080 A 
ATOM      4  C3  UNL d   1       0.178  -0.202   0.148  0.00  0.00     0.150 A 
ATOM      5  C4  UNL d   1       1.004  -1.321   0.169  0.00  0.00    -0.007 A 
ATOM      6  C5  UNL d   1       0.643  -2.431   0.931  0.00  0.00     0.039 A 
ENDROOT
BRANCH   4   7
ATOM      7  O   UNL d   1       0.574   0.863  -0.607  0.00  0.00    -0.526 OA
ATOM      8  H5  UNL d   1      -0.080   1.574  -0.502  0.00  0.00     0.418 HD
ENDBRANCH   4   7
TORSDOF 1
ENDMDL
