MODEL 1
REMARK minimizedAffinity -2.16073608
REMARK minimizedRMSD -1
REMARK  1 active torsions:
REMARK  status: ('A' for Active; 'I' for Inactive)
REMARK    1  A    between atoms: C3_4  and  O_7 
ROOT
ATOM      1  C   UNL d   1       0.600   1.027  -0.014  0.00  0.00    -0.033 A 
ATOM      2  C1  UNL d   1       1.602   0.058  -0.097  0.00  0.00     0.039 A 
ATOM      3  C2  UNL d   1       1.372  -1.229   0.392  0.00  0.00    -0.080 A 
ATOM      4  C3  UNL d   1       0.138  -1.535   0.960  0.00  0.00     0.150 A 
ATOM      5  C4  UNL d   1      -0.866  -0.576   1.042  0.00  0.00    -0.007 A 
ATOM      6  C5  UNL d   1      -0.634   0.710   0.554  0.00  0.00     0.039 A 
ENDROOT
BRANCH   4   7
ATOM      7  O   UNL d   1      -0.130  -2.776   1.455  0.00  0.00    -0.526 OA
ATOM      8  H5  UNL d   1       0.665  -3.326   1.356  0.00  0.00     0.418 HD
ENDBRANCH   4   7
TORSDOF 1
ENDMDL
