MODEL 1
REMARK minimizedAffinity -1.07417536
REMARK minimizedRMSD -1
REMARK  1 active torsions:
REMARK  status: ('A' for Active; 'I' for Inactive)
REMARK    1  A    between atoms: C3_4  and  O_7 
ROOT
ATOM      1  C   UNL d   1       1.473   2.257  -3.461  0.00  0.00    -0.033 A 
ATOM      2  C1  UNL d   1       2.428   1.809  -2.545  0.00  0.00     0.039 A 
ATOM      3  C2  UNL d   1       2.060   1.539  -1.226  0.00  0.00    -0.080 A 
ATOM      4  C3  UNL d   1       0.736   1.720  -0.835  0.00  0.00     0.150 A 
ATOM      5  C4  UNL d   1      -0.221   2.162  -1.743  0.00  0.00    -0.007 A 
ATOM      6  C5  UNL d   1       0.148   2.431  -3.060  0.00  0.00     0.039 A 
ENDROOT
BRANCH   4   7
ATOM      7  O   UNL d   1       0.330   1.474   0.443  0.00  0.00    -0.526 OA
ATOM      8  H5  UNL d   1       1.104   1.203   0.965  0.00  0.00     0.418 HD
ENDBRANCH   4   7
TORSDOF 1
ENDMDL
