MODEL 1
REMARK minimizedAffinity 1.31993318
REMARK minimizedRMSD -1
REMARK  1 active torsions:
REMARK  status: ('A' for Active; 'I' for Inactive)
REMARK    1  A    between atoms: C3_4  and  O_7 
ROOT
ATOM      1  C   UNL d   1       4.663   5.299  -1.627  0.00  0.00    -0.033 A 
ATOM      2  C1  UNL d   1       5.159   3.996  -1.553  0.00  0.00     0.039 A 
ATOM      3  C2  UNL d   1       5.331   3.383  -0.310  0.00  0.00    -0.080 A 
ATOM      4  C3  UNL d   1       5.003   4.082   0.848  0.00  0.00     0.150 A 
ATOM      5  C4  UNL d   1       4.504   5.379   0.781  0.00  0.00    -0.007 A 
ATOM      6  C5  UNL d   1       4.334   5.990  -0.461  0.00  0.00     0.039 A 
ENDROOT
BRANCH   4   7
ATOM      7  O   UNL d   1       5.158   3.527   2.083  0.00  0.00    -0.526 OA
ATOM      8  H5  UNL d   1       5.538   2.639   1.976  0.00  0.00     0.418 HD
ENDBRANCH   4   7
TORSDOF 1
ENDMDL
