MODEL 1
REMARK minimizedAffinity -1.82530677
REMARK minimizedRMSD -1
REMARK  1 active torsions:
REMARK  status: ('A' for Active; 'I' for Inactive)
REMARK    1  A    between atoms: C3_4  and  O_7 
ROOT
ATOM      1  C   UNL d   1       1.253   2.154  -3.837  0.00  0.00    -0.033 A 
ATOM      2  C1  UNL d   1       2.143   2.510  -2.822  0.00  0.00     0.039 A 
ATOM      3  C2  UNL d   1       1.821   2.253  -1.488  0.00  0.00    -0.080 A 
ATOM      4  C3  UNL d   1       0.609   1.641  -1.183  0.00  0.00     0.150 A 
ATOM      5  C4  UNL d   1      -0.281   1.281  -2.189  0.00  0.00    -0.007 A 
ATOM      6  C5  UNL d   1       0.042   1.539  -3.521  0.00  0.00     0.039 A 
ENDROOT
BRANCH   4   7
ATOM      7  O   UNL d   1       0.249   1.375   0.105  0.00  0.00    -0.526 OA
ATOM      8  H5  UNL d   1       0.948   1.705   0.694  0.00  0.00     0.418 HD
ENDBRANCH   4   7
TORSDOF 1
ENDMDL
