MODEL 1
REMARK minimizedAffinity -2.78255177
REMARK minimizedRMSD -1
REMARK  1 active torsions:
REMARK  status: ('A' for Active; 'I' for Inactive)
REMARK    1  A    between atoms: C3_4  and  O_7 
ROOT
ATOM      1  C   UNL d   1      -0.131   1.329   0.143  0.00  0.00    -0.033 A 
ATOM      2  C1  UNL d   1       1.006   0.522   0.076  0.00  0.00     0.039 A 
ATOM      3  C2  UNL d   1       0.945  -0.810   0.492  0.00  0.00    -0.080 A 
ATOM      4  C3  UNL d   1      -0.258  -1.321   0.970  0.00  0.00     0.150 A 
ATOM      5  C4  UNL d   1      -1.396  -0.524   1.036  0.00  0.00    -0.007 A 
ATOM      6  C5  UNL d   1      -1.332   0.806   0.621  0.00  0.00     0.039 A 
ENDROOT
BRANCH   4   7
ATOM      7  O   UNL d   1      -0.365  -2.613   1.392  0.00  0.00    -0.526 OA
ATOM      8  H5  UNL d   1       0.507  -3.035   1.316  0.00  0.00     0.418 HD
ENDBRANCH   4   7
TORSDOF 1
ENDMDL
