MODEL 1
REMARK minimizedAffinity -1.64492583
REMARK minimizedRMSD -1
REMARK  1 active torsions:
REMARK  status: ('A' for Active; 'I' for Inactive)
REMARK    1  A    between atoms: C3_4  and  O_7 
ROOT
ATOM      1  C   UNL d   1       1.589   2.558  -3.724  0.00  0.00    -0.033 A 
ATOM      2  C1  UNL d   1       0.295   2.072  -3.526  0.00  0.00     0.039 A 
ATOM      3  C2  UNL d   1      -0.065   1.525  -2.293  0.00  0.00    -0.080 A 
ATOM      4  C3  UNL d   1       0.876   1.469  -1.269  0.00  0.00     0.150 A 
ATOM      5  C4  UNL d   1       2.166   1.955  -1.458  0.00  0.00    -0.007 A 
ATOM      6  C5  UNL d   1       2.524   2.500  -2.690  0.00  0.00     0.039 A 
ENDROOT
BRANCH   4   7
ATOM      7  O   UNL d   1       0.573   0.939  -0.050  0.00  0.00    -0.526 OA
ATOM      8  H5  UNL d   1      -0.344   0.618  -0.074  0.00  0.00     0.418 HD
ENDBRANCH   4   7
TORSDOF 1
ENDMDL
