MODEL 1
REMARK minimizedAffinity -0.284966409
REMARK minimizedRMSD -1
REMARK  1 active torsions:
REMARK  status: ('A' for Active; 'I' for Inactive)
REMARK    1  A    between atoms: C3_4  and  O_7 
ROOT
ATOM      1  C   UNL d   1      -1.430  -5.999  -5.989  0.00  0.00    -0.033 A 
ATOM      2  C1  UNL d   1      -0.689  -4.816  -5.987  0.00  0.00     0.039 A 
ATOM      3  C2  UNL d   1      -1.341  -3.582  -5.986  0.00  0.00    -0.080 A 
ATOM      4  C3  UNL d   1      -2.733  -3.544  -5.986  0.00  0.00     0.150 A 
ATOM      5  C4  UNL d   1      -3.478  -4.719  -5.985  0.00  0.00    -0.007 A 
ATOM      6  C5  UNL d   1      -2.825  -5.951  -5.986  0.00  0.00     0.039 A 
ENDROOT
BRANCH   4   7
ATOM      7  O   UNL d   1      -3.414  -2.363  -5.991  0.00  0.00    -0.526 OA
ATOM      8  H5  UNL d   1      -2.770  -1.636  -6.021  0.00  0.00     0.418 HD
ENDBRANCH   4   7
TORSDOF 1
ENDMDL
