MODEL 1
REMARK minimizedAffinity -1.44387281
REMARK minimizedRMSD -1
REMARK  1 active torsions:
REMARK  status: ('A' for Active; 'I' for Inactive)
REMARK    1  A    between atoms: C3_4  and  O_7 
ROOT
ATOM      1  C   UNL d   1       1.066   0.059   0.027  0.00  0.00    -0.033 A 
ATOM      2  C1  UNL d   1       0.751   1.403   0.237  0.00  0.00     0.039 A 
ATOM      3  C2  UNL d   1      -0.434   1.750   0.891  0.00  0.00    -0.080 A 
ATOM      4  C3  UNL d   1      -1.291   0.745   1.329  0.00  0.00     0.150 A 
ATOM      5  C4  UNL d   1      -0.981  -0.596   1.127  0.00  0.00    -0.007 A 
ATOM      6  C5  UNL d   1       0.201  -0.940   0.473  0.00  0.00     0.039 A 
ENDROOT
BRANCH   4   7
ATOM      7  O   UNL d   1      -2.461   1.035   1.968  0.00  0.00    -0.526 OA
ATOM      8  H5  UNL d   1      -2.556   2.001   2.011  0.00  0.00     0.418 HD
ENDBRANCH   4   7
TORSDOF 1
ENDMDL
