MODEL 1
REMARK minimizedAffinity 5.60480738
REMARK minimizedRMSD -1
REMARK  0 active torsions:
REMARK  status: ('A' for Active; 'I' for Inactive)
ROOT
ATOM      1  C4' PXY d   1       0.618   0.018   2.342  0.00  0.00     0.077 C 
ATOM      2  C1' PXY d   1      -3.956   0.002  -1.193  0.00  0.00     0.077 C 
ATOM      3  C1  PXY d   1      -2.751   0.016  -0.273  0.00  0.00    -0.082 A 
ATOM      4  C2  PXY d   1      -2.433  -1.075   0.405  0.00  0.00     0.003 A 
ATOM      5  C3  PXY d   1      -1.366  -1.070   1.266  0.00  0.00     0.003 A 
ATOM      6  C4  PXY d   1      -0.584   0.047   1.394  0.00  0.00    -0.082 A 
ATOM      7  C5  PXY d   1      -0.896   1.161   0.698  0.00  0.00     0.003 A 
ATOM      8  C6  PXY d   1      -2.007   1.148  -0.140  0.00  0.00     0.003 A 
ENDROOT
TORSDOF 0
ENDMDL
