MODEL 1
REMARK minimizedAffinity 11.2837582
REMARK minimizedRMSD -1
REMARK  0 active torsions:
REMARK  status: ('A' for Active; 'I' for Inactive)
ROOT
ATOM      1  C4' PXY d   1      -0.701   0.257   1.101  0.00  0.00     0.077 C 
ATOM      2  C1' PXY d   1      -0.777   5.999   0.442  0.00  0.00     0.077 C 
ATOM      3  C1  PXY d   1      -0.770   4.493   0.615  0.00  0.00    -0.082 A 
ATOM      4  C2  PXY d   1       0.283   3.901   1.155  0.00  0.00     0.003 A 
ATOM      5  C3  PXY d   1       0.319   2.537   1.289  0.00  0.00     0.003 A 
ATOM      6  C4  PXY d   1      -0.756   1.775   0.916  0.00  0.00    -0.082 A 
ATOM      7  C5  PXY d   1      -1.838   2.373   0.375  0.00  0.00     0.003 A 
ATOM      8  C6  PXY d   1      -1.838   3.755   0.209  0.00  0.00     0.003 A 
ENDROOT
TORSDOF 0
ENDMDL
