MODEL 1
REMARK minimizedAffinity -0.807917178
REMARK minimizedRMSD -1
REMARK  0 active torsions:
REMARK  status: ('A' for Active; 'I' for Inactive)
ROOT
ATOM      1  C4' PXY d   1       0.439   0.175   2.348  0.00  0.00     0.077 C 
ATOM      2  C1' PXY d   1      -4.196  -0.833  -0.956  0.00  0.00     0.077 C 
ATOM      3  C1  PXY d   1      -2.978  -0.557  -0.096  0.00  0.00    -0.082 A 
ATOM      4  C2  PXY d   1      -2.337  -1.565   0.473  0.00  0.00     0.003 A 
ATOM      5  C3  PXY d   1      -1.254  -1.331   1.280  0.00  0.00     0.003 A 
ATOM      6  C4  PXY d   1      -0.789  -0.057   1.464  0.00  0.00    -0.082 A 
ATOM      7  C5  PXY d   1      -1.431   0.976   0.878  0.00  0.00     0.003 A 
ATOM      8  C6  PXY d   1      -2.553   0.721   0.096  0.00  0.00     0.003 A 
ENDROOT
TORSDOF 0
ENDMDL
