MODEL 1
REMARK minimizedAffinity 8.39984035
REMARK minimizedRMSD -1
REMARK  0 active torsions:
REMARK  status: ('A' for Active; 'I' for Inactive)
ROOT
ATOM      1  C4' PXY d   1      -4.472   2.407  -5.274  0.00  0.00     0.077 C 
ATOM      2  C1' PXY d   1      -5.999   5.999  -1.010  0.00  0.00     0.077 C 
ATOM      3  C1  PXY d   1      -5.606   5.064  -2.137  0.00  0.00    -0.082 A 
ATOM      4  C2  PXY d   1      -5.173   3.846  -1.854  0.00  0.00     0.003 A 
ATOM      5  C3  PXY d   1      -4.784   2.998  -2.859  0.00  0.00     0.003 A 
ATOM      6  C4  PXY d   1      -4.888   3.382  -4.169  0.00  0.00    -0.082 A 
ATOM      7  C5  PXY d   1      -5.339   4.619  -4.466  0.00  0.00     0.003 A 
ATOM      8  C6  PXY d   1      -5.690   5.480  -3.429  0.00  0.00     0.003 A 
ENDROOT
TORSDOF 0
ENDMDL
