MODEL 1
REMARK minimizedAffinity 3.93273115
REMARK minimizedRMSD -1
REMARK  0 active torsions:
REMARK  status: ('A' for Active; 'I' for Inactive)
ROOT
ATOM      1  C4' PXY d   1      -1.436  -2.776   0.771  0.00  0.00     0.077 C 
ATOM      2  C1' PXY d   1      -0.353   2.893   0.438  0.00  0.00     0.077 C 
ATOM      3  C1  PXY d   1      -0.625   1.404   0.523  0.00  0.00    -0.082 A 
ATOM      4  C2  PXY d   1      -1.847   0.948   0.301  0.00  0.00     0.003 A 
ATOM      5  C3  PXY d   1      -2.117  -0.392   0.405  0.00  0.00     0.003 A 
ATOM      6  C4  PXY d   1      -1.114  -1.281   0.687  0.00  0.00    -0.082 A 
ATOM      7  C5  PXY d   1       0.138  -0.825   0.904  0.00  0.00     0.003 A 
ATOM      8  C6  PXY d   1       0.383   0.544   0.834  0.00  0.00     0.003 A 
ENDROOT
TORSDOF 0
ENDMDL
