MODEL 1
REMARK minimizedAffinity 1.46005225
REMARK minimizedRMSD -1
REMARK  0 active torsions:
REMARK  status: ('A' for Active; 'I' for Inactive)
ROOT
ATOM      1  C4' PXY d   1      -1.770  -1.203   1.334  0.00  0.00     0.077 C 
ATOM      2  C1' PXY d   1       3.309  -2.973  -0.783  0.00  0.00     0.077 C 
ATOM      3  C1  PXY d   1       1.972  -2.509  -0.240  0.00  0.00    -0.082 A 
ATOM      4  C2  PXY d   1       1.928  -1.814   0.885  0.00  0.00     0.003 A 
ATOM      5  C3  PXY d   1       0.725  -1.415   1.408  0.00  0.00     0.003 A 
ATOM      6  C4  PXY d   1      -0.442  -1.684   0.744  0.00  0.00    -0.082 A 
ATOM      7  C5  PXY d   1      -0.405  -2.383  -0.410  0.00  0.00     0.003 A 
ATOM      8  C6  PXY d   1       0.823  -2.815  -0.902  0.00  0.00     0.003 A 
ENDROOT
TORSDOF 0
ENDMDL
