MODEL 1
REMARK minimizedAffinity 0.122867167
REMARK minimizedRMSD -1
REMARK  0 active torsions:
REMARK  status: ('A' for Active; 'I' for Inactive)
ROOT
ATOM      1  C4' PXY d   1       5.976   4.513  -5.308  0.00  0.00     0.077 C 
ATOM      2  C1' PXY d   1       5.987   4.671   0.470  0.00  0.00     0.077 C 
ATOM      3  C1  PXY d   1       5.990   4.618  -1.045  0.00  0.00    -0.082 A 
ATOM      4  C2  PXY d   1       6.000   5.744  -1.739  0.00  0.00     0.003 A 
ATOM      5  C3  PXY d   1       5.970   5.714  -3.109  0.00  0.00     0.003 A 
ATOM      6  C4  PXY d   1       5.983   4.519  -3.777  0.00  0.00    -0.082 A 
ATOM      7  C5  PXY d   1       5.983   3.365  -3.076  0.00  0.00     0.003 A 
ATOM      8  C6  PXY d   1       5.972   3.417  -1.685  0.00  0.00     0.003 A 
ENDROOT
TORSDOF 0
ENDMDL
