MODEL 1
REMARK minimizedAffinity -2.72742319
REMARK minimizedRMSD -1
REMARK  0 active torsions:
REMARK  status: ('A' for Active; 'I' for Inactive)
ROOT
ATOM      1  C1  BNZ d   1       4.158  -2.732  -5.999  0.00  0.00     0.000 A 
ATOM      2  C2  BNZ d   1       4.257  -4.097  -5.957  0.00  0.00     0.000 A 
ATOM      3  C3  BNZ d   1       5.114  -4.711  -5.086  0.00  0.00     0.000 A 
ATOM      4  C4  BNZ d   1       5.899  -3.958  -4.287  0.00  0.00     0.000 A 
ATOM      5  C5  BNZ d   1       5.817  -2.581  -4.325  0.00  0.00     0.000 A 
ATOM      6  C6  BNZ d   1       4.926  -1.968  -5.175  0.00  0.00     0.000 A 
ENDROOT
TORSDOF 0
ENDMDL
