MODEL 1
REMARK minimizedAffinity -2.97646904
REMARK minimizedRMSD -1
REMARK  0 active torsions:
REMARK  status: ('A' for Active; 'I' for Inactive)
ROOT
ATOM      1  C1  BNZ d   1       4.259  -3.914  -4.340  0.00  0.00     0.000 A 
ATOM      2  C2  BNZ d   1       4.324  -2.546  -4.347  0.00  0.00     0.000 A 
ATOM      3  C3  BNZ d   1       5.177  -1.890  -5.190  0.00  0.00     0.000 A 
ATOM      4  C4  BNZ d   1       5.992  -2.603  -5.995  0.00  0.00     0.000 A 
ATOM      5  C5  BNZ d   1       5.945  -3.983  -5.993  0.00  0.00     0.000 A 
ATOM      6  C6  BNZ d   1       5.057  -4.638  -5.171  0.00  0.00     0.000 A 
ENDROOT
TORSDOF 0
ENDMDL
