MODEL 1
REMARK minimizedAffinity -2.52099013
REMARK minimizedRMSD -1
REMARK  0 active torsions:
REMARK  status: ('A' for Active; 'I' for Inactive)
ROOT
ATOM      1  C1  BNZ d   1       3.538  -5.297  -4.179  0.00  0.00     0.000 A 
ATOM      2  C2  BNZ d   1       3.662  -4.130  -4.885  0.00  0.00     0.000 A 
ATOM      3  C3  BNZ d   1       4.893  -3.657  -5.244  0.00  0.00     0.000 A 
ATOM      4  C4  BNZ d   1       5.999  -4.329  -4.863  0.00  0.00     0.000 A 
ATOM      5  C5  BNZ d   1       5.891  -5.502  -4.143  0.00  0.00     0.000 A 
ATOM      6  C6  BNZ d   1       4.648  -5.996  -3.817  0.00  0.00     0.000 A 
ENDROOT
TORSDOF 0
ENDMDL
