MODEL 1
REMARK minimizedAffinity -2.54109168
REMARK minimizedRMSD -1
REMARK  0 active torsions:
REMARK  status: ('A' for Active; 'I' for Inactive)
ROOT
ATOM      1  C1  BNZ d   1       4.868  -3.153  -5.262  0.00  0.00     0.000 A 
ATOM      2  C2  BNZ d   1       3.750  -3.908  -5.024  0.00  0.00     0.000 A 
ATOM      3  C3  BNZ d   1       3.757  -5.257  -5.246  0.00  0.00     0.000 A 
ATOM      4  C4  BNZ d   1       4.866  -5.842  -5.743  0.00  0.00     0.000 A 
ATOM      5  C5  BNZ d   1       5.997  -5.092  -5.997  0.00  0.00     0.000 A 
ATOM      6  C6  BNZ d   1       6.000  -3.742  -5.736  0.00  0.00     0.000 A 
ENDROOT
TORSDOF 0
ENDMDL
