MODEL 1
REMARK minimizedAffinity -3.1839664
REMARK minimizedRMSD -1
REMARK  0 active torsions:
REMARK  status: ('A' for Active; 'I' for Inactive)
ROOT
ATOM      1  C1  BNZ d   1       4.891  -0.204  -5.720  0.00  0.00     0.000 A 
ATOM      2  C2  BNZ d   1       5.999  -0.768  -5.147  0.00  0.00     0.000 A 
ATOM      3  C3  BNZ d   1       5.991  -2.075  -4.745  0.00  0.00     0.000 A 
ATOM      4  C4  BNZ d   1       4.863  -2.802  -4.880  0.00  0.00     0.000 A 
ATOM      5  C5  BNZ d   1       3.735  -2.245  -5.448  0.00  0.00     0.000 A 
ATOM      6  C6  BNZ d   1       3.760  -0.941  -5.887  0.00  0.00     0.000 A 
ENDROOT
TORSDOF 0
ENDMDL
