MODEL 1
REMARK minimizedAffinity -3.38591504
REMARK minimizedRMSD -1
REMARK  0 active torsions:
REMARK  status: ('A' for Active; 'I' for Inactive)
ROOT
ATOM      1  C1  BNZ d   1       5.995  -3.783  -4.179  0.00  0.00     0.000 A 
ATOM      2  C2  BNZ d   1       5.925  -5.104  -3.824  0.00  0.00     0.000 A 
ATOM      3  C3  BNZ d   1       5.193  -5.990  -4.565  0.00  0.00     0.000 A 
ATOM      4  C4  BNZ d   1       4.501  -5.548  -5.634  0.00  0.00     0.000 A 
ATOM      5  C5  BNZ d   1       4.555  -4.217  -6.000  0.00  0.00     0.000 A 
ATOM      6  C6  BNZ d   1       5.323  -3.336  -5.275  0.00  0.00     0.000 A 
ENDROOT
TORSDOF 0
ENDMDL
