MODEL 1
REMARK minimizedAffinity -2.58221269
REMARK minimizedRMSD -1
REMARK  0 active torsions:
REMARK  status: ('A' for Active; 'I' for Inactive)
ROOT
ATOM      1  C1  BNZ d   1       4.905  -3.454  -4.839  0.00  0.00     0.000 A 
ATOM      2  C2  BNZ d   1       3.808  -2.652  -4.669  0.00  0.00     0.000 A 
ATOM      3  C3  BNZ d   1       3.790  -1.377  -5.161  0.00  0.00     0.000 A 
ATOM      4  C4  BNZ d   1       4.882  -0.893  -5.788  0.00  0.00     0.000 A 
ATOM      5  C5  BNZ d   1       5.999  -1.686  -5.960  0.00  0.00     0.000 A 
ATOM      6  C6  BNZ d   1       5.999  -2.982  -5.497  0.00  0.00     0.000 A 
ENDROOT
TORSDOF 0
ENDMDL
