MODEL 1
REMARK minimizedAffinity 9.87664032
REMARK minimizedRMSD -1
REMARK  0 active torsions:
REMARK  status: ('A' for Active; 'I' for Inactive)
ROOT
ATOM      1  O1  BZF d   1       1.773  -1.625   0.636  0.00  0.00    -0.204 OA
ATOM      2  C2  BZF d   1       2.146  -1.281   1.921  0.00  0.00     0.174 A 
ATOM      3  C3  BZF d   1       2.506   0.017   1.983  0.00  0.00    -0.012 A 
ATOM      4  C3A BZF d   1       2.260   0.539   0.674  0.00  0.00    -0.107 A 
ATOM      5  C4  BZF d   1       2.405   1.776   0.113  0.00  0.00     0.055 A 
ATOM      6  C5  BZF d   1       2.146   1.936  -1.211  0.00  0.00    -0.016 A 
ATOM      7  C6  BZF d   1       1.744   0.881  -2.004  0.00  0.00     0.022 A 
ATOM      8  C7  BZF d   1       1.581  -0.363  -1.493  0.00  0.00     0.029 A 
ATOM      9  C7A BZF d   1       1.811  -0.521  -0.148  0.00  0.00     0.058 A 
ENDROOT
TORSDOF 0
ENDMDL
