MODEL 1
REMARK minimizedAffinity 3.70481825
REMARK minimizedRMSD -1
REMARK  0 active torsions:
REMARK  status: ('A' for Active; 'I' for Inactive)
ROOT
ATOM      1  O1  BZF d   1       0.608   4.453   2.863  0.00  0.00    -0.204 OA
ATOM      2  C2  BZF d   1       1.506   3.692   2.139  0.00  0.00     0.174 A 
ATOM      3  C3  BZF d   1       2.715   3.681   2.737  0.00  0.00    -0.012 A 
ATOM      4  C3A BZF d   1       2.538   4.408   3.956  0.00  0.00    -0.107 A 
ATOM      5  C4  BZF d   1       3.373   4.727   4.989  0.00  0.00     0.055 A 
ATOM      6  C5  BZF d   1       2.908   5.512   5.996  0.00  0.00    -0.016 A 
ATOM      7  C6  BZF d   1       1.618   6.000   6.000  0.00  0.00     0.022 A 
ATOM      8  C7  BZF d   1       0.751   5.707   5.000  0.00  0.00     0.029 A 
ATOM      9  C7A BZF d   1       1.208   4.886   3.998  0.00  0.00     0.058 A 
ENDROOT
TORSDOF 0
ENDMDL
