MODEL 1
REMARK minimizedAffinity 6.98655939
REMARK minimizedRMSD -1
REMARK  0 active torsions:
REMARK  status: ('A' for Active; 'I' for Inactive)
ROOT
ATOM      1  O1  BZF d   1       3.885  -2.030   4.732  0.00  0.00    -0.204 OA
ATOM      2  C2  BZF d   1       3.084  -2.043   3.606  0.00  0.00     0.174 A 
ATOM      3  C3  BZF d   1       2.994  -3.289   3.098  0.00  0.00    -0.012 A 
ATOM      4  C3A BZF d   1       3.713  -4.122   4.012  0.00  0.00    -0.107 A 
ATOM      5  C4  BZF d   1       3.968  -5.462   4.060  0.00  0.00     0.055 A 
ATOM      6  C5  BZF d   1       4.764  -5.949   5.048  0.00  0.00    -0.016 A 
ATOM      7  C6  BZF d   1       5.326  -5.124   6.000  0.00  0.00     0.022 A 
ATOM      8  C7  BZF d   1       5.098  -3.788   5.997  0.00  0.00     0.029 A 
ATOM      9  C7A BZF d   1       4.266  -3.298   5.019  0.00  0.00     0.058 A 
ENDROOT
TORSDOF 0
ENDMDL
