MODEL 1
REMARK minimizedAffinity 0.329059362
REMARK minimizedRMSD -1
REMARK  0 active torsions:
REMARK  status: ('A' for Active; 'I' for Inactive)
ROOT
ATOM      1  O1  BZF d   1      -5.071   4.796  -5.992  0.00  0.00    -0.204 OA
ATOM      2  C2  BZF d   1      -4.803   5.979  -5.331  0.00  0.00     0.174 A 
ATOM      3  C3  BZF d   1      -3.752   5.834  -4.498  0.00  0.00    -0.012 A 
ATOM      4  C3A BZF d   1      -3.279   4.502  -4.716  0.00  0.00    -0.107 A 
ATOM      5  C4  BZF d   1      -2.249   3.774  -4.194  0.00  0.00     0.055 A 
ATOM      6  C5  BZF d   1      -2.103   2.475  -4.566  0.00  0.00    -0.016 A 
ATOM      7  C6  BZF d   1      -2.971   1.871  -5.452  0.00  0.00     0.022 A 
ATOM      8  C7  BZF d   1      -4.005   2.554  -6.000  0.00  0.00     0.029 A 
ATOM      9  C7A BZF d   1      -4.136   3.876  -5.652  0.00  0.00     0.058 A 
ENDROOT
TORSDOF 0
ENDMDL
