MODEL 1
REMARK minimizedAffinity 5.63288212
REMARK minimizedRMSD -1
REMARK  0 active torsions:
REMARK  status: ('A' for Active; 'I' for Inactive)
ROOT
ATOM      1  O1  BZF d   1       0.617  -1.418  -1.803  0.00  0.00    -0.204 OA
ATOM      2  C2  BZF d   1       1.923  -1.098  -2.119  0.00  0.00     0.174 A 
ATOM      3  C3  BZF d   1       2.622  -0.790  -1.007  0.00  0.00    -0.012 A 
ATOM      4  C3A BZF d   1       1.719  -1.015   0.080  0.00  0.00    -0.107 A 
ATOM      5  C4  BZF d   1       1.833  -0.899   1.435  0.00  0.00     0.055 A 
ATOM      6  C5  BZF d   1       0.741  -1.124   2.212  0.00  0.00    -0.016 A 
ATOM      7  C6  BZF d   1      -0.481  -1.460   1.668  0.00  0.00     0.022 A 
ATOM      8  C7  BZF d   1      -0.642  -1.592   0.328  0.00  0.00     0.029 A 
ATOM      9  C7A BZF d   1       0.468  -1.398  -0.457  0.00  0.00     0.058 A 
ENDROOT
TORSDOF 0
ENDMDL
