MODEL 1
REMARK minimizedAffinity 3.75486803
REMARK minimizedRMSD -1
REMARK  0 active torsions:
REMARK  status: ('A' for Active; 'I' for Inactive)
ROOT
ATOM      1  O1  BZF d   1      -1.902  -2.449   0.680  0.00  0.00    -0.204 OA
ATOM      2  C2  BZF d   1      -1.749  -1.438  -0.250  0.00  0.00     0.174 A 
ATOM      3  C3  BZF d   1      -0.790  -0.573   0.139  0.00  0.00    -0.012 A 
ATOM      4  C3A BZF d   1      -0.250  -1.125   1.343  0.00  0.00    -0.107 A 
ATOM      5  C4  BZF d   1       0.742  -0.731   2.194  0.00  0.00     0.055 A 
ATOM      6  C5  BZF d   1       0.973  -1.455   3.321  0.00  0.00    -0.016 A 
ATOM      7  C6  BZF d   1       0.227  -2.574   3.630  0.00  0.00     0.022 A 
ATOM      8  C7  BZF d   1      -0.765  -3.007   2.814  0.00  0.00     0.029 A 
ATOM      9  C7A BZF d   1      -0.978  -2.296   1.658  0.00  0.00     0.058 A 
ENDROOT
TORSDOF 0
ENDMDL
