MODEL 1
REMARK minimizedAffinity 10.2738352
REMARK minimizedRMSD -1
REMARK  0 active torsions:
REMARK  status: ('A' for Active; 'I' for Inactive)
ROOT
ATOM      1  O1  BZF d   1       1.762  -2.492   2.548  0.00  0.00    -0.204 OA
ATOM      2  C2  BZF d   1       0.764  -1.692   3.068  0.00  0.00     0.174 A 
ATOM      3  C3  BZF d   1       0.438  -0.710   2.204  0.00  0.00    -0.012 A 
ATOM      4  C3A BZF d   1       1.221  -0.963   1.034  0.00  0.00    -0.107 A 
ATOM      5  C4  BZF d   1       1.329  -0.342  -0.178  0.00  0.00     0.055 A 
ATOM      6  C5  BZF d   1       2.241  -0.798  -1.076  0.00  0.00    -0.016 A 
ATOM      7  C6  BZF d   1       3.064  -1.869  -0.795  0.00  0.00     0.022 A 
ATOM      8  C7  BZF d   1       2.991  -2.521   0.391  0.00  0.00     0.029 A 
ATOM      9  C7A BZF d   1       2.047  -2.082   1.288  0.00  0.00     0.058 A 
ENDROOT
TORSDOF 0
ENDMDL
