MODEL 1
REMARK minimizedAffinity 3.6749332
REMARK minimizedRMSD -1
REMARK  0 active torsions:
REMARK  status: ('A' for Active; 'I' for Inactive)
ROOT
ATOM      1  O1  BZF d   1       2.484  -0.369   1.707  0.00  0.00    -0.204 OA
ATOM      2  C2  BZF d   1       2.255  -1.731   1.751  0.00  0.00     0.174 A 
ATOM      3  C3  BZF d   1       1.868  -2.190   0.544  0.00  0.00    -0.012 A 
ATOM      4  C3A BZF d   1       1.943  -1.060  -0.331  0.00  0.00    -0.107 A 
ATOM      5  C4  BZF d   1       1.698  -0.886  -1.663  0.00  0.00     0.055 A 
ATOM      6  C5  BZF d   1       1.795   0.361  -2.195  0.00  0.00    -0.016 A 
ATOM      7  C6  BZF d   1       2.130   1.455  -1.424  0.00  0.00     0.022 A 
ATOM      8  C7  BZF d   1       2.388   1.331  -0.099  0.00  0.00     0.029 A 
ATOM      9  C7A BZF d   1       2.322   0.067   0.435  0.00  0.00     0.058 A 
ENDROOT
TORSDOF 0
ENDMDL
