MODEL 1
REMARK minimizedAffinity 5.68476582
REMARK minimizedRMSD -1
REMARK  0 active torsions:
REMARK  status: ('A' for Active; 'I' for Inactive)
ROOT
ATOM      1  O1  BZF d   1       3.271   1.358   0.386  0.00  0.00    -0.204 OA
ATOM      2  C2  BZF d   1       2.782   2.640   0.221  0.00  0.00     0.174 A 
ATOM      3  C3  BZF d   1       1.833   2.671  -0.736  0.00  0.00    -0.012 A 
ATOM      4  C3A BZF d   1       1.656   1.308  -1.135  0.00  0.00    -0.107 A 
ATOM      5  C4  BZF d   1       0.840   0.693  -2.041  0.00  0.00     0.055 A 
ATOM      6  C5  BZF d   1       0.966  -0.645  -2.242  0.00  0.00    -0.016 A 
ATOM      7  C6  BZF d   1       1.899  -1.397  -1.560  0.00  0.00     0.022 A 
ATOM      8  C7  BZF d   1       2.728  -0.832  -0.648  0.00  0.00     0.029 A 
ATOM      9  C7A BZF d   1       2.581   0.514  -0.418  0.00  0.00     0.058 A 
ENDROOT
TORSDOF 0
ENDMDL
