MODEL 1
REMARK minimizedAffinity -3.87855053
REMARK minimizedRMSD -1
REMARK  2 active torsions:
REMARK  status: ('A' for Active; 'I' for Inactive)
REMARK    1  A    between atoms: C1_2  and  C2_3 
REMARK    2  A    between atoms: C2_3  and  C3_4 
ROOT
ATOM      1  C3  UNL d   1       1.019  -1.214   1.104  0.00  0.00    -0.075 A 
ATOM      2  C4  UNL d   1      -0.216  -0.549   1.099  0.00  0.00     0.002 A 
ATOM      3  C5  UNL d   1      -1.123  -0.731   2.143  0.00  0.00     0.002 A 
ATOM      4  C6  UNL d   1      -0.812  -1.584   3.199  0.00  0.00    -0.004 A 
ATOM      5  C7  UNL d   1       0.406  -2.262   3.207  0.00  0.00     0.002 A 
ATOM      6  C8  UNL d   1       1.317  -2.079   2.165  0.00  0.00     0.002 A 
ENDROOT
BRANCH   1   7
ATOM      7  C2  UNL d   1       2.017  -0.999  -0.008  0.00  0.00     0.056 C 
BRANCH   7   8
ATOM      8  C1  UNL d   1       2.012   0.421  -0.585  0.00  0.00     0.007 C 
ATOM      9  C   UNL d   1       2.373   1.487   0.440  0.00  0.00     0.009 C 
ENDBRANCH   7   8
ENDBRANCH   1   7
TORSDOF 2
ENDMDL
