MODEL 1
REMARK minimizedAffinity -4.27293348
REMARK minimizedRMSD -1
REMARK  2 active torsions:
REMARK  status: ('A' for Active; 'I' for Inactive)
REMARK    1  A    between atoms: C1_2  and  C2_3 
REMARK    2  A    between atoms: C2_3  and  C3_4 
ROOT
ATOM      1  C3  UNL d   1      -0.601   2.777  -3.779  0.00  0.00    -0.075 A 
ATOM      2  C4  UNL d   1      -1.735   2.083  -4.225  0.00  0.00     0.002 A 
ATOM      3  C5  UNL d   1      -2.558   1.414  -3.318  0.00  0.00     0.002 A 
ATOM      4  C6  UNL d   1      -2.253   1.423  -1.958  0.00  0.00    -0.004 A 
ATOM      5  C7  UNL d   1      -1.120   2.095  -1.507  0.00  0.00     0.002 A 
ATOM      6  C8  UNL d   1      -0.297   2.769  -2.411  0.00  0.00     0.002 A 
ENDROOT
BRANCH   1   7
ATOM      7  C2  UNL d   1       0.277   3.527  -4.752  0.00  0.00     0.056 C 
BRANCH   7   8
ATOM      8  C1  UNL d   1       1.063   4.681  -4.121  0.00  0.00     0.007 C 
ATOM      9  C   UNL d   1       0.299   5.999  -4.121  0.00  0.00     0.009 C 
ENDBRANCH   7   8
ENDBRANCH   1   7
TORSDOF 2
ENDMDL
