MODEL 1
REMARK minimizedAffinity -5.13199043
REMARK minimizedRMSD -1
REMARK  2 active torsions:
REMARK  status: ('A' for Active; 'I' for Inactive)
REMARK    1  A    between atoms: C1_2  and  C2_3 
REMARK    2  A    between atoms: C2_3  and  C3_4 
ROOT
ATOM      1  C3  UNL d   1      -0.053   0.242  -0.205  0.00  0.00    -0.075 A 
ATOM      2  C4  UNL d   1      -0.501  -0.828   0.583  0.00  0.00     0.002 A 
ATOM      3  C5  UNL d   1       0.342  -1.903   0.863  0.00  0.00     0.002 A 
ATOM      4  C6  UNL d   1       1.637  -1.928   0.352  0.00  0.00    -0.004 A 
ATOM      5  C7  UNL d   1       2.088  -0.879  -0.446  0.00  0.00     0.002 A 
ATOM      6  C8  UNL d   1       1.248   0.201  -0.725  0.00  0.00     0.002 A 
ENDROOT
BRANCH   1   7
ATOM      7  C2  UNL d   1      -0.951   1.423  -0.488  0.00  0.00     0.056 C 
BRANCH   7   8
ATOM      8  C1  UNL d   1      -1.063   1.780  -1.974  0.00  0.00     0.007 C 
ATOM      9  C   UNL d   1      -2.465   1.581  -2.534  0.00  0.00     0.009 C 
ENDBRANCH   7   8
ENDBRANCH   1   7
TORSDOF 2
ENDMDL
