MODEL 1
REMARK minimizedAffinity -5.46602964
REMARK minimizedRMSD -1
REMARK  2 active torsions:
REMARK  status: ('A' for Active; 'I' for Inactive)
REMARK    1  A    between atoms: C1_2  and  C2_3 
REMARK    2  A    between atoms: C2_3  and  C3_4 
ROOT
ATOM      1  C3  UNL d   1       0.429  -0.308   0.551  0.00  0.00    -0.075 A 
ATOM      2  C4  UNL d   1       1.549  -1.141   0.688  0.00  0.00     0.002 A 
ATOM      3  C5  UNL d   1       1.562  -2.158   1.644  0.00  0.00     0.002 A 
ATOM      4  C6  UNL d   1       0.463  -2.348   2.478  0.00  0.00    -0.004 A 
ATOM      5  C7  UNL d   1      -0.648  -1.516   2.361  0.00  0.00     0.002 A 
ATOM      6  C8  UNL d   1      -0.666  -0.501   1.404  0.00  0.00     0.002 A 
ENDROOT
BRANCH   1   7
ATOM      7  C2  UNL d   1       0.397   0.775  -0.501  0.00  0.00     0.056 C 
BRANCH   7   8
ATOM      8  C1  UNL d   1      -0.921   1.555  -0.552  0.00  0.00     0.007 C 
ATOM      9  C   UNL d   1      -1.533   1.609  -1.946  0.00  0.00     0.009 C 
ENDBRANCH   7   8
ENDBRANCH   1   7
TORSDOF 2
ENDMDL
