MODEL 1
REMARK minimizedAffinity -5.14242697
REMARK minimizedRMSD -1
REMARK  2 active torsions:
REMARK  status: ('A' for Active; 'I' for Inactive)
REMARK    1  A    between atoms: C1_2  and  C2_3 
REMARK    2  A    between atoms: C2_3  and  C3_4 
ROOT
ATOM      1  C3  UNL d   1      -0.145   0.026   0.010  0.00  0.00    -0.075 A 
ATOM      2  C4  UNL d   1      -0.462  -1.086   0.805  0.00  0.00     0.002 A 
ATOM      3  C5  UNL d   1       0.519  -2.022   1.136  0.00  0.00     0.002 A 
ATOM      4  C6  UNL d   1       1.822  -1.864   0.670  0.00  0.00    -0.004 A 
ATOM      5  C7  UNL d   1       2.144  -0.773  -0.134  0.00  0.00     0.002 A 
ATOM      6  C8  UNL d   1       1.166   0.167  -0.463  0.00  0.00     0.002 A 
ENDROOT
BRANCH   1   7
ATOM      7  C2  UNL d   1      -1.195   1.058  -0.328  0.00  0.00     0.056 C 
BRANCH   7   8
ATOM      8  C1  UNL d   1      -1.064   1.641  -1.739  0.00  0.00     0.007 C 
ATOM      9  C   UNL d   1      -2.359   1.573  -2.538  0.00  0.00     0.009 C 
ENDBRANCH   7   8
ENDBRANCH   1   7
TORSDOF 2
ENDMDL
