MODEL 1
REMARK minimizedAffinity -4.45844889
REMARK minimizedRMSD -1
REMARK  2 active torsions:
REMARK  status: ('A' for Active; 'I' for Inactive)
REMARK    1  A    between atoms: C1_2  and  C2_3 
REMARK    2  A    between atoms: C2_3  and  C3_4 
ROOT
ATOM      1  C3  UNL d   1       0.211  -0.664   0.326  0.00  0.00    -0.075 A 
ATOM      2  C4  UNL d   1      -0.808  -0.725   1.287  0.00  0.00     0.002 A 
ATOM      3  C5  UNL d   1      -0.728  -1.627   2.349  0.00  0.00     0.002 A 
ATOM      4  C6  UNL d   1       0.365  -2.484   2.458  0.00  0.00    -0.004 A 
ATOM      5  C7  UNL d   1       1.376  -2.443   1.500  0.00  0.00     0.002 A 
ATOM      6  C8  UNL d   1       1.300  -1.539   0.439  0.00  0.00     0.002 A 
ENDROOT
BRANCH   1   7
ATOM      7  C2  UNL d   1       0.145   0.330  -0.809  0.00  0.00     0.056 C 
BRANCH   7   8
ATOM      8  C1  UNL d   1      -0.832   1.486  -0.569  0.00  0.00     0.007 C 
ATOM      9  C   UNL d   1      -1.661   1.836  -1.798  0.00  0.00     0.009 C 
ENDBRANCH   7   8
ENDBRANCH   1   7
TORSDOF 2
ENDMDL
