MODEL 1
REMARK minimizedAffinity -5.02063322
REMARK minimizedRMSD -1
REMARK  2 active torsions:
REMARK  status: ('A' for Active; 'I' for Inactive)
REMARK    1  A    between atoms: C1_2  and  C2_3 
REMARK    2  A    between atoms: C2_3  and  C3_4 
ROOT
ATOM      1  C3  UNL d   1      -0.312   0.766  -0.189  0.00  0.00    -0.075 A 
ATOM      2  C4  UNL d   1       0.993   0.947  -0.669  0.00  0.00     0.002 A 
ATOM      3  C5  UNL d   1       1.943  -0.066  -0.536  0.00  0.00     0.002 A 
ATOM      4  C6  UNL d   1       1.604  -1.266   0.085  0.00  0.00    -0.004 A 
ATOM      5  C7  UNL d   1       0.315  -1.450   0.580  0.00  0.00     0.002 A 
ATOM      6  C8  UNL d   1      -0.639  -0.440   0.445  0.00  0.00     0.002 A 
ENDROOT
BRANCH   1   7
ATOM      7  C2  UNL d   1      -1.354   1.847  -0.356  0.00  0.00     0.056 C 
BRANCH   7   8
ATOM      8  C1  UNL d   1      -1.512   2.343  -1.797  0.00  0.00     0.007 C 
ATOM      9  C   UNL d   1      -2.072   1.286  -2.739  0.00  0.00     0.009 C 
ENDBRANCH   7   8
ENDBRANCH   1   7
TORSDOF 2
ENDMDL
