MODEL 1
REMARK minimizedAffinity -3.6111362
REMARK minimizedRMSD -1
REMARK  2 active torsions:
REMARK  status: ('A' for Active; 'I' for Inactive)
REMARK    1  A    between atoms: C1_2  and  C2_3 
REMARK    2  A    between atoms: C2_3  and  C3_4 
ROOT
ATOM      1  C3  UNL d   1      -0.894   0.792  -0.173  0.00  0.00    -0.075 A 
ATOM      2  C4  UNL d   1      -0.100  -0.360  -0.267  0.00  0.00     0.002 A 
ATOM      3  C5  UNL d   1      -0.223  -1.383   0.673  0.00  0.00     0.002 A 
ATOM      4  C6  UNL d   1      -1.131  -1.264   1.723  0.00  0.00    -0.004 A 
ATOM      5  C7  UNL d   1      -1.913  -0.116   1.835  0.00  0.00     0.002 A 
ATOM      6  C8  UNL d   1      -1.796   0.907   0.893  0.00  0.00     0.002 A 
ENDROOT
BRANCH   1   7
ATOM      7  C2  UNL d   1      -0.787   1.890  -1.205  0.00  0.00     0.056 C 
BRANCH   7   8
ATOM      8  C1  UNL d   1      -1.989   1.976  -2.151  0.00  0.00     0.007 C 
ATOM      9  C   UNL d   1      -1.600   2.292  -3.589  0.00  0.00     0.009 C 
ENDBRANCH   7   8
ENDBRANCH   1   7
TORSDOF 2
ENDMDL
