MODEL 1
REMARK minimizedAffinity -5.84921551
REMARK minimizedRMSD -1
REMARK  2 active torsions:
REMARK  status: ('A' for Active; 'I' for Inactive)
REMARK    1  A    between atoms: C1_2  and  C2_3 
REMARK    2  A    between atoms: C2_3  and  C3_4 
ROOT
ATOM      1  C3  UNL d   1       0.030  -0.072  -0.152  0.00  0.00    -0.075 A 
ATOM      2  C4  UNL d   1       1.351  -0.256  -0.585  0.00  0.00     0.002 A 
ATOM      3  C5  UNL d   1       2.082  -1.371  -0.174  0.00  0.00     0.002 A 
ATOM      4  C6  UNL d   1       1.507  -2.309   0.681  0.00  0.00    -0.004 A 
ATOM      5  C7  UNL d   1       0.201  -2.128   1.130  0.00  0.00     0.002 A 
ATOM      6  C8  UNL d   1      -0.535  -1.016   0.717  0.00  0.00     0.002 A 
ENDROOT
BRANCH   1   7
ATOM      7  C2  UNL d   1      -0.777   1.116  -0.617  0.00  0.00     0.056 C 
BRANCH   7   8
ATOM      8  C1  UNL d   1      -1.112   1.097  -2.112  0.00  0.00     0.007 C 
ATOM      9  C   UNL d   1      -2.598   1.269  -2.397  0.00  0.00     0.009 C 
ENDBRANCH   7   8
ENDBRANCH   1   7
TORSDOF 2
ENDMDL
