MODEL 1
REMARK minimizedAffinity -6.48102808
REMARK minimizedRMSD -1
REMARK  2 active torsions:
REMARK  status: ('A' for Active; 'I' for Inactive)
REMARK    1  A    between atoms: C1_2  and  C2_3 
REMARK    2  A    between atoms: C2_3  and  C3_4 
ROOT
ATOM      1  C3  UNL d   1      -0.288  -0.745   1.043  0.00  0.00    -0.075 A 
ATOM      2  C4  UNL d   1      -0.611  -1.426   2.226  0.00  0.00     0.002 A 
ATOM      3  C5  UNL d   1       0.155  -2.513   2.649  0.00  0.00     0.002 A 
ATOM      4  C6  UNL d   1       1.244  -2.939   1.891  0.00  0.00    -0.004 A 
ATOM      5  C7  UNL d   1       1.563  -2.280   0.706  0.00  0.00     0.002 A 
ATOM      6  C8  UNL d   1       0.802  -1.189   0.283  0.00  0.00     0.002 A 
ENDROOT
BRANCH   1   7
ATOM      7  C2  UNL d   1      -1.094   0.451   0.596  0.00  0.00     0.056 C 
BRANCH   7   8
ATOM      8  C1  UNL d   1      -0.439   1.260  -0.529  0.00  0.00     0.007 C 
ATOM      9  C   UNL d   1      -1.384   1.552  -1.687  0.00  0.00     0.009 C 
ENDBRANCH   7   8
ENDBRANCH   1   7
TORSDOF 2
ENDMDL
