MODEL 1
REMARK minimizedAffinity -2.24569273
REMARK minimizedRMSD -1
REMARK  0 active torsions:
REMARK  status: ('A' for Active; 'I' for Inactive)
ROOT
ATOM      1  C1  DEN d   1       1.944  -1.781   0.986  0.00  0.00     0.130 A 
ATOM      2  C2  DEN d   1       0.719  -2.524   0.706  0.00  0.00    -0.031 A 
ATOM      3  C3  DEN d   1      -0.291  -1.568   0.210  0.00  0.00     0.027 A 
ATOM      4  C4  DEN d   1      -0.075   0.977  -0.155  0.00  0.00     0.027 A 
ATOM      5  C5  DEN d   1       0.771   2.058  -0.047  0.00  0.00    -0.003 A 
ATOM      6  C6  DEN d   1       2.045   1.942   0.442  0.00  0.00     0.001 A 
ATOM      7  C7  DEN d   1       2.527   0.710   0.798  0.00  0.00     0.017 A 
ATOM      8  C8  DEN d   1       1.677  -0.384   0.698  0.00  0.00    -0.094 A 
ATOM      9  C9  DEN d   1       0.396  -0.248   0.191  0.00  0.00    -0.072 A 
ENDROOT
TORSDOF 0
ENDMDL
