MODEL 1
REMARK minimizedAffinity -1.52390301
REMARK minimizedRMSD -1
REMARK  0 active torsions:
REMARK  status: ('A' for Active; 'I' for Inactive)
ROOT
ATOM      1  C1  DEN d   1       0.110  -1.801   0.389  0.00  0.00     0.130 A 
ATOM      2  C2  DEN d   1      -1.178  -1.155   0.150  0.00  0.00    -0.031 A 
ATOM      3  C3  DEN d   1      -0.948   0.301   0.060  0.00  0.00     0.027 A 
ATOM      4  C4  DEN d   1       1.266   1.609   0.261  0.00  0.00     0.027 A 
ATOM      5  C5  DEN d   1       2.622   1.495   0.475  0.00  0.00    -0.003 A 
ATOM      6  C6  DEN d   1       3.225   0.288   0.708  0.00  0.00     0.001 A 
ATOM      7  C7  DEN d   1       2.478  -0.860   0.687  0.00  0.00     0.017 A 
ATOM      8  C8  DEN d   1       1.109  -0.752   0.478  0.00  0.00    -0.094 A 
ATOM      9  C9  DEN d   1       0.520   0.476   0.233  0.00  0.00    -0.072 A 
ENDROOT
TORSDOF 0
ENDMDL
