MODEL 1
REMARK minimizedAffinity -2.98910308
REMARK minimizedRMSD -1
REMARK  0 active torsions:
REMARK  status: ('A' for Active; 'I' for Inactive)
ROOT
ATOM      1  C1  DEN d   1       2.442  -1.071   2.536  0.00  0.00     0.130 A 
ATOM      2  C2  DEN d   1       1.624  -2.273   2.673  0.00  0.00    -0.031 A 
ATOM      3  C3  DEN d   1       0.425  -2.108   1.827  0.00  0.00     0.027 A 
ATOM      4  C4  DEN d   1      -0.238  -0.121   0.322  0.00  0.00     0.027 A 
ATOM      5  C5  DEN d   1       0.134   1.133  -0.110  0.00  0.00    -0.003 A 
ATOM      6  C6  DEN d   1       1.275   1.749   0.331  0.00  0.00     0.001 A 
ATOM      7  C7  DEN d   1       2.108   1.093   1.199  0.00  0.00     0.017 A 
ATOM      8  C8  DEN d   1       1.736  -0.168   1.645  0.00  0.00    -0.094 A 
ATOM      9  C9  DEN d   1       0.585  -0.779   1.178  0.00  0.00    -0.072 A 
ENDROOT
TORSDOF 0
ENDMDL
