MODEL 1
REMARK minimizedAffinity -3.46077466
REMARK minimizedRMSD -1
REMARK  0 active torsions:
REMARK  status: ('A' for Active; 'I' for Inactive)
ROOT
ATOM      1  C1  DEN d   1      -1.268   0.410  -0.448  0.00  0.00     0.130 A 
ATOM      2  C2  DEN d   1      -1.871  -0.784   0.138  0.00  0.00    -0.031 A 
ATOM      3  C3  DEN d   1      -0.948  -1.304   1.166  0.00  0.00     0.027 A 
ATOM      4  C4  DEN d   1       1.342  -0.379   1.908  0.00  0.00     0.027 A 
ATOM      5  C5  DEN d   1       2.278   0.608   1.692  0.00  0.00    -0.003 A 
ATOM      6  C6  DEN d   1       2.114   1.571   0.731  0.00  0.00     0.001 A 
ATOM      7  C7  DEN d   1       0.967   1.594  -0.018  0.00  0.00     0.017 A 
ATOM      8  C8  DEN d   1       0.023   0.597   0.189  0.00  0.00    -0.094 A 
ATOM      9  C9  DEN d   1       0.202  -0.360   1.173  0.00  0.00    -0.072 A 
ENDROOT
TORSDOF 0
ENDMDL
