MODEL 1
REMARK minimizedAffinity -5.24039602
REMARK minimizedRMSD -1
REMARK  0 active torsions:
REMARK  status: ('A' for Active; 'I' for Inactive)
ROOT
ATOM      1  C1  DEN d   1      -1.264  -0.832   0.133  0.00  0.00     0.130 A 
ATOM      2  C2  DEN d   1      -1.316   0.390  -0.664  0.00  0.00    -0.031 A 
ATOM      3  C3  DEN d   1      -0.025   1.091  -0.511  0.00  0.00     0.027 A 
ATOM      4  C4  DEN d   1       2.040   0.404   0.872  0.00  0.00     0.027 A 
ATOM      5  C5  DEN d   1       2.554  -0.548   1.725  0.00  0.00    -0.003 A 
ATOM      6  C6  DEN d   1       1.825  -1.634   2.131  0.00  0.00     0.001 A 
ATOM      7  C7  DEN d   1       0.557  -1.819   1.648  0.00  0.00     0.017 A 
ATOM      8  C8  DEN d   1       0.029  -0.861   0.793  0.00  0.00    -0.094 A 
ATOM      9  C9  DEN d   1       0.786   0.224   0.385  0.00  0.00    -0.072 A 
ENDROOT
TORSDOF 0
ENDMDL
