MODEL 1
REMARK minimizedAffinity -4.52689838
REMARK minimizedRMSD -1
REMARK  0 active torsions:
REMARK  status: ('A' for Active; 'I' for Inactive)
ROOT
ATOM      1  C1  DEN d   1       0.025  -1.426  -0.826  0.00  0.00     0.130 A 
ATOM      2  C2  DEN d   1      -1.278  -0.765  -0.831  0.00  0.00    -0.031 A 
ATOM      3  C3  DEN d   1      -1.125   0.550  -0.177  0.00  0.00     0.027 A 
ATOM      4  C4  DEN d   1       0.992   1.624   0.832  0.00  0.00     0.027 A 
ATOM      5  C5  DEN d   1       2.334   1.440   1.082  0.00  0.00    -0.003 A 
ATOM      6  C6  DEN d   1       2.988   0.284   0.746  0.00  0.00     0.001 A 
ATOM      7  C7  DEN d   1       2.309  -0.716   0.101  0.00  0.00     0.017 A 
ATOM      8  C8  DEN d   1       0.955  -0.541  -0.148  0.00  0.00    -0.094 A 
ATOM      9  C9  DEN d   1       0.315   0.640   0.188  0.00  0.00    -0.072 A 
ENDROOT
TORSDOF 0
ENDMDL
