MODEL 1
REMARK minimizedAffinity -2.17087007
REMARK minimizedRMSD -1
REMARK  0 active torsions:
REMARK  status: ('A' for Active; 'I' for Inactive)
ROOT
ATOM      1  C1  DEN d   1      -1.376   0.990  -0.532  0.00  0.00     0.130 A 
ATOM      2  C2  DEN d   1      -2.653   0.294  -0.394  0.00  0.00    -0.031 A 
ATOM      3  C3  DEN d   1      -2.397  -1.004   0.262  0.00  0.00     0.027 A 
ATOM      4  C4  DEN d   1      -0.160  -1.997   1.077  0.00  0.00     0.027 A 
ATOM      5  C5  DEN d   1       1.197  -1.781   1.166  0.00  0.00    -0.003 A 
ATOM      6  C6  DEN d   1       1.792  -0.651   0.670  0.00  0.00     0.001 A 
ATOM      7  C7  DEN d   1       1.020   0.328   0.101  0.00  0.00     0.017 A 
ATOM      8  C8  DEN d   1      -0.348   0.114   0.000  0.00  0.00    -0.094 A 
ATOM      9  C9  DEN d   1      -0.932  -1.029   0.519  0.00  0.00    -0.072 A 
ENDROOT
TORSDOF 0
ENDMDL
