MODEL 1
REMARK minimizedAffinity 1.62018931
REMARK minimizedRMSD -1
REMARK  0 active torsions:
REMARK  status: ('A' for Active; 'I' for Inactive)
ROOT
ATOM      1  C1  DEN d   1       1.625   0.720  -0.095  0.00  0.00     0.130 A 
ATOM      2  C2  DEN d   1       1.984   0.228   1.232  0.00  0.00    -0.031 A 
ATOM      3  C3  DEN d   1       0.829  -0.517   1.771  0.00  0.00     0.027 A 
ATOM      4  C4  DEN d   1      -1.467  -0.959   0.682  0.00  0.00     0.027 A 
ATOM      5  C5  DEN d   1      -2.243  -0.731  -0.433  0.00  0.00    -0.003 A 
ATOM      6  C6  DEN d   1      -1.800   0.018  -1.490  0.00  0.00     0.001 A 
ATOM      7  C7  DEN d   1      -0.530   0.530  -1.475  0.00  0.00     0.017 A 
ATOM      8  C8  DEN d   1       0.256   0.311  -0.351  0.00  0.00    -0.094 A 
ATOM      9  C9  DEN d   1      -0.206  -0.459   0.703  0.00  0.00    -0.072 A 
ENDROOT
TORSDOF 0
ENDMDL
