MODEL 1
REMARK minimizedAffinity -1.77849472
REMARK minimizedRMSD -1
REMARK  0 active torsions:
REMARK  status: ('A' for Active; 'I' for Inactive)
ROOT
ATOM      1  C1  DEN d   1       0.241  -1.739   0.062  0.00  0.00     0.130 A 
ATOM      2  C2  DEN d   1      -0.999  -1.044   0.396  0.00  0.00    -0.031 A 
ATOM      3  C3  DEN d   1      -0.652   0.319   0.847  0.00  0.00     0.027 A 
ATOM      4  C4  DEN d   1       1.674   1.416   1.054  0.00  0.00     0.027 A 
ATOM      5  C5  DEN d   1       3.027   1.216   0.896  0.00  0.00    -0.003 A 
ATOM      6  C6  DEN d   1       3.545   0.016   0.485  0.00  0.00     0.001 A 
ATOM      7  C7  DEN d   1       2.700  -1.017   0.174  0.00  0.00     0.017 A 
ATOM      8  C8  DEN d   1       1.335  -0.825   0.338  0.00  0.00    -0.094 A 
ATOM      9  C9  DEN d   1       0.830   0.399   0.743  0.00  0.00    -0.072 A 
ENDROOT
TORSDOF 0
ENDMDL
