MODEL 1
REMARK minimizedAffinity -1.63472855
REMARK minimizedRMSD -1
REMARK  0 active torsions:
REMARK  status: ('A' for Active; 'I' for Inactive)
ROOT
ATOM      1  C   UNL d   1      -0.079  -3.365   0.240  0.00  0.00     0.023 A 
ATOM      2  C1  UNL d   1       1.121  -2.675   0.069  0.00  0.00     0.003 A 
ATOM      3  C2  UNL d   1       1.145  -1.281   0.151  0.00  0.00     0.048 A 
ATOM      4  C3  UNL d   1      -0.035  -0.583   0.405  0.00  0.00     0.023 A 
ATOM      5  C4  UNL d   1      -1.239  -1.269   0.579  0.00  0.00     0.048 A 
ATOM      6  C5  UNL d   1      -1.258  -2.663   0.495  0.00  0.00     0.003 A 
ATOM      7  I   UNL d   1      -0.003   1.491   0.528  0.00  0.00    -0.146 I 
ENDROOT
TORSDOF 0
ENDMDL
