MODEL 1
REMARK minimizedAffinity -2.95154214
REMARK minimizedRMSD -1
REMARK  0 active torsions:
REMARK  status: ('A' for Active; 'I' for Inactive)
ROOT
ATOM      1  C   UNL d   1       0.409  -3.334  -0.028  0.00  0.00     0.023 A 
ATOM      2  C1  UNL d   1       0.976  -2.605  -1.073  0.00  0.00     0.003 A 
ATOM      3  C2  UNL d   1       0.888  -1.212  -1.082  0.00  0.00     0.048 A 
ATOM      4  C3  UNL d   1       0.234  -0.554  -0.042  0.00  0.00     0.023 A 
ATOM      5  C4  UNL d   1      -0.334  -1.279   1.007  0.00  0.00     0.048 A 
ATOM      6  C5  UNL d   1      -0.245  -2.672   1.011  0.00  0.00     0.003 A 
ATOM      7  I   UNL d   1       0.102   1.521  -0.053  0.00  0.00    -0.146 I 
ENDROOT
TORSDOF 0
ENDMDL
