MODEL 1
REMARK minimizedAffinity -1.90089953
REMARK minimizedRMSD -1
REMARK  0 active torsions:
REMARK  status: ('A' for Active; 'I' for Inactive)
ROOT
ATOM      1  C   UNL d   1       0.028   1.577   0.510  0.00  0.00     0.023 A 
ATOM      2  C1  UNL d   1      -1.140   0.818   0.592  0.00  0.00     0.003 A 
ATOM      3  C2  UNL d   1      -1.099  -0.556   0.348  0.00  0.00     0.048 A 
ATOM      4  C3  UNL d   1       0.113  -1.165   0.023  0.00  0.00     0.023 A 
ATOM      5  C4  UNL d   1       1.284  -0.410  -0.058  0.00  0.00     0.048 A 
ATOM      6  C5  UNL d   1       1.238   0.964   0.185  0.00  0.00     0.003 A 
ATOM      7  I   UNL d   1       0.176  -3.211  -0.340  0.00  0.00    -0.146 I 
ENDROOT
TORSDOF 0
ENDMDL
