MODEL 1
REMARK minimizedAffinity -1.71417761
REMARK minimizedRMSD -1
REMARK  0 active torsions:
REMARK  status: ('A' for Active; 'I' for Inactive)
ROOT
ATOM      1  C   UNL d   1      -0.071  -1.335  -0.151  0.00  0.00     0.023 A 
ATOM      2  C1  UNL d   1       0.542  -1.031   1.065  0.00  0.00     0.003 A 
ATOM      3  C2  UNL d   1       1.008   0.262   1.309  0.00  0.00     0.048 A 
ATOM      4  C3  UNL d   1       0.855   1.248   0.334  0.00  0.00     0.023 A 
ATOM      5  C4  UNL d   1       0.241   0.949  -0.883  0.00  0.00     0.048 A 
ATOM      6  C5  UNL d   1      -0.221  -0.347  -1.123  0.00  0.00     0.003 A 
ATOM      7  I   UNL d   1       1.547   3.174   0.696  0.00  0.00    -0.146 I 
ENDROOT
TORSDOF 0
ENDMDL
