MODEL 1
REMARK minimizedAffinity -2.9219079
REMARK minimizedRMSD -1
REMARK  0 active torsions:
REMARK  status: ('A' for Active; 'I' for Inactive)
ROOT
ATOM      1  C   UNL d   1       0.328  -3.400  -1.614  0.00  0.00     0.023 A 
ATOM      2  C1  UNL d   1       0.048  -2.973  -0.317  0.00  0.00     0.003 A 
ATOM      3  C2  UNL d   1       0.033  -1.609  -0.017  0.00  0.00     0.048 A 
ATOM      4  C3  UNL d   1       0.298  -0.678  -1.021  0.00  0.00     0.023 A 
ATOM      5  C4  UNL d   1       0.578  -1.101  -2.321  0.00  0.00     0.048 A 
ATOM      6  C5  UNL d   1       0.593  -2.465  -2.615  0.00  0.00     0.003 A 
ATOM      7  I   UNL d   1       0.275   1.353  -0.578  0.00  0.00    -0.146 I 
ENDROOT
TORSDOF 0
ENDMDL
