MODEL 1
REMARK minimizedAffinity -3.62792301
REMARK minimizedRMSD -1
REMARK  0 active torsions:
REMARK  status: ('A' for Active; 'I' for Inactive)
ROOT
ATOM      1  C   UNL d   1      -0.413   1.118  -2.257  0.00  0.00     0.023 A 
ATOM      2  C1  UNL d   1      -0.693   1.251  -0.897  0.00  0.00     0.003 A 
ATOM      3  C2  UNL d   1      -0.514   0.166  -0.037  0.00  0.00     0.048 A 
ATOM      4  C3  UNL d   1      -0.053  -1.049  -0.542  0.00  0.00     0.023 A 
ATOM      5  C4  UNL d   1       0.230  -1.186  -1.902  0.00  0.00     0.048 A 
ATOM      6  C5  UNL d   1       0.049  -0.099  -2.759  0.00  0.00     0.003 A 
ATOM      7  I   UNL d   1       0.214  -2.665   0.737  0.00  0.00    -0.146 I 
ENDROOT
TORSDOF 0
ENDMDL
