MODEL 1
REMARK minimizedAffinity -1.35231984
REMARK minimizedRMSD -1
REMARK  0 active torsions:
REMARK  status: ('A' for Active; 'I' for Inactive)
ROOT
ATOM      1  C   UNL d   1      -0.665  -2.641   0.790  0.00  0.00     0.023 A 
ATOM      2  C1  UNL d   1      -1.483  -1.536   1.029  0.00  0.00     0.003 A 
ATOM      3  C2  UNL d   1      -1.050  -0.257   0.675  0.00  0.00     0.048 A 
ATOM      4  C3  UNL d   1       0.201  -0.089   0.081  0.00  0.00     0.023 A 
ATOM      5  C4  UNL d   1       1.022  -1.192  -0.160  0.00  0.00     0.048 A 
ATOM      6  C5  UNL d   1       0.585  -2.469   0.196  0.00  0.00     0.003 A 
ATOM      7  I   UNL d   1       0.847   1.815  -0.446  0.00  0.00    -0.146 I 
ENDROOT
TORSDOF 0
ENDMDL
