MODEL 1
REMARK minimizedAffinity -1.11083162
REMARK minimizedRMSD -1
REMARK  0 active torsions:
REMARK  status: ('A' for Active; 'I' for Inactive)
ROOT
ATOM      1  C   UNL d   1       0.266  -0.777  -0.931  0.00  0.00     0.023 A 
ATOM      2  C1  UNL d   1       0.439   0.283  -1.821  0.00  0.00     0.003 A 
ATOM      3  C2  UNL d   1       0.521   1.592  -1.342  0.00  0.00     0.048 A 
ATOM      4  C3  UNL d   1       0.432   1.834   0.028  0.00  0.00     0.023 A 
ATOM      5  C4  UNL d   1       0.260   0.776   0.923  0.00  0.00     0.048 A 
ATOM      6  C5  UNL d   1       0.177  -0.531   0.439  0.00  0.00     0.003 A 
ATOM      7  I   UNL d   1       0.555   3.781   0.744  0.00  0.00    -0.146 I 
ENDROOT
TORSDOF 0
ENDMDL
