MODEL 1
REMARK minimizedAffinity 0.964821875
REMARK minimizedRMSD -1
REMARK  0 active torsions:
REMARK  status: ('A' for Active; 'I' for Inactive)
ROOT
ATOM      1  C   UNL d   1       2.717   4.239   0.548  0.00  0.00     0.023 A 
ATOM      2  C1  UNL d   1       3.070   3.519  -0.594  0.00  0.00     0.003 A 
ATOM      3  C2  UNL d   1       2.266   2.464  -1.032  0.00  0.00     0.048 A 
ATOM      4  C3  UNL d   1       1.110   2.136  -0.324  0.00  0.00     0.023 A 
ATOM      5  C4  UNL d   1       0.753   2.854   0.818  0.00  0.00     0.048 A 
ATOM      6  C5  UNL d   1       1.561   3.907   1.253  0.00  0.00     0.003 A 
ATOM      7  I   UNL d   1      -0.088   0.567  -0.974  0.00  0.00    -0.146 I 
ENDROOT
TORSDOF 0
ENDMDL
