MODEL 1
REMARK minimizedAffinity -3.26543212
REMARK minimizedRMSD -1
REMARK  0 active torsions:
REMARK  status: ('A' for Active; 'I' for Inactive)
ROOT
ATOM      1  C   UNL d   1      -0.116  -3.071   0.308  0.00  0.00     0.023 A 
ATOM      2  C1  UNL d   1       0.572  -2.634  -0.824  0.00  0.00     0.003 A 
ATOM      3  C2  UNL d   1       0.648  -1.270  -1.113  0.00  0.00     0.048 A 
ATOM      4  C3  UNL d   1       0.033  -0.349  -0.265  0.00  0.00     0.023 A 
ATOM      5  C4  UNL d   1      -0.656  -0.782   0.869  0.00  0.00     0.048 A 
ATOM      6  C5  UNL d   1      -0.729  -2.147   1.153  0.00  0.00     0.003 A 
ATOM      7  I   UNL d   1       0.144   1.682  -0.693  0.00  0.00    -0.146 I 
ENDROOT
TORSDOF 0
ENDMDL
