MODEL 1
REMARK minimizedAffinity -4.58321905
REMARK minimizedRMSD -1
REMARK  0 active torsions:
REMARK  status: ('A' for Active; 'I' for Inactive)
ROOT
ATOM      1  C   UNL d   1      -0.060  -3.222  -1.091  0.00  0.00     0.023 A 
ATOM      2  C1  UNL d   1      -0.228  -2.804   0.229  0.00  0.00     0.003 A 
ATOM      3  C2  UNL d   1      -0.114  -1.450   0.553  0.00  0.00     0.048 A 
ATOM      4  C3  UNL d   1       0.167  -0.521  -0.447  0.00  0.00     0.023 A 
ATOM      5  C4  UNL d   1       0.335  -0.935  -1.769  0.00  0.00     0.048 A 
ATOM      6  C5  UNL d   1       0.221  -2.289  -2.089  0.00  0.00     0.003 A 
ATOM      7  I   UNL d   1       0.337   1.494   0.033  0.00  0.00    -0.146 I 
ENDROOT
TORSDOF 0
ENDMDL
