MODEL 1
REMARK minimizedAffinity -0.737356842
REMARK minimizedRMSD -1
REMARK  0 active torsions:
REMARK  status: ('A' for Active; 'I' for Inactive)
ROOT
ATOM      1  C   UNL d   1      -0.162  -3.413   0.500  0.00  0.00     0.023 A 
ATOM      2  C1  UNL d   1       1.090  -2.946   0.102  0.00  0.00     0.003 A 
ATOM      3  C2  UNL d   1       1.296  -1.580  -0.100  0.00  0.00     0.048 A 
ATOM      4  C3  UNL d   1       0.245  -0.686   0.099  0.00  0.00     0.023 A 
ATOM      5  C4  UNL d   1      -1.010  -1.148   0.498  0.00  0.00     0.048 A 
ATOM      6  C5  UNL d   1      -1.212  -2.515   0.697  0.00  0.00     0.003 A 
ATOM      7  I   UNL d   1       0.549   1.348  -0.201  0.00  0.00    -0.146 I 
ENDROOT
TORSDOF 0
ENDMDL
