MODEL 1
REMARK minimizedAffinity -4.31829214
REMARK minimizedRMSD -1
REMARK  0 active torsions:
REMARK  status: ('A' for Active; 'I' for Inactive)
ROOT
ATOM      1  C   UNL d   1      -0.878  -2.310   0.953  0.00  0.00     0.023 A 
ATOM      2  C1  UNL d   1       0.097  -2.088  -0.020  0.00  0.00     0.003 A 
ATOM      3  C2  UNL d   1       0.483  -0.785  -0.339  0.00  0.00     0.048 A 
ATOM      4  C3  UNL d   1      -0.109   0.293   0.319  0.00  0.00     0.023 A 
ATOM      5  C4  UNL d   1      -1.085   0.076   1.294  0.00  0.00     0.048 A 
ATOM      6  C5  UNL d   1      -1.468  -1.229   1.609  0.00  0.00     0.003 A 
ATOM      7  I   UNL d   1       0.464   2.233  -0.154  0.00  0.00    -0.146 I 
ENDROOT
TORSDOF 0
ENDMDL
