MODEL 1
REMARK minimizedAffinity -4.09692812
REMARK minimizedRMSD -1
REMARK  0 active torsions:
REMARK  status: ('A' for Active; 'I' for Inactive)
ROOT
ATOM      1  C   UNL d   1      -0.908   1.427   0.891  0.00  0.00     0.023 A 
ATOM      2  C1  UNL d   1       0.002   1.073  -0.106  0.00  0.00     0.003 A 
ATOM      3  C2  UNL d   1       0.365  -0.264  -0.279  0.00  0.00     0.048 A 
ATOM      4  C3  UNL d   1      -0.186  -1.243   0.548  0.00  0.00     0.023 A 
ATOM      5  C4  UNL d   1      -1.097  -0.894   1.546  0.00  0.00     0.048 A 
ATOM      6  C5  UNL d   1      -1.456   0.445   1.716  0.00  0.00     0.003 A 
ATOM      7  I   UNL d   1       0.354  -3.234   0.293  0.00  0.00    -0.146 I 
ENDROOT
TORSDOF 0
ENDMDL
