MODEL 1
REMARK minimizedAffinity -1.10395455
REMARK minimizedRMSD -1
REMARK  0 active torsions:
REMARK  status: ('A' for Active; 'I' for Inactive)
ROOT
ATOM      1  C   UNL d   1       0.034   2.784   3.879  0.00  0.00     0.078 C 
ATOM      2  C1  UNL d   1      -0.949   2.203   2.908  0.00  0.00    -0.077 A 
ATOM      3  C2  UNL d   1      -0.816   0.887   2.447  0.00  0.00    -0.001 A 
ATOM      4  C3  UNL d   1      -1.733   0.363   1.535  0.00  0.00     0.003 A 
ATOM      5  C4  UNL d   1      -2.789   1.147   1.075  0.00  0.00    -0.005 A 
ATOM      6  C5  UNL d   1      -2.928   2.458   1.525  0.00  0.00     0.003 A 
ATOM      7  C6  UNL d   1      -2.012   2.985   2.437  0.00  0.00    -0.001 A 
ENDROOT
TORSDOF 0
ENDMDL
