MODEL 1
REMARK minimizedAffinity -1.76056015
REMARK minimizedRMSD -1
REMARK  0 active torsions:
REMARK  status: ('A' for Active; 'I' for Inactive)
ROOT
ATOM      1  C   UNL d   1      -2.531   2.421   1.369  0.00  0.00     0.078 C 
ATOM      2  C1  UNL d   1      -1.307   1.618   1.047  0.00  0.00    -0.077 A 
ATOM      3  C2  UNL d   1      -0.686   1.719  -0.203  0.00  0.00    -0.001 A 
ATOM      4  C3  UNL d   1       0.448   0.958  -0.493  0.00  0.00     0.003 A 
ATOM      5  C4  UNL d   1       0.969   0.089   0.463  0.00  0.00    -0.005 A 
ATOM      6  C5  UNL d   1       0.357  -0.021   1.710  0.00  0.00     0.003 A 
ATOM      7  C6  UNL d   1      -0.777   0.739   2.001  0.00  0.00    -0.001 A 
ENDROOT
TORSDOF 0
ENDMDL
