MODEL 1
REMARK minimizedAffinity 2.49374247
REMARK minimizedRMSD -1
REMARK  0 active torsions:
REMARK  status: ('A' for Active; 'I' for Inactive)
ROOT
ATOM      1  C   UNL d   1       0.117   2.198  -0.907  0.00  0.00     0.078 C 
ATOM      2  C1  UNL d   1      -0.572   1.907   0.392  0.00  0.00    -0.077 A 
ATOM      3  C2  UNL d   1       0.098   1.252   1.433  0.00  0.00    -0.001 A 
ATOM      4  C3  UNL d   1      -0.559   0.979   2.634  0.00  0.00     0.003 A 
ATOM      5  C4  UNL d   1      -1.890   1.356   2.805  0.00  0.00    -0.005 A 
ATOM      6  C5  UNL d   1      -2.565   2.007   1.774  0.00  0.00     0.003 A 
ATOM      7  C6  UNL d   1      -1.909   2.281   0.573  0.00  0.00    -0.001 A 
ENDROOT
TORSDOF 0
ENDMDL
