MODEL 1
REMARK minimizedAffinity 6.95102215
REMARK minimizedRMSD -1
REMARK  0 active torsions:
REMARK  status: ('A' for Active; 'I' for Inactive)
ROOT
ATOM      1  C   UNL d   1       0.318   1.516  -1.325  0.00  0.00     0.078 C 
ATOM      2  C1  UNL d   1      -0.669   1.787  -0.229  0.00  0.00    -0.077 A 
ATOM      3  C2  UNL d   1      -0.361   1.497   1.106  0.00  0.00    -0.001 A 
ATOM      4  C3  UNL d   1      -1.293   1.745   2.115  0.00  0.00     0.003 A 
ATOM      5  C4  UNL d   1      -2.539   2.283   1.800  0.00  0.00    -0.005 A 
ATOM      6  C5  UNL d   1      -2.855   2.573   0.474  0.00  0.00     0.003 A 
ATOM      7  C6  UNL d   1      -1.924   2.325  -0.536  0.00  0.00    -0.001 A 
ENDROOT
TORSDOF 0
ENDMDL
