MODEL 1
REMARK minimizedAffinity 10.3646717
REMARK minimizedRMSD -1
REMARK  0 active torsions:
REMARK  status: ('A' for Active; 'I' for Inactive)
ROOT
ATOM      1  C   UNL d   1       0.715   2.062  -1.542  0.00  0.00     0.078 C 
ATOM      2  C1  UNL d   1       0.753   0.564  -1.582  0.00  0.00    -0.077 A 
ATOM      3  C2  UNL d   1      -0.098  -0.157  -2.429  0.00  0.00    -0.001 A 
ATOM      4  C3  UNL d   1      -0.058  -1.552  -2.449  0.00  0.00     0.003 A 
ATOM      5  C4  UNL d   1       0.829  -2.238  -1.624  0.00  0.00    -0.005 A 
ATOM      6  C5  UNL d   1       1.679  -1.530  -0.776  0.00  0.00     0.003 A 
ATOM      7  C6  UNL d   1       1.640  -0.135  -0.755  0.00  0.00    -0.001 A 
ENDROOT
TORSDOF 0
ENDMDL
