MODEL 1
REMARK minimizedAffinity 3.47776985
REMARK minimizedRMSD -1
REMARK  0 active torsions:
REMARK  status: ('A' for Active; 'I' for Inactive)
ROOT
ATOM      1  C   UNL d   1       0.296   1.880  -1.345  0.00  0.00     0.078 C 
ATOM      2  C1  UNL d   1      -0.696   2.102  -0.243  0.00  0.00    -0.077 A 
ATOM      3  C2  UNL d   1      -0.351   1.874   1.095  0.00  0.00    -0.001 A 
ATOM      4  C3  UNL d   1      -1.288   2.075   2.110  0.00  0.00     0.003 A 
ATOM      5  C4  UNL d   1      -2.576   2.504   1.798  0.00  0.00    -0.005 A 
ATOM      6  C5  UNL d   1      -2.930   2.731   0.470  0.00  0.00     0.003 A 
ATOM      7  C6  UNL d   1      -1.995   2.530  -0.547  0.00  0.00    -0.001 A 
ENDROOT
TORSDOF 0
ENDMDL
