MODEL 1
REMARK minimizedAffinity 7.52826786
REMARK minimizedRMSD -1
REMARK  0 active torsions:
REMARK  status: ('A' for Active; 'I' for Inactive)
ROOT
ATOM      1  C   UNL d   1       2.590  -2.376  -5.307  0.00  0.00     0.078 C 
ATOM      2  C1  UNL d   1       3.694  -2.975  -4.487  0.00  0.00    -0.077 A 
ATOM      3  C2  UNL d   1       3.472  -4.109  -3.697  0.00  0.00    -0.001 A 
ATOM      4  C3  UNL d   1       4.506  -4.650  -2.931  0.00  0.00     0.003 A 
ATOM      5  C4  UNL d   1       5.769  -4.061  -2.947  0.00  0.00    -0.005 A 
ATOM      6  C5  UNL d   1       5.999  -2.931  -3.728  0.00  0.00     0.003 A 
ATOM      7  C6  UNL d   1       4.966  -2.389  -4.494  0.00  0.00    -0.001 A 
ENDROOT
TORSDOF 0
ENDMDL
