MODEL 1
REMARK minimizedAffinity 3.8528657
REMARK minimizedRMSD -1
REMARK  0 active torsions:
REMARK  status: ('A' for Active; 'I' for Inactive)
ROOT
ATOM      1  C   UNL d   1       4.864  -5.620  -2.553  0.00  0.00     0.078 C 
ATOM      2  C1  UNL d   1       5.264  -4.953  -1.271  0.00  0.00    -0.077 A 
ATOM      3  C2  UNL d   1       5.263  -5.657  -0.061  0.00  0.00    -0.001 A 
ATOM      4  C3  UNL d   1       5.629  -5.021   1.127  0.00  0.00     0.003 A 
ATOM      5  C4  UNL d   1       5.998  -3.677   1.115  0.00  0.00    -0.005 A 
ATOM      6  C5  UNL d   1       6.000  -2.968  -0.084  0.00  0.00     0.003 A 
ATOM      7  C6  UNL d   1       5.634  -3.603  -1.272  0.00  0.00    -0.001 A 
ENDROOT
TORSDOF 0
ENDMDL
