MODEL 1
REMARK minimizedAffinity -1.06414568
REMARK minimizedRMSD -1
REMARK  0 active torsions:
REMARK  status: ('A' for Active; 'I' for Inactive)
ROOT
ATOM      1  C   UNL d   1      -2.098  -0.657   3.275  0.00  0.00     0.078 C 
ATOM      2  C1  UNL d   1      -2.054   0.542   2.375  0.00  0.00    -0.077 A 
ATOM      3  C2  UNL d   1      -3.188   0.951   1.663  0.00  0.00    -0.001 A 
ATOM      4  C3  UNL d   1      -3.130   2.063   0.821  0.00  0.00     0.003 A 
ATOM      5  C4  UNL d   1      -1.940   2.774   0.683  0.00  0.00    -0.005 A 
ATOM      6  C5  UNL d   1      -0.806   2.373   1.386  0.00  0.00     0.003 A 
ATOM      7  C6  UNL d   1      -0.862   1.262   2.228  0.00  0.00    -0.001 A 
ENDROOT
TORSDOF 0
ENDMDL
