MODEL 1
REMARK minimizedAffinity -0.771692395
REMARK minimizedRMSD -1
REMARK  0 active torsions:
REMARK  status: ('A' for Active; 'I' for Inactive)
ROOT
ATOM      1  C   UNL d   1       2.007  -4.422   0.736  0.00  0.00     0.078 C 
ATOM      2  C1  UNL d   1       3.238  -3.567   0.781  0.00  0.00    -0.077 A 
ATOM      3  C2  UNL d   1       4.514  -4.135   0.683  0.00  0.00    -0.001 A 
ATOM      4  C3  UNL d   1       5.652  -3.328   0.736  0.00  0.00     0.003 A 
ATOM      5  C4  UNL d   1       5.524  -1.948   0.890  0.00  0.00    -0.005 A 
ATOM      6  C5  UNL d   1       4.259  -1.375   0.991  0.00  0.00     0.003 A 
ATOM      7  C6  UNL d   1       3.120  -2.181   0.938  0.00  0.00    -0.001 A 
ENDROOT
TORSDOF 0
ENDMDL
