MODEL 1
REMARK minimizedAffinity 5.42615223
REMARK minimizedRMSD -1
REMARK  0 active torsions:
REMARK  status: ('A' for Active; 'I' for Inactive)
ROOT
ATOM      1  C   UNL d   1       0.637   2.507   3.336  0.00  0.00     0.078 C 
ATOM      2  C1  UNL d   1      -0.625   2.377   2.536  0.00  0.00    -0.077 A 
ATOM      3  C2  UNL d   1      -0.936   3.295   1.525  0.00  0.00    -0.001 A 
ATOM      4  C3  UNL d   1      -2.118   3.166   0.795  0.00  0.00     0.003 A 
ATOM      5  C4  UNL d   1      -3.000   2.122   1.068  0.00  0.00    -0.005 A 
ATOM      6  C5  UNL d   1      -2.700   1.206   2.074  0.00  0.00     0.003 A 
ATOM      7  C6  UNL d   1      -1.518   1.332   2.805  0.00  0.00    -0.001 A 
ENDROOT
TORSDOF 0
ENDMDL
