MODEL 1
REMARK minimizedAffinity 0.85532093
REMARK minimizedRMSD -1
REMARK  0 active torsions:
REMARK  status: ('A' for Active; 'I' for Inactive)
ROOT
ATOM      1  C   UNL d   1       3.932  -5.298   1.697  0.00  0.00     0.078 C 
ATOM      2  C1  UNL d   1       4.241  -3.897   1.262  0.00  0.00    -0.077 A 
ATOM      3  C2  UNL d   1       5.564  -3.450   1.156  0.00  0.00    -0.001 A 
ATOM      4  C3  UNL d   1       5.837  -2.140   0.760  0.00  0.00     0.003 A 
ATOM      5  C4  UNL d   1       4.792  -1.265   0.468  0.00  0.00    -0.005 A 
ATOM      6  C5  UNL d   1       3.473  -1.700   0.573  0.00  0.00     0.003 A 
ATOM      7  C6  UNL d   1       3.198  -3.010   0.969  0.00  0.00    -0.001 A 
ENDROOT
TORSDOF 0
ENDMDL
