MODEL 1
REMARK minimizedAffinity 6.86539841
REMARK minimizedRMSD -1
REMARK  0 active torsions:
REMARK  status: ('A' for Active; 'I' for Inactive)
ROOT
ATOM      1  C   UNL d   1       0.993   2.963   2.639  0.00  0.00     0.078 C 
ATOM      2  C1  UNL d   1      -0.392   2.501   2.297  0.00  0.00    -0.077 A 
ATOM      3  C2  UNL d   1      -0.987   1.437   2.985  0.00  0.00    -0.001 A 
ATOM      4  C3  UNL d   1      -2.274   1.011   2.650  0.00  0.00     0.003 A 
ATOM      5  C4  UNL d   1      -2.974   1.642   1.624  0.00  0.00    -0.005 A 
ATOM      6  C5  UNL d   1      -2.389   2.701   0.932  0.00  0.00     0.003 A 
ATOM      7  C6  UNL d   1      -1.103   3.128   1.266  0.00  0.00    -0.001 A 
ENDROOT
TORSDOF 0
ENDMDL
