MODEL 1
REMARK minimizedAffinity 1.30781567
REMARK minimizedRMSD -1
REMARK  0 active torsions:
REMARK  status: ('A' for Active; 'I' for Inactive)
ROOT
ATOM      1  C   UNL d   1       0.654   5.469  -0.094  0.00  0.00     0.078 C 
ATOM      2  C1  UNL d   1       0.415   4.002  -0.298  0.00  0.00    -0.077 A 
ATOM      3  C2  UNL d   1       0.915   3.341  -1.426  0.00  0.00    -0.001 A 
ATOM      4  C3  UNL d   1       0.677   1.977  -1.608  0.00  0.00     0.003 A 
ATOM      5  C4  UNL d   1      -0.061   1.264  -0.666  0.00  0.00    -0.005 A 
ATOM      6  C5  UNL d   1      -0.564   1.915   0.459  0.00  0.00     0.003 A 
ATOM      7  C6  UNL d   1      -0.328   3.278   0.642  0.00  0.00    -0.001 A 
ENDROOT
TORSDOF 0
ENDMDL
