MODEL 1
REMARK minimizedAffinity -2.70871949
REMARK minimizedRMSD -1
REMARK  1 active torsions:
REMARK  status: ('A' for Active; 'I' for Inactive)
REMARK    1  A    between atoms: N_2  and  C1_3 
ROOT
ATOM      1  C1  UNL d   1       3.932  -1.803   5.048  0.00  0.00     0.143 A 
ATOM      2  C2  UNL d   1       3.975  -2.797   4.065  0.00  0.00    -0.057 A 
ATOM      3  C3  UNL d   1       4.983  -3.770   4.059  0.00  0.00     0.033 A 
ATOM      4  C4  UNL d   1       5.985  -3.747   5.022  0.00  0.00    -0.042 A 
ATOM      5  C5  UNL d   1       5.977  -2.754   5.995  0.00  0.00     0.033 A 
ATOM      6  C6  UNL d   1       4.964  -1.790   6.000  0.00  0.00    -0.057 A 
ENDROOT
BRANCH   1   7
ATOM      7  N   UNL d   1       3.014  -0.751   5.051  0.00  0.00    -0.732 N 
ATOM      8  C   UNL d   1       1.912  -0.737   5.989  0.00  0.00     0.284 C 
ATOM      9  H3  UNL d   1       3.459   0.154   4.920  0.00  0.00     0.395 HD
ENDBRANCH   1   7
TORSDOF 1
ENDMDL
