MODEL 1
REMARK minimizedAffinity -3.46352005
REMARK minimizedRMSD -1
REMARK  1 active torsions:
REMARK  status: ('A' for Active; 'I' for Inactive)
REMARK    1  A    between atoms: N_2  and  C1_3 
ROOT
ATOM      1  C1  UNL d   1       5.051  -3.762   4.695  0.00  0.00     0.143 A 
ATOM      2  C2  UNL d   1       4.200  -3.378   3.653  0.00  0.00    -0.057 A 
ATOM      3  C3  UNL d   1       3.375  -2.252   3.766  0.00  0.00     0.033 A 
ATOM      4  C4  UNL d   1       3.366  -1.504   4.939  0.00  0.00    -0.042 A 
ATOM      5  C5  UNL d   1       4.186  -1.881   5.997  0.00  0.00     0.033 A 
ATOM      6  C6  UNL d   1       5.012  -3.003   5.875  0.00  0.00    -0.057 A 
ENDROOT
BRANCH   1   7
ATOM      7  N   UNL d   1       5.822  -4.927   4.681  0.00  0.00    -0.732 N 
ATOM      8  C   UNL d   1       5.998  -5.708   5.886  0.00  0.00     0.284 C 
ATOM      9  H3  UNL d   1       5.669  -5.483   3.843  0.00  0.00     0.395 HD
ENDBRANCH   1   7
TORSDOF 1
ENDMDL
