MODEL 1
REMARK minimizedAffinity -0.520242572
REMARK minimizedRMSD -1
REMARK  1 active torsions:
REMARK  status: ('A' for Active; 'I' for Inactive)
REMARK    1  A    between atoms: N_2  and  C1_3 
ROOT
ATOM      1  C1  UNL d   1       5.505   5.413  -3.186  0.00  0.00     0.143 A 
ATOM      2  C2  UNL d   1       6.000   4.229  -3.742  0.00  0.00    -0.057 A 
ATOM      3  C3  UNL d   1       5.399   3.647  -4.865  0.00  0.00     0.033 A 
ATOM      4  C4  UNL d   1       4.271   4.227  -5.436  0.00  0.00    -0.042 A 
ATOM      5  C5  UNL d   1       3.747   5.391  -4.885  0.00  0.00     0.033 A 
ATOM      6  C6  UNL d   1       4.356   5.971  -3.768  0.00  0.00    -0.057 A 
ENDROOT
BRANCH   1   7
ATOM      7  N   UNL d   1       5.999   5.987  -2.012  0.00  0.00    -0.732 N 
ATOM      8  C   UNL d   1       5.432   5.639  -0.727  0.00  0.00     0.284 C 
ATOM      9  H3  UNL d   1       7.014   6.060  -2.012  0.00  0.00     0.395 HD
ENDBRANCH   1   7
TORSDOF 1
ENDMDL
