MODEL 1
REMARK minimizedAffinity -1.44620085
REMARK minimizedRMSD -1
REMARK  1 active torsions:
REMARK  status: ('A' for Active; 'I' for Inactive)
REMARK    1  A    between atoms: N_2  and  C1_3 
ROOT
ATOM      1  C1  UNL d   1       5.344   5.367  -2.772  0.00  0.00     0.143 A 
ATOM      2  C2  UNL d   1       4.166   5.843  -3.358  0.00  0.00    -0.057 A 
ATOM      3  C3  UNL d   1       3.623   5.233  -4.496  0.00  0.00     0.033 A 
ATOM      4  C4  UNL d   1       4.267   4.151  -5.087  0.00  0.00    -0.042 A 
ATOM      5  C5  UNL d   1       5.452   3.677  -4.536  0.00  0.00     0.033 A 
ATOM      6  C6  UNL d   1       5.986   4.286  -3.396  0.00  0.00    -0.057 A 
ENDROOT
BRANCH   1   7
ATOM      7  N   UNL d   1       5.986   5.991  -1.700  0.00  0.00    -0.732 N 
ATOM      8  C   UNL d   1       5.389   5.988  -0.381  0.00  0.00     0.284 C 
ATOM      9  H3  UNL d   1       6.990   5.830  -1.702  0.00  0.00     0.395 HD
ENDBRANCH   1   7
TORSDOF 1
ENDMDL
