MODEL 1
REMARK minimizedAffinity -1.86721659
REMARK minimizedRMSD -1
REMARK  1 active torsions:
REMARK  status: ('A' for Active; 'I' for Inactive)
REMARK    1  A    between atoms: N_2  and  C1_3 
ROOT
ATOM      1  C1  UNL d   1       4.543   4.258  -4.547  0.00  0.00     0.143 A 
ATOM      2  C2  UNL d   1       3.627   5.211  -4.091  0.00  0.00    -0.057 A 
ATOM      3  C3  UNL d   1       3.898   5.998  -2.965  0.00  0.00     0.033 A 
ATOM      4  C4  UNL d   1       5.082   5.824  -2.256  0.00  0.00    -0.042 A 
ATOM      5  C5  UNL d   1       5.997   4.865  -2.677  0.00  0.00     0.033 A 
ATOM      6  C6  UNL d   1       5.723   4.087  -3.806  0.00  0.00    -0.057 A 
ENDROOT
BRANCH   1   7
ATOM      7  N   UNL d   1       4.288   3.377  -5.601  0.00  0.00    -0.732 N 
ATOM      8  C   UNL d   1       5.267   2.381  -5.983  0.00  0.00     0.284 C 
ATOM      9  H3  UNL d   1       3.329   3.038  -5.601  0.00  0.00     0.395 HD
ENDBRANCH   1   7
TORSDOF 1
ENDMDL
