MODEL 1
REMARK minimizedAffinity -3.79191732
REMARK minimizedRMSD -1
REMARK  1 active torsions:
REMARK  status: ('A' for Active; 'I' for Inactive)
REMARK    1  A    between atoms: N_2  and  C1_3 
ROOT
ATOM      1  C1  UNL d   1       5.016  -3.732   4.738  0.00  0.00     0.143 A 
ATOM      2  C2  UNL d   1       4.223  -3.355   3.650  0.00  0.00    -0.057 A 
ATOM      3  C3  UNL d   1       3.375  -2.243   3.721  0.00  0.00     0.033 A 
ATOM      4  C4  UNL d   1       3.284  -1.504   4.896  0.00  0.00    -0.042 A 
ATOM      5  C5  UNL d   1       4.045  -1.875   5.998  0.00  0.00     0.033 A 
ATOM      6  C6  UNL d   1       4.895  -2.983   5.919  0.00  0.00    -0.057 A 
ENDROOT
BRANCH   1   7
ATOM      7  N   UNL d   1       5.805  -4.885   4.763  0.00  0.00    -0.732 N 
ATOM      8  C   UNL d   1       6.000  -5.619   5.995  0.00  0.00     0.284 C 
ATOM      9  H3  UNL d   1       5.657  -5.475   3.947  0.00  0.00     0.395 HD
ENDBRANCH   1   7
TORSDOF 1
ENDMDL
