MODEL 1
REMARK minimizedAffinity -0.705790341
REMARK minimizedRMSD -1
REMARK  1 active torsions:
REMARK  status: ('A' for Active; 'I' for Inactive)
REMARK    1  A    between atoms: N_2  and  C1_3 
ROOT
ATOM      1  C1  UNL d   1       5.371   4.826  -3.107  0.00  0.00     0.143 A 
ATOM      2  C2  UNL d   1       5.160   3.676  -3.875  0.00  0.00    -0.057 A 
ATOM      3  C3  UNL d   1       5.388   3.673  -5.256  0.00  0.00     0.033 A 
ATOM      4  C4  UNL d   1       5.804   4.832  -5.901  0.00  0.00    -0.042 A 
ATOM      5  C5  UNL d   1       5.996   5.995  -5.162  0.00  0.00     0.033 A 
ATOM      6  C6  UNL d   1       5.773   5.990  -3.782  0.00  0.00    -0.057 A 
ENDROOT
BRANCH   1   7
ATOM      7  N   UNL d   1       5.068   4.920  -1.747  0.00  0.00    -0.732 N 
ATOM      8  C   UNL d   1       5.605   5.998  -0.945  0.00  0.00     0.284 C 
ATOM      9  H3  UNL d   1       4.094   4.701  -1.550  0.00  0.00     0.395 HD
ENDBRANCH   1   7
TORSDOF 1
ENDMDL
