MODEL 1
REMARK minimizedAffinity 15.5828114
REMARK minimizedRMSD -1
REMARK  1 active torsions:
REMARK  status: ('A' for Active; 'I' for Inactive)
REMARK    1  A    between atoms: N_2  and  C1_3 
ROOT
ATOM      1  C1  UNL d   1       1.602   5.405   1.421  0.00  0.00     0.143 A 
ATOM      2  C2  UNL d   1       1.364   4.173   0.802  0.00  0.00    -0.057 A 
ATOM      3  C3  UNL d   1       0.097   3.580   0.830  0.00  0.00     0.033 A 
ATOM      4  C4  UNL d   1      -0.952   4.196   1.505  0.00  0.00    -0.042 A 
ATOM      5  C5  UNL d   1      -0.732   5.408   2.149  0.00  0.00     0.033 A 
ATOM      6  C6  UNL d   1       0.534   6.000   2.111  0.00  0.00    -0.057 A 
ENDROOT
BRANCH   1   7
ATOM      7  N   UNL d   1       2.864   5.999   1.512  0.00  0.00    -0.732 N 
ATOM      8  C   UNL d   1       3.763   5.998   0.379  0.00  0.00     0.284 C 
ATOM      9  H3  UNL d   1       2.843   6.877   2.026  0.00  0.00     0.395 HD
ENDBRANCH   1   7
TORSDOF 1
ENDMDL
