MODEL 1
REMARK minimizedAffinity 5.60855103
REMARK minimizedRMSD -1
REMARK  1 active torsions:
REMARK  status: ('A' for Active; 'I' for Inactive)
REMARK    1  A    between atoms: N_2  and  C1_3 
ROOT
ATOM      1  C1  UNL d   1       5.388   3.862  -4.908  0.00  0.00     0.143 A 
ATOM      2  C2  UNL d   1       5.968   5.073  -4.515  0.00  0.00    -0.057 A 
ATOM      3  C3  UNL d   1       5.267   5.991  -3.724  0.00  0.00     0.033 A 
ATOM      4  C4  UNL d   1       3.958   5.726  -3.334  0.00  0.00    -0.042 A 
ATOM      5  C5  UNL d   1       3.353   4.540  -3.734  0.00  0.00     0.033 A 
ATOM      6  C6  UNL d   1       4.061   3.624  -4.519  0.00  0.00    -0.057 A 
ENDROOT
BRANCH   1   7
ATOM      7  N   UNL d   1       5.998   2.953  -5.776  0.00  0.00    -0.732 N 
ATOM      8  C   UNL d   1       5.500   1.600  -5.895  0.00  0.00     0.284 C 
ATOM      9  H3  UNL d   1       6.261   3.379  -6.662  0.00  0.00     0.395 HD
ENDBRANCH   1   7
TORSDOF 1
ENDMDL
