MODEL 1
REMARK minimizedAffinity 0.0239702929
REMARK minimizedRMSD -1
REMARK  1 active torsions:
REMARK  status: ('A' for Active; 'I' for Inactive)
REMARK    1  A    between atoms: N_2  and  C1_3 
ROOT
ATOM      1  C1  UNL d   1       4.746  -3.791   4.876  0.00  0.00     0.143 A 
ATOM      2  C2  UNL d   1       4.649  -2.962   5.999  0.00  0.00    -0.057 A 
ATOM      3  C3  UNL d   1       3.823  -1.831   5.998  0.00  0.00     0.033 A 
ATOM      4  C4  UNL d   1       3.098  -1.493   4.860  0.00  0.00    -0.042 A 
ATOM      5  C5  UNL d   1       3.198  -2.289   3.724  0.00  0.00     0.033 A 
ATOM      6  C6  UNL d   1       4.020  -3.420   3.734  0.00  0.00    -0.057 A 
ENDROOT
BRANCH   1   7
ATOM      7  N   UNL d   1       5.625  -4.873   4.782  0.00  0.00    -0.732 N 
ATOM      8  C   UNL d   1       5.969  -5.648   5.955  0.00  0.00     0.284 C 
ATOM      9  H3  UNL d   1       5.464  -5.431   3.947  0.00  0.00     0.395 HD
ENDBRANCH   1   7
TORSDOF 1
ENDMDL
