MODEL 1
REMARK minimizedAffinity -3.27999449
REMARK minimizedRMSD -1
REMARK  1 active torsions:
REMARK  status: ('A' for Active; 'I' for Inactive)
REMARK    1  A    between atoms: N_2  and  C1_3 
ROOT
ATOM      1  C1  UNL d   1       4.492  -2.689   4.838  0.00  0.00     0.143 A 
ATOM      2  C2  UNL d   1       5.368  -3.100   5.849  0.00  0.00    -0.057 A 
ATOM      3  C3  UNL d   1       6.000  -4.348   5.798  0.00  0.00     0.033 A 
ATOM      4  C4  UNL d   1       5.744  -5.222   4.747  0.00  0.00    -0.042 A 
ATOM      5  C5  UNL d   1       4.858  -4.845   3.744  0.00  0.00     0.033 A 
ATOM      6  C6  UNL d   1       4.235  -3.594   3.797  0.00  0.00    -0.057 A 
ENDROOT
BRANCH   1   7
ATOM      7  N   UNL d   1       3.757  -1.502   4.881  0.00  0.00    -0.732 N 
ATOM      8  C   UNL d   1       2.885  -1.215   6.000  0.00  0.00     0.284 C 
ATOM      9  H3  UNL d   1       4.294  -0.701   4.557  0.00  0.00     0.395 HD
ENDBRANCH   1   7
TORSDOF 1
ENDMDL
