MODEL 1
REMARK minimizedAffinity -2.47001553
REMARK minimizedRMSD -1
REMARK  1 active torsions:
REMARK  status: ('A' for Active; 'I' for Inactive)
REMARK    1  A    between atoms: N_2  and  C1_3 
ROOT
ATOM      1  C1  UNL d   1       4.755  -2.936   4.875  0.00  0.00     0.143 A 
ATOM      2  C2  UNL d   1       4.283  -3.085   3.566  0.00  0.00    -0.057 A 
ATOM      3  C3  UNL d   1       3.017  -2.617   3.194  0.00  0.00     0.033 A 
ATOM      4  C4  UNL d   1       2.187  -2.016   4.134  0.00  0.00    -0.042 A 
ATOM      5  C5  UNL d   1       2.626  -1.879   5.446  0.00  0.00     0.033 A 
ATOM      6  C6  UNL d   1       3.893  -2.342   5.810  0.00  0.00    -0.057 A 
ENDROOT
BRANCH   1   7
ATOM      7  N   UNL d   1       5.964  -3.467   5.331  0.00  0.00    -0.732 N 
ATOM      8  C   UNL d   1       6.000  -4.750   6.000  0.00  0.00     0.284 C 
ATOM      9  H3  UNL d   1       6.726  -3.321   4.673  0.00  0.00     0.395 HD
ENDBRANCH   1   7
TORSDOF 1
ENDMDL
