MODEL 1
REMARK minimizedAffinity 0.936118543
REMARK minimizedRMSD -1
REMARK  1 active torsions:
REMARK  status: ('A' for Active; 'I' for Inactive)
REMARK    1  A    between atoms: N_2  and  C1_3 
ROOT
ATOM      1  C1  UNL d   1       4.856  -3.328   5.058  0.00  0.00     0.143 A 
ATOM      2  C2  UNL d   1       4.482  -2.364   6.000  0.00  0.00    -0.057 A 
ATOM      3  C3  UNL d   1       3.380  -1.527   5.784  0.00  0.00     0.033 A 
ATOM      4  C4  UNL d   1       2.649  -1.621   4.605  0.00  0.00    -0.042 A 
ATOM      5  C5  UNL d   1       3.018  -2.555   3.643  0.00  0.00     0.033 A 
ATOM      6  C6  UNL d   1       4.115  -3.392   3.867  0.00  0.00    -0.057 A 
ENDROOT
BRANCH   1   7
ATOM      7  N   UNL d   1       6.000  -4.123   5.170  0.00  0.00    -0.732 N 
ATOM      8  C   UNL d   1       5.996  -5.308   6.000  0.00  0.00     0.284 C 
ATOM      9  H3  UNL d   1       6.481  -4.239   4.281  0.00  0.00     0.395 HD
ENDBRANCH   1   7
TORSDOF 1
ENDMDL
