MODEL 1
REMARK minimizedAffinity 2.47877097
REMARK minimizedRMSD -1
REMARK  1 active torsions:
REMARK  status: ('A' for Active; 'I' for Inactive)
REMARK    1  A    between atoms: C1_2  and  C2_3 
ROOT
ATOM      1  C2  UNL d   1       4.603  -0.007   2.500  0.00  0.00    -0.081 A 
ATOM      2  C3  UNL d   1       4.610   0.772   1.337  0.00  0.00     0.006 A 
ATOM      3  C4  UNL d   1       3.418   1.059   0.668  0.00  0.00     0.002 A 
ATOM      4  C5  UNL d   1       2.198   0.578   1.156  0.00  0.00    -0.080 A 
ATOM      5  C6  UNL d   1       0.907   0.903   0.465  0.00  0.00     0.076 C 
ATOM      6  C7  UNL d   1       2.192  -0.216   2.308  0.00  0.00     0.002 A 
ATOM      7  C8  UNL d   1       3.384  -0.503   2.976  0.00  0.00     0.006 A 
ENDROOT
BRANCH   1   8
ATOM      8  C1  UNL d   1       5.880  -0.264   3.259  0.00  0.00     0.054 C 
ATOM      9  C   UNL d   1       5.996   0.649   4.471  0.00  0.00     0.018 C 
ENDBRANCH   1   8
TORSDOF 1
ENDMDL
