MODEL 1
REMARK minimizedAffinity 5.36601639
REMARK minimizedRMSD -1
REMARK  1 active torsions:
REMARK  status: ('A' for Active; 'I' for Inactive)
REMARK    1  A    between atoms: C1_2  and  C2_3 
ROOT
ATOM      1  C2  UNL d   1       4.645  -0.109   2.199  0.00  0.00    -0.081 A 
ATOM      2  C3  UNL d   1       4.106  -1.259   2.790  0.00  0.00     0.006 A 
ATOM      3  C4  UNL d   1       2.881  -1.771   2.355  0.00  0.00     0.002 A 
ATOM      4  C5  UNL d   1       2.179  -1.147   1.318  0.00  0.00    -0.080 A 
ATOM      5  C6  UNL d   1       0.878  -1.704   0.822  0.00  0.00     0.076 C 
ATOM      6  C7  UNL d   1       2.709   0.011   0.740  0.00  0.00     0.002 A 
ATOM      7  C8  UNL d   1       3.933   0.524   1.174  0.00  0.00     0.006 A 
ENDROOT
BRANCH   1   8
ATOM      8  C1  UNL d   1       5.996   0.408   2.621  0.00  0.00     0.054 C 
ATOM      9  C   UNL d   1       5.997   0.824   4.085  0.00  0.00     0.018 C 
ENDBRANCH   1   8
TORSDOF 1
ENDMDL
