MODEL 1
REMARK minimizedAffinity 5.64727116
REMARK minimizedRMSD -1
REMARK  1 active torsions:
REMARK  status: ('A' for Active; 'I' for Inactive)
REMARK    1  A    between atoms: C1_2  and  C2_3 
ROOT
ATOM      1  C2  UNL d   1       3.892   0.978   1.075  0.00  0.00    -0.081 A 
ATOM      2  C3  UNL d   1       4.776   0.140   1.766  0.00  0.00     0.006 A 
ATOM      3  C4  UNL d   1       4.292  -0.932   2.520  0.00  0.00     0.002 A 
ATOM      4  C5  UNL d   1       2.918  -1.188   2.589  0.00  0.00    -0.080 A 
ATOM      5  C6  UNL d   1       2.388  -2.354   3.370  0.00  0.00     0.076 C 
ATOM      6  C7  UNL d   1       2.034  -0.341   1.912  0.00  0.00     0.002 A 
ATOM      7  C8  UNL d   1       2.517   0.731   1.159  0.00  0.00     0.006 A 
ENDROOT
BRANCH   1   8
ATOM      8  C1  UNL d   1       4.415   2.095   0.208  0.00  0.00     0.054 C 
ATOM      9  C   UNL d   1       3.391   3.213   0.070  0.00  0.00     0.018 C 
ENDBRANCH   1   8
TORSDOF 1
ENDMDL
