MODEL 1
REMARK minimizedAffinity 4.08218384
REMARK minimizedRMSD -1
REMARK  1 active torsions:
REMARK  status: ('A' for Active; 'I' for Inactive)
REMARK    1  A    between atoms: C1_2  and  C2_3 
ROOT
ATOM      1  C2  UNL d   1      -3.638  -1.956   5.277  0.00  0.00    -0.081 A 
ATOM      2  C3  UNL d   1      -3.901  -3.158   5.946  0.00  0.00     0.006 A 
ATOM      3  C4  UNL d   1      -4.458  -4.242   5.262  0.00  0.00     0.002 A 
ATOM      4  C5  UNL d   1      -4.754  -4.144   3.899  0.00  0.00    -0.080 A 
ATOM      5  C6  UNL d   1      -5.324  -5.310   3.146  0.00  0.00     0.076 C 
ATOM      6  C7  UNL d   1      -4.508  -2.938   3.235  0.00  0.00     0.002 A 
ATOM      7  C8  UNL d   1      -3.952  -1.854   3.918  0.00  0.00     0.006 A 
ENDROOT
BRANCH   1   8
ATOM      8  C1  UNL d   1      -2.978  -0.808   5.996  0.00  0.00     0.054 C 
ATOM      9  C   UNL d   1      -3.867   0.427   6.000  0.00  0.00     0.018 C 
ENDBRANCH   1   8
TORSDOF 1
ENDMDL
