MODEL 1
REMARK minimizedAffinity 5.11628199
REMARK minimizedRMSD -1
REMARK  1 active torsions:
REMARK  status: ('A' for Active; 'I' for Inactive)
REMARK    1  A    between atoms: C1_2  and  C2_3 
ROOT
ATOM      1  C2  UNL d   1       4.636  -0.033   2.340  0.00  0.00    -0.081 A 
ATOM      2  C3  UNL d   1       4.476   0.696   1.155  0.00  0.00     0.006 A 
ATOM      3  C4  UNL d   1       3.207   0.872   0.598  0.00  0.00     0.002 A 
ATOM      4  C5  UNL d   1       2.077   0.331   1.220  0.00  0.00    -0.080 A 
ATOM      5  C6  UNL d   1       0.706   0.539   0.649  0.00  0.00     0.076 C 
ATOM      6  C7  UNL d   1       2.239  -0.411   2.395  0.00  0.00     0.002 A 
ATOM      7  C8  UNL d   1       3.508  -0.589   2.952  0.00  0.00     0.006 A 
ENDROOT
BRANCH   1   8
ATOM      8  C1  UNL d   1       5.995  -0.170   2.977  0.00  0.00     0.054 C 
ATOM      9  C   UNL d   1       6.000   0.383   4.395  0.00  0.00     0.018 C 
ENDBRANCH   1   8
TORSDOF 1
ENDMDL
