MODEL 1
REMARK minimizedAffinity 14.3532486
REMARK minimizedRMSD -1
REMARK  1 active torsions:
REMARK  status: ('A' for Active; 'I' for Inactive)
REMARK    1  A    between atoms: C1_2  and  C2_3 
ROOT
ATOM      1  C2  UNL d   1      -5.352   1.802   2.347  0.00  0.00    -0.081 A 
ATOM      2  C3  UNL d   1      -5.725   0.486   2.648  0.00  0.00     0.006 A 
ATOM      3  C4  UNL d   1      -5.083  -0.590   2.032  0.00  0.00     0.002 A 
ATOM      4  C5  UNL d   1      -4.052  -0.370   1.112  0.00  0.00    -0.080 A 
ATOM      5  C6  UNL d   1      -3.334  -1.517   0.466  0.00  0.00     0.076 C 
ATOM      6  C7  UNL d   1      -3.691   0.945   0.798  0.00  0.00     0.002 A 
ATOM      7  C8  UNL d   1      -4.334   2.022   1.414  0.00  0.00     0.006 A 
ENDROOT
BRANCH   1   8
ATOM      8  C1  UNL d   1      -5.999   2.964   3.058  0.00  0.00     0.054 C 
ATOM      9  C   UNL d   1      -5.616   2.993   4.531  0.00  0.00     0.018 C 
ENDBRANCH   1   8
TORSDOF 1
ENDMDL
