MODEL 1
REMARK minimizedAffinity 5.49849558
REMARK minimizedRMSD -1
REMARK  1 active torsions:
REMARK  status: ('A' for Active; 'I' for Inactive)
REMARK    1  A    between atoms: C1_2  and  C2_3 
ROOT
ATOM      1  C2  UNL d   1       4.212   1.301   1.179  0.00  0.00    -0.081 A 
ATOM      2  C3  UNL d   1       2.812   1.327   1.159  0.00  0.00     0.006 A 
ATOM      3  C4  UNL d   1       2.076   0.337   1.814  0.00  0.00     0.002 A 
ATOM      4  C5  UNL d   1       2.727  -0.690   2.507  0.00  0.00    -0.080 A 
ATOM      5  C6  UNL d   1       1.948  -1.741   3.241  0.00  0.00     0.076 C 
ATOM      6  C7  UNL d   1       4.125  -0.725   2.513  0.00  0.00     0.002 A 
ATOM      7  C8  UNL d   1       4.862   0.263   1.857  0.00  0.00     0.006 A 
ENDROOT
BRANCH   1   8
ATOM      8  C1  UNL d   1       5.008   2.402   0.527  0.00  0.00     0.054 C 
ATOM      9  C   UNL d   1       4.691   3.756   1.147  0.00  0.00     0.018 C 
ENDBRANCH   1   8
TORSDOF 1
ENDMDL
