MODEL 1
REMARK minimizedAffinity 9.01375866
REMARK minimizedRMSD -1
REMARK  1 active torsions:
REMARK  status: ('A' for Active; 'I' for Inactive)
REMARK    1  A    between atoms: C1_2  and  C2_3 
ROOT
ATOM      1  C2  UNL d   1       2.615   0.743   0.757  0.00  0.00    -0.081 A 
ATOM      2  C3  UNL d   1       2.528  -0.154   1.828  0.00  0.00     0.006 A 
ATOM      3  C4  UNL d   1       3.620  -0.354   2.676  0.00  0.00     0.002 A 
ATOM      4  C5  UNL d   1       4.814   0.346   2.472  0.00  0.00    -0.080 A 
ATOM      5  C6  UNL d   1       5.983   0.165   3.393  0.00  0.00     0.076 C 
ATOM      6  C7  UNL d   1       4.907   1.230   1.391  0.00  0.00     0.002 A 
ATOM      7  C8  UNL d   1       3.816   1.429   0.543  0.00  0.00     0.006 A 
ENDROOT
BRANCH   1   8
ATOM      8  C1  UNL d   1       1.418   1.008  -0.121  0.00  0.00     0.054 C 
ATOM      9  C   UNL d   1       1.291   2.489  -0.450  0.00  0.00     0.018 C 
ENDBRANCH   1   8
TORSDOF 1
ENDMDL
