MODEL 1
REMARK minimizedAffinity 5.58272457
REMARK minimizedRMSD -1
REMARK  1 active torsions:
REMARK  status: ('A' for Active; 'I' for Inactive)
REMARK    1  A    between atoms: C1_2  and  C2_3 
ROOT
ATOM      1  C2  UNL d   1      -5.839   1.339   3.240  0.00  0.00    -0.081 A 
ATOM      2  C3  UNL d   1      -5.477   2.605   2.765  0.00  0.00     0.006 A 
ATOM      3  C4  UNL d   1      -5.270   3.663   3.654  0.00  0.00     0.002 A 
ATOM      4  C5  UNL d   1      -5.413   3.469   5.032  0.00  0.00    -0.080 A 
ATOM      5  C6  UNL d   1      -5.165   4.588   6.000  0.00  0.00     0.076 C 
ATOM      6  C7  UNL d   1      -5.792   2.208   5.506  0.00  0.00     0.002 A 
ATOM      7  C8  UNL d   1      -5.999   1.151   4.617  0.00  0.00     0.006 A 
ENDROOT
BRANCH   1   8
ATOM      8  C1  UNL d   1      -6.000   0.180   2.289  0.00  0.00     0.054 C 
ATOM      9  C   UNL d   1      -4.649  -0.387   1.875  0.00  0.00     0.018 C 
ENDBRANCH   1   8
TORSDOF 1
ENDMDL
