MODEL 1
REMARK minimizedAffinity 6.10163641
REMARK minimizedRMSD -1
REMARK  1 active torsions:
REMARK  status: ('A' for Active; 'I' for Inactive)
REMARK    1  A    between atoms: C1_2  and  C2_3 
ROOT
ATOM      1  C2  UNL d   1       4.713   0.004   2.570  0.00  0.00    -0.081 A 
ATOM      2  C3  UNL d   1       4.725   0.794   1.414  0.00  0.00     0.006 A 
ATOM      3  C4  UNL d   1       3.544   1.030   0.706  0.00  0.00     0.002 A 
ATOM      4  C5  UNL d   1       2.332   0.487   1.145  0.00  0.00    -0.080 A 
ATOM      5  C6  UNL d   1       1.053   0.757   0.410  0.00  0.00     0.076 C 
ATOM      6  C7  UNL d   1       2.323  -0.317   2.290  0.00  0.00     0.002 A 
ATOM      7  C8  UNL d   1       3.503  -0.553   2.999  0.00  0.00     0.006 A 
ENDROOT
BRANCH   1   8
ATOM      8  C1  UNL d   1       5.973  -0.199   3.373  0.00  0.00     0.054 C 
ATOM      9  C   UNL d   1       6.000   0.705   4.598  0.00  0.00     0.018 C 
ENDBRANCH   1   8
TORSDOF 1
ENDMDL
