MODEL 1
REMARK minimizedAffinity 5.34124374
REMARK minimizedRMSD -1
REMARK  1 active torsions:
REMARK  status: ('A' for Active; 'I' for Inactive)
REMARK    1  A    between atoms: C1_2  and  C2_3 
ROOT
ATOM      1  C2  UNL d   1      -3.004   4.443   5.300  0.00  0.00    -0.081 A 
ATOM      2  C3  UNL d   1      -2.871   4.744   3.939  0.00  0.00     0.006 A 
ATOM      3  C4  UNL d   1      -1.649   4.553   3.288  0.00  0.00     0.002 A 
ATOM      4  C5  UNL d   1      -0.545   4.052   3.984  0.00  0.00    -0.080 A 
ATOM      5  C6  UNL d   1       0.764   3.814   3.290  0.00  0.00     0.076 C 
ATOM      6  C7  UNL d   1      -0.673   3.768   5.348  0.00  0.00     0.002 A 
ATOM      7  C8  UNL d   1      -1.893   3.959   6.000  0.00  0.00     0.006 A 
ENDROOT
BRANCH   1   8
ATOM      8  C1  UNL d   1      -4.336   4.587   5.990  0.00  0.00     0.054 C 
ATOM      9  C   UNL d   1      -5.100   3.270   5.998  0.00  0.00     0.018 C 
ENDBRANCH   1   8
TORSDOF 1
ENDMDL
