MODEL 1
REMARK minimizedAffinity -0.187801331
REMARK minimizedRMSD -1
REMARK  1 active torsions:
REMARK  status: ('A' for Active; 'I' for Inactive)
REMARK    1  A    between atoms: C1_2  and  C2_3 
ROOT
ATOM      1  C2  UNL d   1      -5.596   1.155   3.240  0.00  0.00    -0.081 A 
ATOM      2  C3  UNL d   1      -5.681   2.492   2.834  0.00  0.00     0.006 A 
ATOM      3  C4  UNL d   1      -5.382   3.524   3.727  0.00  0.00     0.002 A 
ATOM      4  C5  UNL d   1      -4.985   3.235   5.037  0.00  0.00    -0.080 A 
ATOM      5  C6  UNL d   1      -4.632   4.332   5.997  0.00  0.00     0.076 C 
ATOM      6  C7  UNL d   1      -4.916   1.899   5.448  0.00  0.00     0.002 A 
ATOM      7  C8  UNL d   1      -5.216   0.868   4.555  0.00  0.00     0.006 A 
ENDROOT
BRANCH   1   8
ATOM      8  C1  UNL d   1      -5.855   0.039   2.260  0.00  0.00     0.054 C 
ATOM      9  C   UNL d   1      -4.567  -0.680   1.886  0.00  0.00     0.018 C 
ENDBRANCH   1   8
TORSDOF 1
ENDMDL
