MODEL 1
REMARK minimizedAffinity 1.33460081
REMARK minimizedRMSD -1
REMARK  1 active torsions:
REMARK  status: ('A' for Active; 'I' for Inactive)
REMARK    1  A    between atoms: C1_2  and  C2_3 
ROOT
ATOM      1  C2  UNL d   1       2.478   2.047  -5.125  0.00  0.00    -0.081 A 
ATOM      2  C3  UNL d   1       1.503   2.343  -4.164  0.00  0.00     0.006 A 
ATOM      3  C4  UNL d   1       0.951   3.624  -4.086  0.00  0.00     0.002 A 
ATOM      4  C5  UNL d   1       1.359   4.628  -4.970  0.00  0.00    -0.080 A 
ATOM      5  C6  UNL d   1       0.754   5.999  -4.916  0.00  0.00     0.076 C 
ATOM      6  C7  UNL d   1       2.346   4.338  -5.919  0.00  0.00     0.002 A 
ATOM      7  C8  UNL d   1       2.898   3.057  -5.997  0.00  0.00     0.006 A 
ENDROOT
BRANCH   1   8
ATOM      8  C1  UNL d   1       3.027   0.650  -5.254  0.00  0.00     0.054 C 
ATOM      9  C   UNL d   1       3.509   0.118  -3.912  0.00  0.00     0.018 C 
ENDBRANCH   1   8
TORSDOF 1
ENDMDL
