MODEL 1
REMARK minimizedAffinity 11.7320662
REMARK minimizedRMSD -1
REMARK  0 active torsions:
REMARK  status: ('A' for Active; 'I' for Inactive)
ROOT
ATOM      1  C   UNL d   1       2.861  -3.236   0.041  0.00  0.00    -0.002 A 
ATOM      2  C1  UNL d   1       2.341  -4.444   0.486  0.00  0.00     0.010 A 
ATOM      3  C2  UNL d   1       1.105  -4.489   1.134  0.00  0.00     0.041 A 
ATOM      4  C3  UNL d   1       0.393  -3.290   1.327  0.00  0.00    -0.075 A 
ATOM      5  S   UNL d   1      -1.140  -3.103   2.094  0.00  0.00     0.015 SA
ATOM      6  C4  UNL d   1      -1.142  -1.417   1.848  0.00  0.00     0.022 A 
ATOM      7  C5  UNL d   1      -0.008  -0.989   1.199  0.00  0.00     0.026 A 
ATOM      8  C6  UNL d   1       0.895  -2.062   0.887  0.00  0.00    -0.082 A 
ATOM      9  C7  UNL d   1       2.151  -2.048   0.235  0.00  0.00     0.045 A 
ENDROOT
TORSDOF 0
ENDMDL
