MODEL 1
REMARK minimizedAffinity 0.30664432
REMARK minimizedRMSD -1
REMARK  0 active torsions:
REMARK  status: ('A' for Active; 'I' for Inactive)
ROOT
ATOM      1  C   UNL d   1       3.781  -0.018  -1.518  0.00  0.00    -0.002 A 
ATOM      2  C1  UNL d   1       2.805   0.669  -0.811  0.00  0.00     0.010 A 
ATOM      3  C2  UNL d   1       2.052   0.023   0.172  0.00  0.00     0.041 A 
ATOM      4  C3  UNL d   1       2.302  -1.338   0.436  0.00  0.00    -0.075 A 
ATOM      5  S   UNL d   1       1.505  -2.334   1.596  0.00  0.00     0.015 SA
ATOM      6  C4  UNL d   1       2.443  -3.695   1.181  0.00  0.00     0.022 A 
ATOM      7  C5  UNL d   1       3.346  -3.415   0.184  0.00  0.00     0.026 A 
ATOM      8  C6  UNL d   1       3.280  -2.051  -0.261  0.00  0.00    -0.082 A 
ATOM      9  C7  UNL d   1       4.026  -1.368  -1.253  0.00  0.00     0.045 A 
ENDROOT
TORSDOF 0
ENDMDL
