MODEL 1
REMARK minimizedAffinity 7.72730112
REMARK minimizedRMSD -1
REMARK  0 active torsions:
REMARK  status: ('A' for Active; 'I' for Inactive)
ROOT
ATOM      1  C   UNL d   1       0.524  -2.268   1.740  0.00  0.00    -0.002 A 
ATOM      2  C1  UNL d   1       0.222  -1.705   2.972  0.00  0.00     0.010 A 
ATOM      3  C2  UNL d   1       0.662  -0.419   3.291  0.00  0.00     0.041 A 
ATOM      4  C3  UNL d   1       1.417   0.299   2.342  0.00  0.00    -0.075 A 
ATOM      5  S   UNL d   1       2.061   1.889   2.513  0.00  0.00     0.015 SA
ATOM      6  C4  UNL d   1       2.752   1.857   0.955  0.00  0.00     0.022 A 
ATOM      7  C5  UNL d   1       2.506   0.670   0.307  0.00  0.00     0.026 A 
ATOM      8  C6  UNL d   1       1.733  -0.247   1.095  0.00  0.00    -0.082 A 
ATOM      9  C7  UNL d   1       1.272  -1.554   0.801  0.00  0.00     0.045 A 
ENDROOT
TORSDOF 0
ENDMDL
