MODEL 1
REMARK minimizedAffinity 4.66778517
REMARK minimizedRMSD -1
REMARK  0 active torsions:
REMARK  status: ('A' for Active; 'I' for Inactive)
ROOT
ATOM      1  C   UNL d   1       2.375   0.815   0.329  0.00  0.00     0.023 A 
ATOM      2  C1  UNL d   1       2.164   2.157   0.649  0.00  0.00     0.003 A 
ATOM      3  C2  UNL d   1       1.983   3.098  -0.367  0.00  0.00     0.048 A 
ATOM      4  C3  UNL d   1       2.013   2.691  -1.700  0.00  0.00     0.023 A 
ATOM      5  C4  UNL d   1       2.223   1.350  -2.025  0.00  0.00     0.048 A 
ATOM      6  C5  UNL d   1       2.404   0.412  -1.006  0.00  0.00     0.003 A 
ATOM      7  I   UNL d   1       1.744   4.090  -3.213  0.00  0.00    -0.146 I 
ENDROOT
TORSDOF 0
ENDMDL
