MODEL 1
REMARK minimizedAffinity -1.42949069
REMARK minimizedRMSD -1
REMARK  0 active torsions:
REMARK  status: ('A' for Active; 'I' for Inactive)
ROOT
ATOM      1  C   UNL d   1      -0.176   5.940  -5.990  0.00  0.00     0.023 A 
ATOM      2  C1  UNL d   1       1.096   5.368  -6.000  0.00  0.00     0.003 A 
ATOM      3  C2  UNL d   1       1.422   4.372  -5.076  0.00  0.00     0.048 A 
ATOM      4  C3  UNL d   1       0.471   3.954  -4.146  0.00  0.00     0.023 A 
ATOM      5  C4  UNL d   1      -0.804   4.523  -4.133  0.00  0.00     0.048 A 
ATOM      6  C5  UNL d   1      -1.125   5.519  -5.058  0.00  0.00     0.003 A 
ATOM      7  I   UNL d   1       0.953   2.472  -2.771  0.00  0.00    -0.146 I 
ENDROOT
TORSDOF 0
ENDMDL
