MODEL 1
REMARK minimizedAffinity 2.17319322
REMARK minimizedRMSD -1
REMARK  0 active torsions:
REMARK  status: ('A' for Active; 'I' for Inactive)
ROOT
ATOM      1  C   UNL d   1       0.399   5.746  -5.513  0.00  0.00     0.023 A 
ATOM      2  C1  UNL d   1       0.820   6.000  -4.207  0.00  0.00     0.003 A 
ATOM      3  C2  UNL d   1       1.226   4.946  -3.386  0.00  0.00     0.048 A 
ATOM      4  C3  UNL d   1       1.210   3.641  -3.877  0.00  0.00     0.023 A 
ATOM      5  C4  UNL d   1       0.791   3.382  -5.183  0.00  0.00     0.048 A 
ATOM      6  C5  UNL d   1       0.384   4.439  -6.000  0.00  0.00     0.003 A 
ATOM      7  I   UNL d   1       1.815   2.071  -2.656  0.00  0.00    -0.146 I 
ENDROOT
TORSDOF 0
ENDMDL
