MODEL 1
REMARK minimizedAffinity 10.1408405
REMARK minimizedRMSD -1
REMARK  0 active torsions:
REMARK  status: ('A' for Active; 'I' for Inactive)
ROOT
ATOM      1  C   UNL d   1       0.381   5.777  -5.997  0.00  0.00     0.023 A 
ATOM      2  C1  UNL d   1      -0.548   4.801  -5.634  0.00  0.00     0.003 A 
ATOM      3  C2  UNL d   1      -0.260   3.913  -4.596  0.00  0.00     0.048 A 
ATOM      4  C3  UNL d   1       0.959   4.006  -3.925  0.00  0.00     0.023 A 
ATOM      5  C4  UNL d   1       1.891   4.981  -4.284  0.00  0.00     0.048 A 
ATOM      6  C5  UNL d   1       1.599   5.866  -5.323  0.00  0.00     0.003 A 
ATOM      7  I   UNL d   1       1.390   2.686  -2.379  0.00  0.00    -0.146 I 
ENDROOT
TORSDOF 0
ENDMDL
