MODEL 1
REMARK minimizedAffinity 0.59538877
REMARK minimizedRMSD -1
REMARK  0 active torsions:
REMARK  status: ('A' for Active; 'I' for Inactive)
ROOT
ATOM      1  C   UNL d   1      -2.934  -3.687  -0.795  0.00  0.00     0.023 A 
ATOM      2  C1  UNL d   1      -2.419  -4.879  -0.286  0.00  0.00     0.003 A 
ATOM      3  C2  UNL d   1      -3.083  -5.544   0.746  0.00  0.00     0.048 A 
ATOM      4  C3  UNL d   1      -4.263  -5.012   1.264  0.00  0.00     0.023 A 
ATOM      5  C4  UNL d   1      -4.783  -3.820   0.757  0.00  0.00     0.048 A 
ATOM      6  C5  UNL d   1      -4.115  -3.158  -0.274  0.00  0.00     0.003 A 
ATOM      7  I   UNL d   1      -5.255  -6.000   2.801  0.00  0.00    -0.146 I 
ENDROOT
TORSDOF 0
ENDMDL
