MODEL 1
REMARK minimizedAffinity 0.600735903
REMARK minimizedRMSD -1
REMARK  0 active torsions:
REMARK  status: ('A' for Active; 'I' for Inactive)
ROOT
ATOM      1  C   UNL d   1      -1.661  -5.571  -3.799  0.00  0.00     0.023 A 
ATOM      2  C1  UNL d   1      -2.829  -5.388  -3.059  0.00  0.00     0.003 A 
ATOM      3  C2  UNL d   1      -4.075  -5.507  -3.678  0.00  0.00     0.048 A 
ATOM      4  C3  UNL d   1      -4.146  -5.812  -5.037  0.00  0.00     0.023 A 
ATOM      5  C4  UNL d   1      -2.980  -5.997  -5.781  0.00  0.00     0.048 A 
ATOM      6  C5  UNL d   1      -1.736  -5.876  -5.158  0.00  0.00     0.003 A 
ATOM      7  I   UNL d   1      -5.999  -5.991  -5.960  0.00  0.00    -0.146 I 
ENDROOT
TORSDOF 0
ENDMDL
