MODEL 1
REMARK minimizedAffinity 10.5186443
REMARK minimizedRMSD -1
REMARK  0 active torsions:
REMARK  status: ('A' for Active; 'I' for Inactive)
ROOT
ATOM      1  C   UNL d   1      -6.000   0.903  -5.861  0.00  0.00     0.023 A 
ATOM      2  C1  UNL d   1      -6.000  -0.490  -5.937  0.00  0.00     0.003 A 
ATOM      3  C2  UNL d   1      -5.999  -1.255  -4.769  0.00  0.00     0.048 A 
ATOM      4  C3  UNL d   1      -5.999  -0.620  -3.527  0.00  0.00     0.023 A 
ATOM      5  C4  UNL d   1      -6.000   0.773  -3.446  0.00  0.00     0.048 A 
ATOM      6  C5  UNL d   1      -6.000   1.534  -4.617  0.00  0.00     0.003 A 
ATOM      7  I   UNL d   1      -5.998  -1.756  -1.787  0.00  0.00    -0.146 I 
ENDROOT
TORSDOF 0
ENDMDL
