MODEL 1
REMARK minimizedAffinity 5.72442245
REMARK minimizedRMSD -1
REMARK  0 active torsions:
REMARK  status: ('A' for Active; 'I' for Inactive)
ROOT
ATOM      1  C   UNL d   1      -1.479  -0.516   4.572  0.00  0.00     0.023 A 
ATOM      2  C1  UNL d   1      -2.673   0.153   4.846  0.00  0.00     0.003 A 
ATOM      3  C2  UNL d   1      -3.635   0.303   3.846  0.00  0.00     0.048 A 
ATOM      4  C3  UNL d   1      -3.399  -0.218   2.574  0.00  0.00     0.023 A 
ATOM      5  C4  UNL d   1      -2.206  -0.888   2.296  0.00  0.00     0.048 A 
ATOM      6  C5  UNL d   1      -1.246  -1.036   3.299  0.00  0.00     0.003 A 
ATOM      7  I   UNL d   1      -4.830   0.004   1.084  0.00  0.00    -0.146 I 
ENDROOT
TORSDOF 0
ENDMDL
