MODEL 1
REMARK minimizedAffinity 1.5372901
REMARK minimizedRMSD -1
REMARK  0 active torsions:
REMARK  status: ('A' for Active; 'I' for Inactive)
ROOT
ATOM      1  C   UNL d   1      -5.990  -0.685  -5.503  0.00  0.00     0.023 A 
ATOM      2  C1  UNL d   1      -5.986  -0.996  -4.143  0.00  0.00     0.003 A 
ATOM      3  C2  UNL d   1      -5.989   0.027  -3.193  0.00  0.00     0.048 A 
ATOM      4  C3  UNL d   1      -5.995   1.358  -3.609  0.00  0.00     0.023 A 
ATOM      5  C4  UNL d   1      -5.999   1.673  -4.968  0.00  0.00     0.048 A 
ATOM      6  C5  UNL d   1      -5.996   0.647  -5.915  0.00  0.00     0.003 A 
ATOM      7  I   UNL d   1      -5.999   2.882  -2.195  0.00  0.00    -0.146 I 
ENDROOT
TORSDOF 0
ENDMDL
