MODEL 1
REMARK minimizedAffinity 1.44601595
REMARK minimizedRMSD -1
REMARK  0 active torsions:
REMARK  status: ('A' for Active; 'I' for Inactive)
ROOT
ATOM      1  C   UNL d   1      -3.057  -1.672   1.501  0.00  0.00     0.023 A 
ATOM      2  C1  UNL d   1      -1.857  -1.081   1.898  0.00  0.00     0.003 A 
ATOM      3  C2  UNL d   1      -1.726  -0.563   3.188  0.00  0.00     0.048 A 
ATOM      4  C3  UNL d   1      -2.798  -0.641   4.077  0.00  0.00     0.023 A 
ATOM      5  C4  UNL d   1      -4.000  -1.232   3.684  0.00  0.00     0.048 A 
ATOM      6  C5  UNL d   1      -4.127  -1.748   2.393  0.00  0.00     0.003 A 
ATOM      7  I   UNL d   1      -2.605   0.129   5.998  0.00  0.00    -0.146 I 
ENDROOT
TORSDOF 0
ENDMDL
