MODEL 1
REMARK minimizedAffinity 6.53705263
REMARK minimizedRMSD -1
REMARK  0 active torsions:
REMARK  status: ('A' for Active; 'I' for Inactive)
ROOT
ATOM      1  C   UNL d   1      -5.911   1.348  -3.906  0.00  0.00     0.023 A 
ATOM      2  C1  UNL d   1      -5.930   1.221  -5.295  0.00  0.00     0.003 A 
ATOM      3  C2  UNL d   1      -5.955  -0.046  -5.881  0.00  0.00     0.048 A 
ATOM      4  C3  UNL d   1      -5.962  -1.182  -5.072  0.00  0.00     0.023 A 
ATOM      5  C4  UNL d   1      -5.944  -1.060  -3.682  0.00  0.00     0.048 A 
ATOM      6  C5  UNL d   1      -5.918   0.209  -3.100  0.00  0.00     0.003 A 
ATOM      7  I   UNL d   1      -5.999  -3.069  -5.942  0.00  0.00    -0.146 I 
ENDROOT
TORSDOF 0
ENDMDL
