MODEL 1
REMARK minimizedAffinity 5.42238188
REMARK minimizedRMSD -1
REMARK  0 active torsions:
REMARK  status: ('A' for Active; 'I' for Inactive)
ROOT
ATOM      1  C   UNL d   1      -5.456  -0.860  -5.953  0.00  0.00     0.023 A 
ATOM      2  C1  UNL d   1      -5.226  -1.541  -4.758  0.00  0.00     0.003 A 
ATOM      3  C2  UNL d   1      -5.381  -0.882  -3.537  0.00  0.00     0.048 A 
ATOM      4  C3  UNL d   1      -5.767   0.458  -3.518  0.00  0.00     0.023 A 
ATOM      5  C4  UNL d   1      -5.999   1.143  -4.712  0.00  0.00     0.048 A 
ATOM      6  C5  UNL d   1      -5.842   0.480  -5.931  0.00  0.00     0.003 A 
ATOM      7  I   UNL d   1      -5.999   1.441  -1.702  0.00  0.00    -0.146 I 
ENDROOT
TORSDOF 0
ENDMDL
