MODEL 1
REMARK minimizedAffinity -0.311715394
REMARK minimizedRMSD -1
REMARK  0 active torsions:
REMARK  status: ('A' for Active; 'I' for Inactive)
ROOT
ATOM      1  C   UNL d   1      -5.937  -1.413  -5.892  0.00  0.00     0.023 A 
ATOM      2  C1  UNL d   1      -5.951  -2.022  -4.637  0.00  0.00     0.003 A 
ATOM      3  C2  UNL d   1      -5.969  -1.241  -3.480  0.00  0.00     0.048 A 
ATOM      4  C3  UNL d   1      -5.973   0.150  -3.585  0.00  0.00     0.023 A 
ATOM      5  C4  UNL d   1      -5.959   0.764  -4.839  0.00  0.00     0.048 A 
ATOM      6  C5  UNL d   1      -5.941  -0.022  -5.993  0.00  0.00     0.003 A 
ATOM      7  I   UNL d   1      -5.999   1.316  -1.865  0.00  0.00    -0.146 I 
ENDROOT
TORSDOF 0
ENDMDL
