MODEL 1
REMARK minimizedAffinity 2.14011312
REMARK minimizedRMSD -1
REMARK  0 active torsions:
REMARK  status: ('A' for Active; 'I' for Inactive)
ROOT
ATOM      1  C   UNL d   1      -5.968  -1.364  -5.805  0.00  0.00     0.023 A 
ATOM      2  C1  UNL d   1      -5.980   0.028  -5.890  0.00  0.00     0.003 A 
ATOM      3  C2  UNL d   1      -5.989   0.800  -4.727  0.00  0.00     0.048 A 
ATOM      4  C3  UNL d   1      -5.986   0.173  -3.481  0.00  0.00     0.023 A 
ATOM      5  C4  UNL d   1      -5.973  -1.220  -3.391  0.00  0.00     0.048 A 
ATOM      6  C5  UNL d   1      -5.965  -1.988  -4.557  0.00  0.00     0.003 A 
ATOM      7  I   UNL d   1      -6.000   1.319  -1.748  0.00  0.00    -0.146 I 
ENDROOT
TORSDOF 0
ENDMDL
