MODEL 1
REMARK minimizedAffinity -2.76972365
REMARK minimizedRMSD -1
REMARK  1 active torsions:
REMARK  status: ('A' for Active; 'I' for Inactive)
REMARK    1  A    between atoms: C1_2  and  C2_3 
ROOT
ATOM      1  C2  UNL d   1       5.946  -3.682   2.804  0.00  0.00    -0.076 A 
ATOM      2  C3  UNL d   1       5.952  -2.396   2.237  0.00  0.00     0.004 A 
ATOM      3  C4  UNL d   1       5.970  -1.258   3.041  0.00  0.00    -0.003 A 
ATOM      4  C5  UNL d   1       5.983  -1.387   4.425  0.00  0.00     0.000 A 
ATOM      5  C6  UNL d   1       5.995  -2.656   5.005  0.00  0.00     0.000 A 
ATOM      6  C7  UNL d   1       5.993  -3.814   4.208  0.00  0.00    -0.073 A 
ATOM      7  C8  UNL d   1       6.000  -5.156   4.886  0.00  0.00     0.078 C 
ENDROOT
BRANCH   1   8
ATOM      8  C1  UNL d   1       5.899  -4.880   1.882  0.00  0.00     0.053 C 
ATOM      9  C   UNL d   1       4.478  -5.270   1.505  0.00  0.00     0.018 C 
ENDBRANCH   1   8
TORSDOF 1
ENDMDL
