MODEL 1
REMARK minimizedAffinity 18.9815407
REMARK minimizedRMSD -1
REMARK  1 active torsions:
REMARK  status: ('A' for Active; 'I' for Inactive)
REMARK    1  A    between atoms: C1_2  and  C2_3 
ROOT
ATOM      1  C2  UNL d   1       2.895   0.783  -4.007  0.00  0.00    -0.076 A 
ATOM      2  C3  UNL d   1       2.699  -0.609  -4.019  0.00  0.00     0.004 A 
ATOM      3  C4  UNL d   1       3.273  -1.406  -5.007  0.00  0.00    -0.003 A 
ATOM      4  C5  UNL d   1       4.054  -0.825  -6.000  0.00  0.00     0.000 A 
ATOM      5  C6  UNL d   1       4.273   0.552  -5.994  0.00  0.00     0.000 A 
ATOM      6  C7  UNL d   1       3.715   1.368  -4.996  0.00  0.00    -0.073 A 
ATOM      7  C8  UNL d   1       3.979   2.848  -5.042  0.00  0.00     0.078 C 
ENDROOT
BRANCH   1   8
ATOM      8  C1  UNL d   1       2.224   1.600  -2.926  0.00  0.00     0.053 C 
ATOM      9  C   UNL d   1       3.078   1.721  -1.674  0.00  0.00     0.018 C 
ENDBRANCH   1   8
TORSDOF 1
ENDMDL
