MODEL 1
REMARK minimizedAffinity 3.03558564
REMARK minimizedRMSD -1
REMARK  1 active torsions:
REMARK  status: ('A' for Active; 'I' for Inactive)
REMARK    1  A    between atoms: C1_2  and  C2_3 
ROOT
ATOM      1  C2  UNL d   1      -4.702  -1.927   3.345  0.00  0.00    -0.076 A 
ATOM      2  C3  UNL d   1      -4.376  -0.980   4.331  0.00  0.00     0.004 A 
ATOM      3  C4  UNL d   1      -4.138  -1.369   5.648  0.00  0.00    -0.003 A 
ATOM      4  C5  UNL d   1      -4.220  -2.712   6.000  0.00  0.00     0.000 A 
ATOM      5  C6  UNL d   1      -4.524  -3.667   5.030  0.00  0.00     0.000 A 
ATOM      6  C7  UNL d   1      -4.752  -3.293   3.695  0.00  0.00    -0.073 A 
ATOM      7  C8  UNL d   1      -5.082  -4.364   2.691  0.00  0.00     0.078 C 
ENDROOT
BRANCH   1   8
ATOM      8  C1  UNL d   1      -4.977  -1.442   1.939  0.00  0.00     0.053 C 
ATOM      9  C   UNL d   1      -3.705  -1.079   1.189  0.00  0.00     0.018 C 
ENDBRANCH   1   8
TORSDOF 1
ENDMDL
