MODEL 1
REMARK minimizedAffinity -0.0198019054
REMARK minimizedRMSD -1
REMARK  1 active torsions:
REMARK  status: ('A' for Active; 'I' for Inactive)
REMARK    1  A    between atoms: C1_2  and  C2_3 
ROOT
ATOM      1  C2  UNL d   1       5.679  -4.294   3.834  0.00  0.00    -0.076 A 
ATOM      2  C3  UNL d   1       5.609  -3.053   3.177  0.00  0.00     0.004 A 
ATOM      3  C4  UNL d   1       5.723  -1.859   3.887  0.00  0.00    -0.003 A 
ATOM      4  C5  UNL d   1       5.910  -1.886   5.264  0.00  0.00     0.000 A 
ATOM      5  C6  UNL d   1       6.000  -3.108   5.929  0.00  0.00     0.000 A 
ATOM      6  C7  UNL d   1       5.903  -4.322   5.227  0.00  0.00    -0.073 A 
ATOM      7  C8  UNL d   1       6.000  -5.611   5.995  0.00  0.00     0.078 C 
ENDROOT
BRANCH   1   8
ATOM      8  C1  UNL d   1       5.520  -5.556   3.016  0.00  0.00     0.053 C 
ATOM      9  C   UNL d   1       4.068  -5.851   2.674  0.00  0.00     0.018 C 
ENDBRANCH   1   8
TORSDOF 1
ENDMDL
