MODEL 1
REMARK minimizedAffinity 5.69344091
REMARK minimizedRMSD -1
REMARK  1 active torsions:
REMARK  status: ('A' for Active; 'I' for Inactive)
REMARK    1  A    between atoms: C1_2  and  C2_3 
ROOT
ATOM      1  C2  UNL d   1       5.870  -3.632   3.599  0.00  0.00    -0.076 A 
ATOM      2  C3  UNL d   1       5.802  -5.021   3.397  0.00  0.00     0.004 A 
ATOM      3  C4  UNL d   1       5.824  -5.905   4.474  0.00  0.00    -0.003 A 
ATOM      4  C5  UNL d   1       5.915  -5.414   5.772  0.00  0.00     0.000 A 
ATOM      5  C6  UNL d   1       5.966  -4.038   5.992  0.00  0.00     0.000 A 
ATOM      6  C7  UNL d   1       5.928  -3.132   4.918  0.00  0.00    -0.073 A 
ATOM      7  C8  UNL d   1       5.992  -1.659   5.213  0.00  0.00     0.078 C 
ENDROOT
BRANCH   1   8
ATOM      8  C1  UNL d   1       5.869  -2.723   2.391  0.00  0.00     0.053 C 
ATOM      9  C   UNL d   1       5.219  -1.377   2.674  0.00  0.00     0.018 C 
ENDBRANCH   1   8
TORSDOF 1
ENDMDL
