MODEL 1
REMARK minimizedAffinity 1.49573541
REMARK minimizedRMSD -1
REMARK  1 active torsions:
REMARK  status: ('A' for Active; 'I' for Inactive)
REMARK    1  A    between atoms: C1_2  and  C2_3 
ROOT
ATOM      1  C2  UNL d   1       3.775  -5.843   2.379  0.00  0.00    -0.076 A 
ATOM      2  C3  UNL d   1       5.175  -5.823   2.253  0.00  0.00     0.004 A 
ATOM      3  C4  UNL d   1       5.998  -5.881   3.376  0.00  0.00    -0.003 A 
ATOM      4  C5  UNL d   1       5.434  -5.960   4.645  0.00  0.00     0.000 A 
ATOM      5  C6  UNL d   1       4.047  -5.999   4.788  0.00  0.00     0.000 A 
ATOM      6  C7  UNL d   1       3.204  -5.958   3.664  0.00  0.00    -0.073 A 
ATOM      7  C8  UNL d   1       1.715  -5.996   3.877  0.00  0.00     0.078 C 
ENDROOT
BRANCH   1   8
ATOM      8  C1  UNL d   1       2.934  -5.750   1.126  0.00  0.00     0.053 C 
ATOM      9  C   UNL d   1       1.986  -4.561   1.147  0.00  0.00     0.018 C 
ENDBRANCH   1   8
TORSDOF 1
ENDMDL
