MODEL 1
REMARK minimizedAffinity -0.228946462
REMARK minimizedRMSD -1
REMARK  1 active torsions:
REMARK  status: ('A' for Active; 'I' for Inactive)
REMARK    1  A    between atoms: C1_2  and  C2_3 
ROOT
ATOM      1  C2  UNL d   1      -3.294   5.309   4.115  0.00  0.00    -0.076 A 
ATOM      2  C3  UNL d   1      -4.313   5.913   4.872  0.00  0.00     0.004 A 
ATOM      3  C4  UNL d   1      -5.655   5.736   4.539  0.00  0.00    -0.003 A 
ATOM      4  C5  UNL d   1      -6.000   4.953   3.443  0.00  0.00     0.000 A 
ATOM      5  C6  UNL d   1      -5.003   4.333   2.691  0.00  0.00     0.000 A 
ATOM      6  C7  UNL d   1      -3.646   4.487   3.023  0.00  0.00    -0.073 A 
ATOM      7  C8  UNL d   1      -2.612   3.800   2.174  0.00  0.00     0.078 C 
ENDROOT
BRANCH   1   8
ATOM      8  C1  UNL d   1      -1.856   5.558   4.508  0.00  0.00     0.053 C 
ATOM      9  C   UNL d   1      -1.715   5.999   5.957  0.00  0.00     0.018 C 
ENDBRANCH   1   8
TORSDOF 1
ENDMDL
