MODEL 1
REMARK minimizedAffinity 0.323452592
REMARK minimizedRMSD -1
REMARK  1 active torsions:
REMARK  status: ('A' for Active; 'I' for Inactive)
REMARK    1  A    between atoms: C1_2  and  C2_3 
ROOT
ATOM      1  C2  UNL d   1       0.634  -5.249   1.459  0.00  0.00    -0.076 A 
ATOM      2  C3  UNL d   1       1.764  -5.241   0.623  0.00  0.00     0.004 A 
ATOM      3  C4  UNL d   1       3.020  -5.597   1.111  0.00  0.00    -0.003 A 
ATOM      4  C5  UNL d   1       3.166  -5.969   2.443  0.00  0.00     0.000 A 
ATOM      5  C6  UNL d   1       2.053  -6.000   3.282  0.00  0.00     0.000 A 
ATOM      6  C7  UNL d   1       0.777  -5.659   2.802  0.00  0.00    -0.073 A 
ATOM      7  C8  UNL d   1      -0.387  -5.705   3.753  0.00  0.00     0.078 C 
ENDROOT
BRANCH   1   8
ATOM      8  C1  UNL d   1      -0.698  -4.827   0.882  0.00  0.00     0.053 C 
ATOM      9  C   UNL d   1      -1.860  -5.628   1.449  0.00  0.00     0.018 C 
ENDBRANCH   1   8
TORSDOF 1
ENDMDL
