MODEL 1
REMARK minimizedAffinity 3.10643864
REMARK minimizedRMSD -1
REMARK  1 active torsions:
REMARK  status: ('A' for Active; 'I' for Inactive)
REMARK    1  A    between atoms: C1_2  and  C2_3 
ROOT
ATOM      1  C2  UNL d   1      -3.426  -5.183   1.264  0.00  0.00    -0.076 A 
ATOM      2  C3  UNL d   1      -4.491  -5.935   1.789  0.00  0.00     0.004 A 
ATOM      3  C4  UNL d   1      -5.768  -5.387   1.905  0.00  0.00    -0.003 A 
ATOM      4  C5  UNL d   1      -6.000  -4.078   1.497  0.00  0.00     0.000 A 
ATOM      5  C6  UNL d   1      -4.959  -3.323   0.957  0.00  0.00     0.000 A 
ATOM      6  C7  UNL d   1      -3.670  -3.866   0.818  0.00  0.00    -0.073 A 
ATOM      7  C8  UNL d   1      -2.583  -3.004   0.236  0.00  0.00     0.078 C 
ENDROOT
BRANCH   1   8
ATOM      8  C1  UNL d   1      -2.057  -5.820   1.188  0.00  0.00     0.053 C 
ATOM      9  C   UNL d   1      -1.416  -5.989   2.556  0.00  0.00     0.018 C 
ENDBRANCH   1   8
TORSDOF 1
ENDMDL
