MODEL 1
REMARK minimizedAffinity 9.02004433
REMARK minimizedRMSD -1
REMARK  1 active torsions:
REMARK  status: ('A' for Active; 'I' for Inactive)
REMARK    1  A    between atoms: C1_2  and  C2_3 
ROOT
ATOM      1  C2  UNL d   1      -5.959   1.567   5.013  0.00  0.00    -0.076 A 
ATOM      2  C3  UNL d   1      -5.957   0.564   5.997  0.00  0.00     0.004 A 
ATOM      3  C4  UNL d   1      -5.975  -0.785   5.646  0.00  0.00    -0.003 A 
ATOM      4  C5  UNL d   1      -5.996  -1.152   4.305  0.00  0.00     0.000 A 
ATOM      5  C6  UNL d   1      -5.981  -0.170   3.315  0.00  0.00     0.000 A 
ATOM      6  C7  UNL d   1      -5.946   1.194   3.652  0.00  0.00    -0.073 A 
ATOM      7  C8  UNL d   1      -5.937   2.211   2.544  0.00  0.00     0.078 C 
ENDROOT
BRANCH   1   8
ATOM      8  C1  UNL d   1      -5.966   3.014   5.454  0.00  0.00     0.053 C 
ATOM      9  C   UNL d   1      -4.598   3.487   5.921  0.00  0.00     0.018 C 
ENDBRANCH   1   8
TORSDOF 1
ENDMDL
