MODEL 1
REMARK minimizedAffinity 12.2753363
REMARK minimizedRMSD -1
REMARK  1 active torsions:
REMARK  status: ('A' for Active; 'I' for Inactive)
REMARK    1  A    between atoms: C1_2  and  C2_3 
ROOT
ATOM      1  C2  UNL d   1      -0.223   2.301   2.291  0.00  0.00    -0.076 A 
ATOM      2  C3  UNL d   1      -0.227   1.302   1.303  0.00  0.00     0.004 A 
ATOM      3  C4  UNL d   1      -1.416   0.692   0.904  0.00  0.00    -0.003 A 
ATOM      4  C5  UNL d   1      -2.619   1.072   1.488  0.00  0.00     0.000 A 
ATOM      5  C6  UNL d   1      -2.636   2.075   2.457  0.00  0.00     0.000 A 
ATOM      6  C7  UNL d   1      -1.448   2.711   2.859  0.00  0.00    -0.073 A 
ATOM      7  C8  UNL d   1      -1.523   3.781   3.913  0.00  0.00     0.078 C 
ENDROOT
BRANCH   1   8
ATOM      8  C1  UNL d   1       1.100   2.907   2.702  0.00  0.00     0.053 C 
ATOM      9  C   UNL d   1       1.485   2.553   4.130  0.00  0.00     0.018 C 
ENDBRANCH   1   8
TORSDOF 1
ENDMDL
