MODEL 1
REMARK minimizedAffinity 6.90276861
REMARK minimizedRMSD -1
REMARK  1 active torsions:
REMARK  status: ('A' for Active; 'I' for Inactive)
REMARK    1  A    between atoms: C1_2  and  C2_3 
ROOT
ATOM      1  C2  UNL d   1      -0.942  -4.220   0.838  0.00  0.00    -0.076 A 
ATOM      2  C3  UNL d   1      -0.567  -2.867   0.770  0.00  0.00     0.004 A 
ATOM      3  C4  UNL d   1      -1.490  -1.883   0.423  0.00  0.00    -0.003 A 
ATOM      4  C5  UNL d   1      -2.805  -2.236   0.138  0.00  0.00     0.000 A 
ATOM      5  C6  UNL d   1      -3.199  -3.571   0.217  0.00  0.00     0.000 A 
ATOM      6  C7  UNL d   1      -2.284  -4.574   0.581  0.00  0.00    -0.073 A 
ATOM      7  C8  UNL d   1      -2.762  -5.998   0.645  0.00  0.00     0.078 C 
ENDROOT
BRANCH   1   8
ATOM      8  C1  UNL d   1       0.110  -5.247   1.194  0.00  0.00     0.053 C 
ATOM      9  C   UNL d   1       0.066  -5.640   2.662  0.00  0.00     0.018 C 
ENDBRANCH   1   8
TORSDOF 1
ENDMDL
