MODEL 1
REMARK minimizedAffinity 10.0330639
REMARK minimizedRMSD -1
REMARK  1 active torsions:
REMARK  status: ('A' for Active; 'I' for Inactive)
REMARK    1  A    between atoms: C1_2  and  C2_3 
ROOT
ATOM      1  C2  UNL d   1       4.093   2.272   0.496  0.00  0.00    -0.076 A 
ATOM      2  C3  UNL d   1       2.761   2.599   0.188  0.00  0.00     0.004 A 
ATOM      3  C4  UNL d   1       1.700   1.920   0.785  0.00  0.00    -0.003 A 
ATOM      4  C5  UNL d   1       1.953   0.905   1.700  0.00  0.00     0.000 A 
ATOM      5  C6  UNL d   1       3.268   0.580   2.031  0.00  0.00     0.000 A 
ATOM      6  C7  UNL d   1       4.349   1.265   1.451  0.00  0.00    -0.073 A 
ATOM      7  C8  UNL d   1       5.747   0.869   1.840  0.00  0.00     0.078 C 
ENDROOT
BRANCH   1   8
ATOM      8  C1  UNL d   1       5.203   3.024  -0.203  0.00  0.00     0.053 C 
ATOM      9  C   UNL d   1       5.093   4.530  -0.018  0.00  0.00     0.018 C 
ENDBRANCH   1   8
TORSDOF 1
ENDMDL
