MODEL 1
REMARK minimizedAffinity 11.7850561
REMARK minimizedRMSD -1
REMARK  1 active torsions:
REMARK  status: ('A' for Active; 'I' for Inactive)
REMARK    1  A    between atoms: C1_2  and  C2_3 
ROOT
ATOM      1  C2  UNL d   1       2.378  -1.475  -4.769  0.00  0.00    -0.076 A 
ATOM      2  C3  UNL d   1       2.943  -1.036  -5.979  0.00  0.00     0.004 A 
ATOM      3  C4  UNL d   1       4.126  -0.299  -5.992  0.00  0.00    -0.003 A 
ATOM      4  C5  UNL d   1       4.764   0.010  -4.796  0.00  0.00     0.000 A 
ATOM      5  C6  UNL d   1       4.226  -0.433  -3.587  0.00  0.00     0.000 A 
ATOM      6  C7  UNL d   1       3.043  -1.190  -3.558  0.00  0.00    -0.073 A 
ATOM      7  C8  UNL d   1       2.505  -1.637  -2.226  0.00  0.00     0.078 C 
ENDROOT
BRANCH   1   8
ATOM      8  C1  UNL d   1       1.078  -2.247  -4.815  0.00  0.00     0.053 C 
ATOM      9  C   UNL d   1       0.206  -1.850  -5.996  0.00  0.00     0.018 C 
ENDBRANCH   1   8
TORSDOF 1
ENDMDL
