MODEL 1
REMARK minimizedAffinity -4.71657133
REMARK minimizedRMSD -1
REMARK  3 active torsions:
REMARK  status: ('A' for Active; 'I' for Inactive)
REMARK    1  A    between atoms: C3'_2  and  C2'_3 
REMARK    2  A    between atoms: C2'_3  and  C1'_4 
REMARK    3  A    between atoms: C1'_4  and  C1_5 
ROOT
ATOM      1  C1  N4B d   1       0.394  -0.497   0.472  0.00  0.00    -0.075 A 
ATOM      2  C2  N4B d   1       1.704  -0.062   0.177  0.00  0.00     0.002 A 
ATOM      3  C3  N4B d   1       1.991   1.281   0.149  0.00  0.00     0.002 A 
ATOM      4  C4  N4B d   1       0.985   2.203   0.394  0.00  0.00    -0.004 A 
ATOM      5  C5  N4B d   1      -0.273   1.773   0.703  0.00  0.00     0.002 A 
ATOM      6  C6  N4B d   1      -0.575   0.427   0.738  0.00  0.00     0.002 A 
ENDROOT
BRANCH   1   7
ATOM      7  C1' N4B d   1       0.012  -1.952   0.429  0.00  0.00     0.057 C 
BRANCH   7   8
ATOM      8  C2' N4B d   1       0.281  -2.499  -0.970  0.00  0.00     0.009 C 
BRANCH   8   9
ATOM      9  C3' N4B d   1      -0.884  -3.324  -1.491  0.00  0.00     0.004 C 
ATOM     10  C4' N4B d   1      -0.699  -3.754  -2.916  0.00  0.00     0.003 C 
ENDBRANCH   8   9
ENDBRANCH   7   8
ENDBRANCH   1   7
TORSDOF 3
ENDMDL
