MODEL 1
REMARK minimizedAffinity 4.76923609
REMARK minimizedRMSD -1
REMARK  3 active torsions:
REMARK  status: ('A' for Active; 'I' for Inactive)
REMARK    1  A    between atoms: C3'_2  and  C2'_3 
REMARK    2  A    between atoms: C2'_3  and  C1'_4 
REMARK    3  A    between atoms: C1'_4  and  C1_5 
ROOT
ATOM      1  C1  N4B d   1      -0.479  -3.810   0.207  0.00  0.00    -0.075 A 
ATOM      2  C2  N4B d   1      -1.651  -3.040   0.041  0.00  0.00     0.002 A 
ATOM      3  C3  N4B d   1      -2.299  -3.029  -1.170  0.00  0.00     0.002 A 
ATOM      4  C4  N4B d   1      -1.786  -3.761  -2.230  0.00  0.00    -0.004 A 
ATOM      5  C5  N4B d   1      -0.668  -4.523  -2.054  0.00  0.00     0.002 A 
ATOM      6  C6  N4B d   1      -0.008  -4.546  -0.841  0.00  0.00     0.002 A 
ENDROOT
BRANCH   1   7
ATOM      7  C1' N4B d   1       0.313  -3.786   1.486  0.00  0.00     0.057 C 
BRANCH   7   8
ATOM      8  C2' N4B d   1       0.340  -5.189   2.084  0.00  0.00     0.009 C 
BRANCH   8   9
ATOM      9  C3' N4B d   1       1.058  -5.222   3.422  0.00  0.00     0.004 C 
ATOM     10  C4' N4B d   1       0.308  -5.996   4.465  0.00  0.00     0.003 C 
ENDBRANCH   8   9
ENDBRANCH   7   8
ENDBRANCH   1   7
TORSDOF 3
ENDMDL
