MODEL 1
REMARK minimizedAffinity -1.05110097
REMARK minimizedRMSD -1
REMARK  3 active torsions:
REMARK  status: ('A' for Active; 'I' for Inactive)
REMARK    1  A    between atoms: C3'_2  and  C2'_3 
REMARK    2  A    between atoms: C2'_3  and  C1'_4 
REMARK    3  A    between atoms: C1'_4  and  C1_5 
ROOT
ATOM      1  C1  N4B d   1      -1.178  -4.244   1.209  0.00  0.00    -0.075 A 
ATOM      2  C2  N4B d   1      -0.770  -2.895   1.128  0.00  0.00     0.002 A 
ATOM      3  C3  N4B d   1      -0.816  -2.234  -0.075  0.00  0.00     0.002 A 
ATOM      4  C4  N4B d   1      -1.247  -2.905  -1.209  0.00  0.00    -0.004 A 
ATOM      5  C5  N4B d   1      -1.664  -4.201  -1.118  0.00  0.00     0.002 A 
ATOM      6  C6  N4B d   1      -1.626  -4.876   0.085  0.00  0.00     0.002 A 
ENDROOT
BRANCH   1   7
ATOM      7  C1' N4B d   1      -1.064  -5.034   2.485  0.00  0.00     0.057 C 
BRANCH   7   8
ATOM      8  C2' N4B d   1      -0.307  -4.206   3.519  0.00  0.00     0.009 C 
BRANCH   8   9
ATOM      9  C3' N4B d   1      -0.178  -4.935   4.846  0.00  0.00     0.004 C 
ATOM     10  C4' N4B d   1       0.878  -6.000   4.823  0.00  0.00     0.003 C 
ENDBRANCH   8   9
ENDBRANCH   7   8
ENDBRANCH   1   7
TORSDOF 3
ENDMDL
