MODEL 1
REMARK minimizedAffinity -0.596135437
REMARK minimizedRMSD -1
REMARK  3 active torsions:
REMARK  status: ('A' for Active; 'I' for Inactive)
REMARK    1  A    between atoms: C3'_2  and  C2'_3 
REMARK    2  A    between atoms: C2'_3  and  C1'_4 
REMARK    3  A    between atoms: C1'_4  and  C1_5 
ROOT
ATOM      1  C1  N4B d   1      -0.570  -3.996   0.457  0.00  0.00    -0.075 A 
ATOM      2  C2  N4B d   1      -1.961  -3.750   0.459  0.00  0.00     0.002 A 
ATOM      3  C3  N4B d   1      -2.683  -3.883  -0.702  0.00  0.00     0.002 A 
ATOM      4  C4  N4B d   1      -2.036  -4.240  -1.875  0.00  0.00    -0.004 A 
ATOM      5  C5  N4B d   1      -0.697  -4.500  -1.863  0.00  0.00     0.002 A 
ATOM      6  C6  N4B d   1       0.041  -4.375  -0.703  0.00  0.00     0.002 A 
ENDROOT
BRANCH   1   7
ATOM      7  C1' N4B d   1       0.275  -3.781   1.683  0.00  0.00     0.057 C 
BRANCH   7   8
ATOM      8  C2' N4B d   1      -0.374  -4.487   2.869  0.00  0.00     0.009 C 
BRANCH   8   9
ATOM      9  C3' N4B d   1       0.328  -5.791   3.209  0.00  0.00     0.004 C 
ATOM     10  C4' N4B d   1       0.482  -6.000   4.686  0.00  0.00     0.003 C 
ENDBRANCH   8   9
ENDBRANCH   7   8
ENDBRANCH   1   7
TORSDOF 3
ENDMDL
