MODEL 1
REMARK minimizedAffinity 1.04697227
REMARK minimizedRMSD -1
REMARK  3 active torsions:
REMARK  status: ('A' for Active; 'I' for Inactive)
REMARK    1  A    between atoms: C3'_2  and  C2'_3 
REMARK    2  A    between atoms: C2'_3  and  C1'_4 
REMARK    3  A    between atoms: C1'_4  and  C1_5 
ROOT
ATOM      1  C1  N4B d   1       4.703   5.752   3.251  0.00  0.00    -0.075 A 
ATOM      2  C2  N4B d   1       5.923   6.000   3.917  0.00  0.00     0.002 A 
ATOM      3  C3  N4B d   1       6.000   5.865   5.282  0.00  0.00     0.002 A 
ATOM      4  C4  N4B d   1       4.869   5.505   6.000  0.00  0.00    -0.004 A 
ATOM      5  C5  N4B d   1       3.701   5.243   5.346  0.00  0.00     0.002 A 
ATOM      6  C6  N4B d   1       3.611   5.370   3.974  0.00  0.00     0.002 A 
ENDROOT
BRANCH   1   7
ATOM      7  C1' N4B d   1       4.549   5.969   1.770  0.00  0.00     0.057 C 
BRANCH   7   8
ATOM      8  C2' N4B d   1       3.212   5.391   1.316  0.00  0.00     0.009 C 
BRANCH   8   9
ATOM      9  C3' N4B d   1       3.156   3.883   1.490  0.00  0.00     0.004 C 
ATOM     10  C4' N4B d   1       1.958   3.266   0.833  0.00  0.00     0.003 C 
ENDBRANCH   8   9
ENDBRANCH   7   8
ENDBRANCH   1   7
TORSDOF 3
ENDMDL
