MODEL 1
REMARK minimizedAffinity -2.76211953
REMARK minimizedRMSD -1
REMARK  3 active torsions:
REMARK  status: ('A' for Active; 'I' for Inactive)
REMARK    1  A    between atoms: C3'_2  and  C2'_3 
REMARK    2  A    between atoms: C2'_3  and  C1'_4 
REMARK    3  A    between atoms: C1'_4  and  C1_5 
ROOT
ATOM      1  C1  N4B d   1      -1.089  -1.850   0.414  0.00  0.00    -0.075 A 
ATOM      2  C2  N4B d   1      -1.914  -2.800   1.056  0.00  0.00     0.002 A 
ATOM      3  C3  N4B d   1      -2.317  -3.926   0.382  0.00  0.00     0.002 A 
ATOM      4  C4  N4B d   1      -1.927  -4.113  -0.936  0.00  0.00    -0.004 A 
ATOM      5  C5  N4B d   1      -1.110  -3.203  -1.541  0.00  0.00     0.002 A 
ATOM      6  C6  N4B d   1      -0.693  -2.069  -0.873  0.00  0.00     0.002 A 
ENDROOT
BRANCH   1   7
ATOM      7  C1' N4B d   1      -0.693  -0.562   1.082  0.00  0.00     0.057 C 
BRANCH   7   8
ATOM      8  C2' N4B d   1      -1.948   0.158   1.567  0.00  0.00     0.009 C 
BRANCH   8   9
ATOM      9  C3' N4B d   1      -2.319   1.323   0.665  0.00  0.00     0.004 C 
ATOM     10  C4' N4B d   1      -3.768   1.696   0.764  0.00  0.00     0.003 C 
ENDBRANCH   8   9
ENDBRANCH   7   8
ENDBRANCH   1   7
TORSDOF 3
ENDMDL
