MODEL 1
REMARK minimizedAffinity -1.72106242
REMARK minimizedRMSD -1
REMARK  3 active torsions:
REMARK  status: ('A' for Active; 'I' for Inactive)
REMARK    1  A    between atoms: C3'_2  and  C2'_3 
REMARK    2  A    between atoms: C2'_3  and  C1'_4 
REMARK    3  A    between atoms: C1'_4  and  C1_5 
ROOT
ATOM      1  C1  N4B d   1      -0.145  -3.030   0.403  0.00  0.00    -0.075 A 
ATOM      2  C2  N4B d   1      -0.025  -3.277  -0.982  0.00  0.00     0.002 A 
ATOM      3  C3  N4B d   1      -1.112  -3.713  -1.699  0.00  0.00     0.002 A 
ATOM      4  C4  N4B d   1      -2.319  -3.927  -1.052  0.00  0.00    -0.004 A 
ATOM      5  C5  N4B d   1      -2.434  -3.663   0.282  0.00  0.00     0.002 A 
ATOM      6  C6  N4B d   1      -1.351  -3.220   1.014  0.00  0.00     0.002 A 
ENDROOT
BRANCH   1   7
ATOM      7  C1' N4B d   1       1.036  -2.634   1.245  0.00  0.00     0.057 C 
BRANCH   7   8
ATOM      8  C2' N4B d   1       2.307  -2.740   0.407  0.00  0.00     0.009 C 
BRANCH   8   9
ATOM      9  C3' N4B d   1       2.610  -4.175   0.012  0.00  0.00     0.004 C 
ATOM     10  C4' N4B d   1       4.051  -4.388  -0.342  0.00  0.00     0.003 C 
ENDBRANCH   8   9
ENDBRANCH   7   8
ENDBRANCH   1   7
TORSDOF 3
ENDMDL
