MODEL 1
REMARK minimizedAffinity 7.32673693
REMARK minimizedRMSD -1
REMARK  3 active torsions:
REMARK  status: ('A' for Active; 'I' for Inactive)
REMARK    1  A    between atoms: C3'_2  and  C2'_3 
REMARK    2  A    between atoms: C2'_3  and  C1'_4 
REMARK    3  A    between atoms: C1'_4  and  C1_5 
ROOT
ATOM      1  C1  N4B d   1       5.737   4.939   2.222  0.00  0.00    -0.075 A 
ATOM      2  C2  N4B d   1       5.906   5.908   1.208  0.00  0.00     0.002 A 
ATOM      3  C3  N4B d   1       5.999   5.518  -0.105  0.00  0.00     0.002 A 
ATOM      4  C4  N4B d   1       5.945   4.169  -0.426  0.00  0.00    -0.004 A 
ATOM      5  C5  N4B d   1       5.756   3.242   0.556  0.00  0.00     0.002 A 
ATOM      6  C6  N4B d   1       5.657   3.620   1.880  0.00  0.00     0.002 A 
ENDROOT
BRANCH   1   7
ATOM      7  C1' N4B d   1       5.716   5.310   3.679  0.00  0.00     0.057 C 
BRANCH   7   8
ATOM      8  C2' N4B d   1       4.389   5.991   4.004  0.00  0.00     0.009 C 
BRANCH   8   9
ATOM      9  C3' N4B d   1       4.021   5.847   5.470  0.00  0.00     0.004 C 
ATOM     10  C4' N4B d   1       2.548   5.991   5.716  0.00  0.00     0.003 C 
ENDBRANCH   8   9
ENDBRANCH   7   8
ENDBRANCH   1   7
TORSDOF 3
ENDMDL
