MODEL 1
REMARK minimizedAffinity -0.96582973
REMARK minimizedRMSD -1
REMARK  3 active torsions:
REMARK  status: ('A' for Active; 'I' for Inactive)
REMARK    1  A    between atoms: C3'_2  and  C2'_3 
REMARK    2  A    between atoms: C2'_3  and  C1'_4 
REMARK    3  A    between atoms: C1'_4  and  C1_5 
ROOT
ATOM      1  C1  N4B d   1       0.316   2.600   1.644  0.00  0.00    -0.075 A 
ATOM      2  C2  N4B d   1       1.088   1.419   1.704  0.00  0.00     0.002 A 
ATOM      3  C3  N4B d   1       2.214   1.295   0.927  0.00  0.00     0.002 A 
ATOM      4  C4  N4B d   1       2.575   2.326   0.073  0.00  0.00    -0.004 A 
ATOM      5  C5  N4B d   1       1.839   3.473   0.040  0.00  0.00     0.002 A 
ATOM      6  C6  N4B d   1       0.707   3.614   0.818  0.00  0.00     0.002 A 
ENDROOT
BRANCH   1   7
ATOM      7  C1' N4B d   1      -0.970   2.748   2.410  0.00  0.00     0.057 C 
BRANCH   7   8
ATOM      8  C2' N4B d   1      -2.110   2.140   1.597  0.00  0.00     0.009 C 
BRANCH   8   9
ATOM      9  C3' N4B d   1      -1.917   0.650   1.374  0.00  0.00     0.004 C 
ATOM     10  C4' N4B d   1      -3.213  -0.104   1.337  0.00  0.00     0.003 C 
ENDBRANCH   8   9
ENDBRANCH   7   8
ENDBRANCH   1   7
TORSDOF 3
ENDMDL
