MODEL 1
REMARK minimizedAffinity 6.71961641
REMARK minimizedRMSD -1
REMARK  3 active torsions:
REMARK  status: ('A' for Active; 'I' for Inactive)
REMARK    1  A    between atoms: C3'_2  and  C2'_3 
REMARK    2  A    between atoms: C2'_3  and  C1'_4 
REMARK    3  A    between atoms: C1'_4  and  C1_5 
ROOT
ATOM      1  C1  N4B d   1      -3.148  -0.561   1.318  0.00  0.00    -0.075 A 
ATOM      2  C2  N4B d   1      -2.916   0.674   0.673  0.00  0.00     0.002 A 
ATOM      3  C3  N4B d   1      -3.957   1.544   0.462  0.00  0.00     0.002 A 
ATOM      4  C4  N4B d   1      -5.237   1.194   0.868  0.00  0.00    -0.004 A 
ATOM      5  C5  N4B d   1      -5.447   0.010   1.513  0.00  0.00     0.002 A 
ATOM      6  C6  N4B d   1      -4.409  -0.872   1.735  0.00  0.00     0.002 A 
ENDROOT
BRANCH   1   7
ATOM      7  C1' N4B d   1      -2.057  -1.582   1.494  0.00  0.00     0.057 C 
BRANCH   7   8
ATOM      8  C2' N4B d   1      -1.843  -2.319   0.175  0.00  0.00     0.009 C 
BRANCH   8   9
ATOM      9  C3' N4B d   1      -2.264  -3.776   0.264  0.00  0.00     0.004 C 
ATOM     10  C4' N4B d   1      -2.923  -4.268  -0.991  0.00  0.00     0.003 C 
ENDBRANCH   8   9
ENDBRANCH   7   8
ENDBRANCH   1   7
TORSDOF 3
ENDMDL
