MODEL 1
REMARK minimizedAffinity 5.17983961
REMARK minimizedRMSD -1
REMARK  3 active torsions:
REMARK  status: ('A' for Active; 'I' for Inactive)
REMARK    1  A    between atoms: C3'_2  and  C2'_3 
REMARK    2  A    between atoms: C2'_3  and  C1'_4 
REMARK    3  A    between atoms: C1'_4  and  C1_5 
ROOT
ATOM      1  C1  N4B d   1      -0.904   2.732  -4.452  0.00  0.00    -0.075 A 
ATOM      2  C2  N4B d   1      -1.246   3.872  -5.212  0.00  0.00     0.002 A 
ATOM      3  C3  N4B d   1      -2.392   3.873  -5.969  0.00  0.00     0.002 A 
ATOM      4  C4  N4B d   1      -3.197   2.745  -5.997  0.00  0.00    -0.004 A 
ATOM      5  C5  N4B d   1      -2.873   1.657  -5.240  0.00  0.00     0.002 A 
ATOM      6  C6  N4B d   1      -1.727   1.643  -4.471  0.00  0.00     0.002 A 
ENDROOT
BRANCH   1   7
ATOM      7  C1' N4B d   1       0.383   2.651  -3.676  0.00  0.00     0.057 C 
BRANCH   7   8
ATOM      8  C2' N4B d   1       1.351   1.727  -4.408  0.00  0.00     0.009 C 
BRANCH   8   9
ATOM      9  C3' N4B d   1       1.784   2.302  -5.746  0.00  0.00     0.004 C 
ATOM     10  C4' N4B d   1       3.173   2.866  -5.714  0.00  0.00     0.003 C 
ENDBRANCH   8   9
ENDBRANCH   7   8
ENDBRANCH   1   7
TORSDOF 3
ENDMDL
