MODEL 1
REMARK minimizedAffinity 3.15582132
REMARK minimizedRMSD -1
REMARK  3 active torsions:
REMARK  status: ('A' for Active; 'I' for Inactive)
REMARK    1  A    between atoms: C3'_2  and  C2'_3 
REMARK    2  A    between atoms: C2'_3  and  C1'_4 
REMARK    3  A    between atoms: C1'_4  and  C1_5 
ROOT
ATOM      1  C1  N4B d   1      -1.295  -3.018   0.372  0.00  0.00    -0.075 A 
ATOM      2  C2  N4B d   1      -1.211  -2.947  -1.036  0.00  0.00     0.002 A 
ATOM      3  C3  N4B d   1      -1.869  -3.870  -1.810  0.00  0.00     0.002 A 
ATOM      4  C4  N4B d   1      -2.598  -4.880  -1.202  0.00  0.00    -0.004 A 
ATOM      5  C5  N4B d   1      -2.696  -4.927   0.158  0.00  0.00     0.002 A 
ATOM      6  C6  N4B d   1      -2.043  -4.003   0.949  0.00  0.00     0.002 A 
ENDROOT
BRANCH   1   7
ATOM      7  C1' N4B d   1      -0.523  -2.083   1.262  0.00  0.00     0.057 C 
BRANCH   7   8
ATOM      8  C2' N4B d   1       0.952  -2.125   0.874  0.00  0.00     0.009 C 
BRANCH   8   9
ATOM      9  C3' N4B d   1       1.436  -0.791   0.331  0.00  0.00     0.004 C 
ATOM     10  C4' N4B d   1       1.055   0.365   1.207  0.00  0.00     0.003 C 
ENDBRANCH   8   9
ENDBRANCH   7   8
ENDBRANCH   1   7
TORSDOF 3
ENDMDL
