MODEL 1
REMARK minimizedAffinity 4.56300688
REMARK minimizedRMSD -1
REMARK  3 active torsions:
REMARK  status: ('A' for Active; 'I' for Inactive)
REMARK    1  A    between atoms: C3'_2  and  C2'_3 
REMARK    2  A    between atoms: C2'_3  and  C1'_4 
REMARK    3  A    between atoms: C1'_4  and  C1_5 
ROOT
ATOM      1  C1  N4B d   1      -2.050   2.040  -4.313  0.00  0.00    -0.075 A 
ATOM      2  C2  N4B d   1      -0.763   1.496  -4.108  0.00  0.00     0.002 A 
ATOM      3  C3  N4B d   1       0.298   1.942  -4.858  0.00  0.00     0.002 A 
ATOM      4  C4  N4B d   1       0.093   2.914  -5.826  0.00  0.00    -0.004 A 
ATOM      5  C5  N4B d   1      -1.148   3.452  -6.000  0.00  0.00     0.002 A 
ATOM      6  C6  N4B d   1      -2.223   3.016  -5.251  0.00  0.00     0.002 A 
ENDROOT
BRANCH   1   7
ATOM      7  C1' N4B d   1      -3.256   1.524  -3.577  0.00  0.00     0.057 C 
BRANCH   7   8
ATOM      8  C2' N4B d   1      -3.160   1.930  -2.110  0.00  0.00     0.009 C 
BRANCH   8   9
ATOM      9  C3' N4B d   1      -4.411   1.557  -1.333  0.00  0.00     0.004 C 
ATOM     10  C4' N4B d   1      -4.127   1.220   0.100  0.00  0.00     0.003 C 
ENDBRANCH   8   9
ENDBRANCH   7   8
ENDBRANCH   1   7
TORSDOF 3
ENDMDL
