MODEL 1
REMARK minimizedAffinity -4.73738718
REMARK minimizedRMSD -1
REMARK  1 active torsions:
REMARK  status: ('A' for Active; 'I' for Inactive)
REMARK    1  A    between atoms: N_2  and  C1_3 
ROOT
ATOM      1  C1  UNL d   1      -0.725   0.590   1.049  0.00  0.00     0.143 A 
ATOM      2  C2  UNL d   1      -0.086  -0.605   1.397  0.00  0.00    -0.057 A 
ATOM      3  C3  UNL d   1       0.863  -1.193   0.552  0.00  0.00     0.033 A 
ATOM      4  C4  UNL d   1       1.169  -0.610  -0.673  0.00  0.00    -0.042 A 
ATOM      5  C5  UNL d   1       0.527   0.564  -1.051  0.00  0.00     0.033 A 
ATOM      6  C6  UNL d   1      -0.415   1.151  -0.200  0.00  0.00    -0.057 A 
ENDROOT
BRANCH   1   7
ATOM      7  N   UNL d   1      -1.749   1.172   1.801  0.00  0.00    -0.732 N 
ATOM      8  C   UNL d   1      -2.980   1.593   1.168  0.00  0.00     0.284 C 
ATOM      9  H3  UNL d   1      -1.879   0.714   2.700  0.00  0.00     0.395 HD
ENDBRANCH   1   7
TORSDOF 1
ENDMDL
