MODEL 1
REMARK minimizedAffinity -0.457659811
REMARK minimizedRMSD -1
REMARK  1 active torsions:
REMARK  status: ('A' for Active; 'I' for Inactive)
REMARK    1  A    between atoms: N_2  and  C1_3 
ROOT
ATOM      1  C1  UNL d   1      -0.014  -0.120   0.058  0.00  0.00     0.143 A 
ATOM      2  C2  UNL d   1      -0.870   0.925   0.421  0.00  0.00    -0.057 A 
ATOM      3  C3  UNL d   1      -1.248   1.125   1.754  0.00  0.00     0.033 A 
ATOM      4  C4  UNL d   1      -0.797   0.262   2.747  0.00  0.00    -0.042 A 
ATOM      5  C5  UNL d   1       0.035  -0.799   2.406  0.00  0.00     0.033 A 
ATOM      6  C6  UNL d   1       0.414  -0.989   1.074  0.00  0.00    -0.057 A 
ENDROOT
BRANCH   1   7
ATOM      7  N   UNL d   1       0.319  -0.430  -1.263  0.00  0.00    -0.732 N 
ATOM      8  C   UNL d   1       0.668  -1.784  -1.637  0.00  0.00     0.284 C 
ATOM      9  H3  UNL d   1      -0.277   0.046  -1.936  0.00  0.00     0.395 HD
ENDBRANCH   1   7
TORSDOF 1
ENDMDL
