MODEL 1
REMARK minimizedAffinity -4.51320744
REMARK minimizedRMSD -1
REMARK  1 active torsions:
REMARK  status: ('A' for Active; 'I' for Inactive)
REMARK    1  A    between atoms: N_2  and  C1_3 
ROOT
ATOM      1  C1  UNL d   1       0.255   0.047  -0.489  0.00  0.00     0.143 A 
ATOM      2  C2  UNL d   1      -0.255   1.283  -0.901  0.00  0.00    -0.057 A 
ATOM      3  C3  UNL d   1      -1.330   1.883  -0.235  0.00  0.00     0.033 A 
ATOM      4  C4  UNL d   1      -1.936   1.241   0.841  0.00  0.00    -0.042 A 
ATOM      5  C5  UNL d   1      -1.462   0.000   1.251  0.00  0.00     0.033 A 
ATOM      6  C6  UNL d   1      -0.383  -0.591   0.586  0.00  0.00    -0.057 A 
ENDROOT
BRANCH   1   7
ATOM      7  N   UNL d   1       1.258  -0.647  -1.171  0.00  0.00    -0.732 N 
ATOM      8  C   UNL d   1       1.057  -2.021  -1.579  0.00  0.00     0.284 C 
ATOM      9  H3  UNL d   1       1.725  -0.070  -1.867  0.00  0.00     0.395 HD
ENDBRANCH   1   7
TORSDOF 1
ENDMDL
