MODEL 1
REMARK minimizedAffinity -4.01752615
REMARK minimizedRMSD -1
REMARK  1 active torsions:
REMARK  status: ('A' for Active; 'I' for Inactive)
REMARK    1  A    between atoms: N_2  and  C1_3 
ROOT
ATOM      1  C1  UNL d   1       0.098  -0.497   0.099  0.00  0.00     0.143 A 
ATOM      2  C2  UNL d   1      -0.133  -0.802   1.444  0.00  0.00    -0.057 A 
ATOM      3  C3  UNL d   1      -0.933   0.019   2.249  0.00  0.00     0.033 A 
ATOM      4  C4  UNL d   1      -1.493   1.180   1.727  0.00  0.00    -0.042 A 
ATOM      5  C5  UNL d   1      -1.257   1.517   0.398  0.00  0.00     0.033 A 
ATOM      6  C6  UNL d   1      -0.463   0.689  -0.401  0.00  0.00    -0.057 A 
ENDROOT
BRANCH   1   7
ATOM      7  N   UNL d   1       0.963  -1.221  -0.726  0.00  0.00    -0.732 N 
ATOM      8  C   UNL d   1       0.500  -2.400  -1.425  0.00  0.00     0.284 C 
ATOM      9  H3  UNL d   1       1.565  -0.617  -1.281  0.00  0.00     0.395 HD
ENDBRANCH   1   7
TORSDOF 1
ENDMDL
