MODEL 1
REMARK minimizedAffinity -2.03312588
REMARK minimizedRMSD -1
REMARK  1 active torsions:
REMARK  status: ('A' for Active; 'I' for Inactive)
REMARK    1  A    between atoms: N_2  and  C1_3 
ROOT
ATOM      1  C1  UNL d   1      -0.485   0.415   0.813  0.00  0.00     0.143 A 
ATOM      2  C2  UNL d   1      -0.923   0.603  -0.502  0.00  0.00    -0.057 A 
ATOM      3  C3  UNL d   1      -1.838   1.613  -0.825  0.00  0.00     0.033 A 
ATOM      4  C4  UNL d   1      -2.354   2.436   0.169  0.00  0.00    -0.042 A 
ATOM      5  C5  UNL d   1      -1.952   2.252   1.487  0.00  0.00     0.033 A 
ATOM      6  C6  UNL d   1      -1.034   1.246   1.803  0.00  0.00    -0.057 A 
ENDROOT
BRANCH   1   7
ATOM      7  N   UNL d   1       0.347  -0.633   1.214  0.00  0.00    -0.732 N 
ATOM      8  C   UNL d   1       0.357  -1.082   2.590  0.00  0.00     0.284 C 
ATOM      9  H3  UNL d   1       0.378  -1.387   0.531  0.00  0.00     0.395 HD
ENDBRANCH   1   7
TORSDOF 1
ENDMDL
