MODEL 1
REMARK minimizedAffinity -5.22500038
REMARK minimizedRMSD -1
REMARK  1 active torsions:
REMARK  status: ('A' for Active; 'I' for Inactive)
REMARK    1  A    between atoms: N_2  and  C1_3 
ROOT
ATOM      1  C1  UNL d   1      -0.390   0.935   0.453  0.00  0.00     0.143 A 
ATOM      2  C2  UNL d   1      -1.234   1.571   1.370  0.00  0.00    -0.057 A 
ATOM      3  C3  UNL d   1      -1.514   2.939   1.270  0.00  0.00     0.033 A 
ATOM      4  C4  UNL d   1      -0.931   3.704   0.265  0.00  0.00    -0.042 A 
ATOM      5  C5  UNL d   1      -0.070   3.097  -0.642  0.00  0.00     0.033 A 
ATOM      6  C6  UNL d   1       0.201   1.729  -0.542  0.00  0.00    -0.057 A 
ENDROOT
BRANCH   1   7
ATOM      7  N   UNL d   1       0.005  -0.401   0.557  0.00  0.00    -0.732 N 
ATOM      8  C   UNL d   1       0.477  -1.123  -0.605  0.00  0.00     0.284 C 
ATOM      9  H3  UNL d   1       0.538  -0.584   1.404  0.00  0.00     0.395 HD
ENDBRANCH   1   7
TORSDOF 1
ENDMDL
