MODEL 1
REMARK minimizedAffinity -4.56177616
REMARK minimizedRMSD -1
REMARK  1 active torsions:
REMARK  status: ('A' for Active; 'I' for Inactive)
REMARK    1  A    between atoms: N_2  and  C1_3 
ROOT
ATOM      1  C1  UNL d   1       0.079   0.466   0.142  0.00  0.00     0.143 A 
ATOM      2  C2  UNL d   1      -0.388   0.395   1.459  0.00  0.00    -0.057 A 
ATOM      3  C3  UNL d   1      -0.956   1.508   2.089  0.00  0.00     0.033 A 
ATOM      4  C4  UNL d   1      -1.041   2.725   1.421  0.00  0.00    -0.042 A 
ATOM      5  C5  UNL d   1      -0.561   2.826   0.120  0.00  0.00     0.033 A 
ATOM      6  C6  UNL d   1      -0.001   1.709  -0.507  0.00  0.00    -0.057 A 
ENDROOT
BRANCH   1   7
ATOM      7  N   UNL d   1       0.743  -0.578  -0.506  0.00  0.00    -0.732 N 
ATOM      8  C   UNL d   1      -0.001  -1.608  -1.199  0.00  0.00     0.284 C 
ATOM      9  H3  UNL d   1       1.575  -0.263  -1.000  0.00  0.00     0.395 HD
ENDBRANCH   1   7
TORSDOF 1
ENDMDL
