MODEL 1
REMARK minimizedAffinity -4.96673346
REMARK minimizedRMSD -1
REMARK  1 active torsions:
REMARK  status: ('A' for Active; 'I' for Inactive)
REMARK    1  A    between atoms: N_2  and  C1_3 
ROOT
ATOM      1  C1  UNL d   1       0.001   0.678  -0.042  0.00  0.00     0.143 A 
ATOM      2  C2  UNL d   1      -0.991   1.108   0.846  0.00  0.00    -0.057 A 
ATOM      3  C3  UNL d   1      -1.470   2.423   0.817  0.00  0.00     0.033 A 
ATOM      4  C4  UNL d   1      -0.944   3.343  -0.084  0.00  0.00    -0.042 A 
ATOM      5  C5  UNL d   1       0.060   2.944  -0.960  0.00  0.00     0.033 A 
ATOM      6  C6  UNL d   1       0.530   1.627  -0.931  0.00  0.00    -0.057 A 
ENDROOT
BRANCH   1   7
ATOM      7  N   UNL d   1       0.588  -0.589   0.002  0.00  0.00    -0.732 N 
ATOM      8  C   UNL d   1       0.396  -1.529  -1.081  0.00  0.00     0.284 C 
ATOM      9  H3  UNL d   1       1.538  -0.564   0.367  0.00  0.00     0.395 HD
ENDBRANCH   1   7
TORSDOF 1
ENDMDL
