MODEL 1
REMARK minimizedAffinity -3.98938632
REMARK minimizedRMSD -1
REMARK  1 active torsions:
REMARK  status: ('A' for Active; 'I' for Inactive)
REMARK    1  A    between atoms: N_2  and  C1_3 
ROOT
ATOM      1  C1  UNL d   1      -0.721   2.050   0.517  0.00  0.00     0.143 A 
ATOM      2  C2  UNL d   1      -0.081   0.940  -0.044  0.00  0.00    -0.057 A 
ATOM      3  C3  UNL d   1      -0.094  -0.306   0.596  0.00  0.00     0.033 A 
ATOM      4  C4  UNL d   1      -0.725  -0.455   1.826  0.00  0.00    -0.042 A 
ATOM      5  C5  UNL d   1      -1.346   0.641   2.414  0.00  0.00     0.033 A 
ATOM      6  C6  UNL d   1      -1.336   1.880   1.767  0.00  0.00    -0.057 A 
ENDROOT
BRANCH   1   7
ATOM      7  N   UNL d   1      -0.660   3.338  -0.022  0.00  0.00    -0.732 N 
ATOM      8  C   UNL d   1       0.055   3.587  -1.255  0.00  0.00     0.284 C 
ATOM      9  H3  UNL d   1      -1.546   3.832   0.052  0.00  0.00     0.395 HD
ENDBRANCH   1   7
TORSDOF 1
ENDMDL
