MODEL 1
REMARK minimizedAffinity -4.87974405
REMARK minimizedRMSD -1
REMARK  1 active torsions:
REMARK  status: ('A' for Active; 'I' for Inactive)
REMARK    1  A    between atoms: N_2  and  C1_3 
ROOT
ATOM      1  C1  UNL d   1      -0.306   0.434   0.214  0.00  0.00     0.143 A 
ATOM      2  C2  UNL d   1      -1.657   0.119   0.036  0.00  0.00    -0.057 A 
ATOM      3  C3  UNL d   1      -2.668   0.942   0.546  0.00  0.00     0.033 A 
ATOM      4  C4  UNL d   1      -2.343   2.084   1.271  0.00  0.00    -0.042 A 
ATOM      5  C5  UNL d   1      -1.007   2.403   1.482  0.00  0.00     0.033 A 
ATOM      6  C6  UNL d   1      -0.002   1.580   0.964  0.00  0.00    -0.057 A 
ENDROOT
BRANCH   1   7
ATOM      7  N   UNL d   1       0.745  -0.396  -0.183  0.00  0.00    -0.732 N 
ATOM      8  C   UNL d   1       0.511  -1.499  -1.091  0.00  0.00     0.284 C 
ATOM      9  H3  UNL d   1       1.600   0.122  -0.371  0.00  0.00     0.395 HD
ENDBRANCH   1   7
TORSDOF 1
ENDMDL
