MODEL 1
REMARK minimizedAffinity -5.59347773
REMARK minimizedRMSD -1
REMARK  1 active torsions:
REMARK  status: ('A' for Active; 'I' for Inactive)
REMARK    1  A    between atoms: N_2  and  C1_3 
ROOT
ATOM      1  C1  UNL d   1      -0.160   0.007   1.482  0.00  0.00     0.143 A 
ATOM      2  C2  UNL d   1      -0.687   1.121   2.144  0.00  0.00    -0.057 A 
ATOM      3  C3  UNL d   1      -1.722   1.878   1.582  0.00  0.00     0.033 A 
ATOM      4  C4  UNL d   1      -2.230   1.550   0.329  0.00  0.00    -0.042 A 
ATOM      5  C5  UNL d   1      -1.704   0.462  -0.359  0.00  0.00     0.033 A 
ATOM      6  C6  UNL d   1      -0.675  -0.294   0.211  0.00  0.00    -0.057 A 
ENDROOT
BRANCH   1   7
ATOM      7  N   UNL d   1       0.935  -0.727   1.944  0.00  0.00    -0.732 N 
ATOM      8  C   UNL d   1       0.980  -1.202   3.310  0.00  0.00     0.284 C 
ATOM      9  H3  UNL d   1       1.268  -1.401   1.258  0.00  0.00     0.395 HD
ENDBRANCH   1   7
TORSDOF 1
ENDMDL
