MODEL 1
REMARK minimizedAffinity -3.39779806
REMARK minimizedRMSD -1
REMARK  1 active torsions:
REMARK  status: ('A' for Active; 'I' for Inactive)
REMARK    1  A    between atoms: N_2  and  C1_3 
ROOT
ATOM      1  C1  UNL d   1       0.230   2.211  -0.074  0.00  0.00     0.143 A 
ATOM      2  C2  UNL d   1      -0.506   2.594   1.053  0.00  0.00    -0.057 A 
ATOM      3  C3  UNL d   1      -0.843   1.669   2.048  0.00  0.00     0.033 A 
ATOM      4  C4  UNL d   1      -0.474   0.334   1.920  0.00  0.00    -0.042 A 
ATOM      5  C5  UNL d   1       0.236  -0.074   0.796  0.00  0.00     0.033 A 
ATOM      6  C6  UNL d   1       0.576   0.856  -0.192  0.00  0.00    -0.057 A 
ENDROOT
BRANCH   1   7
ATOM      7  N   UNL d   1       0.511   3.062  -1.146  0.00  0.00    -0.732 N 
ATOM      8  C   UNL d   1       1.606   2.776  -2.047  0.00  0.00     0.284 C 
ATOM      9  H3  UNL d   1      -0.332   3.396  -1.608  0.00  0.00     0.395 HD
ENDBRANCH   1   7
TORSDOF 1
ENDMDL
