MODEL 1
REMARK minimizedAffinity 8.11820698
REMARK minimizedRMSD -1
REMARK  0 active torsions:
REMARK  status: ('A' for Active; 'I' for Inactive)
ROOT
ATOM      1  C2' OXE d   1      -5.153   0.830  -0.731  0.00  0.00     0.078 C 
ATOM      2  C1' OXE d   1      -3.593  -0.250  -2.800  0.00  0.00     0.078 C 
ATOM      3  C1  OXE d   1      -2.931   0.717  -1.850  0.00  0.00    -0.078 A 
ATOM      4  C2  OXE d   1      -3.714   1.276  -0.869  0.00  0.00    -0.078 A 
ATOM      5  C3  OXE d   1      -3.140   2.132   0.066  0.00  0.00     0.003 A 
ATOM      6  C4  OXE d   1      -1.810   2.548  -0.075  0.00  0.00    -0.002 A 
ATOM      7  C5  OXE d   1      -1.006   2.021  -1.091  0.00  0.00    -0.002 A 
ATOM      8  C6  OXE d   1      -1.538   1.074  -1.959  0.00  0.00     0.003 A 
ENDROOT
TORSDOF 0
ENDMDL
