MODEL 1
REMARK minimizedAffinity 11.1576529
REMARK minimizedRMSD -1
REMARK  0 active torsions:
REMARK  status: ('A' for Active; 'I' for Inactive)
ROOT
ATOM      1  C2' OXE d   1      -1.468   1.408  -1.457  0.00  0.00     0.078 C 
ATOM      2  C1' OXE d   1       0.318   1.247   0.702  0.00  0.00     0.078 C 
ATOM      3  C1  OXE d   1      -0.716   2.345   0.725  0.00  0.00    -0.078 A 
ATOM      4  C2  OXE d   1      -1.555   2.445  -0.359  0.00  0.00    -0.078 A 
ATOM      5  C3  OXE d   1      -2.562   3.406  -0.364  0.00  0.00     0.003 A 
ATOM      6  C4  OXE d   1      -2.629   4.368   0.651  0.00  0.00    -0.002 A 
ATOM      7  C5  OXE d   1      -1.758   4.309   1.744  0.00  0.00    -0.002 A 
ATOM      8  C6  OXE d   1      -0.825   3.280   1.817  0.00  0.00     0.003 A 
ENDROOT
TORSDOF 0
ENDMDL
