MODEL 1
REMARK minimizedAffinity -0.981153548
REMARK minimizedRMSD -1
REMARK  0 active torsions:
REMARK  status: ('A' for Active; 'I' for Inactive)
ROOT
ATOM      1  C2' OXE d   1       3.411   1.736   0.165  0.00  0.00     0.078 C 
ATOM      2  C1' OXE d   1       1.276   0.247   1.216  0.00  0.00     0.078 C 
ATOM      3  C1  OXE d   1       2.223  -0.451   0.273  0.00  0.00    -0.078 A 
ATOM      4  C2  OXE d   1       3.238   0.298  -0.273  0.00  0.00    -0.078 A 
ATOM      5  C3  OXE d   1       4.172  -0.310  -1.107  0.00  0.00     0.003 A 
ATOM      6  C4  OXE d   1       3.999  -1.638  -1.515  0.00  0.00    -0.002 A 
ATOM      7  C5  OXE d   1       2.950  -2.408  -1.002  0.00  0.00    -0.002 A 
ATOM      8  C6  OXE d   1       2.080  -1.843  -0.077  0.00  0.00     0.003 A 
ENDROOT
TORSDOF 0
ENDMDL
