MODEL 1
REMARK minimizedAffinity 5.54879284
REMARK minimizedRMSD -1
REMARK  0 active torsions:
REMARK  status: ('A' for Active; 'I' for Inactive)
ROOT
ATOM      1  C2' OXE d   1       2.928  -1.066  -0.436  0.00  0.00     0.078 C 
ATOM      2  C1' OXE d   1       2.248  -2.717   1.730  0.00  0.00     0.078 C 
ATOM      3  C1  OXE d   1       1.452  -2.863   0.457  0.00  0.00    -0.078 A 
ATOM      4  C2  OXE d   1       1.761  -2.019  -0.582  0.00  0.00    -0.078 A 
ATOM      5  C3  OXE d   1       1.095  -2.148  -1.797  0.00  0.00     0.003 A 
ATOM      6  C4  OXE d   1       0.010  -3.026  -1.921  0.00  0.00    -0.002 A 
ATOM      7  C5  OXE d   1      -0.347  -3.867  -0.862  0.00  0.00    -0.002 A 
ATOM      8  C6  OXE d   1       0.390  -3.828   0.317  0.00  0.00     0.003 A 
ENDROOT
TORSDOF 0
ENDMDL
