MODEL 1
REMARK minimizedAffinity 10.4912453
REMARK minimizedRMSD -1
REMARK  0 active torsions:
REMARK  status: ('A' for Active; 'I' for Inactive)
ROOT
ATOM      1  C2' OXE d   1       1.247   0.924   2.898  0.00  0.00     0.078 C 
ATOM      2  C1' OXE d   1       2.126   0.998   0.233  0.00  0.00     0.078 C 
ATOM      3  C1  OXE d   1       0.639   1.023   0.484  0.00  0.00    -0.078 A 
ATOM      4  C2  OXE d   1       0.217   0.939   1.789  0.00  0.00    -0.078 A 
ATOM      5  C3  OXE d   1      -1.143   1.013   2.080  0.00  0.00     0.003 A 
ATOM      6  C4  OXE d   1      -2.089   1.017   1.048  0.00  0.00    -0.002 A 
ATOM      7  C5  OXE d   1      -1.681   1.062  -0.289  0.00  0.00    -0.002 A 
ATOM      8  C6  OXE d   1      -0.323   1.109  -0.586  0.00  0.00     0.003 A 
ENDROOT
TORSDOF 0
ENDMDL
