MODEL 1
REMARK minimizedAffinity 4.41486216
REMARK minimizedRMSD -1
REMARK  0 active torsions:
REMARK  status: ('A' for Active; 'I' for Inactive)
ROOT
ATOM      1  C2' OXE d   1      -1.132   1.523   1.892  0.00  0.00     0.078 C 
ATOM      2  C1' OXE d   1       1.155   0.481   0.641  0.00  0.00     0.078 C 
ATOM      3  C1  OXE d   1       0.780  -0.070   1.994  0.00  0.00    -0.078 A 
ATOM      4  C2  OXE d   1      -0.314   0.479   2.620  0.00  0.00    -0.078 A 
ATOM      5  C3  OXE d   1      -0.735  -0.031   3.845  0.00  0.00     0.003 A 
ATOM      6  C4  OXE d   1       0.034  -0.989   4.516  0.00  0.00    -0.002 A 
ATOM      7  C5  OXE d   1       1.174  -1.533   3.914  0.00  0.00    -0.002 A 
ATOM      8  C6  OXE d   1       1.536  -1.116   2.638  0.00  0.00     0.003 A 
ENDROOT
TORSDOF 0
ENDMDL
