MODEL 1
REMARK minimizedAffinity 1.61659753
REMARK minimizedRMSD -1
REMARK  0 active torsions:
REMARK  status: ('A' for Active; 'I' for Inactive)
ROOT
ATOM      1  C2' OXE d   1       1.083   0.349   3.229  0.00  0.00     0.078 C 
ATOM      2  C1' OXE d   1       2.170   0.209   0.645  0.00  0.00     0.078 C 
ATOM      3  C1  OXE d   1       0.761   0.727   0.789  0.00  0.00    -0.078 A 
ATOM      4  C2  OXE d   1       0.220   0.748   2.052  0.00  0.00    -0.078 A 
ATOM      5  C3  OXE d   1      -1.056   1.268   2.247  0.00  0.00     0.003 A 
ATOM      6  C4  OXE d   1      -1.851   1.626   1.152  0.00  0.00    -0.002 A 
ATOM      7  C5  OXE d   1      -1.334   1.575  -0.147  0.00  0.00    -0.002 A 
ATOM      8  C6  OXE d   1      -0.019   1.169  -0.342  0.00  0.00     0.003 A 
ENDROOT
TORSDOF 0
ENDMDL
