MODEL 1
REMARK minimizedAffinity 8.04506111
REMARK minimizedRMSD -1
REMARK  0 active torsions:
REMARK  status: ('A' for Active; 'I' for Inactive)
ROOT
ATOM      1  C2' OXE d   1       1.654  -2.400   0.202  0.00  0.00     0.078 C 
ATOM      2  C1' OXE d   1       1.227  -0.232   1.933  0.00  0.00     0.078 C 
ATOM      3  C1  OXE d   1       2.271  -0.077   0.856  0.00  0.00    -0.078 A 
ATOM      4  C2  OXE d   1       2.506  -1.159   0.043  0.00  0.00    -0.078 A 
ATOM      5  C3  OXE d   1       3.419  -1.051  -1.002  0.00  0.00     0.003 A 
ATOM      6  C4  OXE d   1       4.210   0.097  -1.136  0.00  0.00    -0.002 A 
ATOM      7  C5  OXE d   1       4.015   1.196  -0.294  0.00  0.00    -0.002 A 
ATOM      8  C6  OXE d   1       3.022   1.142   0.678  0.00  0.00     0.003 A 
ENDROOT
TORSDOF 0
ENDMDL
