MODEL 1
REMARK minimizedAffinity -0.715001881
REMARK minimizedRMSD -1
REMARK  0 active torsions:
REMARK  status: ('A' for Active; 'I' for Inactive)
ROOT
ATOM      1  C2' OXE d   1       3.029   1.410   0.364  0.00  0.00     0.078 C 
ATOM      2  C1' OXE d   1       1.726  -0.654   1.750  0.00  0.00     0.078 C 
ATOM      3  C1  OXE d   1       2.462  -1.013   0.483  0.00  0.00    -0.078 A 
ATOM      4  C2  OXE d   1       3.057   0.011  -0.214  0.00  0.00    -0.078 A 
ATOM      5  C3  OXE d   1       3.794  -0.272  -1.360  0.00  0.00     0.003 A 
ATOM      6  C4  OXE d   1       3.807  -1.566  -1.893  0.00  0.00    -0.002 A 
ATOM      7  C5  OXE d   1       3.174  -2.617  -1.220  0.00  0.00    -0.002 A 
ATOM      8  C6  OXE d   1       2.534  -2.365  -0.012  0.00  0.00     0.003 A 
ENDROOT
TORSDOF 0
ENDMDL
