MODEL 1
REMARK minimizedAffinity 4.56048393
REMARK minimizedRMSD -1
REMARK  0 active torsions:
REMARK  status: ('A' for Active; 'I' for Inactive)
ROOT
ATOM      1  C2' OXE d   1      -0.875   1.407  -0.571  0.00  0.00     0.078 C 
ATOM      2  C1' OXE d   1       1.855   1.039  -0.032  0.00  0.00     0.078 C 
ATOM      3  C1  OXE d   1       0.891   0.949   1.124  0.00  0.00    -0.078 A 
ATOM      4  C2  OXE d   1      -0.438   1.176   0.859  0.00  0.00    -0.078 A 
ATOM      5  C3  OXE d   1      -1.376   1.051   1.880  0.00  0.00     0.003 A 
ATOM      6  C4  OXE d   1      -0.962   0.847   3.202  0.00  0.00    -0.002 A 
ATOM      7  C5  OXE d   1       0.391   0.652   3.500  0.00  0.00    -0.002 A 
ATOM      8  C6  OXE d   1       1.324   0.657   2.469  0.00  0.00     0.003 A 
ENDROOT
TORSDOF 0
ENDMDL
