MODEL 1
REMARK minimizedAffinity 18.1894054
REMARK minimizedRMSD -1
REMARK  0 active torsions:
REMARK  status: ('A' for Active; 'I' for Inactive)
ROOT
ATOM      1  N1  IND d   1       5.997   3.867   3.346  0.00  0.00    -0.196 N 
ATOM      2  C2  IND d   1       5.784   2.517   3.313  0.00  0.00     0.054 A 
ATOM      3  C3  IND d   1       4.782   2.178   4.155  0.00  0.00    -0.031 A 
ATOM      4  C4  IND d   1       3.285   3.687   5.608  0.00  0.00     0.051 A 
ATOM      5  C5  IND d   1       3.123   4.986   6.000  0.00  0.00    -0.031 A 
ATOM      6  C6  IND d   1       3.924   5.999   5.515  0.00  0.00     0.015 A 
ATOM      7  C7  IND d   1       4.915   5.752   4.608  0.00  0.00    -0.016 A 
ATOM      8  C8  IND d   1       5.088   4.432   4.213  0.00  0.00    -0.047 A 
ATOM      9  C9  IND d   1       4.305   3.394   4.734  0.00  0.00    -0.096 A 
ATOM     10  HN1 IND d   1       6.597   4.291   2.901  0.00  0.00     0.298 HD
ENDROOT
TORSDOF 0
ENDMDL
