MODEL 1
REMARK minimizedAffinity 16.9145527
REMARK minimizedRMSD -1
REMARK  0 active torsions:
REMARK  status: ('A' for Active; 'I' for Inactive)
ROOT
ATOM      1  N1  IND d   1      -4.593  -1.720   0.279  0.00  0.00    -0.196 N 
ATOM      2  C2  IND d   1      -5.391  -2.722   0.757  0.00  0.00     0.054 A 
ATOM      3  C3  IND d   1      -4.645  -3.804   1.075  0.00  0.00    -0.031 A 
ATOM      4  C4  IND d   1      -2.091  -4.114   0.990  0.00  0.00     0.051 A 
ATOM      5  C5  IND d   1      -0.943  -3.490   0.589  0.00  0.00    -0.031 A 
ATOM      6  C6  IND d   1      -0.953  -2.217   0.056  0.00  0.00     0.015 A 
ATOM      7  C7  IND d   1      -2.116  -1.513  -0.086  0.00  0.00    -0.016 A 
ATOM      8  C8  IND d   1      -3.284  -2.147   0.314  0.00  0.00    -0.047 A 
ATOM      9  C9  IND d   1      -3.285  -3.455   0.816  0.00  0.00    -0.096 A 
ATOM     10  HN1 IND d   1      -4.864  -0.952   0.004  0.00  0.00     0.298 HD
ENDROOT
TORSDOF 0
ENDMDL
