MODEL 1
REMARK minimizedAffinity 8.62318325
REMARK minimizedRMSD -1
REMARK  0 active torsions:
REMARK  status: ('A' for Active; 'I' for Inactive)
ROOT
ATOM      1  N1  IND d   1      -1.208  -4.886  -0.943  0.00  0.00    -0.196 N 
ATOM      2  C2  IND d   1      -1.091  -5.492   0.277  0.00  0.00     0.054 A 
ATOM      3  C3  IND d   1      -1.195  -4.578   1.268  0.00  0.00    -0.031 A 
ATOM      4  C4  IND d   1      -1.660  -2.051   1.119  0.00  0.00     0.051 A 
ATOM      5  C5  IND d   1      -1.805  -1.033   0.218  0.00  0.00    -0.031 A 
ATOM      6  C6  IND d   1      -1.760  -1.253  -1.143  0.00  0.00     0.015 A 
ATOM      7  C7  IND d   1      -1.579  -2.506  -1.657  0.00  0.00    -0.016 A 
ATOM      8  C8  IND d   1      -1.425  -3.540  -0.745  0.00  0.00    -0.047 A 
ATOM      9  C9  IND d   1      -1.427  -3.317   0.638  0.00  0.00    -0.096 A 
ATOM     10  HN1 IND d   1      -1.155  -5.280  -1.706  0.00  0.00     0.298 HD
ENDROOT
TORSDOF 0
ENDMDL
