MODEL 1
REMARK minimizedAffinity 15.4355335
REMARK minimizedRMSD -1
REMARK  0 active torsions:
REMARK  status: ('A' for Active; 'I' for Inactive)
ROOT
ATOM      1  N1  IND d   1      -1.773  -4.589   3.574  0.00  0.00    -0.196 N 
ATOM      2  C2  IND d   1      -2.658  -3.779   4.228  0.00  0.00     0.054 A 
ATOM      3  C3  IND d   1      -3.083  -2.789   3.411  0.00  0.00    -0.031 A 
ATOM      4  C4  IND d   1      -2.534  -2.367   0.931  0.00  0.00     0.051 A 
ATOM      5  C5  IND d   1      -1.745  -2.819  -0.089  0.00  0.00    -0.031 A 
ATOM      6  C6  IND d   1      -0.911  -3.907   0.061  0.00  0.00     0.015 A 
ATOM      7  C7  IND d   1      -0.842  -4.595   1.240  0.00  0.00    -0.016 A 
ATOM      8  C8  IND d   1      -1.636  -4.135   2.281  0.00  0.00    -0.047 A 
ATOM      9  C9  IND d   1      -2.454  -3.005   2.147  0.00  0.00    -0.096 A 
ATOM     10  HN1 IND d   1      -1.370  -5.268   3.913  0.00  0.00     0.298 HD
ENDROOT
TORSDOF 0
ENDMDL
