MODEL 1
REMARK minimizedAffinity 14.328043
REMARK minimizedRMSD -1
REMARK  0 active torsions:
REMARK  status: ('A' for Active; 'I' for Inactive)
ROOT
ATOM      1  N1  IND d   1       2.678  -0.918  -2.380  0.00  0.00    -0.196 N 
ATOM      2  C2  IND d   1       1.956   0.219  -2.152  0.00  0.00     0.054 A 
ATOM      3  C3  IND d   1       2.647   1.306  -2.564  0.00  0.00    -0.031 A 
ATOM      4  C4  IND d   1       4.936   1.442  -3.734  0.00  0.00     0.051 A 
ATOM      5  C5  IND d   1       5.994   0.669  -4.123  0.00  0.00    -0.031 A 
ATOM      6  C6  IND d   1       6.000  -0.700  -3.950  0.00  0.00     0.015 A 
ATOM      7  C7  IND d   1       4.938  -1.352  -3.389  0.00  0.00    -0.016 A 
ATOM      8  C8  IND d   1       3.865  -0.570  -2.986  0.00  0.00    -0.047 A 
ATOM      9  C9  IND d   1       3.871   0.825  -3.120  0.00  0.00    -0.096 A 
ATOM     10  HN1 IND d   1       2.433  -1.717  -2.178  0.00  0.00     0.298 HD
ENDROOT
TORSDOF 0
ENDMDL
