MODEL 1
REMARK minimizedAffinity 13.6762295
REMARK minimizedRMSD -1
REMARK  0 active torsions:
REMARK  status: ('A' for Active; 'I' for Inactive)
ROOT
ATOM      1  N1  IND d   1      -5.935   1.504   5.988  0.00  0.00    -0.196 N 
ATOM      2  C2  IND d   1      -5.404   2.763   5.959  0.00  0.00     0.054 A 
ATOM      3  C3  IND d   1      -4.053   2.704   5.940  0.00  0.00    -0.031 A 
ATOM      4  C4  IND d   1      -2.508   0.647   5.849  0.00  0.00     0.051 A 
ATOM      5  C5  IND d   1      -2.528  -0.719   5.894  0.00  0.00    -0.031 A 
ATOM      6  C6  IND d   1      -3.709  -1.428   5.972  0.00  0.00     0.015 A 
ATOM      7  C7  IND d   1      -4.920  -0.795   5.996  0.00  0.00    -0.016 A 
ATOM      8  C8  IND d   1      -4.902   0.592   5.957  0.00  0.00    -0.047 A 
ATOM      9  C9  IND d   1      -3.705   1.318   5.921  0.00  0.00    -0.096 A 
ATOM     10  HN1 IND d   1      -6.773   1.313   6.021  0.00  0.00     0.298 HD
ENDROOT
TORSDOF 0
ENDMDL
