MODEL 1
REMARK minimizedAffinity 7.75325823
REMARK minimizedRMSD -1
REMARK  0 active torsions:
REMARK  status: ('A' for Active; 'I' for Inactive)
ROOT
ATOM      1  N1  IND d   1      -0.748  -3.389  -0.083  0.00  0.00    -0.196 N 
ATOM      2  C2  IND d   1      -1.515  -2.268   0.078  0.00  0.00     0.054 A 
ATOM      3  C3  IND d   1      -2.196  -2.328   1.244  0.00  0.00    -0.031 A 
ATOM      4  C4  IND d   1      -2.126  -4.122   3.089  0.00  0.00     0.051 A 
ATOM      5  C5  IND d   1      -1.600  -5.350   3.378  0.00  0.00    -0.031 A 
ATOM      6  C6  IND d   1      -0.745  -5.999   2.512  0.00  0.00     0.015 A 
ATOM      7  C7  IND d   1      -0.372  -5.436   1.324  0.00  0.00    -0.016 A 
ATOM      8  C8  IND d   1      -0.909  -4.193   1.024  0.00  0.00    -0.047 A 
ATOM      9  C9  IND d   1      -1.811  -3.548   1.880  0.00  0.00    -0.096 A 
ATOM     10  HN1 IND d   1      -0.250  -3.562  -0.761  0.00  0.00     0.298 HD
ENDROOT
TORSDOF 0
ENDMDL
