MODEL 1
REMARK minimizedAffinity 13.1300926
REMARK minimizedRMSD -1
REMARK  0 active torsions:
REMARK  status: ('A' for Active; 'I' for Inactive)
ROOT
ATOM      1  N1  IND d   1      -5.689   1.607   6.000  0.00  0.00    -0.196 N 
ATOM      2  C2  IND d   1      -5.083   2.832   5.993  0.00  0.00     0.054 A 
ATOM      3  C3  IND d   1      -3.739   2.692   5.952  0.00  0.00    -0.031 A 
ATOM      4  C4  IND d   1      -2.323   0.549   5.789  0.00  0.00     0.051 A 
ATOM      5  C5  IND d   1      -2.426  -0.814   5.801  0.00  0.00    -0.031 A 
ATOM      6  C6  IND d   1      -3.647  -1.452   5.880  0.00  0.00     0.015 A 
ATOM      7  C7  IND d   1      -4.816  -0.748   5.937  0.00  0.00    -0.016 A 
ATOM      8  C8  IND d   1      -4.715   0.636   5.932  0.00  0.00    -0.047 A 
ATOM      9  C9  IND d   1      -3.476   1.289   5.895  0.00  0.00    -0.096 A 
ATOM     10  HN1 IND d   1      -6.537   1.467   6.040  0.00  0.00     0.298 HD
ENDROOT
TORSDOF 0
ENDMDL
