MODEL 1
REMARK minimizedAffinity 6.91370249
REMARK minimizedRMSD -1
REMARK  0 active torsions:
REMARK  status: ('A' for Active; 'I' for Inactive)
ROOT
ATOM      1  N1  IND d   1      -2.111  -1.449  -1.094  0.00  0.00    -0.196 N 
ATOM      2  C2  IND d   1      -2.684  -0.850  -0.006  0.00  0.00     0.054 A 
ATOM      3  C3  IND d   1      -2.478  -1.594   1.104  0.00  0.00    -0.031 A 
ATOM      4  C4  IND d   1      -1.140  -3.776   1.384  0.00  0.00     0.051 A 
ATOM      5  C5  IND d   1      -0.465  -4.725   0.670  0.00  0.00    -0.031 A 
ATOM      6  C6  IND d   1      -0.298  -4.627  -0.697  0.00  0.00     0.015 A 
ATOM      7  C7  IND d   1      -0.793  -3.566  -1.401  0.00  0.00    -0.016 A 
ATOM      8  C8  IND d   1      -1.486  -2.604  -0.679  0.00  0.00    -0.047 A 
ATOM      9  C9  IND d   1      -1.695  -2.719   0.701  0.00  0.00    -0.096 A 
ATOM     10  HN1 IND d   1      -2.138  -1.153  -1.901  0.00  0.00     0.298 HD
ENDROOT
TORSDOF 0
ENDMDL
