MODEL 1
REMARK minimizedAffinity 11.3634129
REMARK minimizedRMSD -1
REMARK  0 active torsions:
REMARK  status: ('A' for Active; 'I' for Inactive)
ROOT
ATOM      1  N1  IND d   1      -1.458  -5.090   2.281  0.00  0.00    -0.196 N 
ATOM      2  C2  IND d   1      -0.831  -5.979   1.452  0.00  0.00     0.054 A 
ATOM      3  C3  IND d   1      -0.539  -5.393   0.269  0.00  0.00    -0.031 A 
ATOM      4  C4  IND d   1      -0.905  -2.959  -0.485  0.00  0.00     0.051 A 
ATOM      5  C5  IND d   1      -1.475  -1.782  -0.087  0.00  0.00    -0.031 A 
ATOM      6  C6  IND d   1      -2.077  -1.644   1.146  0.00  0.00     0.015 A 
ATOM      7  C7  IND d   1      -2.123  -2.679   2.037  0.00  0.00    -0.016 A 
ATOM      8  C8  IND d   1      -1.552  -3.878   1.633  0.00  0.00    -0.047 A 
ATOM      9  C9  IND d   1      -0.977  -4.037   0.366  0.00  0.00    -0.096 A 
ATOM     10  HN1 IND d   1      -1.745  -5.260   3.074  0.00  0.00     0.298 HD
ENDROOT
TORSDOF 0
ENDMDL
