MODEL 1
REMARK minimizedAffinity 11.678092
REMARK minimizedRMSD -1
REMARK  0 active torsions:
REMARK  status: ('A' for Active; 'I' for Inactive)
ROOT
ATOM      1  N1  IND d   1      -3.544   4.311  -2.622  0.00  0.00    -0.196 N 
ATOM      2  C2  IND d   1      -3.950   5.229  -3.550  0.00  0.00     0.054 A 
ATOM      3  C3  IND d   1      -4.946   5.995  -3.051  0.00  0.00    -0.031 A 
ATOM      4  C4  IND d   1      -5.996   5.984  -0.701  0.00  0.00     0.051 A 
ATOM      5  C5  IND d   1      -5.981   5.301   0.483  0.00  0.00    -0.031 A 
ATOM      6  C6  IND d   1      -5.134   4.233   0.697  0.00  0.00     0.015 A 
ATOM      7  C7  IND d   1      -4.258   3.814  -0.264  0.00  0.00    -0.016 A 
ATOM      8  C8  IND d   1      -4.276   4.501  -1.470  0.00  0.00    -0.047 A 
ATOM      9  C9  IND d   1      -5.163   5.558  -1.708  0.00  0.00    -0.096 A 
ATOM     10  HN1 IND d   1      -2.935   3.716  -2.737  0.00  0.00     0.298 HD
ENDROOT
TORSDOF 0
ENDMDL
