MODEL 1
REMARK minimizedAffinity 14.3477793
REMARK minimizedRMSD -1
REMARK  0 active torsions:
REMARK  status: ('A' for Active; 'I' for Inactive)
ROOT
ATOM      1  N1  IND d   1      -4.739   0.700   5.973  0.00  0.00    -0.196 N 
ATOM      2  C2  IND d   1      -3.418   0.352   5.939  0.00  0.00     0.054 A 
ATOM      3  C3  IND d   1      -2.641   1.459   5.905  0.00  0.00    -0.031 A 
ATOM      4  C4  IND d   1      -3.324   3.939   5.999  0.00  0.00     0.051 A 
ATOM      5  C5  IND d   1      -4.419   4.756   5.998  0.00  0.00    -0.031 A 
ATOM      6  C6  IND d   1      -5.704   4.252   5.992  0.00  0.00     0.015 A 
ATOM      7  C7  IND d   1      -5.942   2.906   5.998  0.00  0.00    -0.016 A 
ATOM      8  C8  IND d   1      -4.831   2.074   5.991  0.00  0.00    -0.047 A 
ATOM      9  C9  IND d   1      -3.525   2.580   5.954  0.00  0.00    -0.096 A 
ATOM     10  HN1 IND d   1      -5.402   0.152   5.981  0.00  0.00     0.298 HD
ENDROOT
TORSDOF 0
ENDMDL
