MODEL 1
REMARK minimizedAffinity 11.0447083
REMARK minimizedRMSD -1
REMARK  0 active torsions:
REMARK  status: ('A' for Active; 'I' for Inactive)
ROOT
ATOM      1  N1  IND d   1       3.856   2.253  -0.441  0.00  0.00    -0.196 N 
ATOM      2  C2  IND d   1       2.615   1.703  -0.283  0.00  0.00     0.054 A 
ATOM      3  C3  IND d   1       2.372   0.803  -1.263  0.00  0.00    -0.031 A 
ATOM      4  C4  IND d   1       3.909   0.002  -3.166  0.00  0.00     0.051 A 
ATOM      5  C5  IND d   1       5.125   0.241  -3.742  0.00  0.00    -0.031 A 
ATOM      6  C6  IND d   1       6.000   1.180  -3.234  0.00  0.00     0.015 A 
ATOM      7  C7  IND d   1       5.693   1.910  -2.121  0.00  0.00    -0.016 A 
ATOM      8  C8  IND d   1       4.456   1.675  -1.538  0.00  0.00    -0.047 A 
ATOM      9  C9  IND d   1       3.547   0.754  -2.073  0.00  0.00    -0.096 A 
ATOM     10  HN1 IND d   1       4.204   2.858   0.061  0.00  0.00     0.298 HD
ENDROOT
TORSDOF 0
ENDMDL
