MODEL 1
REMARK minimizedAffinity 8.18563843
REMARK minimizedRMSD -1
REMARK  0 active torsions:
REMARK  status: ('A' for Active; 'I' for Inactive)
ROOT
ATOM      1  N1  IND d   1      -3.811   2.870   5.977  0.00  0.00    -0.196 N 
ATOM      2  C2  IND d   1      -5.130   3.228   6.000  0.00  0.00     0.054 A 
ATOM      3  C3  IND d   1      -5.917   2.128   5.975  0.00  0.00    -0.031 A 
ATOM      4  C4  IND d   1      -5.252  -0.359   6.000  0.00  0.00     0.051 A 
ATOM      5  C5  IND d   1      -4.164  -1.183   5.943  0.00  0.00    -0.031 A 
ATOM      6  C6  IND d   1      -2.876  -0.689   5.897  0.00  0.00     0.015 A 
ATOM      7  C7  IND d   1      -2.627   0.654   5.917  0.00  0.00    -0.016 A 
ATOM      8  C8  IND d   1      -3.730   1.494   5.967  0.00  0.00    -0.047 A 
ATOM      9  C9  IND d   1      -5.041   1.000   5.971  0.00  0.00    -0.096 A 
ATOM     10  HN1 IND d   1      -3.144   3.412   5.970  0.00  0.00     0.298 HD
ENDROOT
TORSDOF 0
ENDMDL
