MODEL 1
REMARK minimizedAffinity 9.71358585
REMARK minimizedRMSD -1
REMARK  0 active torsions:
REMARK  status: ('A' for Active; 'I' for Inactive)
ROOT
ATOM      1  N1  IND d   1      -3.515   2.214   5.630  0.00  0.00    -0.196 N 
ATOM      2  C2  IND d   1      -4.811   2.587   5.858  0.00  0.00     0.054 A 
ATOM      3  C3  IND d   1      -5.596   1.496   6.000  0.00  0.00    -0.031 A 
ATOM      4  C4  IND d   1      -4.950  -0.996   5.998  0.00  0.00     0.051 A 
ATOM      5  C5  IND d   1      -3.890  -1.834   5.791  0.00  0.00    -0.031 A 
ATOM      6  C6  IND d   1      -2.625  -1.356   5.518  0.00  0.00     0.015 A 
ATOM      7  C7  IND d   1      -2.369  -0.015   5.451  0.00  0.00    -0.016 A 
ATOM      8  C8  IND d   1      -3.445   0.838   5.654  0.00  0.00    -0.047 A 
ATOM      9  C9  IND d   1      -4.739   0.358   5.889  0.00  0.00    -0.096 A 
ATOM     10  HN1 IND d   1      -2.856   2.749   5.496  0.00  0.00     0.298 HD
ENDROOT
TORSDOF 0
ENDMDL
