MODEL 1
REMARK minimizedAffinity 4.0360651
REMARK minimizedRMSD -1
REMARK  0 active torsions:
REMARK  status: ('A' for Active; 'I' for Inactive)
ROOT
ATOM      1  N1  IND d   1      -5.829   4.387  -5.998  0.00  0.00    -0.196 N 
ATOM      2  C2  IND d   1      -5.998   5.648  -5.499  0.00  0.00     0.054 A 
ATOM      3  C3  IND d   1      -4.938   5.999  -4.737  0.00  0.00    -0.031 A 
ATOM      4  C4  IND d   1      -2.768   4.700  -4.258  0.00  0.00     0.051 A 
ATOM      5  C5  IND d   1      -2.169   3.489  -4.465  0.00  0.00    -0.031 A 
ATOM      6  C6  IND d   1      -2.771   2.496  -5.212  0.00  0.00     0.015 A 
ATOM      7  C7  IND d   1      -3.994   2.683  -5.791  0.00  0.00    -0.016 A 
ATOM      8  C8  IND d   1      -4.608   3.909  -5.576  0.00  0.00    -0.047 A 
ATOM      9  C9  IND d   1      -4.021   4.904  -4.784  0.00  0.00    -0.096 A 
ATOM     10  HN1 IND d   1      -6.391   3.964  -6.493  0.00  0.00     0.298 HD
ENDROOT
TORSDOF 0
ENDMDL
