MODEL 1
REMARK minimizedAffinity 5.10954475
REMARK minimizedRMSD -1
REMARK  0 active torsions:
REMARK  status: ('A' for Active; 'I' for Inactive)
ROOT
ATOM      1  N1  IND d   1      -0.813   0.347  -3.685  0.00  0.00    -0.196 N 
ATOM      2  C2  IND d   1       0.363  -0.090  -3.143  0.00  0.00     0.054 A 
ATOM      3  C3  IND d   1       0.162  -0.541  -1.884  0.00  0.00    -0.031 A 
ATOM      4  C4  IND d   1      -2.031  -0.750  -0.553  0.00  0.00     0.051 A 
ATOM      5  C5  IND d   1      -3.362  -0.445  -0.615  0.00  0.00    -0.031 A 
ATOM      6  C6  IND d   1      -3.923   0.148  -1.727  0.00  0.00     0.015 A 
ATOM      7  C7  IND d   1      -3.173   0.451  -2.828  0.00  0.00    -0.016 A 
ATOM      8  C8  IND d   1      -1.820   0.150  -2.766  0.00  0.00    -0.047 A 
ATOM      9  C9  IND d   1      -1.237  -0.414  -1.623  0.00  0.00    -0.096 A 
ATOM     10  HN1 IND d   1      -0.908   0.689  -4.468  0.00  0.00     0.298 HD
ENDROOT
TORSDOF 0
ENDMDL
