MODEL 1
REMARK minimizedAffinity 9.30456829
REMARK minimizedRMSD -1
REMARK  0 active torsions:
REMARK  status: ('A' for Active; 'I' for Inactive)
ROOT
ATOM      1  N1  IND d   1      -4.309  -0.187  -0.971  0.00  0.00    -0.196 N 
ATOM      2  C2  IND d   1      -4.330  -0.805   0.248  0.00  0.00     0.054 A 
ATOM      3  C3  IND d   1      -3.143  -1.405   0.491  0.00  0.00    -0.031 A 
ATOM      4  C4  IND d   1      -0.994  -1.417  -0.927  0.00  0.00     0.051 A 
ATOM      5  C5  IND d   1      -0.501  -1.019  -2.138  0.00  0.00    -0.031 A 
ATOM      6  C6  IND d   1      -1.266  -0.307  -3.039  0.00  0.00     0.015 A 
ATOM      7  C7  IND d   1      -2.555   0.045  -2.756  0.00  0.00    -0.016 A 
ATOM      8  C8  IND d   1      -3.062  -0.363  -1.531  0.00  0.00    -0.047 A 
ATOM      9  C9  IND d   1      -2.304  -1.122  -0.630  0.00  0.00    -0.096 A 
ATOM     10  HN1 IND d   1      -4.964   0.240  -1.329  0.00  0.00     0.298 HD
ENDROOT
TORSDOF 0
ENDMDL
