MODEL 1
REMARK minimizedAffinity 23.503418
REMARK minimizedRMSD -1
REMARK  0 active torsions:
REMARK  status: ('A' for Active; 'I' for Inactive)
ROOT
ATOM      1  N1  IND d   1      -4.177  -0.627  -0.267  0.00  0.00    -0.196 N 
ATOM      2  C2  IND d   1      -4.147  -0.855   1.081  0.00  0.00     0.054 A 
ATOM      3  C3  IND d   1      -2.969  -1.414   1.437  0.00  0.00    -0.031 A 
ATOM      4  C4  IND d   1      -0.909  -1.949  -0.010  0.00  0.00     0.051 A 
ATOM      5  C5  IND d   1      -0.474  -1.952  -1.306  0.00  0.00    -0.031 A 
ATOM      6  C6  IND d   1      -1.266  -1.502  -2.342  0.00  0.00     0.015 A 
ATOM      7  C7  IND d   1      -2.524  -1.019  -2.118  0.00  0.00    -0.016 A 
ATOM      8  C8  IND d   1      -2.972  -1.021  -0.805  0.00  0.00    -0.047 A 
ATOM      9  C9  IND d   1      -2.188  -1.517   0.245  0.00  0.00    -0.096 A 
ATOM     10  HN1 IND d   1      -4.838  -0.293  -0.705  0.00  0.00     0.298 HD
ENDROOT
TORSDOF 0
ENDMDL
