MODEL 1
REMARK minimizedAffinity -1.87842226
REMARK minimizedRMSD -1
REMARK  1 active torsions:
REMARK  status: ('A' for Active; 'I' for Inactive)
REMARK    1  A    between atoms: C1_2  and  C2_3 
ROOT
ATOM      1  C2  UNL d   1      -0.391   2.761   0.170  0.00  0.00    -0.077 A 
ATOM      2  C3  UNL d   1      -0.384   2.800  -1.231  0.00  0.00     0.002 A 
ATOM      3  C4  UNL d   1      -0.028   3.970  -1.904  0.00  0.00     0.002 A 
ATOM      4  C5  UNL d   1       0.327   5.109  -1.183  0.00  0.00    -0.004 A 
ATOM      5  C6  UNL d   1       0.321   5.081   0.211  0.00  0.00     0.002 A 
ATOM      6  C7  UNL d   1      -0.035   3.912   0.884  0.00  0.00     0.002 A 
ENDROOT
BRANCH   1   7
ATOM      7  C1  UNL d   1      -0.726   1.485   0.897  0.00  0.00     0.055 C 
ATOM      8  C   UNL d   1      -1.494   1.764   2.180  0.00  0.00     0.019 C 
ENDBRANCH   1   7
TORSDOF 1
ENDMDL
