MODEL 1
REMARK minimizedAffinity -2.27964878
REMARK minimizedRMSD -1
REMARK  1 active torsions:
REMARK  status: ('A' for Active; 'I' for Inactive)
REMARK    1  A    between atoms: C1_2  and  C2_3 
ROOT
ATOM      1  C2  UNL d   1      -0.099   3.636  -0.599  0.00  0.00    -0.077 A 
ATOM      2  C3  UNL d   1       0.122   2.423   0.067  0.00  0.00     0.002 A 
ATOM      3  C4  UNL d   1       0.169   2.381   1.462  0.00  0.00     0.002 A 
ATOM      4  C5  UNL d   1      -0.009   3.549   2.202  0.00  0.00    -0.004 A 
ATOM      5  C6  UNL d   1      -0.228   4.761   1.548  0.00  0.00     0.002 A 
ATOM      6  C7  UNL d   1      -0.274   4.804   0.154  0.00  0.00     0.002 A 
ENDROOT
BRANCH   1   7
ATOM      7  C1  UNL d   1      -0.199   3.675  -2.102  0.00  0.00     0.055 C 
ATOM      8  C   UNL d   1      -1.607   3.338  -2.572  0.00  0.00     0.019 C 
ENDBRANCH   1   7
TORSDOF 1
ENDMDL
