MODEL 1
REMARK minimizedAffinity 5.37540722
REMARK minimizedRMSD -1
REMARK  1 active torsions:
REMARK  status: ('A' for Active; 'I' for Inactive)
REMARK    1  A    between atoms: C1_2  and  C2_3 
ROOT
ATOM      1  C2  UNL d   1      -1.694   2.218   1.747  0.00  0.00    -0.077 A 
ATOM      2  C3  UNL d   1      -1.772   3.270   0.825  0.00  0.00     0.002 A 
ATOM      3  C4  UNL d   1      -0.629   3.705   0.150  0.00  0.00     0.002 A 
ATOM      4  C5  UNL d   1       0.598   3.090   0.388  0.00  0.00    -0.004 A 
ATOM      5  C6  UNL d   1       0.687   2.043   1.306  0.00  0.00     0.002 A 
ATOM      6  C7  UNL d   1      -0.454   1.609   1.981  0.00  0.00     0.002 A 
ENDROOT
BRANCH   1   7
ATOM      7  C1  UNL d   1      -2.934   1.715   2.439  0.00  0.00     0.055 C 
ATOM      8  C   UNL d   1      -2.586   0.793   3.598  0.00  0.00     0.019 C 
ENDBRANCH   1   7
TORSDOF 1
ENDMDL
