MODEL 1
REMARK minimizedAffinity -0.363825977
REMARK minimizedRMSD -1
REMARK  1 active torsions:
REMARK  status: ('A' for Active; 'I' for Inactive)
REMARK    1  A    between atoms: C1_2  and  C2_3 
ROOT
ATOM      1  C2  UNL d   1       0.376   3.486   0.355  0.00  0.00    -0.077 A 
ATOM      2  C3  UNL d   1       1.129   3.667   1.524  0.00  0.00     0.002 A 
ATOM      3  C4  UNL d   1       0.798   2.975   2.691  0.00  0.00     0.002 A 
ATOM      4  C5  UNL d   1      -0.283   2.095   2.699  0.00  0.00    -0.004 A 
ATOM      5  C6  UNL d   1      -1.038   1.910   1.542  0.00  0.00     0.002 A 
ATOM      6  C7  UNL d   1      -0.710   2.602   0.375  0.00  0.00     0.002 A 
ENDROOT
BRANCH   1   7
ATOM      7  C1  UNL d   1       0.761   4.194  -0.917  0.00  0.00     0.055 C 
ATOM      8  C   UNL d   1      -0.021   3.658  -2.108  0.00  0.00     0.019 C 
ENDBRANCH   1   7
TORSDOF 1
ENDMDL
