MODEL 1
REMARK minimizedAffinity 12.2286348
REMARK minimizedRMSD -1
REMARK  1 active torsions:
REMARK  status: ('A' for Active; 'I' for Inactive)
REMARK    1  A    between atoms: C1_2  and  C2_3 
ROOT
ATOM      1  C2  UNL d   1      -1.307   5.244  -0.205  0.00  0.00    -0.077 A 
ATOM      2  C3  UNL d   1      -0.108   5.928   0.039  0.00  0.00     0.002 A 
ATOM      3  C4  UNL d   1       1.102   5.233   0.097  0.00  0.00     0.002 A 
ATOM      4  C5  UNL d   1       1.125   3.853  -0.093  0.00  0.00    -0.004 A 
ATOM      5  C6  UNL d   1      -0.063   3.164  -0.334  0.00  0.00     0.002 A 
ATOM      6  C7  UNL d   1      -1.273   3.856  -0.391  0.00  0.00     0.002 A 
ENDROOT
BRANCH   1   7
ATOM      7  C1  UNL d   1      -2.606   5.998  -0.317  0.00  0.00     0.055 C 
ATOM      8  C   UNL d   1      -3.364   5.994   1.003  0.00  0.00     0.019 C 
ENDBRANCH   1   7
TORSDOF 1
ENDMDL
