MODEL 1
REMARK minimizedAffinity 7.62454081
REMARK minimizedRMSD -1
REMARK  1 active torsions:
REMARK  status: ('A' for Active; 'I' for Inactive)
REMARK    1  A    between atoms: C1_2  and  C2_3 
ROOT
ATOM      1  C2  UNL d   1      -0.254   2.317  -0.076  0.00  0.00    -0.077 A 
ATOM      2  C3  UNL d   1       0.487   3.346   0.521  0.00  0.00     0.002 A 
ATOM      3  C4  UNL d   1       0.948   4.419  -0.244  0.00  0.00     0.002 A 
ATOM      4  C5  UNL d   1       0.671   4.475  -1.608  0.00  0.00    -0.004 A 
ATOM      5  C6  UNL d   1      -0.063   3.455  -2.212  0.00  0.00     0.002 A 
ATOM      6  C7  UNL d   1      -0.525   2.381  -1.449  0.00  0.00     0.002 A 
ENDROOT
BRANCH   1   7
ATOM      7  C1  UNL d   1      -0.795   1.183   0.756  0.00  0.00     0.055 C 
ATOM      8  C   UNL d   1      -0.061   1.073   2.084  0.00  0.00     0.019 C 
ENDBRANCH   1   7
TORSDOF 1
ENDMDL
