MODEL 1
REMARK minimizedAffinity 3.13858986
REMARK minimizedRMSD -1
REMARK  1 active torsions:
REMARK  status: ('A' for Active; 'I' for Inactive)
REMARK    1  A    between atoms: C1_2  and  C2_3 
ROOT
ATOM      1  C2  UNL d   1      -0.589   2.693   1.004  0.00  0.00    -0.077 A 
ATOM      2  C3  UNL d   1      -0.990   1.940  -0.108  0.00  0.00     0.002 A 
ATOM      3  C4  UNL d   1      -0.815   2.439  -1.400  0.00  0.00     0.002 A 
ATOM      4  C5  UNL d   1      -0.235   3.692  -1.592  0.00  0.00    -0.004 A 
ATOM      5  C6  UNL d   1       0.165   4.449  -0.492  0.00  0.00     0.002 A 
ATOM      6  C7  UNL d   1      -0.010   3.952   0.800  0.00  0.00     0.002 A 
ENDROOT
BRANCH   1   7
ATOM      7  C1  UNL d   1      -0.732   2.135   2.396  0.00  0.00     0.055 C 
ATOM      8  C   UNL d   1      -1.796   1.048   2.450  0.00  0.00     0.019 C 
ENDBRANCH   1   7
TORSDOF 1
ENDMDL
