MODEL 1
REMARK minimizedAffinity 0.707250059
REMARK minimizedRMSD -1
REMARK  1 active torsions:
REMARK  status: ('A' for Active; 'I' for Inactive)
REMARK    1  A    between atoms: C1_2  and  C2_3 
ROOT
ATOM      1  C2  UNL d   1      -0.482   2.132   1.606  0.00  0.00    -0.077 A 
ATOM      2  C3  UNL d   1      -1.863   1.905   1.678  0.00  0.00     0.002 A 
ATOM      3  C4  UNL d   1      -2.413   1.239   2.775  0.00  0.00     0.002 A 
ATOM      4  C5  UNL d   1      -1.591   0.800   3.810  0.00  0.00    -0.004 A 
ATOM      5  C6  UNL d   1      -0.215   1.020   3.747  0.00  0.00     0.002 A 
ATOM      6  C7  UNL d   1       0.337   1.684   2.651  0.00  0.00     0.002 A 
ENDROOT
BRANCH   1   7
ATOM      7  C1  UNL d   1       0.108   2.893   0.448  0.00  0.00     0.055 C 
ATOM      8  C   UNL d   1      -0.803   4.032   0.012  0.00  0.00     0.019 C 
ENDBRANCH   1   7
TORSDOF 1
ENDMDL
