MODEL 1
REMARK minimizedAffinity 0.425346255
REMARK minimizedRMSD -1
REMARK  1 active torsions:
REMARK  status: ('A' for Active; 'I' for Inactive)
REMARK    1  A    between atoms: C1_2  and  C2_3 
ROOT
ATOM      1  C2  UNL d   1      -4.184  -3.035   4.736  0.00  0.00    -0.077 A 
ATOM      2  C3  UNL d   1      -4.512  -3.744   3.572  0.00  0.00     0.002 A 
ATOM      3  C4  UNL d   1      -5.415  -4.808   3.623  0.00  0.00     0.002 A 
ATOM      4  C5  UNL d   1      -5.999  -5.170   4.835  0.00  0.00    -0.004 A 
ATOM      5  C6  UNL d   1      -5.677  -4.473   5.999  0.00  0.00     0.002 A 
ATOM      6  C7  UNL d   1      -4.774  -3.410   5.950  0.00  0.00     0.002 A 
ENDROOT
BRANCH   1   7
ATOM      7  C1  UNL d   1      -3.248  -1.856   4.674  0.00  0.00     0.055 C 
ATOM      8  C   UNL d   1      -3.209  -1.110   6.000  0.00  0.00     0.019 C 
ENDBRANCH   1   7
TORSDOF 1
ENDMDL
