MODEL 1
REMARK minimizedAffinity 4.31487131
REMARK minimizedRMSD -1
REMARK  1 active torsions:
REMARK  status: ('A' for Active; 'I' for Inactive)
REMARK    1  A    between atoms: C1_2  and  C2_3 
ROOT
ATOM      1  C2  UNL d   1      -5.408  -4.012   3.270  0.00  0.00    -0.077 A 
ATOM      2  C3  UNL d   1      -5.991  -5.110   3.918  0.00  0.00     0.002 A 
ATOM      3  C4  UNL d   1      -5.760  -5.333   5.277  0.00  0.00     0.002 A 
ATOM      4  C5  UNL d   1      -4.949  -4.461   6.000  0.00  0.00    -0.004 A 
ATOM      5  C6  UNL d   1      -4.363  -3.367   5.364  0.00  0.00     0.002 A 
ATOM      6  C7  UNL d   1      -4.592  -3.143   4.006  0.00  0.00     0.002 A 
ENDROOT
BRANCH   1   7
ATOM      7  C1  UNL d   1      -5.696  -3.742   1.817  0.00  0.00     0.055 C 
ATOM      8  C   UNL d   1      -5.369  -2.303   1.446  0.00  0.00     0.019 C 
ENDBRANCH   1   7
TORSDOF 1
ENDMDL
