MODEL 1
REMARK minimizedAffinity -4.72775173
REMARK minimizedRMSD -1
REMARK  1 active torsions:
REMARK  status: ('A' for Active; 'I' for Inactive)
REMARK    1  A    between atoms: C1_2  and  C2_3 
ROOT
ATOM      1  C2  UNL d   1      -4.894  -1.238  -1.072  0.00  0.00    -0.077 A 
ATOM      2  C3  UNL d   1      -6.000  -1.155  -1.930  0.00  0.00     0.002 A 
ATOM      3  C4  UNL d   1      -5.999  -0.256  -2.998  0.00  0.00     0.002 A 
ATOM      4  C5  UNL d   1      -4.894   0.563  -3.220  0.00  0.00    -0.004 A 
ATOM      5  C6  UNL d   1      -3.790   0.489  -2.371  0.00  0.00     0.002 A 
ATOM      6  C7  UNL d   1      -3.790  -0.408  -1.302  0.00  0.00     0.002 A 
ENDROOT
BRANCH   1   7
ATOM      7  C1  UNL d   1      -4.874  -2.242   0.052  0.00  0.00     0.055 C 
ATOM      8  C   UNL d   1      -6.000  -3.255  -0.091  0.00  0.00     0.019 C 
ENDBRANCH   1   7
TORSDOF 1
ENDMDL
