MODEL 1
REMARK minimizedAffinity 1.89210546
REMARK minimizedRMSD -1
REMARK  1 active torsions:
REMARK  status: ('A' for Active; 'I' for Inactive)
REMARK    1  A    between atoms: C1_2  and  C2_3 
ROOT
ATOM      1  C2  UNL d   1      -0.900   1.025   2.083  0.00  0.00    -0.077 A 
ATOM      2  C3  UNL d   1      -0.736   1.093   0.693  0.00  0.00     0.002 A 
ATOM      3  C4  UNL d   1      -0.159   2.220   0.104  0.00  0.00     0.002 A 
ATOM      4  C5  UNL d   1       0.260   3.285   0.898  0.00  0.00    -0.004 A 
ATOM      5  C6  UNL d   1       0.099   3.228   2.281  0.00  0.00     0.002 A 
ATOM      6  C7  UNL d   1      -0.478   2.103   2.872  0.00  0.00     0.002 A 
ENDROOT
BRANCH   1   7
ATOM      7  C1  UNL d   1      -1.476  -0.211   2.724  0.00  0.00     0.055 C 
ATOM      8  C   UNL d   1      -0.458  -1.341   2.761  0.00  0.00     0.019 C 
ENDBRANCH   1   7
TORSDOF 1
ENDMDL
