MODEL 1
REMARK minimizedAffinity -5.09004641
REMARK minimizedRMSD -1
REMARK  1 active torsions:
REMARK  status: ('A' for Active; 'I' for Inactive)
REMARK    1  A    between atoms: C1_2  and  C2_3 
ROOT
ATOM      1  C2  UNL d   1      -1.143   0.178  -0.170  0.00  0.00    -0.081 A 
ATOM      2  C3  UNL d   1      -0.939  -1.131  -0.623  0.00  0.00     0.006 A 
ATOM      3  C4  UNL d   1       0.329  -1.713  -0.556  0.00  0.00     0.002 A 
ATOM      4  C5  UNL d   1       1.411  -1.000  -0.029  0.00  0.00    -0.080 A 
ATOM      5  C6  UNL d   1       2.771  -1.624   0.076  0.00  0.00     0.076 C 
ATOM      6  C7  UNL d   1       1.211   0.314   0.407  0.00  0.00     0.002 A 
ATOM      7  C8  UNL d   1      -0.056   0.897   0.340  0.00  0.00     0.006 A 
ENDROOT
BRANCH   1   8
ATOM      8  C1  UNL d   1      -2.522   0.786  -0.181  0.00  0.00     0.054 C 
ATOM      9  C   UNL d   1      -2.981   1.141   1.226  0.00  0.00     0.018 C 
ENDBRANCH   1   8
TORSDOF 1
ENDMDL
