MODEL 1
REMARK minimizedAffinity 2.03202438
REMARK minimizedRMSD -1
REMARK  1 active torsions:
REMARK  status: ('A' for Active; 'I' for Inactive)
REMARK    1  A    between atoms: C1_2  and  C2_3 
ROOT
ATOM      1  C2  UNL d   1      -1.151   0.312  -0.586  0.00  0.00    -0.081 A 
ATOM      2  C3  UNL d   1      -1.124  -0.956  -1.178  0.00  0.00     0.006 A 
ATOM      3  C4  UNL d   1       0.007  -1.767  -1.064  0.00  0.00     0.002 A 
ATOM      4  C5  UNL d   1       1.127  -1.327  -0.349  0.00  0.00    -0.080 A 
ATOM      5  C6  UNL d   1       2.336  -2.200  -0.193  0.00  0.00     0.076 C 
ATOM      6  C7  UNL d   1       1.106  -0.053   0.227  0.00  0.00     0.002 A 
ATOM      7  C8  UNL d   1      -0.024   0.759   0.113  0.00  0.00     0.006 A 
ENDROOT
BRANCH   1   8
ATOM      8  C1  UNL d   1      -2.394   1.163  -0.652  0.00  0.00     0.054 C 
ATOM      9  C   UNL d   1      -3.634   0.361  -0.283  0.00  0.00     0.018 C 
ENDBRANCH   1   8
TORSDOF 1
ENDMDL
