MODEL 1
REMARK minimizedAffinity -4.08653355
REMARK minimizedRMSD -1
REMARK  1 active torsions:
REMARK  status: ('A' for Active; 'I' for Inactive)
REMARK    1  A    between atoms: C1_2  and  C2_3 
ROOT
ATOM      1  C2  UNL d   1      -0.703   0.453  -0.024  0.00  0.00    -0.081 A 
ATOM      2  C3  UNL d   1      -0.561  -0.910  -0.314  0.00  0.00     0.006 A 
ATOM      3  C4  UNL d   1       0.608  -1.590   0.035  0.00  0.00     0.002 A 
ATOM      4  C5  UNL d   1       1.650  -0.922   0.686  0.00  0.00    -0.080 A 
ATOM      5  C6  UNL d   1       2.898  -1.648   1.094  0.00  0.00     0.076 C 
ATOM      6  C7  UNL d   1       1.516   0.443   0.960  0.00  0.00     0.002 A 
ATOM      7  C8  UNL d   1       0.348   1.124   0.611  0.00  0.00     0.006 A 
ENDROOT
BRANCH   1   8
ATOM      8  C1  UNL d   1      -1.988   1.174  -0.341  0.00  0.00     0.054 C 
ATOM      9  C   UNL d   1      -2.883   1.276   0.886  0.00  0.00     0.018 C 
ENDBRANCH   1   8
TORSDOF 1
ENDMDL
