MODEL 1
REMARK minimizedAffinity -4.77582788
REMARK minimizedRMSD -1
REMARK  1 active torsions:
REMARK  status: ('A' for Active; 'I' for Inactive)
REMARK    1  A    between atoms: C1_2  and  C2_3 
ROOT
ATOM      1  C2  UNL d   1      -0.298   0.736  -0.499  0.00  0.00    -0.081 A 
ATOM      2  C3  UNL d   1      -0.190  -0.626  -0.805  0.00  0.00     0.006 A 
ATOM      3  C4  UNL d   1       0.932  -1.355  -0.403  0.00  0.00     0.002 A 
ATOM      4  C5  UNL d   1       1.960  -0.737   0.316  0.00  0.00    -0.080 A 
ATOM      5  C6  UNL d   1       3.155  -1.515   0.779  0.00  0.00     0.076 C 
ATOM      6  C7  UNL d   1       1.860   0.628   0.607  0.00  0.00     0.002 A 
ATOM      7  C8  UNL d   1       0.739   1.358   0.205  0.00  0.00     0.006 A 
ENDROOT
BRANCH   1   8
ATOM      8  C1  UNL d   1      -1.536   1.510  -0.873  0.00  0.00     0.054 C 
ATOM      9  C   UNL d   1      -2.741   1.052  -0.065  0.00  0.00     0.018 C 
ENDBRANCH   1   8
TORSDOF 1
ENDMDL
