MODEL 1
REMARK minimizedAffinity -4.70360565
REMARK minimizedRMSD -1
REMARK  1 active torsions:
REMARK  status: ('A' for Active; 'I' for Inactive)
REMARK    1  A    between atoms: C1_2  and  C2_3 
ROOT
ATOM      1  C2  UNL d   1      -0.326   0.088  -0.203  0.00  0.00    -0.081 A 
ATOM      2  C3  UNL d   1       0.012  -1.213  -0.596  0.00  0.00     0.006 A 
ATOM      3  C4  UNL d   1       1.225  -1.780  -0.198  0.00  0.00     0.002 A 
ATOM      4  C5  UNL d   1       2.116  -1.059   0.604  0.00  0.00    -0.080 A 
ATOM      5  C6  UNL d   1       3.408  -1.668   1.063  0.00  0.00     0.076 C 
ATOM      6  C7  UNL d   1       1.786   0.247   0.982  0.00  0.00     0.002 A 
ATOM      7  C8  UNL d   1       0.574   0.815   0.584  0.00  0.00     0.006 A 
ENDROOT
BRANCH   1   8
ATOM      8  C1  UNL d   1      -1.662   0.679  -0.577  0.00  0.00     0.054 C 
ATOM      9  C   UNL d   1      -2.625   0.657   0.601  0.00  0.00     0.018 C 
ENDBRANCH   1   8
TORSDOF 1
ENDMDL
