MODEL 1
REMARK minimizedAffinity -1.87343121
REMARK minimizedRMSD -1
REMARK  1 active torsions:
REMARK  status: ('A' for Active; 'I' for Inactive)
REMARK    1  A    between atoms: C1_2  and  C2_3 
ROOT
ATOM      1  C2  UNL d   1      -1.621   0.386   0.354  0.00  0.00    -0.081 A 
ATOM      2  C3  UNL d   1      -0.707   0.556  -0.692  0.00  0.00     0.006 A 
ATOM      3  C4  UNL d   1       0.262  -0.416  -0.951  0.00  0.00     0.002 A 
ATOM      4  C5  UNL d   1       0.328  -1.578  -0.174  0.00  0.00    -0.080 A 
ATOM      5  C6  UNL d   1       1.343  -2.643  -0.461  0.00  0.00     0.076 C 
ATOM      6  C7  UNL d   1      -0.575  -1.740   0.882  0.00  0.00     0.002 A 
ATOM      7  C8  UNL d   1      -1.543  -0.767   1.142  0.00  0.00     0.006 A 
ENDROOT
BRANCH   1   8
ATOM      8  C1  UNL d   1      -2.708   1.403   0.595  0.00  0.00     0.054 C 
ATOM      9  C   UNL d   1      -3.729   0.893   1.603  0.00  0.00     0.018 C 
ENDBRANCH   1   8
TORSDOF 1
ENDMDL
