MODEL 1
REMARK minimizedAffinity -3.12429738
REMARK minimizedRMSD -1
REMARK  1 active torsions:
REMARK  status: ('A' for Active; 'I' for Inactive)
REMARK    1  A    between atoms: C1_2  and  C2_3 
ROOT
ATOM      1  C2  UNL d   1      -1.349   0.388  -0.336  0.00  0.00    -0.081 A 
ATOM      2  C3  UNL d   1      -0.209   1.201  -0.346  0.00  0.00     0.006 A 
ATOM      3  C4  UNL d   1       1.065   0.632  -0.418  0.00  0.00     0.002 A 
ATOM      4  C5  UNL d   1       1.219  -0.757  -0.490  0.00  0.00    -0.080 A 
ATOM      5  C6  UNL d   1       2.579  -1.379  -0.599  0.00  0.00     0.076 C 
ATOM      6  C7  UNL d   1       0.080  -1.569  -0.462  0.00  0.00     0.002 A 
ATOM      7  C8  UNL d   1      -1.193  -1.001  -0.389  0.00  0.00     0.006 A 
ENDROOT
BRANCH   1   8
ATOM      8  C1  UNL d   1      -2.727   1.001  -0.323  0.00  0.00     0.054 C 
ATOM      9  C   UNL d   1      -3.359   0.913   1.058  0.00  0.00     0.018 C 
ENDBRANCH   1   8
TORSDOF 1
ENDMDL
