MODEL 1
REMARK minimizedAffinity -5.554214
REMARK minimizedRMSD -1
REMARK  1 active torsions:
REMARK  status: ('A' for Active; 'I' for Inactive)
REMARK    1  A    between atoms: C1_2  and  C2_3 
ROOT
ATOM      1  C2  UNL d   1      -0.650   0.550  -0.473  0.00  0.00    -0.081 A 
ATOM      2  C3  UNL d   1      -0.346  -0.776  -0.805  0.00  0.00     0.006 A 
ATOM      3  C4  UNL d   1       0.838  -1.365  -0.355  0.00  0.00     0.002 A 
ATOM      4  C5  UNL d   1       1.733  -0.643   0.441  0.00  0.00    -0.080 A 
ATOM      5  C6  UNL d   1       2.992  -1.274   0.956  0.00  0.00     0.076 C 
ATOM      6  C7  UNL d   1       1.438   0.687   0.759  0.00  0.00     0.002 A 
ATOM      7  C8  UNL d   1       0.255   1.278   0.309  0.00  0.00     0.006 A 
ENDROOT
BRANCH   1   8
ATOM      8  C1  UNL d   1      -1.955   1.168  -0.903  0.00  0.00     0.054 C 
ATOM      9  C   UNL d   1      -2.944   1.233   0.253  0.00  0.00     0.018 C 
ENDBRANCH   1   8
TORSDOF 1
ENDMDL
