MODEL 1
REMARK minimizedAffinity -4.65020752
REMARK minimizedRMSD -1
REMARK  1 active torsions:
REMARK  status: ('A' for Active; 'I' for Inactive)
REMARK    1  A    between atoms: C1_2  and  C2_3 
ROOT
ATOM      1  C2  UNL d   1      -1.669   0.240   2.200  0.00  0.00    -0.081 A 
ATOM      2  C3  UNL d   1      -1.357   0.230   3.565  0.00  0.00     0.006 A 
ATOM      3  C4  UNL d   1      -1.989  -0.667   4.429  0.00  0.00     0.002 A 
ATOM      4  C5  UNL d   1      -2.937  -1.573   3.943  0.00  0.00    -0.080 A 
ATOM      5  C6  UNL d   1      -3.601  -2.562   4.855  0.00  0.00     0.076 C 
ATOM      6  C7  UNL d   1      -3.262  -1.552   2.582  0.00  0.00     0.002 A 
ATOM      7  C8  UNL d   1      -2.630  -0.655   1.717  0.00  0.00     0.006 A 
ENDROOT
BRANCH   1   8
ATOM      8  C1  UNL d   1      -0.942   1.161   1.254  0.00  0.00     0.054 C 
ATOM      9  C   UNL d   1      -0.607   0.459  -0.054  0.00  0.00     0.018 C 
ENDBRANCH   1   8
TORSDOF 1
ENDMDL
