MODEL 1
REMARK minimizedAffinity -0.607040226
REMARK minimizedRMSD -1
REMARK  1 active torsions:
REMARK  status: ('A' for Active; 'I' for Inactive)
REMARK    1  A    between atoms: C1_2  and  C2_3 
ROOT
ATOM      1  C2  UNL d   1      -1.500  -0.010   0.246  0.00  0.00    -0.081 A 
ATOM      2  C3  UNL d   1      -1.087  -1.308  -0.081  0.00  0.00     0.006 A 
ATOM      3  C4  UNL d   1       0.090  -1.516  -0.804  0.00  0.00     0.002 A 
ATOM      4  C5  UNL d   1       0.877  -0.431  -1.207  0.00  0.00    -0.080 A 
ATOM      5  C6  UNL d   1       2.157  -0.642  -1.958  0.00  0.00     0.076 C 
ATOM      6  C7  UNL d   1       0.455   0.866  -0.896  0.00  0.00     0.002 A 
ATOM      7  C8  UNL d   1      -0.721   1.075  -0.173  0.00  0.00     0.006 A 
ENDROOT
BRANCH   1   8
ATOM      8  C1  UNL d   1      -2.734   0.214   1.082  0.00  0.00     0.054 C 
ATOM      9  C   UNL d   1      -2.376   0.468   2.539  0.00  0.00     0.018 C 
ENDBRANCH   1   8
TORSDOF 1
ENDMDL
