MODEL 1
REMARK minimizedAffinity -2.22651029
REMARK minimizedRMSD -1
REMARK  1 active torsions:
REMARK  status: ('A' for Active; 'I' for Inactive)
REMARK    1  A    between atoms: C1_2  and  C2_3 
ROOT
ATOM      1  C2  UNL d   1      -2.579  -0.353   2.859  0.00  0.00    -0.081 A 
ATOM      2  C3  UNL d   1      -2.352   1.000   3.142  0.00  0.00     0.006 A 
ATOM      3  C4  UNL d   1      -1.901   1.866   2.143  0.00  0.00     0.002 A 
ATOM      4  C5  UNL d   1      -1.678   1.397   0.844  0.00  0.00    -0.080 A 
ATOM      5  C6  UNL d   1      -1.224   2.322  -0.245  0.00  0.00     0.076 C 
ATOM      6  C7  UNL d   1      -1.888   0.042   0.566  0.00  0.00     0.002 A 
ATOM      7  C8  UNL d   1      -2.338  -0.825   1.564  0.00  0.00     0.006 A 
ENDROOT
BRANCH   1   8
ATOM      8  C1  UNL d   1      -3.126  -1.275   3.918  0.00  0.00     0.054 C 
ATOM      9  C   UNL d   1      -3.813  -2.484   3.297  0.00  0.00     0.018 C 
ENDBRANCH   1   8
TORSDOF 1
ENDMDL
