MODEL 1
REMARK minimizedAffinity -5.1840539
REMARK minimizedRMSD -1
REMARK  1 active torsions:
REMARK  status: ('A' for Active; 'I' for Inactive)
REMARK    1  A    between atoms: C1_2  and  C2_3 
ROOT
ATOM      1  C2  UNL d   1      -0.706  -0.158   0.752  0.00  0.00    -0.081 A 
ATOM      2  C3  UNL d   1       0.230  -1.100   1.195  0.00  0.00     0.006 A 
ATOM      3  C4  UNL d   1       1.379  -1.364   0.445  0.00  0.00     0.002 A 
ATOM      4  C5  UNL d   1       1.614  -0.684  -0.754  0.00  0.00    -0.080 A 
ATOM      5  C6  UNL d   1       2.858  -0.936  -1.554  0.00  0.00     0.076 C 
ATOM      6  C7  UNL d   1       0.671   0.245  -1.206  0.00  0.00     0.002 A 
ATOM      7  C8  UNL d   1      -0.478   0.508  -0.457  0.00  0.00     0.006 A 
ENDROOT
BRANCH   1   8
ATOM      8  C1  UNL d   1      -1.914   0.176   1.591  0.00  0.00     0.054 C 
ATOM      9  C   UNL d   1      -1.509   0.676   2.970  0.00  0.00     0.018 C 
ENDBRANCH   1   8
TORSDOF 1
ENDMDL
