MODEL 1
REMARK minimizedAffinity -4.2577939
REMARK minimizedRMSD -1
REMARK  1 active torsions:
REMARK  status: ('A' for Active; 'I' for Inactive)
REMARK    1  A    between atoms: C1_2  and  C2_3 
ROOT
ATOM      1  C2  UNL d   1       1.704   1.122  -1.737  0.00  0.00    -0.081 A 
ATOM      2  C3  UNL d   1       2.393  -0.089  -1.881  0.00  0.00     0.006 A 
ATOM      3  C4  UNL d   1       1.840  -1.279  -1.404  0.00  0.00     0.002 A 
ATOM      4  C5  UNL d   1       0.587  -1.281  -0.782  0.00  0.00    -0.080 A 
ATOM      5  C6  UNL d   1      -0.031  -2.557  -0.292  0.00  0.00     0.076 C 
ATOM      6  C7  UNL d   1      -0.094  -0.069  -0.622  0.00  0.00     0.002 A 
ATOM      7  C8  UNL d   1       0.459   1.122  -1.098  0.00  0.00     0.006 A 
ENDROOT
BRANCH   1   8
ATOM      8  C1  UNL d   1       2.268   2.397  -2.308  0.00  0.00     0.054 C 
ATOM      9  C   UNL d   1       1.160   3.346  -2.743  0.00  0.00     0.018 C 
ENDBRANCH   1   8
TORSDOF 1
ENDMDL
