MODEL 1
REMARK minimizedAffinity -3.89155006
REMARK minimizedRMSD -1
REMARK  1 active torsions:
REMARK  status: ('A' for Active; 'I' for Inactive)
REMARK    1  A    between atoms: C1_2  and  C2_3 
ROOT
ATOM      1  C2  UNL d   1      -2.504  -1.017   2.858  0.00  0.00    -0.081 A 
ATOM      2  C3  UNL d   1      -2.924   0.312   2.728  0.00  0.00     0.006 A 
ATOM      3  C4  UNL d   1      -2.408   1.121   1.713  0.00  0.00     0.002 A 
ATOM      4  C5  UNL d   1      -1.471   0.613   0.807  0.00  0.00    -0.080 A 
ATOM      5  C6  UNL d   1      -0.932   1.462  -0.306  0.00  0.00     0.076 C 
ATOM      6  C7  UNL d   1      -1.039  -0.710   0.947  0.00  0.00     0.002 A 
ATOM      7  C8  UNL d   1      -1.554  -1.519   1.963  0.00  0.00     0.006 A 
ENDROOT
BRANCH   1   8
ATOM      8  C1  UNL d   1      -3.107  -1.911   3.912  0.00  0.00     0.054 C 
ATOM      9  C   UNL d   1      -3.910  -3.041   3.285  0.00  0.00     0.018 C 
ENDBRANCH   1   8
TORSDOF 1
ENDMDL
