MODEL 1
REMARK minimizedAffinity 6.43885088
REMARK minimizedRMSD -1
REMARK  1 active torsions:
REMARK  status: ('A' for Active; 'I' for Inactive)
REMARK    1  A    between atoms: C1_2  and  C2_3 
ROOT
ATOM      1  C2  UNL d   1      -1.846  -0.282   3.039  0.00  0.00    -0.081 A 
ATOM      2  C3  UNL d   1      -2.554  -0.567   1.865  0.00  0.00     0.006 A 
ATOM      3  C4  UNL d   1      -3.563  -1.533   1.864  0.00  0.00     0.002 A 
ATOM      4  C5  UNL d   1      -3.886  -2.224   3.036  0.00  0.00    -0.080 A 
ATOM      5  C6  UNL d   1      -4.987  -3.242   3.056  0.00  0.00     0.076 C 
ATOM      6  C7  UNL d   1      -3.166  -1.952   4.205  0.00  0.00     0.002 A 
ATOM      7  C8  UNL d   1      -2.157  -0.987   4.207  0.00  0.00     0.006 A 
ENDROOT
BRANCH   1   8
ATOM      8  C1  UNL d   1      -0.801   0.805   3.059  0.00  0.00     0.054 C 
ATOM      9  C   UNL d   1      -1.228   1.965   3.946  0.00  0.00     0.018 C 
ENDBRANCH   1   8
TORSDOF 1
ENDMDL
