MODEL 1
REMARK minimizedAffinity -0.89311558
REMARK minimizedRMSD -1
REMARK  1 active torsions:
REMARK  status: ('A' for Active; 'I' for Inactive)
REMARK    1  A    between atoms: C1_2  and  C2_3 
ROOT
ATOM      1  C2  UNL d   1      -3.080  -1.045   4.002  0.00  0.00    -0.081 A 
ATOM      2  C3  UNL d   1      -3.084   0.352   3.910  0.00  0.00     0.006 A 
ATOM      3  C4  UNL d   1      -2.352   0.998   2.911  0.00  0.00     0.002 A 
ATOM      4  C5  UNL d   1      -1.611   0.258   1.984  0.00  0.00    -0.080 A 
ATOM      5  C6  UNL d   1      -0.845   0.938   0.888  0.00  0.00     0.076 C 
ATOM      6  C7  UNL d   1      -1.593  -1.137   2.086  0.00  0.00     0.002 A 
ATOM      7  C8  UNL d   1      -2.324  -1.783   3.085  0.00  0.00     0.006 A 
ENDROOT
BRANCH   1   8
ATOM      8  C1  UNL d   1      -3.920  -1.747   5.039  0.00  0.00     0.054 C 
ATOM      9  C   UNL d   1      -4.505  -3.042   4.492  0.00  0.00     0.018 C 
ENDBRANCH   1   8
TORSDOF 1
ENDMDL
