MODEL 1
REMARK minimizedAffinity -4.63550138
REMARK minimizedRMSD -1
REMARK  1 active torsions:
REMARK  status: ('A' for Active; 'I' for Inactive)
REMARK    1  A    between atoms: C1_2  and  C2_3 
ROOT
ATOM      1  C2  UNL d   1      -0.030  -0.353   0.252  0.00  0.00    -0.081 A 
ATOM      2  C3  UNL d   1       0.521  -1.505  -0.324  0.00  0.00     0.006 A 
ATOM      3  C4  UNL d   1       1.576  -1.406  -1.233  0.00  0.00     0.002 A 
ATOM      4  C5  UNL d   1       2.104  -0.157  -1.576  0.00  0.00    -0.080 A 
ATOM      5  C6  UNL d   1       3.257  -0.039  -2.528  0.00  0.00     0.076 C 
ATOM      6  C7  UNL d   1       1.542   0.995  -1.015  0.00  0.00     0.002 A 
ATOM      7  C8  UNL d   1       0.486   0.897  -0.106  0.00  0.00     0.006 A 
ENDROOT
BRANCH   1   8
ATOM      8  C1  UNL d   1      -1.125  -0.460   1.282  0.00  0.00     0.054 C 
ATOM      9  C   UNL d   1      -1.506   0.909   1.829  0.00  0.00     0.018 C 
ENDBRANCH   1   8
TORSDOF 1
ENDMDL
