MODEL 1
REMARK minimizedAffinity -5.97069979
REMARK minimizedRMSD -1
REMARK  1 active torsions:
REMARK  status: ('A' for Active; 'I' for Inactive)
REMARK    1  A    between atoms: C1_2  and  C2_3 
ROOT
ATOM      1  C2  UNL d   1       0.563  -0.077  -0.818  0.00  0.00    -0.081 A 
ATOM      2  C3  UNL d   1       1.598  -1.001  -0.633  0.00  0.00     0.006 A 
ATOM      3  C4  UNL d   1       2.843  -0.801  -1.235  0.00  0.00     0.002 A 
ATOM      4  C5  UNL d   1       3.076   0.329  -2.025  0.00  0.00    -0.080 A 
ATOM      5  C6  UNL d   1       4.416   0.571  -2.652  0.00  0.00     0.076 C 
ATOM      6  C7  UNL d   1       2.036   1.244  -2.224  0.00  0.00     0.002 A 
ATOM      7  C8  UNL d   1       0.791   1.044  -1.623  0.00  0.00     0.006 A 
ENDROOT
BRANCH   1   8
ATOM      8  C1  UNL d   1      -0.759  -0.257  -0.118  0.00  0.00     0.054 C 
ATOM      9  C   UNL d   1      -1.085   0.940   0.764  0.00  0.00     0.018 C 
ENDBRANCH   1   8
TORSDOF 1
ENDMDL
