MODEL 1
REMARK minimizedAffinity -5.57235479
REMARK minimizedRMSD -1
REMARK  1 active torsions:
REMARK  status: ('A' for Active; 'I' for Inactive)
REMARK    1  A    between atoms: C1_2  and  C2_3 
ROOT
ATOM      1  C2  UNL d   1      -3.912  -0.680   3.659  0.00  0.00    -0.081 A 
ATOM      2  C3  UNL d   1      -3.966   0.644   3.208  0.00  0.00     0.006 A 
ATOM      3  C4  UNL d   1      -3.102   1.087   2.205  0.00  0.00     0.002 A 
ATOM      4  C5  UNL d   1      -2.174   0.212   1.630  0.00  0.00    -0.080 A 
ATOM      5  C6  UNL d   1      -1.261   0.667   0.530  0.00  0.00     0.076 C 
ATOM      6  C7  UNL d   1      -2.107  -1.107   2.092  0.00  0.00     0.002 A 
ATOM      7  C8  UNL d   1      -2.971  -1.550   3.096  0.00  0.00     0.006 A 
ENDROOT
BRANCH   1   8
ATOM      8  C1  UNL d   1      -4.886  -1.178   4.696  0.00  0.00     0.054 C 
ATOM      9  C   UNL d   1      -5.989  -2.014   4.062  0.00  0.00     0.018 C 
ENDBRANCH   1   8
TORSDOF 1
ENDMDL
