MODEL 1
REMARK minimizedAffinity 1.70320785
REMARK minimizedRMSD -1
REMARK  1 active torsions:
REMARK  status: ('A' for Active; 'I' for Inactive)
REMARK    1  A    between atoms: C1_2  and  C2_3 
ROOT
ATOM      1  C2  UNL d   1      -0.133  -0.720  -0.133  0.00  0.00    -0.081 A 
ATOM      2  C3  UNL d   1       0.848  -1.483  -0.778  0.00  0.00     0.006 A 
ATOM      3  C4  UNL d   1       1.360  -1.079  -2.013  0.00  0.00     0.002 A 
ATOM      4  C5  UNL d   1       0.905   0.096  -2.620  0.00  0.00    -0.080 A 
ATOM      5  C6  UNL d   1       1.468   0.556  -3.932  0.00  0.00     0.076 C 
ATOM      6  C7  UNL d   1      -0.088   0.849  -1.985  0.00  0.00     0.002 A 
ATOM      7  C8  UNL d   1      -0.600   0.446  -0.749  0.00  0.00     0.006 A 
ENDROOT
BRANCH   1   8
ATOM      8  C1  UNL d   1      -0.641  -1.118   1.230  0.00  0.00     0.054 C 
ATOM      9  C   UNL d   1      -2.061  -0.620   1.458  0.00  0.00     0.018 C 
ENDBRANCH   1   8
TORSDOF 1
ENDMDL
