MODEL 1
REMARK minimizedAffinity -5.15111876
REMARK minimizedRMSD -1
REMARK  1 active torsions:
REMARK  status: ('A' for Active; 'I' for Inactive)
REMARK    1  A    between atoms: C1_2  and  C2_3 
ROOT
ATOM      1  C2  UNL d   1      -2.031   0.739   2.243  0.00  0.00    -0.081 A 
ATOM      2  C3  UNL d   1      -1.755  -0.608   1.980  0.00  0.00     0.006 A 
ATOM      3  C4  UNL d   1      -2.360  -1.616   2.734  0.00  0.00     0.002 A 
ATOM      4  C5  UNL d   1      -3.257  -1.294   3.759  0.00  0.00    -0.080 A 
ATOM      5  C6  UNL d   1      -3.937  -2.367   4.556  0.00  0.00     0.076 C 
ATOM      6  C7  UNL d   1      -3.520   0.052   4.033  0.00  0.00     0.002 A 
ATOM      7  C8  UNL d   1      -2.914   1.060   3.280  0.00  0.00     0.006 A 
ENDROOT
BRANCH   1   8
ATOM      8  C1  UNL d   1      -1.430   1.826   1.389  0.00  0.00     0.054 C 
ATOM      9  C   UNL d   1      -1.083   1.310  -0.000  0.00  0.00     0.018 C 
ENDBRANCH   1   8
TORSDOF 1
ENDMDL
