MODEL 1
REMARK minimizedAffinity 12.2272158
REMARK minimizedRMSD -1
REMARK  0 active torsions:
REMARK  status: ('A' for Active; 'I' for Inactive)
ROOT
ATOM      1  C   UNL d   1       0.426   1.440   3.672  0.00  0.00     0.077 C 
ATOM      2  C1  UNL d   1       1.603   1.121   2.800  0.00  0.00    -0.074 A 
ATOM      3  C2  UNL d   1       2.743   0.507   3.328  0.00  0.00    -0.005 A 
ATOM      4  C3  UNL d   1       3.827   0.208   2.503  0.00  0.00     0.006 A 
ATOM      5  C4  UNL d   1       3.783   0.520   1.143  0.00  0.00    -0.005 A 
ATOM      6  C5  UNL d   1       2.651   1.134   0.597  0.00  0.00    -0.074 A 
ATOM      7  C6  UNL d   1       2.582   1.467  -0.863  0.00  0.00     0.077 C 
ATOM      8  C7  UNL d   1       1.563   1.425   1.432  0.00  0.00    -0.001 A 
ENDROOT
TORSDOF 0
ENDMDL
