MODEL 1
REMARK minimizedAffinity 11.9285727
REMARK minimizedRMSD -1
REMARK  0 active torsions:
REMARK  status: ('A' for Active; 'I' for Inactive)
ROOT
ATOM      1  C   UNL d   1       1.105   0.733   5.232  0.00  0.00     0.077 C 
ATOM      2  C1  UNL d   1       0.813   0.583   3.769  0.00  0.00    -0.074 A 
ATOM      3  C2  UNL d   1       1.418   1.421   2.826  0.00  0.00    -0.005 A 
ATOM      4  C3  UNL d   1       1.144   1.264   1.467  0.00  0.00     0.006 A 
ATOM      5  C4  UNL d   1       0.264   0.269   1.038  0.00  0.00    -0.005 A 
ATOM      6  C5  UNL d   1      -0.350  -0.578   1.967  0.00  0.00    -0.074 A 
ATOM      7  C6  UNL d   1      -1.290  -1.659   1.522  0.00  0.00     0.077 C 
ATOM      8  C7  UNL d   1      -0.064  -0.418   3.329  0.00  0.00    -0.001 A 
ENDROOT
TORSDOF 0
ENDMDL
