MODEL 1
REMARK minimizedAffinity 9.90486145
REMARK minimizedRMSD -1
REMARK  0 active torsions:
REMARK  status: ('A' for Active; 'I' for Inactive)
ROOT
ATOM      1  C   UNL d   1      -6.000  -5.995  -2.291  0.00  0.00     0.077 C 
ATOM      2  C1  UNL d   1      -4.905  -5.007  -2.563  0.00  0.00    -0.074 A 
ATOM      3  C2  UNL d   1      -5.191  -3.652  -2.755  0.00  0.00    -0.005 A 
ATOM      4  C3  UNL d   1      -4.161  -2.743  -2.997  0.00  0.00     0.006 A 
ATOM      5  C4  UNL d   1      -2.836  -3.180  -3.051  0.00  0.00    -0.005 A 
ATOM      6  C5  UNL d   1      -2.531  -4.531  -2.861  0.00  0.00    -0.074 A 
ATOM      7  C6  UNL d   1      -1.112  -5.016  -2.906  0.00  0.00     0.077 C 
ATOM      8  C7  UNL d   1      -3.571  -5.437  -2.611  0.00  0.00    -0.001 A 
ENDROOT
TORSDOF 0
ENDMDL
