MODEL 1
REMARK minimizedAffinity 8.29660702
REMARK minimizedRMSD -1
REMARK  0 active torsions:
REMARK  status: ('A' for Active; 'I' for Inactive)
ROOT
ATOM      1  C   UNL d   1       3.694   0.216   0.453  0.00  0.00     0.077 C 
ATOM      2  C1  UNL d   1       2.567   0.792   1.259  0.00  0.00    -0.074 A 
ATOM      3  C2  UNL d   1       1.830   1.883   0.786  0.00  0.00    -0.005 A 
ATOM      4  C3  UNL d   1       0.779   2.402   1.542  0.00  0.00     0.006 A 
ATOM      5  C4  UNL d   1       0.454   1.837   2.776  0.00  0.00    -0.005 A 
ATOM      6  C5  UNL d   1       1.180   0.745   3.264  0.00  0.00    -0.074 A 
ATOM      7  C6  UNL d   1       0.838   0.119   4.584  0.00  0.00     0.077 C 
ATOM      8  C7  UNL d   1       2.230   0.225   2.496  0.00  0.00    -0.001 A 
ENDROOT
TORSDOF 0
ENDMDL
