MODEL 1
REMARK minimizedAffinity 10.9164448
REMARK minimizedRMSD -1
REMARK  0 active torsions:
REMARK  status: ('A' for Active; 'I' for Inactive)
ROOT
ATOM      1  C   UNL d   1      -3.957  -5.992  -1.984  0.00  0.00     0.077 C 
ATOM      2  C1  UNL d   1      -3.088  -4.973  -2.660  0.00  0.00    -0.074 A 
ATOM      3  C2  UNL d   1      -3.476  -3.632  -2.733  0.00  0.00    -0.005 A 
ATOM      4  C3  UNL d   1      -2.654  -2.694  -3.356  0.00  0.00     0.006 A 
ATOM      5  C4  UNL d   1      -1.436  -3.087  -3.912  0.00  0.00    -0.005 A 
ATOM      6  C5  UNL d   1      -1.030  -4.424  -3.848  0.00  0.00    -0.074 A 
ATOM      7  C6  UNL d   1       0.281  -4.861  -4.432  0.00  0.00     0.077 C 
ATOM      8  C7  UNL d   1      -1.859  -5.359  -3.214  0.00  0.00    -0.001 A 
ENDROOT
TORSDOF 0
ENDMDL
