MODEL 1
REMARK minimizedAffinity 14.740736
REMARK minimizedRMSD -1
REMARK  0 active torsions:
REMARK  status: ('A' for Active; 'I' for Inactive)
ROOT
ATOM      1  C   UNL d   1       1.153   1.202   1.612  0.00  0.00     0.077 C 
ATOM      2  C1  UNL d   1       0.422   0.078   2.283  0.00  0.00    -0.074 A 
ATOM      3  C2  UNL d   1       0.320   0.016   3.676  0.00  0.00    -0.005 A 
ATOM      4  C3  UNL d   1      -0.371  -1.032   4.285  0.00  0.00     0.006 A 
ATOM      5  C4  UNL d   1      -0.967  -2.026   3.508  0.00  0.00    -0.005 A 
ATOM      6  C5  UNL d   1      -0.877  -1.980   2.114  0.00  0.00    -0.074 A 
ATOM      7  C6  UNL d   1      -1.521  -3.035   1.263  0.00  0.00     0.077 C 
ATOM      8  C7  UNL d   1      -0.187  -0.921   1.509  0.00  0.00    -0.001 A 
ENDROOT
TORSDOF 0
ENDMDL
