MODEL 1
REMARK minimizedAffinity 5.30730915
REMARK minimizedRMSD -1
REMARK  0 active torsions:
REMARK  status: ('A' for Active; 'I' for Inactive)
ROOT
ATOM      1  C   UNL d   1       6.000  -0.717   0.422  0.00  0.00     0.077 C 
ATOM      2  C1  UNL d   1       4.814   0.201   0.425  0.00  0.00    -0.074 A 
ATOM      3  C2  UNL d   1       4.802   1.363  -0.354  0.00  0.00    -0.005 A 
ATOM      4  C3  UNL d   1       3.688   2.202  -0.348  0.00  0.00     0.006 A 
ATOM      5  C4  UNL d   1       2.576   1.889   0.435  0.00  0.00    -0.005 A 
ATOM      6  C5  UNL d   1       2.569   0.731   1.220  0.00  0.00    -0.074 A 
ATOM      7  C6  UNL d   1       1.379   0.375   2.059  0.00  0.00     0.077 C 
ATOM      8  C7  UNL d   1       3.690  -0.111   1.203  0.00  0.00    -0.001 A 
ENDROOT
TORSDOF 0
ENDMDL
