MODEL 1
REMARK minimizedAffinity 13.0211468
REMARK minimizedRMSD -1
REMARK  0 active torsions:
REMARK  status: ('A' for Active; 'I' for Inactive)
ROOT
ATOM      1  C   UNL d   1       1.609   1.615   1.627  0.00  0.00     0.077 C 
ATOM      2  C1  UNL d   1       2.843   1.459   0.788  0.00  0.00    -0.074 A 
ATOM      3  C2  UNL d   1       3.210   2.440  -0.139  0.00  0.00    -0.005 A 
ATOM      4  C3  UNL d   1       4.365   2.286  -0.905  0.00  0.00     0.006 A 
ATOM      5  C4  UNL d   1       5.164   1.152  -0.753  0.00  0.00    -0.005 A 
ATOM      6  C5  UNL d   1       4.813   0.161   0.170  0.00  0.00    -0.074 A 
ATOM      7  C6  UNL d   1       5.665  -1.060   0.353  0.00  0.00     0.077 C 
ATOM      8  C7  UNL d   1       3.654   0.326   0.941  0.00  0.00    -0.001 A 
ENDROOT
TORSDOF 0
ENDMDL
