MODEL 1
REMARK minimizedAffinity 10.6308918
REMARK minimizedRMSD -1
REMARK  0 active torsions:
REMARK  status: ('A' for Active; 'I' for Inactive)
ROOT
ATOM      1  C   UNL d   1      -5.979  -0.730   5.999  0.00  0.00     0.077 C 
ATOM      2  C1  UNL d   1      -5.553   0.499   5.252  0.00  0.00    -0.074 A 
ATOM      3  C2  UNL d   1      -5.295   0.452   3.878  0.00  0.00    -0.005 A 
ATOM      4  C3  UNL d   1      -4.910   1.605   3.195  0.00  0.00     0.006 A 
ATOM      5  C4  UNL d   1      -4.779   2.815   3.877  0.00  0.00    -0.005 A 
ATOM      6  C5  UNL d   1      -5.033   2.882   5.251  0.00  0.00    -0.074 A 
ATOM      7  C6  UNL d   1      -4.907   4.177   5.997  0.00  0.00     0.077 C 
ATOM      8  C7  UNL d   1      -5.427   1.721   5.929  0.00  0.00    -0.001 A 
ENDROOT
TORSDOF 0
ENDMDL
