MODEL 1
REMARK minimizedAffinity 12.7319374
REMARK minimizedRMSD -1
REMARK  0 active torsions:
REMARK  status: ('A' for Active; 'I' for Inactive)
ROOT
ATOM      1  C   UNL d   1      -1.999  -2.157   0.335  0.00  0.00     0.077 C 
ATOM      2  C1  UNL d   1      -1.110  -1.431   1.300  0.00  0.00    -0.074 A 
ATOM      3  C2  UNL d   1      -1.176  -1.689   2.673  0.00  0.00    -0.005 A 
ATOM      4  C3  UNL d   1      -0.337  -1.013   3.557  0.00  0.00     0.006 A 
ATOM      5  C4  UNL d   1       0.576  -0.072   3.079  0.00  0.00    -0.005 A 
ATOM      6  C5  UNL d   1       0.657   0.199   1.710  0.00  0.00    -0.074 A 
ATOM      7  C6  UNL d   1       1.640   1.200   1.178  0.00  0.00     0.077 C 
ATOM      8  C7  UNL d   1      -0.185  -0.490   0.826  0.00  0.00    -0.001 A 
ENDROOT
TORSDOF 0
ENDMDL
