MODEL 1
REMARK minimizedAffinity 22.924614
REMARK minimizedRMSD -1
REMARK  0 active torsions:
REMARK  status: ('A' for Active; 'I' for Inactive)
ROOT
ATOM      1  C   UNL d   1      -6.000  -2.626  -4.803  0.00  0.00     0.077 C 
ATOM      2  C1  UNL d   1      -5.225  -3.372  -3.757  0.00  0.00    -0.074 A 
ATOM      3  C2  UNL d   1      -5.595  -4.665  -3.373  0.00  0.00    -0.005 A 
ATOM      4  C3  UNL d   1      -4.859  -5.349  -2.406  0.00  0.00     0.006 A 
ATOM      5  C4  UNL d   1      -3.748  -4.748  -1.813  0.00  0.00    -0.005 A 
ATOM      6  C5  UNL d   1      -3.362  -3.456  -2.185  0.00  0.00    -0.074 A 
ATOM      7  C6  UNL d   1      -2.165  -2.800  -1.565  0.00  0.00     0.077 C 
ATOM      8  C7  UNL d   1      -4.103  -2.778  -3.162  0.00  0.00    -0.001 A 
ENDROOT
TORSDOF 0
ENDMDL
