MODEL 1
REMARK minimizedAffinity 12.4261904
REMARK minimizedRMSD -1
REMARK  0 active torsions:
REMARK  status: ('A' for Active; 'I' for Inactive)
ROOT
ATOM      1  C   UNL d   1       4.564  -0.871   0.435  0.00  0.00     0.077 C 
ATOM      2  C1  UNL d   1       3.443  -0.130   1.101  0.00  0.00    -0.074 A 
ATOM      3  C2  UNL d   1       2.859   0.987   0.494  0.00  0.00    -0.005 A 
ATOM      4  C3  UNL d   1       1.811   1.660   1.121  0.00  0.00     0.006 A 
ATOM      5  C4  UNL d   1       1.337   1.226   2.359  0.00  0.00    -0.005 A 
ATOM      6  C5  UNL d   1       1.908   0.111   2.981  0.00  0.00    -0.074 A 
ATOM      7  C6  UNL d   1       1.405  -0.376   4.308  0.00  0.00     0.077 C 
ATOM      8  C7  UNL d   1       2.957  -0.565   2.342  0.00  0.00    -0.001 A 
ENDROOT
TORSDOF 0
ENDMDL
