MODEL 1
REMARK minimizedAffinity 14.9329443
REMARK minimizedRMSD -1
REMARK  0 active torsions:
REMARK  status: ('A' for Active; 'I' for Inactive)
ROOT
ATOM      1  C   UNL d   1       1.111   1.372   1.938  0.00  0.00     0.077 C 
ATOM      2  C1  UNL d   1       2.108   1.134   0.843  0.00  0.00    -0.074 A 
ATOM      3  C2  UNL d   1       2.874  -0.035   0.810  0.00  0.00    -0.005 A 
ATOM      4  C3  UNL d   1       3.791  -0.247  -0.220  0.00  0.00     0.006 A 
ATOM      5  C4  UNL d   1       3.950   0.707  -1.226  0.00  0.00    -0.005 A 
ATOM      6  C5  UNL d   1       3.192   1.882  -1.210  0.00  0.00    -0.074 A 
ATOM      7  C6  UNL d   1       3.344   2.913  -2.289  0.00  0.00     0.077 C 
ATOM      8  C7  UNL d   1       2.268   2.084  -0.176  0.00  0.00    -0.001 A 
ENDROOT
TORSDOF 0
ENDMDL
