MODEL 1
REMARK minimizedAffinity 14.8848019
REMARK minimizedRMSD -1
REMARK  0 active torsions:
REMARK  status: ('A' for Active; 'I' for Inactive)
ROOT
ATOM      1  C   UNL d   1      -5.936   5.999   5.597  0.00  0.00     0.077 C 
ATOM      2  C1  UNL d   1      -5.629   5.056   4.471  0.00  0.00    -0.074 A 
ATOM      3  C2  UNL d   1      -6.000   5.361   3.157  0.00  0.00    -0.005 A 
ATOM      4  C3  UNL d   1      -5.699   4.479   2.119  0.00  0.00     0.006 A 
ATOM      5  C4  UNL d   1      -5.025   3.286   2.384  0.00  0.00    -0.005 A 
ATOM      6  C5  UNL d   1      -4.646   2.965   3.691  0.00  0.00    -0.074 A 
ATOM      7  C6  UNL d   1      -3.913   1.691   3.992  0.00  0.00     0.077 C 
ATOM      8  C7  UNL d   1      -4.945   3.859   4.728  0.00  0.00    -0.001 A 
ENDROOT
TORSDOF 0
ENDMDL
