MODEL 1
REMARK minimizedAffinity 14.6774769
REMARK minimizedRMSD -1
REMARK  0 active torsions:
REMARK  status: ('A' for Active; 'I' for Inactive)
ROOT
ATOM      1  C   UNL d   1       0.441  -4.874  -4.156  0.00  0.00     0.077 C 
ATOM      2  C1  UNL d   1      -0.834  -4.823  -3.367  0.00  0.00    -0.074 A 
ATOM      3  C2  UNL d   1      -1.505  -5.996  -3.010  0.00  0.00    -0.005 A 
ATOM      4  C3  UNL d   1      -2.685  -5.933  -2.268  0.00  0.00     0.006 A 
ATOM      5  C4  UNL d   1      -3.203  -4.698  -1.876  0.00  0.00    -0.005 A 
ATOM      6  C5  UNL d   1      -2.545  -3.514  -2.224  0.00  0.00    -0.074 A 
ATOM      7  C6  UNL d   1      -3.084  -2.179  -1.803  0.00  0.00     0.077 C 
ATOM      8  C7  UNL d   1      -1.357  -3.586  -2.964  0.00  0.00    -0.001 A 
ENDROOT
TORSDOF 0
ENDMDL
