MODEL 1
REMARK minimizedAffinity 16.026577
REMARK minimizedRMSD -1
REMARK  0 active torsions:
REMARK  status: ('A' for Active; 'I' for Inactive)
ROOT
ATOM      1  C   UNL d   1       1.902   2.011   1.758  0.00  0.00     0.077 C 
ATOM      2  C1  UNL d   1       3.068   1.222   1.239  0.00  0.00    -0.074 A 
ATOM      3  C2  UNL d   1       3.495   0.059   1.889  0.00  0.00    -0.005 A 
ATOM      4  C3  UNL d   1       4.574  -0.669   1.390  0.00  0.00     0.006 A 
ATOM      5  C4  UNL d   1       5.237  -0.244   0.237  0.00  0.00    -0.005 A 
ATOM      6  C5  UNL d   1       4.823   0.915  -0.426  0.00  0.00    -0.074 A 
ATOM      7  C6  UNL d   1       5.517   1.381  -1.672  0.00  0.00     0.077 C 
ATOM      8  C7  UNL d   1       3.733   1.638   0.077  0.00  0.00    -0.001 A 
ENDROOT
TORSDOF 0
ENDMDL
