MODEL 1
REMARK minimizedAffinity 22.4937344
REMARK minimizedRMSD -1
REMARK  0 active torsions:
REMARK  status: ('A' for Active; 'I' for Inactive)
ROOT
ATOM      1  C   UNL d   1      -5.998  -2.240  -4.670  0.00  0.00     0.077 C 
ATOM      2  C1  UNL d   1      -5.105  -2.999  -3.734  0.00  0.00    -0.074 A 
ATOM      3  C2  UNL d   1      -3.773  -2.618  -3.544  0.00  0.00    -0.005 A 
ATOM      4  C3  UNL d   1      -2.957  -3.327  -2.663  0.00  0.00     0.006 A 
ATOM      5  C4  UNL d   1      -3.464  -4.424  -1.965  0.00  0.00    -0.005 A 
ATOM      6  C5  UNL d   1      -4.794  -4.820  -2.142  0.00  0.00    -0.074 A 
ATOM      7  C6  UNL d   1      -5.357  -5.990  -1.391  0.00  0.00     0.077 C 
ATOM      8  C7  UNL d   1      -5.609  -4.097  -3.023  0.00  0.00    -0.001 A 
ENDROOT
TORSDOF 0
ENDMDL
