MODEL 1
REMARK minimizedAffinity -4.20757866
REMARK minimizedRMSD -1
REMARK  1 active torsions:
REMARK  status: ('A' for Active; 'I' for Inactive)
REMARK    1  A    between atoms: C1_2  and  C2_3 
ROOT
ATOM      1  C2  UNL d   1      -0.901  -1.472  -0.278  0.00  0.00    -0.081 A 
ATOM      2  C3  UNL d   1      -0.030  -0.853   0.627  0.00  0.00     0.006 A 
ATOM      3  C4  UNL d   1      -0.525   0.005   1.612  0.00  0.00     0.002 A 
ATOM      4  C5  UNL d   1      -1.898   0.252   1.713  0.00  0.00    -0.080 A 
ATOM      5  C6  UNL d   1      -2.446   1.148   2.784  0.00  0.00     0.076 C 
ATOM      6  C7  UNL d   1      -2.767  -0.353   0.798  0.00  0.00     0.002 A 
ATOM      7  C8  UNL d   1      -2.272  -1.211  -0.187  0.00  0.00     0.006 A 
ENDROOT
BRANCH   1   8
ATOM      8  C1  UNL d   1      -0.377  -2.449  -1.299  0.00  0.00     0.054 C 
ATOM      9  C   UNL d   1      -0.253  -1.801  -2.671  0.00  0.00     0.018 C 
ENDBRANCH   1   8
TORSDOF 1
ENDMDL
