MODEL 1
REMARK minimizedAffinity -4.84014893
REMARK minimizedRMSD -1
REMARK  1 active torsions:
REMARK  status: ('A' for Active; 'I' for Inactive)
REMARK    1  A    between atoms: C1_2  and  C2_3 
ROOT
ATOM      1  C2  UNL d   1      -2.628   0.691   1.655  0.00  0.00    -0.081 A 
ATOM      2  C3  UNL d   1      -2.798  -0.516   0.967  0.00  0.00     0.006 A 
ATOM      3  C4  UNL d   1      -1.704  -1.345   0.710  0.00  0.00     0.002 A 
ATOM      4  C5  UNL d   1      -0.423  -0.985   1.143  0.00  0.00    -0.080 A 
ATOM      5  C6  UNL d   1       0.755  -1.880   0.900  0.00  0.00     0.076 C 
ATOM      6  C7  UNL d   1      -0.250   0.229   1.816  0.00  0.00     0.002 A 
ATOM      7  C8  UNL d   1      -1.344   1.059   2.072  0.00  0.00     0.006 A 
ENDROOT
BRANCH   1   8
ATOM      8  C1  UNL d   1      -3.816   1.557   1.991  0.00  0.00     0.054 C 
ATOM      9  C   UNL d   1      -5.060   0.716   2.238  0.00  0.00     0.018 C 
ENDBRANCH   1   8
TORSDOF 1
ENDMDL
