MODEL 1
REMARK minimizedAffinity -4.99509382
REMARK minimizedRMSD -1
REMARK  1 active torsions:
REMARK  status: ('A' for Active; 'I' for Inactive)
REMARK    1  A    between atoms: C1_2  and  C2_3 
ROOT
ATOM      1  C2  UNL d   1      -0.680  -1.266  -0.376  0.00  0.00    -0.081 A 
ATOM      2  C3  UNL d   1      -0.552  -2.123  -1.476  0.00  0.00     0.006 A 
ATOM      3  C4  UNL d   1       0.688  -2.303  -2.093  0.00  0.00     0.002 A 
ATOM      4  C5  UNL d   1       1.821  -1.635  -1.617  0.00  0.00    -0.080 A 
ATOM      5  C6  UNL d   1       3.165  -1.842  -2.251  0.00  0.00     0.076 C 
ATOM      6  C7  UNL d   1       1.690  -0.765  -0.529  0.00  0.00     0.002 A 
ATOM      7  C8  UNL d   1       0.450  -0.585   0.088  0.00  0.00     0.006 A 
ENDROOT
BRANCH   1   8
ATOM      8  C1  UNL d   1      -2.003  -1.121   0.332  0.00  0.00     0.054 C 
ATOM      9  C   UNL d   1      -1.909  -0.127   1.481  0.00  0.00     0.018 C 
ENDBRANCH   1   8
TORSDOF 1
ENDMDL
