MODEL 1
REMARK minimizedAffinity -1.69718182
REMARK minimizedRMSD -1
REMARK  1 active torsions:
REMARK  status: ('A' for Active; 'I' for Inactive)
REMARK    1  A    between atoms: C1_2  and  C2_3 
ROOT
ATOM      1  C2  UNL d   1      -0.598  -1.021   1.901  0.00  0.00    -0.081 A 
ATOM      2  C3  UNL d   1      -0.801  -1.302   0.545  0.00  0.00     0.006 A 
ATOM      3  C4  UNL d   1      -1.895  -0.761  -0.134  0.00  0.00     0.002 A 
ATOM      4  C5  UNL d   1      -2.799   0.076   0.529  0.00  0.00    -0.080 A 
ATOM      5  C6  UNL d   1      -3.961   0.688  -0.196  0.00  0.00     0.076 C 
ATOM      6  C7  UNL d   1      -2.606   0.342   1.889  0.00  0.00     0.002 A 
ATOM      7  C8  UNL d   1      -1.513  -0.199   2.568  0.00  0.00     0.006 A 
ENDROOT
BRANCH   1   8
ATOM      8  C1  UNL d   1       0.616  -1.551   2.620  0.00  0.00     0.054 C 
ATOM      9  C   UNL d   1       1.820  -1.625   1.692  0.00  0.00     0.018 C 
ENDBRANCH   1   8
TORSDOF 1
ENDMDL
