MODEL 1
REMARK minimizedAffinity -5.31099129
REMARK minimizedRMSD -1
REMARK  2 active torsions:
REMARK  status: ('A' for Active; 'I' for Inactive)
REMARK    1  A    between atoms: C2'_3  and  C1'_4 
REMARK    2  A    between atoms: C1'_4  and  C1_5 
ROOT
ATOM      1  C1  I4B d   1      -0.505   0.130  -0.013  0.00  0.00    -0.075 A 
ATOM      2  C2  I4B d   1       0.541   0.782  -0.617  0.00  0.00     0.003 A 
ATOM      3  C3  I4B d   1       1.662   0.054  -1.083  0.00  0.00     0.002 A 
ATOM      4  C4  I4B d   1       1.719  -1.310  -0.880  0.00  0.00    -0.004 A 
ATOM      5  C5  I4B d   1       0.648  -1.973  -0.288  0.00  0.00     0.002 A 
ATOM      6  C6  I4B d   1      -0.477  -1.251   0.137  0.00  0.00     0.003 A 
ENDROOT
BRANCH   1   7
ATOM      7  C1' I4B d   1      -1.659   0.934   0.496  0.00  0.00     0.060 C 
BRANCH   7   8
ATOM      8  C2' I4B d   1      -1.795   0.666   1.981  0.00  0.00    -0.013 C 
ATOM      9  C4' I4B d   1      -1.687   1.940   2.777  0.00  0.00     0.013 C 
ATOM     10  C3' I4B d   1      -3.116  -0.006   2.211  0.00  0.00     0.013 C 
ENDBRANCH   7   8
ENDBRANCH   1   7
TORSDOF 2
ENDMDL
