MODEL 1
REMARK minimizedAffinity -3.11046267
REMARK minimizedRMSD -1
REMARK  2 active torsions:
REMARK  status: ('A' for Active; 'I' for Inactive)
REMARK    1  A    between atoms: C2'_3  and  C1'_4 
REMARK    2  A    between atoms: C1'_4  and  C1_5 
ROOT
ATOM      1  C1  I4B d   1       0.618  -0.724  -0.105  0.00  0.00    -0.075 A 
ATOM      2  C2  I4B d   1       0.925  -1.771  -0.938  0.00  0.00     0.003 A 
ATOM      3  C3  I4B d   1       2.148  -1.779  -1.652  0.00  0.00     0.002 A 
ATOM      4  C4  I4B d   1       3.004  -0.702  -1.545  0.00  0.00    -0.004 A 
ATOM      5  C5  I4B d   1       2.702   0.348  -0.682  0.00  0.00     0.002 A 
ATOM      6  C6  I4B d   1       1.507   0.331   0.051  0.00  0.00     0.003 A 
ENDROOT
BRANCH   1   7
ATOM      7  C1' I4B d   1      -0.696  -0.733   0.609  0.00  0.00     0.060 C 
BRANCH   7   8
ATOM      8  C2' I4B d   1      -1.116   0.705   0.832  0.00  0.00    -0.013 C 
ATOM      9  C4' I4B d   1      -1.541   1.356  -0.458  0.00  0.00     0.013 C 
ATOM     10  C3' I4B d   1      -2.231   0.712   1.835  0.00  0.00     0.013 C 
ENDBRANCH   7   8
ENDBRANCH   1   7
TORSDOF 2
ENDMDL
