MODEL 1
REMARK minimizedAffinity -4.77071714
REMARK minimizedRMSD -1
REMARK  2 active torsions:
REMARK  status: ('A' for Active; 'I' for Inactive)
REMARK    1  A    between atoms: C2'_3  and  C1'_4 
REMARK    2  A    between atoms: C1'_4  and  C1_5 
ROOT
ATOM      1  C1  I4B d   1      -0.275  -0.135  -0.084  0.00  0.00    -0.075 A 
ATOM      2  C2  I4B d   1       0.138  -1.226   0.638  0.00  0.00     0.003 A 
ATOM      3  C3  I4B d   1       1.242  -1.997   0.197  0.00  0.00     0.002 A 
ATOM      4  C4  I4B d   1       1.866  -1.672  -0.990  0.00  0.00    -0.004 A 
ATOM      5  C5  I4B d   1       1.461  -0.551  -1.709  0.00  0.00     0.002 A 
ATOM      6  C6  I4B d   1       0.391   0.230  -1.247  0.00  0.00     0.003 A 
ENDROOT
BRANCH   1   7
ATOM      7  C1' I4B d   1      -1.464   0.637   0.393  0.00  0.00     0.060 C 
BRANCH   7   8
ATOM      8  C2' I4B d   1      -1.716   0.259   1.838  0.00  0.00    -0.013 C 
ATOM      9  C4' I4B d   1      -1.507   1.437   2.754  0.00  0.00     0.013 C 
ATOM     10  C3' I4B d   1      -3.117  -0.266   1.942  0.00  0.00     0.013 C 
ENDBRANCH   7   8
ENDBRANCH   1   7
TORSDOF 2
ENDMDL
