MODEL 1
REMARK minimizedAffinity 7.84575272
REMARK minimizedRMSD -1
REMARK  2 active torsions:
REMARK  status: ('A' for Active; 'I' for Inactive)
REMARK    1  A    between atoms: C2'_3  and  C1'_4 
REMARK    2  A    between atoms: C1'_4  and  C1_5 
ROOT
ATOM      1  C1  I4B d   1      -0.034  -1.333   0.254  0.00  0.00    -0.075 A 
ATOM      2  C2  I4B d   1       0.853  -0.779  -0.636  0.00  0.00     0.003 A 
ATOM      3  C3  I4B d   1       0.568   0.469  -1.242  0.00  0.00     0.002 A 
ATOM      4  C4  I4B d   1      -0.629   1.099  -0.970  0.00  0.00    -0.004 A 
ATOM      5  C5  I4B d   1      -1.516   0.547  -0.050  0.00  0.00     0.002 A 
ATOM      6  C6  I4B d   1      -1.211  -0.671   0.575  0.00  0.00     0.003 A 
ENDROOT
BRANCH   1   7
ATOM      7  C1' I4B d   1       0.283  -2.668   0.850  0.00  0.00     0.060 C 
BRANCH   7   8
ATOM      8  C2' I4B d   1       0.260  -3.694  -0.264  0.00  0.00    -0.013 C 
ATOM      9  C4' I4B d   1       0.978  -4.955   0.141  0.00  0.00     0.013 C 
ATOM     10  C3' I4B d   1      -1.174  -3.974  -0.605  0.00  0.00     0.013 C 
ENDBRANCH   7   8
ENDBRANCH   1   7
TORSDOF 2
ENDMDL
