MODEL 1
REMARK minimizedAffinity -0.411022663
REMARK minimizedRMSD -1
REMARK  2 active torsions:
REMARK  status: ('A' for Active; 'I' for Inactive)
REMARK    1  A    between atoms: C2'_3  and  C1'_4 
REMARK    2  A    between atoms: C1'_4  and  C1_5 
ROOT
ATOM      1  C1  I4B d   1       5.253   1.059   4.382  0.00  0.00    -0.075 A 
ATOM      2  C2  I4B d   1       5.316   2.004   3.389  0.00  0.00     0.003 A 
ATOM      3  C3  I4B d   1       5.713   3.329   3.689  0.00  0.00     0.002 A 
ATOM      4  C4  I4B d   1       5.986   3.677   4.996  0.00  0.00    -0.004 A 
ATOM      5  C5  I4B d   1       5.944   2.712   5.999  0.00  0.00     0.002 A 
ATOM      6  C6  I4B d   1       5.587   1.392   5.689  0.00  0.00     0.003 A 
ENDROOT
BRANCH   1   7
ATOM      7  C1' I4B d   1       4.798  -0.323   4.035  0.00  0.00     0.060 C 
BRANCH   7   8
ATOM      8  C2' I4B d   1       5.883  -1.292   4.459  0.00  0.00    -0.013 C 
ATOM      9  C4' I4B d   1       5.584  -1.888   5.809  0.00  0.00     0.013 C 
ATOM     10  C3' I4B d   1       5.990  -2.356   3.408  0.00  0.00     0.013 C 
ENDBRANCH   7   8
ENDBRANCH   1   7
TORSDOF 2
ENDMDL
