MODEL 1
REMARK minimizedAffinity 1.42539549
REMARK minimizedRMSD -1
REMARK  2 active torsions:
REMARK  status: ('A' for Active; 'I' for Inactive)
REMARK    1  A    between atoms: C2'_3  and  C1'_4 
REMARK    2  A    between atoms: C1'_4  and  C1_5 
ROOT
ATOM      1  C1  I4B d   1       4.306   1.883   4.483  0.00  0.00    -0.075 A 
ATOM      2  C2  I4B d   1       3.347   2.781   4.083  0.00  0.00     0.003 A 
ATOM      3  C3  I4B d   1       3.710   4.106   3.742  0.00  0.00     0.002 A 
ATOM      4  C4  I4B d   1       5.026   4.503   3.862  0.00  0.00    -0.004 A 
ATOM      5  C5  I4B d   1       6.000   3.586   4.246  0.00  0.00     0.002 A 
ATOM      6  C6  I4B d   1       5.640   2.264   4.547  0.00  0.00     0.003 A 
ENDROOT
BRANCH   1   7
ATOM      7  C1' I4B d   1       3.883   0.501   4.868  0.00  0.00     0.060 C 
BRANCH   7   8
ATOM      8  C2' I4B d   1       5.054  -0.430   4.625  0.00  0.00    -0.013 C 
ATOM      9  C4' I4B d   1       5.561  -1.017   5.915  0.00  0.00     0.013 C 
ATOM     10  C3' I4B d   1       4.602  -1.504   3.681  0.00  0.00     0.013 C 
ENDBRANCH   7   8
ENDBRANCH   1   7
TORSDOF 2
ENDMDL
