MODEL 1
REMARK minimizedAffinity -2.31264281
REMARK minimizedRMSD -1
REMARK  2 active torsions:
REMARK  status: ('A' for Active; 'I' for Inactive)
REMARK    1  A    between atoms: C2'_3  and  C1'_4 
REMARK    2  A    between atoms: C1'_4  and  C1_5 
ROOT
ATOM      1  C1  I4B d   1      -0.096  -0.915   0.130  0.00  0.00    -0.075 A 
ATOM      2  C2  I4B d   1      -1.382  -1.394   0.173  0.00  0.00     0.003 A 
ATOM      3  C3  I4B d   1      -2.446  -0.545   0.563  0.00  0.00     0.002 A 
ATOM      4  C4  I4B d   1      -2.174   0.752   0.948  0.00  0.00    -0.004 A 
ATOM      5  C5  I4B d   1      -0.873   1.242   0.882  0.00  0.00     0.002 A 
ATOM      6  C6  I4B d   1       0.171   0.407   0.459  0.00  0.00     0.003 A 
ENDROOT
BRANCH   1   7
ATOM      7  C1' I4B d   1       1.007  -1.848  -0.255  0.00  0.00     0.060 C 
BRANCH   7   8
ATOM      8  C2' I4B d   1       1.769  -1.221  -1.406  0.00  0.00    -0.013 C 
ATOM      9  C4' I4B d   1       3.227  -1.056  -1.068  0.00  0.00     0.013 C 
ATOM     10  C3' I4B d   1       1.588  -2.095  -2.611  0.00  0.00     0.013 C 
ENDBRANCH   7   8
ENDBRANCH   1   7
TORSDOF 2
ENDMDL
