MODEL 1
REMARK minimizedAffinity -3.54272294
REMARK minimizedRMSD -1
REMARK  2 active torsions:
REMARK  status: ('A' for Active; 'I' for Inactive)
REMARK    1  A    between atoms: C2'_3  and  C1'_4 
REMARK    2  A    between atoms: C1'_4  and  C1_5 
ROOT
ATOM      1  C1  I4B d   1      -0.506  -0.432   0.312  0.00  0.00    -0.075 A 
ATOM      2  C2  I4B d   1       0.463   0.437  -0.122  0.00  0.00     0.003 A 
ATOM      3  C3  I4B d   1       1.687  -0.057  -0.634  0.00  0.00     0.002 A 
ATOM      4  C4  I4B d   1       1.919  -1.418  -0.646  0.00  0.00    -0.004 A 
ATOM      5  C5  I4B d   1       0.926  -2.299  -0.226  0.00  0.00     0.002 A 
ATOM      6  C6  I4B d   1      -0.299  -1.804   0.244  0.00  0.00     0.003 A 
ENDROOT
BRANCH   1   7
ATOM      7  C1' I4B d   1      -1.774   0.125   0.876  0.00  0.00     0.060 C 
BRANCH   7   8
ATOM      8  C2' I4B d   1      -1.770  -0.125   2.371  0.00  0.00    -0.013 C 
ATOM      9  C4' I4B d   1      -1.612   1.160   3.139  0.00  0.00     0.013 C 
ATOM     10  C3' I4B d   1      -3.052  -0.816   2.728  0.00  0.00     0.013 C 
ENDBRANCH   7   8
ENDBRANCH   1   7
TORSDOF 2
ENDMDL
