MODEL 1
REMARK minimizedAffinity -5.34405375
REMARK minimizedRMSD -1
REMARK  2 active torsions:
REMARK  status: ('A' for Active; 'I' for Inactive)
REMARK    1  A    between atoms: C2'_3  and  C1'_4 
REMARK    2  A    between atoms: C1'_4  and  C1_5 
ROOT
ATOM      1  C1  I4B d   1      -0.105   0.060   0.081  0.00  0.00    -0.075 A 
ATOM      2  C2  I4B d   1       0.964   0.700  -0.494  0.00  0.00     0.003 A 
ATOM      3  C3  I4B d   1       2.096  -0.040  -0.914  0.00  0.00     0.002 A 
ATOM      4  C4  I4B d   1       2.137  -1.401  -0.695  0.00  0.00    -0.004 A 
ATOM      5  C5  I4B d   1       1.043  -2.052  -0.133  0.00  0.00     0.002 A 
ATOM      6  C6  I4B d   1      -0.091  -1.318   0.246  0.00  0.00     0.003 A 
ENDROOT
BRANCH   1   7
ATOM      7  C1' I4B d   1      -1.271   0.877   0.542  0.00  0.00     0.060 C 
BRANCH   7   8
ATOM      8  C2' I4B d   1      -1.518   0.553   2.001  0.00  0.00    -0.013 C 
ATOM      9  C4' I4B d   1      -1.091   1.691   2.892  0.00  0.00     0.013 C 
ATOM     10  C3' I4B d   1      -2.978   0.254   2.168  0.00  0.00     0.013 C 
ENDBRANCH   7   8
ENDBRANCH   1   7
TORSDOF 2
ENDMDL
