MODEL 1
REMARK minimizedAffinity -4.15771866
REMARK minimizedRMSD -1
REMARK  2 active torsions:
REMARK  status: ('A' for Active; 'I' for Inactive)
REMARK    1  A    between atoms: C2'_3  and  C1'_4 
REMARK    2  A    between atoms: C1'_4  and  C1_5 
ROOT
ATOM      1  C1  I4B d   1      -0.113   0.084  -0.071  0.00  0.00    -0.075 A 
ATOM      2  C2  I4B d   1       0.939   0.800  -0.584  0.00  0.00     0.003 A 
ATOM      3  C3  I4B d   1       2.092   0.131  -1.062  0.00  0.00     0.002 A 
ATOM      4  C4  I4B d   1       2.171  -1.242  -0.961  0.00  0.00    -0.004 A 
ATOM      5  C5  I4B d   1       1.094  -1.969  -0.461  0.00  0.00     0.002 A 
ATOM      6  C6  I4B d   1      -0.060  -1.303  -0.024  0.00  0.00     0.003 A 
ENDROOT
BRANCH   1   7
ATOM      7  C1' I4B d   1      -1.302   0.824   0.455  0.00  0.00     0.060 C 
BRANCH   7   8
ATOM      8  C2' I4B d   1      -1.339   0.641   1.958  0.00  0.00    -0.013 C 
ATOM      9  C4' I4B d   1      -1.075   1.940   2.673  0.00  0.00     0.013 C 
ATOM     10  C3' I4B d   1      -2.683   0.085   2.324  0.00  0.00     0.013 C 
ENDBRANCH   7   8
ENDBRANCH   1   7
TORSDOF 2
ENDMDL
