MODEL 1
REMARK minimizedAffinity -2.43102002
REMARK minimizedRMSD -1
REMARK  2 active torsions:
REMARK  status: ('A' for Active; 'I' for Inactive)
REMARK    1  A    between atoms: C2'_3  and  C1'_4 
REMARK    2  A    between atoms: C1'_4  and  C1_5 
ROOT
ATOM      1  C1  I4B d   1      -1.974   0.584   1.634  0.00  0.00    -0.075 A 
ATOM      2  C2  I4B d   1      -2.698  -0.416   2.233  0.00  0.00     0.003 A 
ATOM      3  C3  I4B d   1      -2.936  -0.385   3.629  0.00  0.00     0.002 A 
ATOM      4  C4  I4B d   1      -2.391   0.630   4.389  0.00  0.00    -0.004 A 
ATOM      5  C5  I4B d   1      -1.676   1.655   3.776  0.00  0.00     0.002 A 
ATOM      6  C6  I4B d   1      -1.477   1.639   2.388  0.00  0.00     0.003 A 
ENDROOT
BRANCH   1   7
ATOM      7  C1' I4B d   1      -1.714   0.503   0.163  0.00  0.00     0.060 C 
BRANCH   7   8
ATOM      8  C2' I4B d   1      -0.214   0.502  -0.047  0.00  0.00    -0.013 C 
ATOM      9  C4' I4B d   1       0.304  -0.894  -0.274  0.00  0.00     0.013 C 
ATOM     10  C3' I4B d   1       0.091   1.390  -1.217  0.00  0.00     0.013 C 
ENDBRANCH   7   8
ENDBRANCH   1   7
TORSDOF 2
ENDMDL
