MODEL 1
REMARK minimizedAffinity -0.797069967
REMARK minimizedRMSD -1
REMARK  2 active torsions:
REMARK  status: ('A' for Active; 'I' for Inactive)
REMARK    1  A    between atoms: C2'_3  and  C1'_4 
REMARK    2  A    between atoms: C1'_4  and  C1_5 
ROOT
ATOM      1  C1  I4B d   1      -0.963   0.699   0.769  0.00  0.00    -0.075 A 
ATOM      2  C2  I4B d   1      -1.171   1.492  -0.332  0.00  0.00     0.003 A 
ATOM      3  C3  I4B d   1      -0.087   1.844  -1.172  0.00  0.00     0.002 A 
ATOM      4  C4  I4B d   1       1.187   1.425  -0.848  0.00  0.00    -0.004 A 
ATOM      5  C5  I4B d   1       1.393   0.602   0.255  0.00  0.00     0.002 A 
ATOM      6  C6  I4B d   1       0.309   0.226   1.062  0.00  0.00     0.003 A 
ENDROOT
BRANCH   1   7
ATOM      7  C1' I4B d   1      -2.126   0.374   1.653  0.00  0.00     0.060 C 
BRANCH   7   8
ATOM      8  C2' I4B d   1      -1.694   0.590   3.089  0.00  0.00    -0.013 C 
ATOM      9  C4' I4B d   1      -1.718   2.052   3.451  0.00  0.00     0.013 C 
ATOM     10  C3' I4B d   1      -2.612  -0.201   3.972  0.00  0.00     0.013 C 
ENDBRANCH   7   8
ENDBRANCH   1   7
TORSDOF 2
ENDMDL
