MODEL 1
REMARK minimizedAffinity -4.61325788
REMARK minimizedRMSD -1
REMARK  2 active torsions:
REMARK  status: ('A' for Active; 'I' for Inactive)
REMARK    1  A    between atoms: C2'_3  and  C1'_4 
REMARK    2  A    between atoms: C1'_4  and  C1_5 
ROOT
ATOM      1  C1  I4B d   1      -0.254  -0.186  -0.120  0.00  0.00    -0.075 A 
ATOM      2  C2  I4B d   1       0.698   0.563  -0.764  0.00  0.00     0.003 A 
ATOM      3  C3  I4B d   1       1.900  -0.040  -1.207  0.00  0.00     0.002 A 
ATOM      4  C4  I4B d   1       2.129  -1.375  -0.941  0.00  0.00    -0.004 A 
ATOM      5  C5  I4B d   1       1.153  -2.138  -0.308  0.00  0.00     0.002 A 
ATOM      6  C6  I4B d   1      -0.052  -1.543   0.095  0.00  0.00     0.003 A 
ENDROOT
BRANCH   1   7
ATOM      7  C1' I4B d   1      -1.498   0.490   0.363  0.00  0.00     0.060 C 
BRANCH   7   8
ATOM      8  C2' I4B d   1      -1.753   0.037   1.787  0.00  0.00    -0.013 C 
ATOM      9  C4' I4B d   1      -1.471   1.142   2.770  0.00  0.00     0.013 C 
ATOM     10  C3' I4B d   1      -3.179  -0.419   1.879  0.00  0.00     0.013 C 
ENDBRANCH   7   8
ENDBRANCH   1   7
TORSDOF 2
ENDMDL
