MODEL 1
REMARK minimizedAffinity -2.31100726
REMARK minimizedRMSD -1
REMARK  2 active torsions:
REMARK  status: ('A' for Active; 'I' for Inactive)
REMARK    1  A    between atoms: C2'_3  and  C1'_4 
REMARK    2  A    between atoms: C1'_4  and  C1_5 
ROOT
ATOM      1  C1  I4B d   1      -1.404   1.247   1.227  0.00  0.00    -0.075 A 
ATOM      2  C2  I4B d   1      -1.167   1.004  -0.102  0.00  0.00     0.003 A 
ATOM      3  C3  I4B d   1      -0.736   2.051  -0.952  0.00  0.00     0.002 A 
ATOM      4  C4  I4B d   1      -0.605   3.328  -0.445  0.00  0.00    -0.004 A 
ATOM      5  C5  I4B d   1      -0.824   3.567   0.909  0.00  0.00     0.002 A 
ATOM      6  C6  I4B d   1      -1.214   2.518   1.753  0.00  0.00     0.003 A 
ENDROOT
BRANCH   1   7
ATOM      7  C1' I4B d   1      -1.890   0.125   2.089  0.00  0.00     0.060 C 
BRANCH   7   8
ATOM      8  C2' I4B d   1      -2.852   0.701   3.108  0.00  0.00    -0.013 C 
ATOM      9  C4' I4B d   1      -3.701  -0.377   3.728  0.00  0.00     0.013 C 
ATOM     10  C3' I4B d   1      -2.048   1.422   4.148  0.00  0.00     0.013 C 
ENDBRANCH   7   8
ENDBRANCH   1   7
TORSDOF 2
ENDMDL
