MODEL 1
REMARK minimizedAffinity -5.11801434
REMARK minimizedRMSD -1
REMARK  2 active torsions:
REMARK  status: ('A' for Active; 'I' for Inactive)
REMARK    1  A    between atoms: C2'_3  and  C1'_4 
REMARK    2  A    between atoms: C1'_4  and  C1_5 
ROOT
ATOM      1  C1  I4B d   1      -2.009   0.970   1.317  0.00  0.00    -0.075 A 
ATOM      2  C2  I4B d   1      -1.752   1.921   2.273  0.00  0.00     0.003 A 
ATOM      3  C3  I4B d   1      -2.463   1.910   3.498  0.00  0.00     0.002 A 
ATOM      4  C4  I4B d   1      -3.449   0.967   3.703  0.00  0.00    -0.004 A 
ATOM      5  C5  I4B d   1      -3.692  -0.010   2.742  0.00  0.00     0.002 A 
ATOM      6  C6  I4B d   1      -2.959  -0.016   1.546  0.00  0.00     0.003 A 
ENDROOT
BRANCH   1   7
ATOM      7  C1' I4B d   1      -1.263   1.032   0.021  0.00  0.00     0.060 C 
BRANCH   7   8
ATOM      8  C2' I4B d   1       0.181   0.666   0.296  0.00  0.00    -0.013 C 
ATOM      9  C4' I4B d   1       0.379  -0.827   0.274  0.00  0.00     0.013 C 
ATOM     10  C3' I4B d   1       1.034   1.341  -0.736  0.00  0.00     0.013 C 
ENDBRANCH   7   8
ENDBRANCH   1   7
TORSDOF 2
ENDMDL
