MODEL 1
REMARK minimizedAffinity -4.99403572
REMARK minimizedRMSD -1
REMARK  2 active torsions:
REMARK  status: ('A' for Active; 'I' for Inactive)
REMARK    1  A    between atoms: C2'_3  and  C1'_4 
REMARK    2  A    between atoms: C1'_4  and  C1_5 
ROOT
ATOM      1  C1  I4B d   1      -0.461   0.327  -0.006  0.00  0.00    -0.075 A 
ATOM      2  C2  I4B d   1      -0.341  -1.035   0.113  0.00  0.00     0.003 A 
ATOM      3  C3  I4B d   1       0.792  -1.700  -0.415  0.00  0.00     0.002 A 
ATOM      4  C4  I4B d   1       1.751  -0.976  -1.093  0.00  0.00    -0.004 A 
ATOM      5  C5  I4B d   1       1.639   0.408  -1.193  0.00  0.00     0.002 A 
ATOM      6  C6  I4B d   1       0.533   1.066  -0.635  0.00  0.00     0.003 A 
ENDROOT
BRANCH   1   7
ATOM      7  C1' I4B d   1      -1.686   0.994   0.533  0.00  0.00     0.060 C 
BRANCH   7   8
ATOM      8  C2' I4B d   1      -1.884   0.523   1.960  0.00  0.00    -0.013 C 
ATOM      9  C4' I4B d   1      -1.503   1.595   2.946  0.00  0.00     0.013 C 
ATOM     10  C3' I4B d   1      -3.321   0.125   2.121  0.00  0.00     0.013 C 
ENDBRANCH   7   8
ENDBRANCH   1   7
TORSDOF 2
ENDMDL
