MODEL 1
REMARK minimizedAffinity -5.55575466
REMARK minimizedRMSD -1
REMARK  2 active torsions:
REMARK  status: ('A' for Active; 'I' for Inactive)
REMARK    1  A    between atoms: C2'_3  and  C1'_4 
REMARK    2  A    between atoms: C1'_4  and  C1_5 
ROOT
ATOM      1  C1  I4B d   1      -0.110  -0.001   0.180  0.00  0.00    -0.075 A 
ATOM      2  C2  I4B d   1      -0.062  -1.372   0.220  0.00  0.00     0.003 A 
ATOM      3  C3  I4B d   1       1.079  -2.060  -0.262  0.00  0.00     0.002 A 
ATOM      4  C4  I4B d   1       2.119  -1.345  -0.818  0.00  0.00    -0.004 A 
ATOM      5  C5  I4B d   1       2.078   0.047  -0.837  0.00  0.00     0.002 A 
ATOM      6  C6  I4B d   1       0.962   0.724  -0.324  0.00  0.00     0.003 A 
ENDROOT
BRANCH   1   7
ATOM      7  C1' I4B d   1      -1.343   0.691   0.667  0.00  0.00     0.060 C 
BRANCH   7   8
ATOM      8  C2' I4B d   1      -1.550   0.310   2.119  0.00  0.00    -0.013 C 
ATOM      9  C4' I4B d   1      -1.134   1.426   3.041  0.00  0.00     0.013 C 
ATOM     10  C3' I4B d   1      -2.997  -0.035   2.305  0.00  0.00     0.013 C 
ENDBRANCH   7   8
ENDBRANCH   1   7
TORSDOF 2
ENDMDL
