MODEL 1
REMARK minimizedAffinity 0.622749686
REMARK minimizedRMSD -1
REMARK  1 active torsions:
REMARK  status: ('A' for Active; 'I' for Inactive)
REMARK    1  A    between atoms: N_2  and  C1_3 
ROOT
ATOM      1  C1  UNL d   1       0.394  -1.321   1.314  0.00  0.00     0.143 A 
ATOM      2  C2  UNL d   1      -0.542  -1.545   2.330  0.00  0.00    -0.057 A 
ATOM      3  C3  UNL d   1      -0.544  -2.736   3.065  0.00  0.00     0.033 A 
ATOM      4  C4  UNL d   1       0.374  -3.740   2.778  0.00  0.00    -0.042 A 
ATOM      5  C5  UNL d   1       1.298  -3.550   1.756  0.00  0.00     0.033 A 
ATOM      6  C6  UNL d   1       1.299  -2.355   1.029  0.00  0.00    -0.057 A 
ENDROOT
BRANCH   1   7
ATOM      7  N   UNL d   1       0.385  -0.199   0.482  0.00  0.00    -0.732 N 
ATOM      8  C   UNL d   1       1.040  -0.234  -0.809  0.00  0.00     0.284 C 
ATOM      9  H3  UNL d   1      -0.515   0.275   0.479  0.00  0.00     0.395 HD
ENDBRANCH   1   7
TORSDOF 1
ENDMDL
