MODEL 1
REMARK minimizedAffinity 8.91493511
REMARK minimizedRMSD -1
REMARK  1 active torsions:
REMARK  status: ('A' for Active; 'I' for Inactive)
REMARK    1  A    between atoms: N_2  and  C1_3 
ROOT
ATOM      1  C1  UNL d   1       0.059  -0.577   0.646  0.00  0.00     0.143 A 
ATOM      2  C2  UNL d   1       0.086  -0.688   2.040  0.00  0.00    -0.057 A 
ATOM      3  C3  UNL d   1      -1.056  -0.439   2.811  0.00  0.00     0.033 A 
ATOM      4  C4  UNL d   1      -2.242  -0.044   2.200  0.00  0.00    -0.042 A 
ATOM      5  C5  UNL d   1      -2.285   0.098   0.817  0.00  0.00     0.033 A 
ATOM      6  C6  UNL d   1      -1.142  -0.160   0.053  0.00  0.00    -0.057 A 
ENDROOT
BRANCH   1   7
ATOM      7  N   UNL d   1       1.187  -0.716  -0.167  0.00  0.00    -0.732 N 
ATOM      8  C   UNL d   1       2.110   0.384  -0.341  0.00  0.00     0.284 C 
ATOM      9  H3  UNL d   1       1.636  -1.622  -0.056  0.00  0.00     0.395 HD
ENDBRANCH   1   7
TORSDOF 1
ENDMDL
