MODEL 1
REMARK minimizedAffinity 3.62085509
REMARK minimizedRMSD -1
REMARK  1 active torsions:
REMARK  status: ('A' for Active; 'I' for Inactive)
REMARK    1  A    between atoms: N_2  and  C1_3 
ROOT
ATOM      1  C1  UNL d   1      -2.261  -0.463   1.964  0.00  0.00     0.143 A 
ATOM      2  C2  UNL d   1      -1.467  -1.190   2.858  0.00  0.00    -0.057 A 
ATOM      3  C3  UNL d   1      -0.079  -1.270   2.697  0.00  0.00     0.033 A 
ATOM      4  C4  UNL d   1       0.539  -0.647   1.617  0.00  0.00    -0.042 A 
ATOM      5  C5  UNL d   1      -0.233   0.060   0.702  0.00  0.00     0.033 A 
ATOM      6  C6  UNL d   1      -1.618   0.142   0.872  0.00  0.00    -0.057 A 
ENDROOT
BRANCH   1   7
ATOM      7  N   UNL d   1      -3.656  -0.428   2.015  0.00  0.00    -0.732 N 
ATOM      8  C   UNL d   1      -4.447  -1.282   1.154  0.00  0.00     0.284 C 
ATOM      9  H3  UNL d   1      -4.009  -0.356   2.966  0.00  0.00     0.395 HD
ENDBRANCH   1   7
TORSDOF 1
ENDMDL
