MODEL 1
REMARK minimizedAffinity 3.9256947
REMARK minimizedRMSD -1
REMARK  1 active torsions:
REMARK  status: ('A' for Active; 'I' for Inactive)
REMARK    1  A    between atoms: N_2  and  C1_3 
ROOT
ATOM      1  C1  UNL d   1       2.129   5.891   3.545  0.00  0.00     0.143 A 
ATOM      2  C2  UNL d   1       2.805   6.000   4.765  0.00  0.00    -0.057 A 
ATOM      3  C3  UNL d   1       2.113   5.984   5.982  0.00  0.00     0.033 A 
ATOM      4  C4  UNL d   1       0.725   5.888   5.999  0.00  0.00    -0.042 A 
ATOM      5  C5  UNL d   1       0.031   5.804   4.798  0.00  0.00     0.033 A 
ATOM      6  C6  UNL d   1       0.728   5.814   3.586  0.00  0.00    -0.057 A 
ENDROOT
BRANCH   1   7
ATOM      7  N   UNL d   1       2.751   6.000   2.299  0.00  0.00    -0.732 N 
ATOM      8  C   UNL d   1       3.688   4.992   1.853  0.00  0.00     0.284 C 
ATOM      9  H3  UNL d   1       2.115   6.326   1.575  0.00  0.00     0.395 HD
ENDBRANCH   1   7
TORSDOF 1
ENDMDL
