MODEL 1
REMARK minimizedAffinity 1.51113391
REMARK minimizedRMSD -1
REMARK  1 active torsions:
REMARK  status: ('A' for Active; 'I' for Inactive)
REMARK    1  A    between atoms: N_2  and  C1_3 
ROOT
ATOM      1  C1  UNL d   1       0.146  -1.001   0.558  0.00  0.00     0.143 A 
ATOM      2  C2  UNL d   1      -0.637  -0.918   1.714  0.00  0.00    -0.057 A 
ATOM      3  C3  UNL d   1      -0.491  -1.840   2.758  0.00  0.00     0.033 A 
ATOM      4  C4  UNL d   1       0.425  -2.882   2.650  0.00  0.00    -0.042 A 
ATOM      5  C5  UNL d   1       1.196  -2.998   1.499  0.00  0.00     0.033 A 
ATOM      6  C6  UNL d   1       1.050  -2.071   0.463  0.00  0.00    -0.057 A 
ENDROOT
BRANCH   1   7
ATOM      7  N   UNL d   1      -0.021  -0.174  -0.556  0.00  0.00    -0.732 N 
ATOM      8  C   UNL d   1      -1.162  -0.336  -1.430  0.00  0.00     0.284 C 
ATOM      9  H3  UNL d   1       0.218   0.796  -0.359  0.00  0.00     0.395 HD
ENDBRANCH   1   7
TORSDOF 1
ENDMDL
