MODEL 1
REMARK minimizedAffinity 4.80378437
REMARK minimizedRMSD -1
REMARK  1 active torsions:
REMARK  status: ('A' for Active; 'I' for Inactive)
REMARK    1  A    between atoms: N_2  and  C1_3 
ROOT
ATOM      1  C1  UNL d   1      -3.213   2.773  -2.964  0.00  0.00     0.143 A 
ATOM      2  C2  UNL d   1      -4.326   3.615  -3.065  0.00  0.00    -0.057 A 
ATOM      3  C3  UNL d   1      -5.612   3.098  -3.258  0.00  0.00     0.033 A 
ATOM      4  C4  UNL d   1      -5.805   1.726  -3.384  0.00  0.00    -0.042 A 
ATOM      5  C5  UNL d   1      -4.710   0.872  -3.313  0.00  0.00     0.033 A 
ATOM      6  C6  UNL d   1      -3.429   1.394  -3.113  0.00  0.00    -0.057 A 
ENDROOT
BRANCH   1   7
ATOM      7  N   UNL d   1      -1.897   3.232  -2.871  0.00  0.00    -0.732 N 
ATOM      8  C   UNL d   1      -1.072   2.878  -1.736  0.00  0.00     0.284 C 
ATOM      9  H3  UNL d   1      -1.410   3.201  -3.764  0.00  0.00     0.395 HD
ENDBRANCH   1   7
TORSDOF 1
ENDMDL
