MODEL 1
REMARK minimizedAffinity -1.51099098
REMARK minimizedRMSD -1
REMARK  1 active torsions:
REMARK  status: ('A' for Active; 'I' for Inactive)
REMARK    1  A    between atoms: N_2  and  C1_3 
ROOT
ATOM      1  C1  UNL d   1       1.212  -2.321   1.320  0.00  0.00     0.143 A 
ATOM      2  C2  UNL d   1       0.659  -2.133   2.591  0.00  0.00    -0.057 A 
ATOM      3  C3  UNL d   1      -0.352  -1.190   2.811  0.00  0.00     0.033 A 
ATOM      4  C4  UNL d   1      -0.809  -0.395   1.765  0.00  0.00    -0.042 A 
ATOM      5  C5  UNL d   1      -0.257  -0.548   0.498  0.00  0.00     0.033 A 
ATOM      6  C6  UNL d   1       0.748  -1.496   0.283  0.00  0.00    -0.057 A 
ENDROOT
BRANCH   1   7
ATOM      7  N   UNL d   1       2.288  -3.173   1.058  0.00  0.00    -0.732 N 
ATOM      8  C   UNL d   1       2.196  -4.588   1.350  0.00  0.00     0.284 C 
ATOM      9  H3  UNL d   1       2.746  -2.960   0.175  0.00  0.00     0.395 HD
ENDBRANCH   1   7
TORSDOF 1
ENDMDL
