MODEL 1
REMARK minimizedAffinity -2.88033128
REMARK minimizedRMSD -1
REMARK  1 active torsions:
REMARK  status: ('A' for Active; 'I' for Inactive)
REMARK    1  A    between atoms: N_2  and  C1_3 
ROOT
ATOM      1  C1  UNL d   1       0.691  -2.924   2.641  0.00  0.00     0.143 A 
ATOM      2  C2  UNL d   1       0.422  -1.555   2.530  0.00  0.00    -0.057 A 
ATOM      3  C3  UNL d   1      -0.824  -1.029   2.891  0.00  0.00     0.033 A 
ATOM      4  C4  UNL d   1      -1.836  -1.869   3.344  0.00  0.00    -0.042 A 
ATOM      5  C5  UNL d   1      -1.599  -3.236   3.439  0.00  0.00     0.033 A 
ATOM      6  C6  UNL d   1      -0.351  -3.754   3.083  0.00  0.00    -0.057 A 
ENDROOT
BRANCH   1   7
ATOM      7  N   UNL d   1       1.876  -3.521   2.206  0.00  0.00    -0.732 N 
ATOM      8  C   UNL d   1       2.391  -3.257   0.879  0.00  0.00     0.284 C 
ATOM      9  H3  UNL d   1       2.589  -3.544   2.931  0.00  0.00     0.395 HD
ENDBRANCH   1   7
TORSDOF 1
ENDMDL
