MODEL 1
REMARK minimizedAffinity 1.50237727
REMARK minimizedRMSD -1
REMARK  1 active torsions:
REMARK  status: ('A' for Active; 'I' for Inactive)
REMARK    1  A    between atoms: N_2  and  C1_3 
ROOT
ATOM      1  C1  UNL d   1       0.038  -1.083   1.029  0.00  0.00     0.143 A 
ATOM      2  C2  UNL d   1      -0.013  -1.455   2.377  0.00  0.00    -0.057 A 
ATOM      3  C3  UNL d   1      -1.078  -1.064   3.198  0.00  0.00     0.033 A 
ATOM      4  C4  UNL d   1      -2.099  -0.268   2.691  0.00  0.00    -0.042 A 
ATOM      5  C5  UNL d   1      -2.056   0.135   1.361  0.00  0.00     0.033 A 
ATOM      6  C6  UNL d   1      -0.993  -0.264   0.544  0.00  0.00    -0.057 A 
ENDROOT
BRANCH   1   7
ATOM      7  N   UNL d   1       1.119  -1.357   0.188  0.00  0.00    -0.732 N 
ATOM      8  C   UNL d   1       1.929  -0.283  -0.345  0.00  0.00     0.284 C 
ATOM      9  H3  UNL d   1       1.652  -2.168   0.492  0.00  0.00     0.395 HD
ENDBRANCH   1   7
TORSDOF 1
ENDMDL
