MODEL 1
REMARK minimizedAffinity -0.757298529
REMARK minimizedRMSD -1
REMARK  0 active torsions:
REMARK  status: ('A' for Active; 'I' for Inactive)
ROOT
ATOM      1  N1  IND d   1      -1.340   0.870  -3.086  0.00  0.00    -0.196 N 
ATOM      2  C2  IND d   1      -2.312   1.831  -3.062  0.00  0.00     0.054 A 
ATOM      3  C3  IND d   1      -2.433   2.348  -1.819  0.00  0.00    -0.031 A 
ATOM      4  C4  IND d   1      -1.068   1.837   0.304  0.00  0.00     0.051 A 
ATOM      5  C5  IND d   1      -0.096   1.007   0.786  0.00  0.00    -0.031 A 
ATOM      6  C6  IND d   1       0.526   0.071  -0.015  0.00  0.00     0.015 A 
ATOM      7  C7  IND d   1       0.205  -0.062  -1.336  0.00  0.00    -0.016 A 
ATOM      8  C8  IND d   1      -0.787   0.775  -1.827  0.00  0.00    -0.047 A 
ATOM      9  C9  IND d   1      -1.451   1.698  -1.009  0.00  0.00    -0.096 A 
ATOM     10  HN1 IND d   1      -1.112   0.403  -3.771  0.00  0.00     0.298 HD
ENDROOT
TORSDOF 0
ENDMDL
