MODEL 1
REMARK minimizedAffinity -3.40489793
REMARK minimizedRMSD -1
REMARK  0 active torsions:
REMARK  status: ('A' for Active; 'I' for Inactive)
ROOT
ATOM      1  N1  IND d   1      -0.996  -0.625   2.694  0.00  0.00    -0.196 N 
ATOM      2  C2  IND d   1      -0.564  -1.473   3.676  0.00  0.00     0.054 A 
ATOM      3  C3  IND d   1       0.519  -2.165   3.257  0.00  0.00    -0.031 A 
ATOM      4  C4  IND d   1       1.811  -1.995   1.037  0.00  0.00     0.051 A 
ATOM      5  C5  IND d   1       1.775  -1.387  -0.187  0.00  0.00    -0.031 A 
ATOM      6  C6  IND d   1       0.795  -0.474  -0.519  0.00  0.00     0.015 A 
ATOM      7  C7  IND d   1      -0.183  -0.125   0.369  0.00  0.00    -0.016 A 
ATOM      8  C8  IND d   1      -0.154  -0.745   1.610  0.00  0.00    -0.047 A 
ATOM      9  C9  IND d   1       0.814  -1.704   1.938  0.00  0.00    -0.096 A 
ATOM     10  HN1 IND d   1      -1.679  -0.106   2.744  0.00  0.00     0.298 HD
ENDROOT
TORSDOF 0
ENDMDL
