MODEL 1
REMARK minimizedAffinity 0.313637972
REMARK minimizedRMSD -1
REMARK  0 active torsions:
REMARK  status: ('A' for Active; 'I' for Inactive)
ROOT
ATOM      1  N1  IND d   1      -1.263  -0.836   2.701  0.00  0.00    -0.196 N 
ATOM      2  C2  IND d   1      -0.764  -1.642   3.687  0.00  0.00     0.054 A 
ATOM      3  C3  IND d   1       0.477  -2.067   3.363  0.00  0.00    -0.031 A 
ATOM      4  C4  IND d   1       1.924  -1.484   1.315  0.00  0.00     0.051 A 
ATOM      5  C5  IND d   1       1.886  -0.814   0.125  0.00  0.00    -0.031 A 
ATOM      6  C6  IND d   1       0.774  -0.100  -0.275  0.00  0.00     0.015 A 
ATOM      7  C7  IND d   1      -0.341  -0.021   0.510  0.00  0.00    -0.016 A 
ATOM      8  C8  IND d   1      -0.308  -0.705   1.717  0.00  0.00    -0.047 A 
ATOM      9  C9  IND d   1       0.801  -1.466   2.108  0.00  0.00    -0.096 A 
ATOM     10  HN1 IND d   1      -2.041  -0.471   2.697  0.00  0.00     0.298 HD
ENDROOT
TORSDOF 0
ENDMDL
