MODEL 1
REMARK minimizedAffinity -5.27274036
REMARK minimizedRMSD -1
REMARK  0 active torsions:
REMARK  status: ('A' for Active; 'I' for Inactive)
ROOT
ATOM      1  N1  IND d   1      -0.731   0.593   0.183  0.00  0.00    -0.196 N 
ATOM      2  C2  IND d   1       0.013   0.846  -0.935  0.00  0.00     0.054 A 
ATOM      3  C3  IND d   1       1.133   0.088  -0.936  0.00  0.00    -0.031 A 
ATOM      4  C4  IND d   1       1.893  -1.708   0.744  0.00  0.00     0.051 A 
ATOM      5  C5  IND d   1       1.562  -2.268   1.946  0.00  0.00    -0.031 A 
ATOM      6  C6  IND d   1       0.425  -1.897   2.635  0.00  0.00     0.015 A 
ATOM      7  C7  IND d   1      -0.433  -0.956   2.139  0.00  0.00    -0.016 A 
ATOM      8  C8  IND d   1      -0.096  -0.381   0.922  0.00  0.00    -0.047 A 
ATOM      9  C9  IND d   1       1.078  -0.722   0.239  0.00  0.00    -0.096 A 
ATOM     10  HN1 IND d   1      -1.472   0.978   0.390  0.00  0.00     0.298 HD
ENDROOT
TORSDOF 0
ENDMDL
