MODEL 1
REMARK minimizedAffinity -2.9696784
REMARK minimizedRMSD -1
REMARK  0 active torsions:
REMARK  status: ('A' for Active; 'I' for Inactive)
ROOT
ATOM      1  N1  IND d   1      -0.683   1.667   0.537  0.00  0.00    -0.196 N 
ATOM      2  C2  IND d   1      -0.179   0.398   0.473  0.00  0.00     0.054 A 
ATOM      3  C3  IND d   1      -0.541  -0.194  -0.688  0.00  0.00    -0.031 A 
ATOM      4  C4  IND d   1      -1.872   0.770  -2.669  0.00  0.00     0.051 A 
ATOM      5  C5  IND d   1      -2.574   1.877  -3.059  0.00  0.00    -0.031 A 
ATOM      6  C6  IND d   1      -2.681   2.993  -2.255  0.00  0.00     0.015 A 
ATOM      7  C7  IND d   1      -2.078   3.049  -1.030  0.00  0.00    -0.016 A 
ATOM      8  C8  IND d   1      -1.371   1.925  -0.628  0.00  0.00    -0.047 A 
ATOM      9  C9  IND d   1      -1.294   0.773  -1.421  0.00  0.00    -0.096 A 
ATOM     10  HN1 IND d   1      -0.587   2.212   1.195  0.00  0.00     0.298 HD
ENDROOT
TORSDOF 0
ENDMDL
