MODEL 1
REMARK minimizedAffinity -3.30235624
REMARK minimizedRMSD -1
REMARK  0 active torsions:
REMARK  status: ('A' for Active; 'I' for Inactive)
ROOT
ATOM      1  N1  IND d   1      -0.802  -0.475  -0.721  0.00  0.00    -0.196 N 
ATOM      2  C2  IND d   1      -0.507   0.357   0.323  0.00  0.00     0.054 A 
ATOM      3  C3  IND d   1      -0.810   1.636   0.006  0.00  0.00    -0.031 A 
ATOM      4  C4  IND d   1      -1.894   2.578  -2.131  0.00  0.00     0.051 A 
ATOM      5  C5  IND d   1      -2.310   2.210  -3.380  0.00  0.00    -0.031 A 
ATOM      6  C6  IND d   1      -2.246   0.902  -3.814  0.00  0.00     0.015 A 
ATOM      7  C7  IND d   1      -1.772  -0.094  -3.007  0.00  0.00    -0.016 A 
ATOM      8  C8  IND d   1      -1.342   0.277  -1.741  0.00  0.00    -0.047 A 
ATOM      9  C9  IND d   1      -1.365   1.610  -1.310  0.00  0.00    -0.096 A 
ATOM     10  HN1 IND d   1      -0.672  -1.325  -0.737  0.00  0.00     0.298 HD
ENDROOT
TORSDOF 0
ENDMDL
