MODEL 1
REMARK minimizedAffinity -0.719072938
REMARK minimizedRMSD -1
REMARK  0 active torsions:
REMARK  status: ('A' for Active; 'I' for Inactive)
ROOT
ATOM      1  N1  IND d   1      -1.063  -0.806   2.473  0.00  0.00    -0.196 N 
ATOM      2  C2  IND d   1      -1.839   0.253   2.093  0.00  0.00     0.054 A 
ATOM      3  C3  IND d   1      -1.295   0.876   1.024  0.00  0.00    -0.031 A 
ATOM      4  C4  IND d   1       0.809   0.266  -0.328  0.00  0.00     0.051 A 
ATOM      5  C5  IND d   1       1.868  -0.598  -0.341  0.00  0.00    -0.031 A 
ATOM      6  C6  IND d   1       2.005  -1.598   0.600  0.00  0.00     0.015 A 
ATOM      7  C7  IND d   1       1.079  -1.778   1.588  0.00  0.00    -0.016 A 
ATOM      8  C8  IND d   1       0.006  -0.898   1.609  0.00  0.00    -0.047 A 
ATOM      9  C9  IND d   1      -0.116   0.145   0.681  0.00  0.00    -0.096 A 
ATOM     10  HN1 IND d   1      -1.216  -1.326   3.140  0.00  0.00     0.298 HD
ENDROOT
TORSDOF 0
ENDMDL
