MODEL 1
REMARK minimizedAffinity 6.09865761
REMARK minimizedRMSD -1
REMARK  0 active torsions:
REMARK  status: ('A' for Active; 'I' for Inactive)
ROOT
ATOM      1  N1  IND d   1      -0.225   1.548   0.578  0.00  0.00    -0.196 N 
ATOM      2  C2  IND d   1      -1.527   1.292   0.904  0.00  0.00     0.054 A 
ATOM      3  C3  IND d   1      -1.671   0.004   1.288  0.00  0.00    -0.031 A 
ATOM      4  C4  IND d   1       0.113  -1.832   1.556  0.00  0.00     0.051 A 
ATOM      5  C5  IND d   1       1.439  -2.085   1.344  0.00  0.00    -0.031 A 
ATOM      6  C6  IND d   1       2.296  -1.119   0.858  0.00  0.00     0.015 A 
ATOM      7  C7  IND d   1       1.860   0.145   0.576  0.00  0.00    -0.016 A 
ATOM      8  C8  IND d   1       0.512   0.403   0.784  0.00  0.00    -0.047 A 
ATOM      9  C9  IND d   1      -0.371  -0.586   1.236  0.00  0.00    -0.096 A 
ATOM     10  HN1 IND d   1       0.083   2.299   0.293  0.00  0.00     0.298 HD
ENDROOT
TORSDOF 0
ENDMDL
