MODEL 1
REMARK minimizedAffinity 0.0192430113
REMARK minimizedRMSD -1
REMARK  0 active torsions:
REMARK  status: ('A' for Active; 'I' for Inactive)
ROOT
ATOM      1  N1  IND d   1       0.682   1.092  -1.120  0.00  0.00    -0.196 N 
ATOM      2  C2  IND d   1       0.355   0.856   0.187  0.00  0.00     0.054 A 
ATOM      3  C3  IND d   1      -0.983   0.940   0.359  0.00  0.00    -0.031 A 
ATOM      4  C4  IND d   1      -2.834   1.352  -1.382  0.00  0.00     0.051 A 
ATOM      5  C5  IND d   1      -3.024   1.659  -2.700  0.00  0.00    -0.031 A 
ATOM      6  C6  IND d   1      -1.967   1.793  -3.577  0.00  0.00     0.015 A 
ATOM      7  C7  IND d   1      -0.676   1.612  -3.169  0.00  0.00    -0.016 A 
ATOM      8  C8  IND d   1      -0.479   1.308  -1.830  0.00  0.00    -0.047 A 
ATOM      9  C9  IND d   1      -1.545   1.213  -0.926  0.00  0.00    -0.096 A 
ATOM     10  HN1 IND d   1       1.478   1.104  -1.443  0.00  0.00     0.298 HD
ENDROOT
TORSDOF 0
ENDMDL
