MODEL 1
REMARK minimizedAffinity -0.836213708
REMARK minimizedRMSD -1
REMARK  0 active torsions:
REMARK  status: ('A' for Active; 'I' for Inactive)
ROOT
ATOM      1  N1  IND d   1      -1.560   1.174   0.443  0.00  0.00    -0.196 N 
ATOM      2  C2  IND d   1      -0.359   0.524   0.504  0.00  0.00     0.054 A 
ATOM      3  C3  IND d   1       0.099   0.265  -0.741  0.00  0.00    -0.031 A 
ATOM      4  C4  IND d   1      -0.908   0.908  -3.021  0.00  0.00     0.051 A 
ATOM      5  C5  IND d   1      -2.013   1.477  -3.589  0.00  0.00    -0.031 A 
ATOM      6  C6  IND d   1      -3.044   1.987  -2.826  0.00  0.00     0.015 A 
ATOM      7  C7  IND d   1      -3.001   1.958  -1.461  0.00  0.00    -0.016 A 
ATOM      8  C8  IND d   1      -1.884   1.374  -0.881  0.00  0.00    -0.047 A 
ATOM      9  C9  IND d   1      -0.855   0.816  -1.651  0.00  0.00    -0.096 A 
ATOM     10  HN1 IND d   1      -2.034   1.418   1.118  0.00  0.00     0.298 HD
ENDROOT
TORSDOF 0
ENDMDL
