MODEL 1
REMARK minimizedAffinity -3.67298841
REMARK minimizedRMSD -1
REMARK  0 active torsions:
REMARK  status: ('A' for Active; 'I' for Inactive)
ROOT
ATOM      1  N1  IND d   1      -1.474   0.336   1.946  0.00  0.00    -0.196 N 
ATOM      2  C2  IND d   1      -1.438   1.058   0.786  0.00  0.00     0.054 A 
ATOM      3  C3  IND d   1      -0.361   0.708   0.047  0.00  0.00    -0.031 A 
ATOM      4  C4  IND d   1       1.417  -1.098   0.500  0.00  0.00     0.051 A 
ATOM      5  C5  IND d   1       1.825  -1.993   1.448  0.00  0.00    -0.031 A 
ATOM      6  C6  IND d   1       1.139  -2.164   2.633  0.00  0.00     0.015 A 
ATOM      7  C7  IND d   1       0.008  -1.450   2.911  0.00  0.00    -0.016 A 
ATOM      8  C8  IND d   1      -0.405  -0.535   1.953  0.00  0.00    -0.047 A 
ATOM      9  C9  IND d   1       0.311  -0.327   0.767  0.00  0.00    -0.096 A 
ATOM     10  HN1 IND d   1      -2.064   0.412   2.566  0.00  0.00     0.298 HD
ENDROOT
TORSDOF 0
ENDMDL
