MODEL 1
REMARK minimizedAffinity -0.733073711
REMARK minimizedRMSD -1
REMARK  0 active torsions:
REMARK  status: ('A' for Active; 'I' for Inactive)
ROOT
ATOM      1  N1  IND d   1      -0.715   1.947  -0.317  0.00  0.00    -0.196 N 
ATOM      2  C2  IND d   1      -1.402   1.122   0.529  0.00  0.00     0.054 A 
ATOM      3  C3  IND d   1      -2.552   0.708  -0.049  0.00  0.00    -0.031 A 
ATOM      4  C4  IND d   1      -3.456   1.179  -2.413  0.00  0.00     0.051 A 
ATOM      5  C5  IND d   1      -3.198   1.908  -3.540  0.00  0.00    -0.031 A 
ATOM      6  C6  IND d   1      -2.075   2.702  -3.653  0.00  0.00     0.015 A 
ATOM      7  C7  IND d   1      -1.158   2.787  -2.644  0.00  0.00    -0.016 A 
ATOM      8  C8  IND d   1      -1.420   2.053  -1.496  0.00  0.00    -0.047 A 
ATOM      9  C9  IND d   1      -2.580   1.279  -1.358  0.00  0.00    -0.096 A 
ATOM     10  HN1 IND d   1       0.033   2.334  -0.143  0.00  0.00     0.298 HD
ENDROOT
TORSDOF 0
ENDMDL
