MODEL 1
REMARK minimizedAffinity -5.45066929
REMARK minimizedRMSD -1
REMARK  0 active torsions:
REMARK  status: ('A' for Active; 'I' for Inactive)
ROOT
ATOM      1  N1  IND d   1       0.016  -0.063  -0.319  0.00  0.00    -0.196 N 
ATOM      2  C2  IND d   1       1.255  -0.211  -0.877  0.00  0.00     0.054 A 
ATOM      3  C3  IND d   1       2.056  -0.932  -0.061  0.00  0.00    -0.031 A 
ATOM      4  C4  IND d   1       1.512  -2.054   2.191  0.00  0.00     0.051 A 
ATOM      5  C5  IND d   1       0.522  -2.169   3.126  0.00  0.00    -0.031 A 
ATOM      6  C6  IND d   1      -0.714  -1.578   2.956  0.00  0.00     0.015 A 
ATOM      7  C7  IND d   1      -1.010  -0.856   1.834  0.00  0.00    -0.016 A 
ATOM      8  C8  IND d   1      -0.004  -0.732   0.886  0.00  0.00    -0.047 A 
ATOM      9  C9  IND d   1       1.266  -1.294   1.072  0.00  0.00    -0.096 A 
ATOM     10  HN1 IND d   1      -0.640   0.374  -0.661  0.00  0.00     0.298 HD
ENDROOT
TORSDOF 0
ENDMDL
