MODEL 1
REMARK minimizedAffinity 1.5935086
REMARK minimizedRMSD -1
REMARK  0 active torsions:
REMARK  status: ('A' for Active; 'I' for Inactive)
ROOT
ATOM      1  N1  IND d   1      -0.418  -0.001   0.413  0.00  0.00    -0.196 N 
ATOM      2  C2  IND d   1       0.943  -0.028   0.291  0.00  0.00     0.054 A 
ATOM      3  C3  IND d   1       1.335   0.710  -0.771  0.00  0.00    -0.031 A 
ATOM      4  C4  IND d   1      -0.080   2.131  -2.387  0.00  0.00     0.051 A 
ATOM      5  C5  IND d   1      -1.374   2.440  -2.699  0.00  0.00    -0.031 A 
ATOM      6  C6  IND d   1      -2.437   1.943  -1.973  0.00  0.00     0.015 A 
ATOM      7  C7  IND d   1      -2.244   1.124  -0.896  0.00  0.00    -0.016 A 
ATOM      8  C8  IND d   1      -0.932   0.803  -0.581  0.00  0.00    -0.047 A 
ATOM      9  C9  IND d   1       0.149   1.269  -1.340  0.00  0.00    -0.096 A 
ATOM     10  HN1 IND d   1      -0.877  -0.416   1.010  0.00  0.00     0.298 HD
ENDROOT
TORSDOF 0
ENDMDL
