MODEL 1
REMARK minimizedAffinity -5.88894033
REMARK minimizedRMSD -1
REMARK  0 active torsions:
REMARK  status: ('A' for Active; 'I' for Inactive)
ROOT
ATOM      1  N1  IND d   1      -0.832   0.631   0.660  0.00  0.00    -0.196 N 
ATOM      2  C2  IND d   1      -0.234   0.885  -0.543  0.00  0.00     0.054 A 
ATOM      3  C3  IND d   1       0.734  -0.025  -0.790  0.00  0.00    -0.031 A 
ATOM      4  C4  IND d   1       1.438  -2.079   0.593  0.00  0.00     0.051 A 
ATOM      5  C5  IND d   1       1.207  -2.705   1.786  0.00  0.00    -0.031 A 
ATOM      6  C6  IND d   1       0.263  -2.244   2.681  0.00  0.00     0.015 A 
ATOM      7  C7  IND d   1      -0.496  -1.141   2.410  0.00  0.00    -0.016 A 
ATOM      8  C8  IND d   1      -0.259  -0.498   1.203  0.00  0.00    -0.047 A 
ATOM      9  C9  IND d   1       0.727  -0.937   0.310  0.00  0.00    -0.096 A 
ATOM     10  HN1 IND d   1      -1.460   1.097   1.017  0.00  0.00     0.298 HD
ENDROOT
TORSDOF 0
ENDMDL
