MODEL 1
REMARK minimizedAffinity -3.84064865
REMARK minimizedRMSD -1
REMARK  0 active torsions:
REMARK  status: ('A' for Active; 'I' for Inactive)
ROOT
ATOM      1  N1  IND d   1      -1.159  -0.514  -0.528  0.00  0.00    -0.196 N 
ATOM      2  C2  IND d   1      -0.615   0.204   0.501  0.00  0.00     0.054 A 
ATOM      3  C3  IND d   1      -0.596   1.521   0.196  0.00  0.00    -0.031 A 
ATOM      4  C4  IND d   1      -1.497   2.730  -1.891  0.00  0.00     0.051 A 
ATOM      5  C5  IND d   1      -2.048   2.494  -3.119  0.00  0.00    -0.031 A 
ATOM      6  C6  IND d   1      -2.340   1.217  -3.554  0.00  0.00     0.015 A 
ATOM      7  C7  IND d   1      -2.100   0.125  -2.768  0.00  0.00    -0.016 A 
ATOM      8  C8  IND d   1      -1.534   0.361  -1.524  0.00  0.00    -0.047 A 
ATOM      9  C9  IND d   1      -1.196   1.651  -1.094  0.00  0.00    -0.096 A 
ATOM     10  HN1 IND d   1      -1.251  -1.369  -0.549  0.00  0.00     0.298 HD
ENDROOT
TORSDOF 0
ENDMDL
