MODEL 1
REMARK minimizedAffinity -0.566471994
REMARK minimizedRMSD -1
REMARK  0 active torsions:
REMARK  status: ('A' for Active; 'I' for Inactive)
ROOT
ATOM      1  N1  IND d   1      -0.538  -0.174   0.119  0.00  0.00    -0.196 N 
ATOM      2  C2  IND d   1       0.805   0.081   0.101  0.00  0.00     0.054 A 
ATOM      3  C3  IND d   1       1.096   1.008  -0.839  0.00  0.00    -0.031 A 
ATOM      4  C4  IND d   1      -0.488   2.313  -2.393  0.00  0.00     0.051 A 
ATOM      5  C5  IND d   1      -1.800   2.399  -2.769  0.00  0.00    -0.031 A 
ATOM      6  C6  IND d   1      -2.777   1.618  -2.188  0.00  0.00     0.015 A 
ATOM      7  C7  IND d   1      -2.481   0.726  -1.196  0.00  0.00    -0.016 A 
ATOM      8  C8  IND d   1      -1.149   0.631  -0.817  0.00  0.00    -0.047 A 
ATOM      9  C9  IND d   1      -0.146   1.391  -1.433  0.00  0.00    -0.096 A 
ATOM     10  HN1 IND d   1      -0.934  -0.742   0.629  0.00  0.00     0.298 HD
ENDROOT
TORSDOF 0
ENDMDL
