MODEL 1
REMARK minimizedAffinity -2.83278108
REMARK minimizedRMSD -1
REMARK  0 active torsions:
REMARK  status: ('A' for Active; 'I' for Inactive)
ROOT
ATOM      1  C1  DEN d   1       0.361  -1.350   0.317  0.00  0.00     0.130 A 
ATOM      2  C2  DEN d   1       0.596  -1.511  -1.115  0.00  0.00    -0.031 A 
ATOM      3  C3  DEN d   1       0.165  -0.270  -1.790  0.00  0.00     0.027 A 
ATOM      4  C4  DEN d   1      -0.832   1.875  -0.762  0.00  0.00     0.027 A 
ATOM      5  C5  DEN d   1      -1.229   2.477   0.412  0.00  0.00    -0.003 A 
ATOM      6  C6  DEN d   1      -1.156   1.839   1.621  0.00  0.00     0.001 A 
ATOM      7  C7  DEN d   1      -0.633   0.575   1.692  0.00  0.00     0.017 A 
ATOM      8  C8  DEN d   1      -0.237  -0.042   0.512  0.00  0.00    -0.094 A 
ATOM      9  C9  DEN d   1      -0.307   0.625  -0.700  0.00  0.00    -0.072 A 
ENDROOT
TORSDOF 0
ENDMDL
