MODEL 1
REMARK minimizedAffinity -0.271709651
REMARK minimizedRMSD -1
REMARK  0 active torsions:
REMARK  status: ('A' for Active; 'I' for Inactive)
ROOT
ATOM      1  C1  DEN d   1      -1.517   1.991  -1.027  0.00  0.00     0.130 A 
ATOM      2  C2  DEN d   1      -1.782   2.546   0.297  0.00  0.00    -0.031 A 
ATOM      3  C3  DEN d   1      -1.151   1.662   1.297  0.00  0.00     0.027 A 
ATOM      4  C4  DEN d   1       0.210  -0.498   0.925  0.00  0.00     0.027 A 
ATOM      5  C5  DEN d   1       0.691  -1.372  -0.025  0.00  0.00    -0.003 A 
ATOM      6  C6  DEN d   1       0.444  -1.206  -1.362  0.00  0.00     0.001 A 
ATOM      7  C7  DEN d   1      -0.267  -0.116  -1.790  0.00  0.00     0.017 A 
ATOM      8  C8  DEN d   1      -0.762   0.765  -0.838  0.00  0.00    -0.094 A 
ATOM      9  C9  DEN d   1      -0.491   0.587   0.508  0.00  0.00    -0.072 A 
ENDROOT
TORSDOF 0
ENDMDL
