MODEL 1
REMARK minimizedAffinity -0.0423839092
REMARK minimizedRMSD -1
REMARK  0 active torsions:
REMARK  status: ('A' for Active; 'I' for Inactive)
ROOT
ATOM      1  C1  DEN d   1      -0.688   2.975   0.744  0.00  0.00     0.130 A 
ATOM      2  C2  DEN d   1      -0.485   2.939   2.190  0.00  0.00    -0.031 A 
ATOM      3  C3  DEN d   1       0.103   1.629   2.536  0.00  0.00     0.027 A 
ATOM      4  C4  DEN d   1       0.719  -0.335   0.982  0.00  0.00     0.027 A 
ATOM      5  C5  DEN d   1       0.720  -0.776  -0.323  0.00  0.00    -0.003 A 
ATOM      6  C6  DEN d   1       0.225  -0.017  -1.351  0.00  0.00     0.001 A 
ATOM      7  C7  DEN d   1      -0.251   1.242  -1.097  0.00  0.00     0.017 A 
ATOM      8  C8  DEN d   1      -0.262   1.691   0.217  0.00  0.00    -0.094 A 
ATOM      9  C9  DEN d   1       0.254   0.914   1.241  0.00  0.00    -0.072 A 
ENDROOT
TORSDOF 0
ENDMDL
