MODEL 1
REMARK minimizedAffinity 0.193337873
REMARK minimizedRMSD -1
REMARK  0 active torsions:
REMARK  status: ('A' for Active; 'I' for Inactive)
ROOT
ATOM      1  C1  DEN d   1      -0.416   2.072  -1.180  0.00  0.00     0.130 A 
ATOM      2  C2  DEN d   1      -0.053   0.807  -1.813  0.00  0.00    -0.031 A 
ATOM      3  C3  DEN d   1       0.218  -0.177  -0.745  0.00  0.00     0.027 A 
ATOM      4  C4  DEN d   1       0.109   0.134   1.813  0.00  0.00     0.027 A 
ATOM      5  C5  DEN d   1      -0.142   1.034   2.825  0.00  0.00    -0.003 A 
ATOM      6  C6  DEN d   1      -0.465   2.341   2.575  0.00  0.00     0.001 A 
ATOM      7  C7  DEN d   1      -0.591   2.774   1.282  0.00  0.00     0.017 A 
ATOM      8  C8  DEN d   1      -0.333   1.874   0.256  0.00  0.00    -0.094 A 
ATOM      9  C9  DEN d   1      -0.019   0.554   0.529  0.00  0.00    -0.072 A 
ENDROOT
TORSDOF 0
ENDMDL
