MODEL 1
REMARK minimizedAffinity -5.41226435
REMARK minimizedRMSD -1
REMARK  0 active torsions:
REMARK  status: ('A' for Active; 'I' for Inactive)
ROOT
ATOM      1  C2' OXE d   1       1.723   1.480   0.822  0.00  0.00     0.078 C 
ATOM      2  C1' OXE d   1       0.250   0.015  -1.065  0.00  0.00     0.078 C 
ATOM      3  C1  OXE d   1      -0.061  -0.204   0.394  0.00  0.00    -0.078 A 
ATOM      4  C2  OXE d   1       0.696   0.482   1.312  0.00  0.00    -0.078 A 
ATOM      5  C3  OXE d   1       0.414   0.359   2.669  0.00  0.00     0.003 A 
ATOM      6  C4  OXE d   1      -0.531  -0.574   3.115  0.00  0.00    -0.002 A 
ATOM      7  C5  OXE d   1      -1.286  -1.313   2.198  0.00  0.00    -0.002 A 
ATOM      8  C6  OXE d   1      -1.094  -1.109   0.836  0.00  0.00     0.003 A 
ENDROOT
TORSDOF 0
ENDMDL
