MODEL 1
REMARK minimizedAffinity -3.77579784
REMARK minimizedRMSD -1
REMARK  0 active torsions:
REMARK  status: ('A' for Active; 'I' for Inactive)
ROOT
ATOM      1  C2' OXE d   1      -2.406  -0.319   0.042  0.00  0.00     0.078 C 
ATOM      2  C1' OXE d   1      -0.171   0.425  -1.485  0.00  0.00     0.078 C 
ATOM      3  C1  OXE d   1      -0.004   0.342   0.011  0.00  0.00    -0.078 A 
ATOM      4  C2  OXE d   1      -1.115   0.023   0.754  0.00  0.00    -0.078 A 
ATOM      5  C3  OXE d   1      -1.004  -0.120   2.135  0.00  0.00     0.003 A 
ATOM      6  C4  OXE d   1       0.191   0.208   2.787  0.00  0.00    -0.002 A 
ATOM      7  C5  OXE d   1       1.324   0.574   2.052  0.00  0.00    -0.002 A 
ATOM      8  C6  OXE d   1       1.255   0.604   0.664  0.00  0.00     0.003 A 
ENDROOT
TORSDOF 0
ENDMDL
