MODEL 1
REMARK minimizedAffinity -4.41807365
REMARK minimizedRMSD -1
REMARK  0 active torsions:
REMARK  status: ('A' for Active; 'I' for Inactive)
ROOT
ATOM      1  C2' OXE d   1       1.838   1.692   0.821  0.00  0.00     0.078 C 
ATOM      2  C1' OXE d   1       0.748   1.622   3.407  0.00  0.00     0.078 C 
ATOM      3  C1  OXE d   1       0.260   0.600   2.410  0.00  0.00    -0.078 A 
ATOM      4  C2  OXE d   1       0.765   0.672   1.133  0.00  0.00    -0.078 A 
ATOM      5  C3  OXE d   1       0.390  -0.280   0.190  0.00  0.00     0.003 A 
ATOM      6  C4  OXE d   1      -0.611  -1.214   0.484  0.00  0.00    -0.002 A 
ATOM      7  C5  OXE d   1      -1.166  -1.279   1.766  0.00  0.00    -0.002 A 
ATOM      8  C6  OXE d   1      -0.712  -0.408   2.750  0.00  0.00     0.003 A 
ENDROOT
TORSDOF 0
ENDMDL
