MODEL 1
REMARK minimizedAffinity -4.09930515
REMARK minimizedRMSD -1
REMARK  0 active torsions:
REMARK  status: ('A' for Active; 'I' for Inactive)
ROOT
ATOM      1  C2' OXE d   1       0.915   0.014  -0.958  0.00  0.00     0.078 C 
ATOM      2  C1' OXE d   1       2.453   1.095   1.127  0.00  0.00     0.078 C 
ATOM      3  C1  OXE d   1       1.109   0.505   1.477  0.00  0.00    -0.078 A 
ATOM      4  C2  OXE d   1       0.344   0.020   0.444  0.00  0.00    -0.078 A 
ATOM      5  C3  OXE d   1      -0.880  -0.584   0.717  0.00  0.00     0.003 A 
ATOM      6  C4  OXE d   1      -1.406  -0.565   2.015  0.00  0.00    -0.002 A 
ATOM      7  C5  OXE d   1      -0.659  -0.040   3.076  0.00  0.00    -0.002 A 
ATOM      8  C6  OXE d   1       0.615   0.459   2.831  0.00  0.00     0.003 A 
ENDROOT
TORSDOF 0
ENDMDL
