MODEL 1
REMARK minimizedAffinity -3.46957779
REMARK minimizedRMSD -1
REMARK  0 active torsions:
REMARK  status: ('A' for Active; 'I' for Inactive)
ROOT
ATOM      1  C2' OXE d   1       2.120   1.337   0.730  0.00  0.00     0.078 C 
ATOM      2  C1' OXE d   1       0.439   0.156  -1.183  0.00  0.00     0.078 C 
ATOM      3  C1  OXE d   1       0.102  -0.050   0.273  0.00  0.00    -0.078 A 
ATOM      4  C2  OXE d   1       0.957   0.492   1.202  0.00  0.00    -0.078 A 
ATOM      5  C3  OXE d   1       0.663   0.378   2.558  0.00  0.00     0.003 A 
ATOM      6  C4  OXE d   1      -0.409  -0.413   2.987  0.00  0.00    -0.002 A 
ATOM      7  C5  OXE d   1      -1.269  -1.007   2.058  0.00  0.00    -0.002 A 
ATOM      8  C6  OXE d   1      -1.053  -0.801   0.700  0.00  0.00     0.003 A 
ENDROOT
TORSDOF 0
ENDMDL
