MODEL 1
REMARK minimizedAffinity -3.68654299
REMARK minimizedRMSD -1
REMARK  0 active torsions:
REMARK  status: ('A' for Active; 'I' for Inactive)
ROOT
ATOM      1  C2' OXE d   1      -0.577  -0.662   3.060  0.00  0.00     0.078 C 
ATOM      2  C1' OXE d   1       1.930   0.459   2.476  0.00  0.00     0.078 C 
ATOM      3  C1  OXE d   1       0.961   0.269   1.336  0.00  0.00    -0.078 A 
ATOM      4  C2  OXE d   1      -0.245  -0.323   1.623  0.00  0.00    -0.078 A 
ATOM      5  C3  OXE d   1      -1.197  -0.472   0.618  0.00  0.00     0.003 A 
ATOM      6  C4  OXE d   1      -0.878  -0.165  -0.711  0.00  0.00    -0.002 A 
ATOM      7  C5  OXE d   1       0.360   0.402  -1.031  0.00  0.00    -0.002 A 
ATOM      8  C6  OXE d   1       1.273   0.665  -0.016  0.00  0.00     0.003 A 
ENDROOT
TORSDOF 0
ENDMDL
