MODEL 1
REMARK minimizedAffinity -5.07906485
REMARK minimizedRMSD -1
REMARK  0 active torsions:
REMARK  status: ('A' for Active; 'I' for Inactive)
ROOT
ATOM      1  C2' OXE d   1       2.373   0.772   0.815  0.00  0.00     0.078 C 
ATOM      2  C1' OXE d   1       0.604   0.113  -1.263  0.00  0.00     0.078 C 
ATOM      3  C1  OXE d   1       0.092   0.023   0.153  0.00  0.00    -0.078 A 
ATOM      4  C2  OXE d   1       0.978   0.302   1.165  0.00  0.00    -0.078 A 
ATOM      5  C3  OXE d   1       0.541   0.287   2.487  0.00  0.00     0.003 A 
ATOM      6  C4  OXE d   1      -0.748  -0.158   2.803  0.00  0.00    -0.002 A 
ATOM      7  C5  OXE d   1      -1.654  -0.485   1.788  0.00  0.00    -0.002 A 
ATOM      8  C6  OXE d   1      -1.265  -0.360   0.460  0.00  0.00     0.003 A 
ENDROOT
TORSDOF 0
ENDMDL
