MODEL 1
REMARK minimizedAffinity -4.95466423
REMARK minimizedRMSD -1
REMARK  0 active torsions:
REMARK  status: ('A' for Active; 'I' for Inactive)
ROOT
ATOM      1  C2' OXE d   1      -1.159  -0.971   3.207  0.00  0.00     0.078 C 
ATOM      2  C1' OXE d   1       1.492  -0.050   3.134  0.00  0.00     0.078 C 
ATOM      3  C1  OXE d   1       0.714  -0.060   1.841  0.00  0.00    -0.078 A 
ATOM      4  C2  OXE d   1      -0.566  -0.556   1.878  0.00  0.00    -0.078 A 
ATOM      5  C3  OXE d   1      -1.346  -0.538   0.725  0.00  0.00     0.003 A 
ATOM      6  C4  OXE d   1      -0.787  -0.162  -0.503  0.00  0.00    -0.002 A 
ATOM      7  C5  OXE d   1       0.528   0.309  -0.569  0.00  0.00    -0.002 A 
ATOM      8  C6  OXE d   1       1.277   0.406   0.598  0.00  0.00     0.003 A 
ENDROOT
TORSDOF 0
ENDMDL
