MODEL 1
REMARK minimizedAffinity -4.15982533
REMARK minimizedRMSD -1
REMARK  0 active torsions:
REMARK  status: ('A' for Active; 'I' for Inactive)
ROOT
ATOM      1  C2' OXE d   1       0.105   0.262  -1.256  0.00  0.00     0.078 C 
ATOM      2  C1' OXE d   1      -2.192  -0.010   0.335  0.00  0.00     0.078 C 
ATOM      3  C1  OXE d   1      -0.854   0.035   1.032  0.00  0.00    -0.078 A 
ATOM      4  C2  OXE d   1       0.267   0.121   0.242  0.00  0.00    -0.078 A 
ATOM      5  C3  OXE d   1       1.522   0.221   0.836  0.00  0.00     0.003 A 
ATOM      6  C4  OXE d   1       1.664   0.080   2.222  0.00  0.00    -0.002 A 
ATOM      7  C5  OXE d   1       0.537  -0.049   3.041  0.00  0.00    -0.002 A 
ATOM      8  C6  OXE d   1      -0.729  -0.030   2.467  0.00  0.00     0.003 A 
ENDROOT
TORSDOF 0
ENDMDL
