MODEL 1
REMARK minimizedAffinity -4.53560257
REMARK minimizedRMSD -1
REMARK  0 active torsions:
REMARK  status: ('A' for Active; 'I' for Inactive)
ROOT
ATOM      1  C2' OXE d   1       2.177   1.097   0.864  0.00  0.00     0.078 C 
ATOM      2  C1' OXE d   1       0.491   0.228  -1.205  0.00  0.00     0.078 C 
ATOM      3  C1  OXE d   1       0.074  -0.069   0.214  0.00  0.00    -0.078 A 
ATOM      4  C2  OXE d   1       0.928   0.319   1.218  0.00  0.00    -0.078 A 
ATOM      5  C3  OXE d   1       0.565   0.119   2.547  0.00  0.00     0.003 A 
ATOM      6  C4  OXE d   1      -0.587  -0.611   2.865  0.00  0.00    -0.002 A 
ATOM      7  C5  OXE d   1      -1.450  -1.050   1.856  0.00  0.00    -0.002 A 
ATOM      8  C6  OXE d   1      -1.157  -0.751   0.530  0.00  0.00     0.003 A 
ENDROOT
TORSDOF 0
ENDMDL
