MODEL 1
REMARK minimizedAffinity -5.42269945
REMARK minimizedRMSD -1
REMARK  0 active torsions:
REMARK  status: ('A' for Active; 'I' for Inactive)
ROOT
ATOM      1  C2' OXE d   1       2.248   1.144   0.900  0.00  0.00     0.078 C 
ATOM      2  C1' OXE d   1       0.354   0.523  -1.076  0.00  0.00     0.078 C 
ATOM      3  C1  OXE d   1       0.056   0.102   0.341  0.00  0.00    -0.078 A 
ATOM      4  C2  OXE d   1       1.010   0.368   1.293  0.00  0.00    -0.078 A 
ATOM      5  C3  OXE d   1       0.761   0.050   2.626  0.00  0.00     0.003 A 
ATOM      6  C4  OXE d   1      -0.382  -0.676   2.980  0.00  0.00    -0.002 A 
ATOM      7  C5  OXE d   1      -1.348  -0.993   2.018  0.00  0.00    -0.002 A 
ATOM      8  C6  OXE d   1      -1.164  -0.575   0.705  0.00  0.00     0.003 A 
ENDROOT
TORSDOF 0
ENDMDL
