MODEL 1
REMARK minimizedAffinity -4.97980881
REMARK minimizedRMSD -1
REMARK  0 active torsions:
REMARK  status: ('A' for Active; 'I' for Inactive)
ROOT
ATOM      1  C2' OXE d   1      -0.622  -0.695   2.866  0.00  0.00     0.078 C 
ATOM      2  C1' OXE d   1      -2.364  -0.335   0.694  0.00  0.00     0.078 C 
ATOM      3  C1  OXE d   1      -0.900  -0.047   0.476  0.00  0.00    -0.078 A 
ATOM      4  C2  OXE d   1      -0.061  -0.181   1.557  0.00  0.00    -0.078 A 
ATOM      5  C3  OXE d   1       1.307   0.019   1.397  0.00  0.00     0.003 A 
ATOM      6  C4  OXE d   1       1.815   0.504   0.186  0.00  0.00    -0.002 A 
ATOM      7  C5  OXE d   1       0.973   0.685  -0.916  0.00  0.00    -0.002 A 
ATOM      8  C6  OXE d   1      -0.377   0.374  -0.800  0.00  0.00     0.003 A 
ENDROOT
TORSDOF 0
ENDMDL
