MODEL 1
REMARK minimizedAffinity -6.23458815
REMARK minimizedRMSD -1
REMARK  0 active torsions:
REMARK  status: ('A' for Active; 'I' for Inactive)
ROOT
ATOM      1  C2' OXE d   1       0.339   0.194  -0.792  0.00  0.00     0.078 C 
ATOM      2  C1' OXE d   1       2.072   0.056   1.412  0.00  0.00     0.078 C 
ATOM      3  C1  OXE d   1       0.588   0.062   1.683  0.00  0.00    -0.078 A 
ATOM      4  C2  OXE d   1      -0.252   0.177   0.601  0.00  0.00    -0.078 A 
ATOM      5  C3  OXE d   1      -1.630   0.133   0.791  0.00  0.00     0.003 A 
ATOM      6  C4  OXE d   1      -2.168   0.127   2.084  0.00  0.00    -0.002 A 
ATOM      7  C5  OXE d   1      -1.330   0.050   3.201  0.00  0.00    -0.002 A 
ATOM      8  C6  OXE d   1       0.046  -0.026   3.017  0.00  0.00     0.003 A 
ENDROOT
TORSDOF 0
ENDMDL
