MODEL 1
REMARK minimizedAffinity -1.29598832
REMARK minimizedRMSD -1
REMARK  0 active torsions:
REMARK  status: ('A' for Active; 'I' for Inactive)
ROOT
ATOM      1  C2' OXE d   1       1.761   0.502   0.836  0.00  0.00     0.078 C 
ATOM      2  C1' OXE d   1      -0.608  -0.020  -0.576  0.00  0.00     0.078 C 
ATOM      3  C1  OXE d   1      -0.697   0.106   0.924  0.00  0.00    -0.078 A 
ATOM      4  C2  OXE d   1       0.474   0.316   1.611  0.00  0.00    -0.078 A 
ATOM      5  C3  OXE d   1       0.441   0.495   2.991  0.00  0.00     0.003 A 
ATOM      6  C4  OXE d   1      -0.751   0.311   3.702  0.00  0.00    -0.002 A 
ATOM      7  C5  OXE d   1      -1.949   0.058   3.025  0.00  0.00    -0.002 A 
ATOM      8  C6  OXE d   1      -1.947  -0.005   1.636  0.00  0.00     0.003 A 
ENDROOT
TORSDOF 0
ENDMDL
