MODEL 1
REMARK minimizedAffinity -4.25929451
REMARK minimizedRMSD -1
REMARK  0 active torsions:
REMARK  status: ('A' for Active; 'I' for Inactive)
ROOT
ATOM      1  C2' OXE d   1      -1.919  -0.086   0.498  0.00  0.00     0.078 C 
ATOM      2  C1' OXE d   1       0.427   0.010  -1.041  0.00  0.00     0.078 C 
ATOM      3  C1  OXE d   1       0.570  -0.004   0.460  0.00  0.00    -0.078 A 
ATOM      4  C2  OXE d   1      -0.584  -0.004   1.206  0.00  0.00    -0.078 A 
ATOM      5  C3  OXE d   1      -0.507  -0.073   2.594  0.00  0.00     0.003 A 
ATOM      6  C4  OXE d   1       0.731   0.013   3.241  0.00  0.00    -0.002 A 
ATOM      7  C5  OXE d   1       1.918   0.054   2.501  0.00  0.00    -0.002 A 
ATOM      8  C6  OXE d   1       1.857   0.003   1.113  0.00  0.00     0.003 A 
ENDROOT
TORSDOF 0
ENDMDL
