MODEL 1
REMARK minimizedAffinity -3.12817478
REMARK minimizedRMSD -1
REMARK  0 active torsions:
REMARK  status: ('A' for Active; 'I' for Inactive)
ROOT
ATOM      1  C2' OXE d   1      -1.083  -0.696   3.512  0.00  0.00     0.078 C 
ATOM      2  C1' OXE d   1       0.203   1.795   3.376  0.00  0.00     0.078 C 
ATOM      3  C1  OXE d   1       0.197   0.938   2.135  0.00  0.00    -0.078 A 
ATOM      4  C2  OXE d   1      -0.394  -0.300   2.224  0.00  0.00    -0.078 A 
ATOM      5  C3  OXE d   1      -0.475  -1.108   1.094  0.00  0.00     0.003 A 
ATOM      6  C4  OXE d   1       0.173  -0.738  -0.090  0.00  0.00    -0.002 A 
ATOM      7  C5  OXE d   1       0.815   0.501  -0.191  0.00  0.00    -0.002 A 
ATOM      8  C6  OXE d   1       0.799   1.367   0.897  0.00  0.00     0.003 A 
ENDROOT
TORSDOF 0
ENDMDL
