MODEL 1
REMARK minimizedAffinity -2.98388481
REMARK minimizedRMSD -1
REMARK  0 active torsions:
REMARK  status: ('A' for Active; 'I' for Inactive)
ROOT
ATOM      1  C2' OXE d   1       2.026   1.084   0.887  0.00  0.00     0.078 C 
ATOM      2  C1' OXE d   1       0.124   0.185  -0.971  0.00  0.00     0.078 C 
ATOM      3  C1  OXE d   1      -0.207   0.051   0.494  0.00  0.00    -0.078 A 
ATOM      4  C2  OXE d   1       0.749   0.451   1.397  0.00  0.00    -0.078 A 
ATOM      5  C3  OXE d   1       0.474   0.400   2.760  0.00  0.00     0.003 A 
ATOM      6  C4  OXE d   1      -0.705  -0.196   3.224  0.00  0.00    -0.002 A 
ATOM      7  C5  OXE d   1      -1.675  -0.646   2.322  0.00  0.00    -0.002 A 
ATOM      8  C6  OXE d   1      -1.460  -0.491   0.957  0.00  0.00     0.003 A 
ENDROOT
TORSDOF 0
ENDMDL
