MODEL 1
REMARK minimizedAffinity -3.88340259
REMARK minimizedRMSD -1
REMARK  0 active torsions:
REMARK  status: ('A' for Active; 'I' for Inactive)
ROOT
ATOM      1  C2' OXE d   1       1.915   0.487   0.871  0.00  0.00     0.078 C 
ATOM      2  C1' OXE d   1      -0.449   0.135  -0.602  0.00  0.00     0.078 C 
ATOM      3  C1  OXE d   1      -0.552   0.143   0.903  0.00  0.00    -0.078 A 
ATOM      4  C2  OXE d   1       0.615   0.269   1.616  0.00  0.00    -0.078 A 
ATOM      5  C3  OXE d   1       0.571   0.337   3.005  0.00  0.00     0.003 A 
ATOM      6  C4  OXE d   1      -0.634   0.124   3.687  0.00  0.00    -0.002 A 
ATOM      7  C5  OXE d   1      -1.829  -0.046   2.980  0.00  0.00    -0.002 A 
ATOM      8  C6  OXE d   1      -1.812   0.004   1.591  0.00  0.00     0.003 A 
ENDROOT
TORSDOF 0
ENDMDL
