MODEL 1
REMARK minimizedAffinity -3.557374
REMARK minimizedRMSD -1
REMARK  0 active torsions:
REMARK  status: ('A' for Active; 'I' for Inactive)
ROOT
ATOM      1  C2' OXE d   1       2.205   1.066   0.817  0.00  0.00     0.078 C 
ATOM      2  C1' OXE d   1       0.462   0.009  -1.113  0.00  0.00     0.078 C 
ATOM      3  C1  OXE d   1       0.165  -0.281   0.337  0.00  0.00    -0.078 A 
ATOM      4  C2  OXE d   1       1.050   0.201   1.272  0.00  0.00    -0.078 A 
ATOM      5  C3  OXE d   1       0.794   0.008   2.626  0.00  0.00     0.003 A 
ATOM      6  C4  OXE d   1      -0.271  -0.801   3.039  0.00  0.00    -0.002 A 
ATOM      7  C5  OXE d   1      -1.161  -1.335   2.101  0.00  0.00    -0.002 A 
ATOM      8  C6  OXE d   1      -0.982  -1.050   0.752  0.00  0.00     0.003 A 
ENDROOT
TORSDOF 0
ENDMDL
