MODEL 1
REMARK minimizedAffinity -4.61990499
REMARK minimizedRMSD -1
REMARK  0 active torsions:
REMARK  status: ('A' for Active; 'I' for Inactive)
ROOT
ATOM      1  N1  IND d   1       1.022   0.817  -0.884  0.00  0.00    -0.196 N 
ATOM      2  C2  IND d   1       0.000   0.448  -1.715  0.00  0.00     0.054 A 
ATOM      3  C3  IND d   1      -0.861  -0.368  -1.066  0.00  0.00    -0.031 A 
ATOM      4  C4  IND d   1      -0.845  -1.145   1.388  0.00  0.00     0.051 A 
ATOM      5  C5  IND d   1      -0.093  -1.099   2.527  0.00  0.00    -0.031 A 
ATOM      6  C6  IND d   1       1.092  -0.394   2.590  0.00  0.00     0.015 A 
ATOM      7  C7  IND d   1       1.565   0.302   1.514  0.00  0.00    -0.016 A 
ATOM      8  C8  IND d   1       0.807   0.251   0.353  0.00  0.00    -0.047 A 
ATOM      9  C9  IND d   1      -0.374  -0.497   0.270  0.00  0.00    -0.096 A 
ATOM     10  HN1 IND d   1       1.686   1.319  -1.099  0.00  0.00     0.298 HD
ENDROOT
TORSDOF 0
ENDMDL
