MODEL 1
REMARK minimizedAffinity 3.24780679
REMARK minimizedRMSD -1
REMARK  0 active torsions:
REMARK  status: ('A' for Active; 'I' for Inactive)
ROOT
ATOM      1  N1  IND d   1      -0.037  -0.912  -2.501  0.00  0.00    -0.196 N 
ATOM      2  C2  IND d   1       0.625  -0.064  -3.344  0.00  0.00     0.054 A 
ATOM      3  C3  IND d   1       0.039   1.154  -3.342  0.00  0.00    -0.031 A 
ATOM      4  C4  IND d   1      -1.956   2.007  -1.955  0.00  0.00     0.051 A 
ATOM      5  C5  IND d   1      -2.912   1.588  -1.073  0.00  0.00    -0.031 A 
ATOM      6  C6  IND d   1      -2.957   0.289  -0.610  0.00  0.00     0.015 A 
ATOM      7  C7  IND d   1      -2.038  -0.641  -1.005  0.00  0.00    -0.016 A 
ATOM      8  C8  IND d   1      -1.070  -0.221  -1.907  0.00  0.00    -0.047 A 
ATOM      9  C9  IND d   1      -1.044   1.085  -2.413  0.00  0.00    -0.096 A 
ATOM     10  HN1 IND d   1       0.159  -1.738  -2.365  0.00  0.00     0.298 HD
ENDROOT
TORSDOF 0
ENDMDL
