MODEL 1
REMARK minimizedAffinity 8.91633701
REMARK minimizedRMSD -1
REMARK  0 active torsions:
REMARK  status: ('A' for Active; 'I' for Inactive)
ROOT
ATOM      1  N1  IND d   1       1.710  -4.538   0.699  0.00  0.00    -0.196 N 
ATOM      2  C2  IND d   1       2.715  -3.780   0.168  0.00  0.00     0.054 A 
ATOM      3  C3  IND d   1       2.397  -2.467   0.227  0.00  0.00    -0.031 A 
ATOM      4  C4  IND d   1       0.324  -1.332   1.248  0.00  0.00     0.051 A 
ATOM      5  C5  IND d   1      -0.886  -1.611   1.819  0.00  0.00    -0.031 A 
ATOM      6  C6  IND d   1      -1.300  -2.907   2.052  0.00  0.00     0.015 A 
ATOM      7  C7  IND d   1      -0.511  -3.975   1.733  0.00  0.00    -0.016 A 
ATOM      8  C8  IND d   1       0.716  -3.695   1.147  0.00  0.00    -0.047 A 
ATOM      9  C9  IND d   1       1.123  -2.384   0.869  0.00  0.00    -0.096 A 
ATOM     10  HN1 IND d   1       1.699  -5.396   0.746  0.00  0.00     0.298 HD
ENDROOT
TORSDOF 0
ENDMDL
