MODEL 1
REMARK minimizedAffinity 6.92533779
REMARK minimizedRMSD -1
REMARK  0 active torsions:
REMARK  status: ('A' for Active; 'I' for Inactive)
ROOT
ATOM      1  N1  IND d   1       2.883  -3.079  -0.578  0.00  0.00    -0.196 N 
ATOM      2  C2  IND d   1       1.679  -3.433  -0.036  0.00  0.00     0.054 A 
ATOM      3  C3  IND d   1       1.858  -4.332   0.958  0.00  0.00    -0.031 A 
ATOM      4  C4  IND d   1       4.043  -5.284   1.930  0.00  0.00     0.051 A 
ATOM      5  C5  IND d   1       5.396  -5.286   1.738  0.00  0.00    -0.031 A 
ATOM      6  C6  IND d   1       5.993  -4.534   0.747  0.00  0.00     0.015 A 
ATOM      7  C7  IND d   1       5.257  -3.741  -0.087  0.00  0.00    -0.016 A 
ATOM      8  C8  IND d   1       3.882  -3.743   0.100  0.00  0.00    -0.047 A 
ATOM      9  C9  IND d   1       3.267  -4.536   1.077  0.00  0.00    -0.096 A 
ATOM     10  HN1 IND d   1       2.998  -2.533  -1.233  0.00  0.00     0.298 HD
ENDROOT
TORSDOF 0
ENDMDL
