MODEL 1
REMARK minimizedAffinity -5.90710592
REMARK minimizedRMSD -1
REMARK  0 active torsions:
REMARK  status: ('A' for Active; 'I' for Inactive)
ROOT
ATOM      1  N1  IND d   1      -2.993   0.964  -3.379  0.00  0.00    -0.196 N 
ATOM      2  C2  IND d   1      -1.987   0.430  -2.623  0.00  0.00     0.054 A 
ATOM      3  C3  IND d   1      -1.749  -0.848  -2.993  0.00  0.00    -0.031 A 
ATOM      4  C4  IND d   1      -2.821  -2.231  -4.881  0.00  0.00     0.051 A 
ATOM      5  C5  IND d   1      -3.812  -2.185  -5.821  0.00  0.00    -0.031 A 
ATOM      6  C6  IND d   1      -4.595  -1.063  -6.000  0.00  0.00     0.015 A 
ATOM      7  C7  IND d   1      -4.407   0.063  -5.250  0.00  0.00    -0.016 A 
ATOM      8  C8  IND d   1      -3.406   0.018  -4.290  0.00  0.00    -0.047 A 
ATOM      9  C9  IND d   1      -2.637  -1.133  -4.075  0.00  0.00    -0.096 A 
ATOM     10  HN1 IND d   1      -3.314   1.758  -3.298  0.00  0.00     0.298 HD
ENDROOT
TORSDOF 0
ENDMDL
