MODEL 1
REMARK minimizedAffinity 4.5213418
REMARK minimizedRMSD -1
REMARK  0 active torsions:
REMARK  status: ('A' for Active; 'I' for Inactive)
ROOT
ATOM      1  N1  IND d   1      -3.155   1.483  -5.772  0.00  0.00    -0.196 N 
ATOM      2  C2  IND d   1      -3.841   2.518  -5.200  0.00  0.00     0.054 A 
ATOM      3  C3  IND d   1      -4.499   2.094  -4.098  0.00  0.00    -0.031 A 
ATOM      4  C4  IND d   1      -4.511  -0.231  -2.993  0.00  0.00     0.051 A 
ATOM      5  C5  IND d   1      -4.063  -1.510  -3.170  0.00  0.00    -0.031 A 
ATOM      6  C6  IND d   1      -3.272  -1.864  -4.244  0.00  0.00     0.015 A 
ATOM      7  C7  IND d   1      -2.887  -0.944  -5.178  0.00  0.00    -0.016 A 
ATOM      8  C8  IND d   1      -3.346   0.354  -5.005  0.00  0.00    -0.047 A 
ATOM      9  C9  IND d   1      -4.184   0.709  -3.941  0.00  0.00    -0.096 A 
ATOM     10  HN1 IND d   1      -2.684   1.529  -6.489  0.00  0.00     0.298 HD
ENDROOT
TORSDOF 0
ENDMDL
