MODEL 1
REMARK minimizedAffinity 5.00176096
REMARK minimizedRMSD -1
REMARK  0 active torsions:
REMARK  status: ('A' for Active; 'I' for Inactive)
ROOT
ATOM      1  N1  IND d   1      -1.949  -1.311  -3.778  0.00  0.00    -0.196 N 
ATOM      2  C2  IND d   1      -1.549  -1.885  -4.953  0.00  0.00     0.054 A 
ATOM      3  C3  IND d   1      -2.269  -1.394  -5.986  0.00  0.00    -0.031 A 
ATOM      4  C4  IND d   1      -4.085   0.431  -5.992  0.00  0.00     0.051 A 
ATOM      5  C5  IND d   1      -4.817   1.225  -5.155  0.00  0.00    -0.031 A 
ATOM      6  C6  IND d   1      -4.625   1.216  -3.788  0.00  0.00     0.015 A 
ATOM      7  C7  IND d   1      -3.681   0.418  -3.207  0.00  0.00    -0.016 A 
ATOM      8  C8  IND d   1      -2.940  -0.395  -4.054  0.00  0.00    -0.047 A 
ATOM      9  C9  IND d   1      -3.160  -0.422  -5.437  0.00  0.00    -0.096 A 
ATOM     10  HN1 IND d   1      -1.634  -1.491  -2.999  0.00  0.00     0.298 HD
ENDROOT
TORSDOF 0
ENDMDL
