MODEL 1
REMARK minimizedAffinity -4.73574829
REMARK minimizedRMSD -1
REMARK  0 active torsions:
REMARK  status: ('A' for Active; 'I' for Inactive)
ROOT
ATOM      1  N1  IND d   1      -4.408  -1.785  -3.496  0.00  0.00    -0.196 N 
ATOM      2  C2  IND d   1      -5.355  -1.722  -4.480  0.00  0.00     0.054 A 
ATOM      3  C3  IND d   1      -5.157  -0.631  -5.254  0.00  0.00    -0.031 A 
ATOM      4  C4  IND d   1      -3.281   1.129  -5.151  0.00  0.00     0.051 A 
ATOM      5  C5  IND d   1      -2.205   1.513  -4.402  0.00  0.00    -0.031 A 
ATOM      6  C6  IND d   1      -1.798   0.802  -3.291  0.00  0.00     0.015 A 
ATOM      7  C7  IND d   1      -2.448  -0.332  -2.894  0.00  0.00    -0.016 A 
ATOM      8  C8  IND d   1      -3.546  -0.721  -3.648  0.00  0.00    -0.047 A 
ATOM      9  C9  IND d   1      -3.990   0.020  -4.751  0.00  0.00    -0.096 A 
ATOM     10  HN1 IND d   1      -4.359  -2.388  -2.885  0.00  0.00     0.298 HD
ENDROOT
TORSDOF 0
ENDMDL
