MODEL 1
REMARK minimizedAffinity -1.34327757
REMARK minimizedRMSD -1
REMARK  0 active torsions:
REMARK  status: ('A' for Active; 'I' for Inactive)
ROOT
ATOM      1  N1  IND d   1       0.518  -1.371  -0.855  0.00  0.00    -0.196 N 
ATOM      2  C2  IND d   1      -0.148  -1.371  -2.048  0.00  0.00     0.054 A 
ATOM      3  C3  IND d   1      -1.427  -0.969  -1.873  0.00  0.00    -0.031 A 
ATOM      4  C4  IND d   1      -2.610  -0.166   0.267  0.00  0.00     0.051 A 
ATOM      5  C5  IND d   1      -2.422  -0.024   1.614  0.00  0.00    -0.031 A 
ATOM      6  C6  IND d   1      -1.220  -0.328   2.218  0.00  0.00     0.015 A 
ATOM      7  C7  IND d   1      -0.151  -0.776   1.493  0.00  0.00    -0.016 A 
ATOM      8  C8  IND d   1      -0.341  -0.927   0.127  0.00  0.00    -0.047 A 
ATOM      9  C9  IND d   1      -1.572  -0.661  -0.486  0.00  0.00    -0.096 A 
ATOM     10  HN1 IND d   1       1.336  -1.608  -0.737  0.00  0.00     0.298 HD
ENDROOT
TORSDOF 0
ENDMDL
