MODEL 1
REMARK minimizedAffinity 1.76002514
REMARK minimizedRMSD -1
REMARK  0 active torsions:
REMARK  status: ('A' for Active; 'I' for Inactive)
ROOT
ATOM      1  C   UNL d   1       1.181  -1.201   3.957  0.00  0.00     0.077 C 
ATOM      2  C1  UNL d   1       0.263  -0.498   3.002  0.00  0.00    -0.074 A 
ATOM      3  C2  UNL d   1      -0.936  -1.088   2.592  0.00  0.00    -0.005 A 
ATOM      4  C3  UNL d   1      -1.785  -0.417   1.710  0.00  0.00     0.006 A 
ATOM      5  C4  UNL d   1      -1.442   0.847   1.231  0.00  0.00    -0.005 A 
ATOM      6  C5  UNL d   1      -0.247   1.454   1.630  0.00  0.00    -0.074 A 
ATOM      7  C6  UNL d   1       0.132   2.817   1.132  0.00  0.00     0.077 C 
ATOM      8  C7  UNL d   1       0.597   0.777   2.522  0.00  0.00    -0.001 A 
ENDROOT
TORSDOF 0
ENDMDL
