MODEL 1
REMARK minimizedAffinity 0.724774778
REMARK minimizedRMSD -1
REMARK  0 active torsions:
REMARK  status: ('A' for Active; 'I' for Inactive)
ROOT
ATOM      1  C   UNL d   1       1.998  -2.343   4.712  0.00  0.00     0.077 C 
ATOM      2  C1  UNL d   1       0.739  -2.061   3.948  0.00  0.00    -0.074 A 
ATOM      3  C2  UNL d   1      -0.364  -2.916   4.040  0.00  0.00    -0.005 A 
ATOM      4  C3  UNL d   1      -1.532  -2.635   3.331  0.00  0.00     0.006 A 
ATOM      5  C4  UNL d   1      -1.609  -1.499   2.524  0.00  0.00    -0.005 A 
ATOM      6  C5  UNL d   1      -0.516  -0.633   2.420  0.00  0.00    -0.074 A 
ATOM      7  C6  UNL d   1      -0.585   0.597   1.565  0.00  0.00     0.077 C 
ATOM      8  C7  UNL d   1       0.652  -0.918   3.141  0.00  0.00    -0.001 A 
ENDROOT
TORSDOF 0
ENDMDL
