MODEL 1
REMARK minimizedAffinity 4.62205124
REMARK minimizedRMSD -1
REMARK  0 active torsions:
REMARK  status: ('A' for Active; 'I' for Inactive)
ROOT
ATOM      1  C   UNL d   1       1.020  -2.760   4.740  0.00  0.00     0.077 C 
ATOM      2  C1  UNL d   1       1.099  -1.643   3.742  0.00  0.00    -0.074 A 
ATOM      3  C2  UNL d   1       2.268  -0.889   3.600  0.00  0.00    -0.005 A 
ATOM      4  C3  UNL d   1       2.331   0.141   2.661  0.00  0.00     0.006 A 
ATOM      5  C4  UNL d   1       1.227   0.426   1.856  0.00  0.00    -0.005 A 
ATOM      6  C5  UNL d   1       0.050  -0.319   1.984  0.00  0.00    -0.074 A 
ATOM      7  C6  UNL d   1      -1.143  -0.032   1.120  0.00  0.00     0.077 C 
ATOM      8  C7  UNL d   1      -0.003  -1.356   2.925  0.00  0.00    -0.001 A 
ENDROOT
TORSDOF 0
ENDMDL
