MODEL 1
REMARK minimizedAffinity 1.06759202
REMARK minimizedRMSD -1
REMARK  0 active torsions:
REMARK  status: ('A' for Active; 'I' for Inactive)
ROOT
ATOM      1  C   UNL d   1       0.741  -2.196   4.477  0.00  0.00     0.077 C 
ATOM      2  C1  UNL d   1       0.569  -1.227   3.345  0.00  0.00    -0.074 A 
ATOM      3  C2  UNL d   1      -0.705  -0.850   2.909  0.00  0.00    -0.005 A 
ATOM      4  C3  UNL d   1      -0.849   0.059   1.861  0.00  0.00     0.006 A 
ATOM      5  C4  UNL d   1       0.277   0.599   1.239  0.00  0.00    -0.005 A 
ATOM      6  C5  UNL d   1       1.559   0.235   1.663  0.00  0.00    -0.074 A 
ATOM      7  C6  UNL d   1       2.781   0.813   1.012  0.00  0.00     0.077 C 
ATOM      8  C7  UNL d   1       1.696  -0.674   2.721  0.00  0.00    -0.001 A 
ENDROOT
TORSDOF 0
ENDMDL
