MODEL 1
REMARK minimizedAffinity 6.76464939
REMARK minimizedRMSD -1
REMARK  0 active torsions:
REMARK  status: ('A' for Active; 'I' for Inactive)
ROOT
ATOM      1  C   UNL d   1       1.029  -1.781   5.026  0.00  0.00     0.077 C 
ATOM      2  C1  UNL d   1       0.835  -1.169   3.670  0.00  0.00    -0.074 A 
ATOM      3  C2  UNL d   1       1.929  -0.900   2.840  0.00  0.00    -0.005 A 
ATOM      4  C3  UNL d   1       1.732  -0.340   1.578  0.00  0.00     0.006 A 
ATOM      5  C4  UNL d   1       0.443  -0.044   1.134  0.00  0.00    -0.005 A 
ATOM      6  C5  UNL d   1      -0.662  -0.308   1.949  0.00  0.00    -0.074 A 
ATOM      7  C6  UNL d   1      -2.055  -0.005   1.483  0.00  0.00     0.077 C 
ATOM      8  C7  UNL d   1      -0.457  -0.877   3.213  0.00  0.00    -0.001 A 
ENDROOT
TORSDOF 0
ENDMDL
