MODEL 1
REMARK minimizedAffinity -4.55360937
REMARK minimizedRMSD -1
REMARK  0 active torsions:
REMARK  status: ('A' for Active; 'I' for Inactive)
ROOT
ATOM      1  C   UNL d   1      -3.243  -1.271   3.221  0.00  0.00     0.077 C 
ATOM      2  C1  UNL d   1      -1.784  -0.960   3.066  0.00  0.00    -0.074 A 
ATOM      3  C2  UNL d   1      -1.349   0.015   2.164  0.00  0.00    -0.005 A 
ATOM      4  C3  UNL d   1       0.011   0.300   2.038  0.00  0.00     0.006 A 
ATOM      5  C4  UNL d   1       0.947  -0.387   2.811  0.00  0.00    -0.005 A 
ATOM      6  C5  UNL d   1       0.530  -1.365   3.720  0.00  0.00    -0.074 A 
ATOM      7  C6  UNL d   1       1.523  -2.106   4.566  0.00  0.00     0.077 C 
ATOM      8  C7  UNL d   1      -0.838  -1.641   3.846  0.00  0.00    -0.001 A 
ENDROOT
TORSDOF 0
ENDMDL
