MODEL 1
REMARK minimizedAffinity 1.5894177
REMARK minimizedRMSD -1
REMARK  0 active torsions:
REMARK  status: ('A' for Active; 'I' for Inactive)
ROOT
ATOM      1  C   UNL d   1       0.988  -1.627   4.448  0.00  0.00     0.077 C 
ATOM      2  C1  UNL d   1       0.803  -0.957   3.119  0.00  0.00    -0.074 A 
ATOM      3  C2  UNL d   1       1.899  -0.675   2.297  0.00  0.00    -0.005 A 
ATOM      4  C3  UNL d   1       1.710  -0.061   1.059  0.00  0.00     0.006 A 
ATOM      5  C4  UNL d   1       0.426   0.278   0.632  0.00  0.00    -0.005 A 
ATOM      6  C5  UNL d   1      -0.682   0.004   1.440  0.00  0.00    -0.074 A 
ATOM      7  C6  UNL d   1      -2.070   0.352   0.991  0.00  0.00     0.077 C 
ATOM      8  C7  UNL d   1      -0.485  -0.621   2.679  0.00  0.00    -0.001 A 
ENDROOT
TORSDOF 0
ENDMDL
