MODEL 1
REMARK minimizedAffinity 0.39456287
REMARK minimizedRMSD -1
REMARK  0 active torsions:
REMARK  status: ('A' for Active; 'I' for Inactive)
ROOT
ATOM      1  C   UNL d   1      -0.070   0.372  -5.260  0.00  0.00     0.077 C 
ATOM      2  C1  UNL d   1      -1.465   0.423  -4.712  0.00  0.00    -0.074 A 
ATOM      3  C2  UNL d   1      -1.697   0.707  -3.362  0.00  0.00    -0.005 A 
ATOM      4  C3  UNL d   1      -3.001   0.761  -2.869  0.00  0.00     0.006 A 
ATOM      5  C4  UNL d   1      -4.084   0.532  -3.718  0.00  0.00    -0.005 A 
ATOM      6  C5  UNL d   1      -3.871   0.247  -5.071  0.00  0.00    -0.074 A 
ATOM      7  C6  UNL d   1      -5.024   0.007  -6.000  0.00  0.00     0.077 C 
ATOM      8  C7  UNL d   1      -2.559   0.202  -5.561  0.00  0.00    -0.001 A 
ENDROOT
TORSDOF 0
ENDMDL
