MODEL 1
REMARK minimizedAffinity -0.576508701
REMARK minimizedRMSD -1
REMARK  0 active torsions:
REMARK  status: ('A' for Active; 'I' for Inactive)
ROOT
ATOM      1  C   UNL d   1       1.240  -1.898   3.851  0.00  0.00     0.077 C 
ATOM      2  C1  UNL d   1       0.414  -0.993   2.986  0.00  0.00    -0.074 A 
ATOM      3  C2  UNL d   1      -0.934  -1.270   2.738  0.00  0.00    -0.005 A 
ATOM      4  C3  UNL d   1      -1.692  -0.413   1.940  0.00  0.00     0.006 A 
ATOM      5  C4  UNL d   1      -1.110   0.727   1.383  0.00  0.00    -0.005 A 
ATOM      6  C5  UNL d   1       0.236   1.020   1.621  0.00  0.00    -0.074 A 
ATOM      7  C6  UNL d   1       0.874   2.246   1.038  0.00  0.00     0.077 C 
ATOM      8  C7  UNL d   1       0.989   0.158   2.430  0.00  0.00    -0.001 A 
ENDROOT
TORSDOF 0
ENDMDL
