MODEL 1
REMARK minimizedAffinity -1.40285289
REMARK minimizedRMSD -1
REMARK  0 active torsions:
REMARK  status: ('A' for Active; 'I' for Inactive)
ROOT
ATOM      1  C   UNL d   1       2.021  -1.193   4.187  0.00  0.00     0.077 C 
ATOM      2  C1  UNL d   1       0.827  -0.921   3.321  0.00  0.00    -0.074 A 
ATOM      3  C2  UNL d   1       0.975  -0.357   2.050  0.00  0.00    -0.005 A 
ATOM      4  C3  UNL d   1      -0.144  -0.119   1.251  0.00  0.00     0.006 A 
ATOM      5  C4  UNL d   1      -1.419  -0.441   1.715  0.00  0.00    -0.005 A 
ATOM      6  C5  UNL d   1      -1.587  -1.007   2.983  0.00  0.00    -0.074 A 
ATOM      7  C6  UNL d   1      -2.950  -1.368   3.493  0.00  0.00     0.077 C 
ATOM      8  C7  UNL d   1      -0.457  -1.250   3.777  0.00  0.00    -0.001 A 
ENDROOT
TORSDOF 0
ENDMDL
