MODEL 1
REMARK minimizedAffinity 4.21366787
REMARK minimizedRMSD -1
REMARK  0 active torsions:
REMARK  status: ('A' for Active; 'I' for Inactive)
ROOT
ATOM      1  C   UNL d   1       1.379  -2.433   4.939  0.00  0.00     0.077 C 
ATOM      2  C1  UNL d   1       1.233  -1.519   3.760  0.00  0.00    -0.074 A 
ATOM      3  C2  UNL d   1       2.356  -0.957   3.143  0.00  0.00    -0.005 A 
ATOM      4  C3  UNL d   1       2.205  -0.116   2.040  0.00  0.00     0.006 A 
ATOM      5  C4  UNL d   1       0.932   0.171   1.544  0.00  0.00    -0.005 A 
ATOM      6  C5  UNL d   1      -0.201  -0.382   2.148  0.00  0.00    -0.074 A 
ATOM      7  C6  UNL d   1      -1.575  -0.091   1.621  0.00  0.00     0.077 C 
ATOM      8  C7  UNL d   1      -0.041  -1.232   3.251  0.00  0.00    -0.001 A 
ENDROOT
TORSDOF 0
ENDMDL
