MODEL 1
REMARK minimizedAffinity -4.11300325
REMARK minimizedRMSD -1
REMARK  0 active torsions:
REMARK  status: ('A' for Active; 'I' for Inactive)
ROOT
ATOM      1  C1  DEN d   1       1.932  -1.716   1.270  0.00  0.00     0.130 A 
ATOM      2  C2  DEN d   1       1.150  -2.650   2.076  0.00  0.00    -0.031 A 
ATOM      3  C3  DEN d   1      -0.280  -2.388   1.818  0.00  0.00     0.027 A 
ATOM      4  C4  DEN d   1      -1.354  -0.641   0.254  0.00  0.00     0.027 A 
ATOM      5  C5  DEN d   1      -1.096   0.385  -0.629  0.00  0.00    -0.003 A 
ATOM      6  C6  DEN d   1       0.178   0.801  -0.912  0.00  0.00     0.001 A 
ATOM      7  C7  DEN d   1       1.245   0.159  -0.341  0.00  0.00     0.017 A 
ATOM      8  C8  DEN d   1       0.992  -0.871   0.555  0.00  0.00    -0.094 A 
ATOM      9  C9  DEN d   1      -0.302  -1.286   0.819  0.00  0.00    -0.072 A 
ENDROOT
TORSDOF 0
ENDMDL
