MODEL 1
REMARK minimizedAffinity -3.19401479
REMARK minimizedRMSD -1
REMARK  0 active torsions:
REMARK  status: ('A' for Active; 'I' for Inactive)
ROOT
ATOM      1  C1  DEN d   1      -2.478  -1.178   1.517  0.00  0.00     0.130 A 
ATOM      2  C2  DEN d   1      -1.956  -2.540   1.596  0.00  0.00    -0.031 A 
ATOM      3  C3  DEN d   1      -0.539  -2.510   1.182  0.00  0.00     0.027 A 
ATOM      4  C4  DEN d   1       0.891  -0.498   0.433  0.00  0.00     0.027 A 
ATOM      5  C5  DEN d   1       0.882   0.859   0.195  0.00  0.00    -0.003 A 
ATOM      6  C6  DEN d   1      -0.247   1.619   0.347  0.00  0.00     0.001 A 
ATOM      7  C7  DEN d   1      -1.404   1.036   0.792  0.00  0.00     0.017 A 
ATOM      8  C8  DEN d   1      -1.405  -0.333   1.027  0.00  0.00    -0.094 A 
ATOM      9  C9  DEN d   1      -0.250  -1.082   0.880  0.00  0.00    -0.072 A 
ENDROOT
TORSDOF 0
ENDMDL
