MODEL 1
REMARK minimizedAffinity -5.5352354
REMARK minimizedRMSD -1
REMARK  0 active torsions:
REMARK  status: ('A' for Active; 'I' for Inactive)
ROOT
ATOM      1  C1  DEN d   1       4.412   1.545  -4.145  0.00  0.00     0.130 A 
ATOM      2  C2  DEN d   1       5.284   1.645  -2.977  0.00  0.00    -0.031 A 
ATOM      3  C3  DEN d   1       4.430   1.802  -1.783  0.00  0.00     0.027 A 
ATOM      4  C4  DEN d   1       1.857   1.894  -1.628  0.00  0.00     0.027 A 
ATOM      5  C5  DEN d   1       0.687   1.862  -2.354  0.00  0.00    -0.003 A 
ATOM      6  C6  DEN d   1       0.678   1.758  -3.719  0.00  0.00     0.001 A 
ATOM      7  C7  DEN d   1       1.861   1.635  -4.399  0.00  0.00     0.017 A 
ATOM      8  C8  DEN d   1       3.045   1.674  -3.674  0.00  0.00    -0.094 A 
ATOM      9  C9  DEN d   1       3.033   1.768  -2.293  0.00  0.00    -0.072 A 
ENDROOT
TORSDOF 0
ENDMDL
