MODEL 1
REMARK minimizedAffinity -5.1157546
REMARK minimizedRMSD -1
REMARK  0 active torsions:
REMARK  status: ('A' for Active; 'I' for Inactive)
ROOT
ATOM      1  C1  DEN d   1      -0.038   0.441  -0.327  0.00  0.00     0.130 A 
ATOM      2  C2  DEN d   1       1.355   0.004  -0.296  0.00  0.00    -0.031 A 
ATOM      3  C3  DEN d   1       1.441  -1.185   0.576  0.00  0.00     0.027 A 
ATOM      4  C4  DEN d   1      -0.438  -2.388   1.870  0.00  0.00     0.027 A 
ATOM      5  C5  DEN d   1      -1.784  -2.378   2.162  0.00  0.00    -0.003 A 
ATOM      6  C6  DEN d   1      -2.630  -1.416   1.676  0.00  0.00     0.001 A 
ATOM      7  C7  DEN d   1      -2.146  -0.449   0.835  0.00  0.00     0.017 A 
ATOM      8  C8  DEN d   1      -0.788  -0.448   0.542  0.00  0.00    -0.094 A 
ATOM      9  C9  DEN d   1       0.048  -1.437   1.033  0.00  0.00    -0.072 A 
ENDROOT
TORSDOF 0
ENDMDL
