MODEL 1
REMARK minimizedAffinity -3.2207756
REMARK minimizedRMSD -1
REMARK  0 active torsions:
REMARK  status: ('A' for Active; 'I' for Inactive)
ROOT
ATOM      1  C1  DEN d   1       1.436   0.575   0.678  0.00  0.00     0.130 A 
ATOM      2  C2  DEN d   1       2.454  -0.469   0.600  0.00  0.00    -0.031 A 
ATOM      3  C3  DEN d   1       1.770  -1.778   0.626  0.00  0.00     0.027 A 
ATOM      4  C4  DEN d   1      -0.754  -2.286   0.772  0.00  0.00     0.027 A 
ATOM      5  C5  DEN d   1      -2.008  -1.725   0.869  0.00  0.00    -0.003 A 
ATOM      6  C6  DEN d   1      -2.199  -0.371   0.943  0.00  0.00     0.001 A 
ATOM      7  C7  DEN d   1      -1.120   0.471   0.875  0.00  0.00     0.017 A 
ATOM      8  C8  DEN d   1       0.148  -0.087   0.785  0.00  0.00    -0.094 A 
ATOM      9  C9  DEN d   1       0.319  -1.459   0.699  0.00  0.00    -0.072 A 
ENDROOT
TORSDOF 0
ENDMDL
