MODEL 1
REMARK minimizedAffinity -3.13075948
REMARK minimizedRMSD -1
REMARK  0 active torsions:
REMARK  status: ('A' for Active; 'I' for Inactive)
ROOT
ATOM      1  C1  DEN d   1       1.161   0.147  -0.635  0.00  0.00     0.130 A 
ATOM      2  C2  DEN d   1       0.804   1.563  -0.598  0.00  0.00    -0.031 A 
ATOM      3  C3  DEN d   1      -0.327   1.725   0.336  0.00  0.00     0.027 A 
ATOM      4  C4  DEN d   1      -1.553  -0.069   1.727  0.00  0.00     0.027 A 
ATOM      5  C5  DEN d   1      -1.616  -1.413   2.020  0.00  0.00    -0.003 A 
ATOM      6  C6  DEN d   1      -0.786  -2.329   1.428  0.00  0.00     0.001 A 
ATOM      7  C7  DEN d   1       0.172  -1.905   0.545  0.00  0.00     0.017 A 
ATOM      8  C8  DEN d   1       0.236  -0.552   0.239  0.00  0.00    -0.094 A 
ATOM      9  C9  DEN d   1      -0.603   0.359   0.858  0.00  0.00    -0.072 A 
ENDROOT
TORSDOF 0
ENDMDL
