MODEL 1
REMARK minimizedAffinity -4.31673241
REMARK minimizedRMSD -1
REMARK  0 active torsions:
REMARK  status: ('A' for Active; 'I' for Inactive)
ROOT
ATOM      1  C1  DEN d   1       0.972  -1.770   0.257  0.00  0.00     0.130 A 
ATOM      2  C2  DEN d   1       0.081  -2.791   0.800  0.00  0.00    -0.031 A 
ATOM      3  C3  DEN d   1      -1.162  -2.127   1.239  0.00  0.00     0.027 A 
ATOM      4  C4  DEN d   1      -1.794   0.372   1.126  0.00  0.00     0.027 A 
ATOM      5  C5  DEN d   1      -1.356   1.624   0.756  0.00  0.00    -0.003 A 
ATOM      6  C6  DEN d   1      -0.110   1.837   0.230  0.00  0.00     0.001 A 
ATOM      7  C7  DEN d   1       0.727   0.773   0.017  0.00  0.00     0.017 A 
ATOM      8  C8  DEN d   1       0.296  -0.492   0.394  0.00  0.00    -0.094 A 
ATOM      9  C9  DEN d   1      -0.973  -0.688   0.913  0.00  0.00    -0.072 A 
ENDROOT
TORSDOF 0
ENDMDL
