MODEL 1
REMARK minimizedAffinity -4.5733881
REMARK minimizedRMSD -1
REMARK  0 active torsions:
REMARK  status: ('A' for Active; 'I' for Inactive)
ROOT
ATOM      1  C1  DEN d   1      -0.019   0.709  -0.188  0.00  0.00     0.130 A 
ATOM      2  C2  DEN d   1       1.211   0.191  -0.780  0.00  0.00    -0.031 A 
ATOM      3  C3  DEN d   1       1.319  -1.239  -0.431  0.00  0.00     0.027 A 
ATOM      4  C4  DEN d   1      -0.292  -2.697   0.958  0.00  0.00     0.027 A 
ATOM      5  C5  DEN d   1      -1.466  -2.699   1.679  0.00  0.00    -0.003 A 
ATOM      6  C6  DEN d   1      -2.215  -1.566   1.856  0.00  0.00     0.001 A 
ATOM      7  C7  DEN d   1      -1.823  -0.393   1.267  0.00  0.00     0.017 A 
ATOM      8  C8  DEN d   1      -0.637  -0.382   0.544  0.00  0.00    -0.094 A 
ATOM      9  C9  DEN d   1       0.100  -1.541   0.366  0.00  0.00    -0.072 A 
ENDROOT
TORSDOF 0
ENDMDL
