MODEL 1
REMARK minimizedAffinity -4.65552092
REMARK minimizedRMSD -1
REMARK  0 active torsions:
REMARK  status: ('A' for Active; 'I' for Inactive)
ROOT
ATOM      1  C1  DEN d   1       1.054  -2.066  -0.801  0.00  0.00     0.130 A 
ATOM      2  C2  DEN d   1       0.437  -2.713   0.354  0.00  0.00    -0.031 A 
ATOM      3  C3  DEN d   1      -0.212  -1.666   1.170  0.00  0.00     0.027 A 
ATOM      4  C4  DEN d   1      -0.323   0.877   0.757  0.00  0.00     0.027 A 
ATOM      5  C5  DEN d   1       0.064   1.895  -0.086  0.00  0.00    -0.003 A 
ATOM      6  C6  DEN d   1       0.830   1.671  -1.199  0.00  0.00     0.001 A 
ATOM      7  C7  DEN d   1       1.196   0.391  -1.524  0.00  0.00     0.017 A 
ATOM      8  C8  DEN d   1       0.816  -0.640  -0.675  0.00  0.00    -0.094 A 
ATOM      9  C9  DEN d   1       0.032  -0.394   0.439  0.00  0.00    -0.072 A 
ENDROOT
TORSDOF 0
ENDMDL
