MODEL 1
REMARK minimizedAffinity -6.48280907
REMARK minimizedRMSD -1
REMARK  0 active torsions:
REMARK  status: ('A' for Active; 'I' for Inactive)
ROOT
ATOM      1  C1  DEN d   1      -0.560   0.805  -0.193  0.00  0.00     0.130 A 
ATOM      2  C2  DEN d   1       0.711   0.207  -0.595  0.00  0.00    -0.031 A 
ATOM      3  C3  DEN d   1       0.714  -1.201  -0.150  0.00  0.00     0.027 A 
ATOM      4  C4  DEN d   1      -1.116  -2.508   1.112  0.00  0.00     0.027 A 
ATOM      5  C5  DEN d   1      -2.368  -2.422   1.680  0.00  0.00    -0.003 A 
ATOM      6  C6  DEN d   1      -3.085  -1.255   1.693  0.00  0.00     0.001 A 
ATOM      7  C7  DEN d   1      -2.574  -0.137   1.087  0.00  0.00     0.017 A 
ATOM      8  C8  DEN d   1      -1.309  -0.215   0.519  0.00  0.00    -0.094 A 
ATOM      9  C9  DEN d   1      -0.605  -1.407   0.505  0.00  0.00    -0.072 A 
ENDROOT
TORSDOF 0
ENDMDL
