MODEL 1
REMARK minimizedAffinity -5.40220928
REMARK minimizedRMSD -1
REMARK  0 active torsions:
REMARK  status: ('A' for Active; 'I' for Inactive)
ROOT
ATOM      1  C1  DEN d   1       0.016   0.982  -0.015  0.00  0.00     0.130 A 
ATOM      2  C2  DEN d   1       1.324   0.444  -0.377  0.00  0.00    -0.031 A 
ATOM      3  C3  DEN d   1       1.329  -0.998  -0.058  0.00  0.00     0.027 A 
ATOM      4  C4  DEN d   1      -0.554  -2.444   0.950  0.00  0.00     0.027 A 
ATOM      5  C5  DEN d   1      -1.844  -2.429   1.432  0.00  0.00    -0.003 A 
ATOM      6  C6  DEN d   1      -2.587  -1.280   1.497  0.00  0.00     0.001 A 
ATOM      7  C7  DEN d   1      -2.060  -0.104   1.031  0.00  0.00     0.017 A 
ATOM      8  C8  DEN d   1      -0.758  -0.110   0.549  0.00  0.00    -0.094 A 
ATOM      9  C9  DEN d   1      -0.028  -1.284   0.481  0.00  0.00    -0.072 A 
ENDROOT
TORSDOF 0
ENDMDL
