MODEL 1
REMARK minimizedAffinity -5.11367416
REMARK minimizedRMSD -1
REMARK  0 active torsions:
REMARK  status: ('A' for Active; 'I' for Inactive)
ROOT
ATOM      1  C1  DEN d   1       1.438  -0.490   0.265  0.00  0.00     0.130 A 
ATOM      2  C2  DEN d   1       1.253   0.902  -0.138  0.00  0.00    -0.031 A 
ATOM      3  C3  DEN d   1      -0.198   1.154  -0.255  0.00  0.00     0.027 A 
ATOM      4  C4  DEN d   1      -2.164  -0.465   0.150  0.00  0.00     0.027 A 
ATOM      5  C5  DEN d   1      -2.504  -1.754   0.495  0.00  0.00    -0.003 A 
ATOM      6  C6  DEN d   1      -1.561  -2.714   0.752  0.00  0.00     0.001 A 
ATOM      7  C7  DEN d   1      -0.231  -2.386   0.713  0.00  0.00     0.017 A 
ATOM      8  C8  DEN d   1       0.119  -1.090   0.358  0.00  0.00    -0.094 A 
ATOM      9  C9  DEN d   1      -0.849  -0.131   0.113  0.00  0.00    -0.072 A 
ENDROOT
TORSDOF 0
ENDMDL
