MODEL 1
REMARK minimizedAffinity -4.65996361
REMARK minimizedRMSD -1
REMARK  0 active torsions:
REMARK  status: ('A' for Active; 'I' for Inactive)
ROOT
ATOM      1  C2' OXE d   1       1.132  -2.442   0.411  0.00  0.00     0.078 C 
ATOM      2  C1' OXE d   1       2.856  -0.484  -0.626  0.00  0.00     0.078 C 
ATOM      3  C1  OXE d   1       1.498  -0.041  -0.140  0.00  0.00    -0.078 A 
ATOM      4  C2  OXE d   1       0.644  -1.012   0.322  0.00  0.00    -0.078 A 
ATOM      5  C3  OXE d   1      -0.600  -0.650   0.833  0.00  0.00     0.003 A 
ATOM      6  C4  OXE d   1      -1.047   0.673   0.738  0.00  0.00    -0.002 A 
ATOM      7  C5  OXE d   1      -0.208   1.672   0.233  0.00  0.00    -0.002 A 
ATOM      8  C6  OXE d   1       1.081   1.339  -0.169  0.00  0.00     0.003 A 
ENDROOT
TORSDOF 0
ENDMDL
