MODEL 1
REMARK minimizedAffinity -5.45010424
REMARK minimizedRMSD -1
REMARK  0 active torsions:
REMARK  status: ('A' for Active; 'I' for Inactive)
ROOT
ATOM      1  C2' OXE d   1       1.429  -2.388   0.841  0.00  0.00     0.078 C 
ATOM      2  C1' OXE d   1      -1.044  -1.590   1.902  0.00  0.00     0.078 C 
ATOM      3  C1  OXE d   1      -0.277  -0.589   1.076  0.00  0.00    -0.078 A 
ATOM      4  C2  OXE d   1       0.953  -0.972   0.599  0.00  0.00    -0.078 A 
ATOM      5  C3  OXE d   1       1.678  -0.106  -0.214  0.00  0.00     0.003 A 
ATOM      6  C4  OXE d   1       1.236   1.206  -0.424  0.00  0.00    -0.002 A 
ATOM      7  C5  OXE d   1       0.003   1.630   0.085  0.00  0.00    -0.002 A 
ATOM      8  C6  OXE d   1      -0.783   0.733   0.799  0.00  0.00     0.003 A 
ENDROOT
TORSDOF 0
ENDMDL
