MODEL 1
REMARK minimizedAffinity -4.09269762
REMARK minimizedRMSD -1
REMARK  0 active torsions:
REMARK  status: ('A' for Active; 'I' for Inactive)
ROOT
ATOM      1  C2' OXE d   1       2.535  -0.653   0.018  0.00  0.00     0.078 C 
ATOM      2  C1' OXE d   1       0.901  -2.849   0.638  0.00  0.00     0.078 C 
ATOM      3  C1  OXE d   1       0.304  -1.470   0.764  0.00  0.00    -0.078 A 
ATOM      4  C2  OXE d   1       1.124  -0.399   0.504  0.00  0.00    -0.078 A 
ATOM      5  C3  OXE d   1       0.609   0.893   0.552  0.00  0.00     0.003 A 
ATOM      6  C4  OXE d   1      -0.694   1.119   1.013  0.00  0.00    -0.002 A 
ATOM      7  C5  OXE d   1      -1.535   0.044   1.322  0.00  0.00    -0.002 A 
ATOM      8  C6  OXE d   1      -1.066  -1.255   1.162  0.00  0.00     0.003 A 
ENDROOT
TORSDOF 0
ENDMDL
