MODEL 1
REMARK minimizedAffinity -5.3602438
REMARK minimizedRMSD -1
REMARK  0 active torsions:
REMARK  status: ('A' for Active; 'I' for Inactive)
ROOT
ATOM      1  C2' OXE d   1       1.114  -0.251  -1.069  0.00  0.00     0.078 C 
ATOM      2  C1' OXE d   1       0.912  -2.479   0.626  0.00  0.00     0.078 C 
ATOM      3  C1  OXE d   1       0.031  -1.291   0.918  0.00  0.00    -0.078 A 
ATOM      4  C2  OXE d   1       0.169  -0.187   0.112  0.00  0.00    -0.078 A 
ATOM      5  C3  OXE d   1      -0.658   0.916   0.304  0.00  0.00     0.003 A 
ATOM      6  C4  OXE d   1      -1.522   0.970   1.404  0.00  0.00    -0.002 A 
ATOM      7  C5  OXE d   1      -1.650  -0.128   2.262  0.00  0.00    -0.002 A 
ATOM      8  C6  OXE d   1      -0.914  -1.280   2.008  0.00  0.00     0.003 A 
ENDROOT
TORSDOF 0
ENDMDL
