MODEL 1
REMARK minimizedAffinity -5.04157495
REMARK minimizedRMSD -1
REMARK  0 active torsions:
REMARK  status: ('A' for Active; 'I' for Inactive)
ROOT
ATOM      1  C2' OXE d   1      -0.794  -2.148   1.540  0.00  0.00     0.078 C 
ATOM      2  C1' OXE d   1       1.894  -2.669   0.920  0.00  0.00     0.078 C 
ATOM      3  C1  OXE d   1       1.304  -1.364   0.450  0.00  0.00    -0.078 A 
ATOM      4  C2  OXE d   1      -0.025  -1.137   0.717  0.00  0.00    -0.078 A 
ATOM      5  C3  OXE d   1      -0.605   0.075   0.353  0.00  0.00     0.003 A 
ATOM      6  C4  OXE d   1       0.111   1.000  -0.417  0.00  0.00    -0.002 A 
ATOM      7  C5  OXE d   1       1.454   0.771  -0.734  0.00  0.00    -0.002 A 
ATOM      8  C6  OXE d   1       2.076  -0.383  -0.273  0.00  0.00     0.003 A 
ENDROOT
TORSDOF 0
ENDMDL
