MODEL 1
REMARK minimizedAffinity -3.30823755
REMARK minimizedRMSD -1
REMARK  0 active torsions:
REMARK  status: ('A' for Active; 'I' for Inactive)
ROOT
ATOM      1  C2' OXE d   1       2.254   1.232  -0.475  0.00  0.00     0.078 C 
ATOM      2  C1' OXE d   1      -0.543   1.387  -0.298  0.00  0.00     0.078 C 
ATOM      3  C1  OXE d   1       0.114   0.083   0.078  0.00  0.00    -0.078 A 
ATOM      4  C2  OXE d   1       1.479   0.001  -0.056  0.00  0.00    -0.078 A 
ATOM      5  C3  OXE d   1       2.141  -1.161   0.328  0.00  0.00     0.003 A 
ATOM      6  C4  OXE d   1       1.416  -2.299   0.705  0.00  0.00    -0.002 A 
ATOM      7  C5  OXE d   1       0.022  -2.249   0.810  0.00  0.00    -0.002 A 
ATOM      8  C6  OXE d   1      -0.640  -1.056   0.542  0.00  0.00     0.003 A 
ENDROOT
TORSDOF 0
ENDMDL
