MODEL 1
REMARK minimizedAffinity -4.09680462
REMARK minimizedRMSD -1
REMARK  0 active torsions:
REMARK  status: ('A' for Active; 'I' for Inactive)
ROOT
ATOM      1  C2' OXE d   1      -1.710   0.689   1.136  0.00  0.00     0.078 C 
ATOM      2  C1' OXE d   1      -0.373   1.919  -1.004  0.00  0.00     0.078 C 
ATOM      3  C1  OXE d   1       0.283   0.725  -0.357  0.00  0.00    -0.078 A 
ATOM      4  C2  OXE d   1      -0.356   0.158   0.719  0.00  0.00    -0.078 A 
ATOM      5  C3  OXE d   1       0.179  -0.979   1.318  0.00  0.00     0.003 A 
ATOM      6  C4  OXE d   1       1.437  -1.458   0.933  0.00  0.00    -0.002 A 
ATOM      7  C5  OXE d   1       2.124  -0.871  -0.135  0.00  0.00    -0.002 A 
ATOM      8  C6  OXE d   1       1.542   0.192  -0.817  0.00  0.00     0.003 A 
ENDROOT
TORSDOF 0
ENDMDL
