MODEL 1
REMARK minimizedAffinity -4.52192497
REMARK minimizedRMSD -1
REMARK  0 active torsions:
REMARK  status: ('A' for Active; 'I' for Inactive)
ROOT
ATOM      1  C2' OXE d   1       1.232  -2.512   1.002  0.00  0.00     0.078 C 
ATOM      2  C1' OXE d   1      -1.172  -1.568   2.101  0.00  0.00     0.078 C 
ATOM      3  C1  OXE d   1      -0.519  -0.741   1.022  0.00  0.00    -0.078 A 
ATOM      4  C2  OXE d   1       0.681  -1.186   0.523  0.00  0.00    -0.078 A 
ATOM      5  C3  OXE d   1       1.298  -0.490  -0.513  0.00  0.00     0.003 A 
ATOM      6  C4  OXE d   1       0.787   0.741  -0.943  0.00  0.00    -0.002 A 
ATOM      7  C5  OXE d   1      -0.414   1.233  -0.420  0.00  0.00    -0.002 A 
ATOM      8  C6  OXE d   1      -1.100   0.485   0.531  0.00  0.00     0.003 A 
ENDROOT
TORSDOF 0
ENDMDL
