MODEL 1
REMARK minimizedAffinity -3.61787772
REMARK minimizedRMSD -1
REMARK  0 active torsions:
REMARK  status: ('A' for Active; 'I' for Inactive)
ROOT
ATOM      1  C2' OXE d   1      -0.916   1.343  -0.314  0.00  0.00     0.078 C 
ATOM      2  C1' OXE d   1       1.845   1.405  -0.818  0.00  0.00     0.078 C 
ATOM      3  C1  OXE d   1       1.261   0.132  -0.260  0.00  0.00    -0.078 A 
ATOM      4  C2  OXE d   1      -0.083   0.126   0.028  0.00  0.00    -0.078 A 
ATOM      5  C3  OXE d   1      -0.683  -1.041   0.493  0.00  0.00     0.003 A 
ATOM      6  C4  OXE d   1       0.096  -2.159   0.816  0.00  0.00    -0.002 A 
ATOM      7  C5  OXE d   1       1.472  -2.160   0.568  0.00  0.00    -0.002 A 
ATOM      8  C6  OXE d   1       2.062  -1.040  -0.008  0.00  0.00     0.003 A 
ENDROOT
TORSDOF 0
ENDMDL
