MODEL 1
REMARK minimizedAffinity -4.01933479
REMARK minimizedRMSD -1
REMARK  0 active torsions:
REMARK  status: ('A' for Active; 'I' for Inactive)
ROOT
ATOM      1  C2' OXE d   1       1.509  -2.551   0.630  0.00  0.00     0.078 C 
ATOM      2  C1' OXE d   1      -0.978  -1.717   1.630  0.00  0.00     0.078 C 
ATOM      3  C1  OXE d   1      -0.245  -0.783   0.700  0.00  0.00    -0.078 A 
ATOM      4  C2  OXE d   1       0.993  -1.179   0.252  0.00  0.00    -0.078 A 
ATOM      5  C3  OXE d   1       1.687  -0.380  -0.651  0.00  0.00     0.003 A 
ATOM      6  C4  OXE d   1       1.207   0.891  -0.988  0.00  0.00    -0.002 A 
ATOM      7  C5  OXE d   1      -0.032   1.331  -0.512  0.00  0.00    -0.002 A 
ATOM      8  C6  OXE d   1      -0.789   0.490   0.297  0.00  0.00     0.003 A 
ENDROOT
TORSDOF 0
ENDMDL
