MODEL 1
REMARK minimizedAffinity -4.72177124
REMARK minimizedRMSD -1
REMARK  0 active torsions:
REMARK  status: ('A' for Active; 'I' for Inactive)
ROOT
ATOM      1  C2' OXE d   1       2.558  -0.891  -1.160  0.00  0.00     0.078 C 
ATOM      2  C1' OXE d   1       1.343  -2.958   0.300  0.00  0.00     0.078 C 
ATOM      3  C1  OXE d   1       0.681  -1.603   0.315  0.00  0.00    -0.078 A 
ATOM      4  C2  OXE d   1       1.307  -0.585  -0.364  0.00  0.00    -0.078 A 
ATOM      5  C3  OXE d   1       0.711   0.670  -0.428  0.00  0.00     0.003 A 
ATOM      6  C4  OXE d   1      -0.441   0.947   0.320  0.00  0.00    -0.002 A 
ATOM      7  C5  OXE d   1      -1.073  -0.065   1.050  0.00  0.00    -0.002 A 
ATOM      8  C6  OXE d   1      -0.549  -1.353   1.024  0.00  0.00     0.003 A 
ENDROOT
TORSDOF 0
ENDMDL
