MODEL 1
REMARK minimizedAffinity -5.17970896
REMARK minimizedRMSD -1
REMARK  0 active torsions:
REMARK  status: ('A' for Active; 'I' for Inactive)
ROOT
ATOM      1  C2' OXE d   1      -1.133   1.077   0.161  0.00  0.00     0.078 C 
ATOM      2  C1' OXE d   1      -1.520  -1.118   1.868  0.00  0.00     0.078 C 
ATOM      3  C1  OXE d   1      -0.306  -1.129   0.972  0.00  0.00    -0.078 A 
ATOM      4  C2  OXE d   1      -0.150  -0.073   0.106  0.00  0.00    -0.078 A 
ATOM      5  C3  OXE d   1       0.980  -0.007  -0.703  0.00  0.00     0.003 A 
ATOM      6  C4  OXE d   1       1.879  -1.079  -0.755  0.00  0.00    -0.002 A 
ATOM      7  C5  OXE d   1       1.717  -2.182   0.090  0.00  0.00    -0.002 A 
ATOM      8  C6  OXE d   1       0.655  -2.203   0.987  0.00  0.00     0.003 A 
ENDROOT
TORSDOF 0
ENDMDL
