MODEL 1
REMARK minimizedAffinity -4.38282824
REMARK minimizedRMSD -1
REMARK  0 active torsions:
REMARK  status: ('A' for Active; 'I' for Inactive)
ROOT
ATOM      1  C2' OXE d   1       2.341  -0.516  -0.525  0.00  0.00     0.078 C 
ATOM      2  C1' OXE d   1       1.390  -2.754   0.879  0.00  0.00     0.078 C 
ATOM      3  C1  OXE d   1       0.524  -1.519   0.853  0.00  0.00    -0.078 A 
ATOM      4  C2  OXE d   1       1.018  -0.413   0.204  0.00  0.00    -0.078 A 
ATOM      5  C3  OXE d   1       0.237   0.734   0.103  0.00  0.00     0.003 A 
ATOM      6  C4  OXE d   1      -0.981   0.824   0.789  0.00  0.00    -0.002 A 
ATOM      7  C5  OXE d   1      -1.484  -0.277   1.489  0.00  0.00    -0.002 A 
ATOM      8  C6  OXE d   1      -0.766  -1.467   1.496  0.00  0.00     0.003 A 
ENDROOT
TORSDOF 0
ENDMDL
