MODEL 1
REMARK minimizedAffinity 0.785906434
REMARK minimizedRMSD -1
REMARK  0 active torsions:
REMARK  status: ('A' for Active; 'I' for Inactive)
ROOT
ATOM      1  C2' OXE d   1       2.092   0.334  -0.623  0.00  0.00     0.078 C 
ATOM      2  C1' OXE d   1       1.949  -1.680   1.328  0.00  0.00     0.078 C 
ATOM      3  C1  OXE d   1       0.750  -0.780   1.156  0.00  0.00    -0.078 A 
ATOM      4  C2  OXE d   1       0.847   0.232   0.231  0.00  0.00    -0.078 A 
ATOM      5  C3  OXE d   1      -0.250   1.056  -0.006  0.00  0.00     0.003 A 
ATOM      6  C4  OXE d   1      -1.394   0.961   0.795  0.00  0.00    -0.002 A 
ATOM      7  C5  OXE d   1      -1.498  -0.038   1.769  0.00  0.00    -0.002 A 
ATOM      8  C6  OXE d   1      -0.454  -0.941   1.933  0.00  0.00     0.003 A 
ENDROOT
TORSDOF 0
ENDMDL
