MODEL 1
REMARK minimizedAffinity -4.00708103
REMARK minimizedRMSD -1
REMARK  0 active torsions:
REMARK  status: ('A' for Active; 'I' for Inactive)
ROOT
ATOM      1  C2' OXE d   1       2.155   0.758  -1.232  0.00  0.00     0.078 C 
ATOM      2  C1' OXE d   1      -0.615   1.035  -0.869  0.00  0.00     0.078 C 
ATOM      3  C1  OXE d   1       0.096  -0.031  -0.073  0.00  0.00    -0.078 A 
ATOM      4  C2  OXE d   1       1.443  -0.190  -0.291  0.00  0.00    -0.078 A 
ATOM      5  C3  OXE d   1       2.157  -1.122   0.457  0.00  0.00     0.003 A 
ATOM      6  C4  OXE d   1       1.490  -2.002   1.317  0.00  0.00    -0.002 A 
ATOM      7  C5  OXE d   1       0.111  -1.883   1.524  0.00  0.00    -0.002 A 
ATOM      8  C6  OXE d   1      -0.592  -0.877   0.871  0.00  0.00     0.003 A 
ENDROOT
TORSDOF 0
ENDMDL
