MODEL 1
REMARK minimizedAffinity -2.36807442
REMARK minimizedRMSD -1
REMARK  0 active torsions:
REMARK  status: ('A' for Active; 'I' for Inactive)
ROOT
ATOM      1  C2' OXE d   1      -1.110  -1.206   2.267  0.00  0.00     0.078 C 
ATOM      2  C1' OXE d   1       1.355  -2.140   1.300  0.00  0.00     0.078 C 
ATOM      3  C1  OXE d   1       0.722  -0.966   0.596  0.00  0.00    -0.078 A 
ATOM      4  C2  OXE d   1      -0.506  -0.545   1.046  0.00  0.00    -0.078 A 
ATOM      5  C3  OXE d   1      -1.109   0.568   0.467  0.00  0.00     0.003 A 
ATOM      6  C4  OXE d   1      -0.549   1.167  -0.668  0.00  0.00    -0.002 A 
ATOM      7  C5  OXE d   1       0.682   0.729  -1.168  0.00  0.00    -0.002 A 
ATOM      8  C6  OXE d   1       1.350  -0.307  -0.523  0.00  0.00     0.003 A 
ENDROOT
TORSDOF 0
ENDMDL
