MODEL 1
REMARK minimizedAffinity -4.00949335
REMARK minimizedRMSD -1
REMARK  0 active torsions:
REMARK  status: ('A' for Active; 'I' for Inactive)
ROOT
ATOM      1  C   UNL d   1       0.401  -0.127  -0.610  0.00  0.00     0.078 C 
ATOM      2  C1  UNL d   1      -0.251   1.167  -0.221  0.00  0.00    -0.077 A 
ATOM      3  C2  UNL d   1       0.098   2.368  -0.849  0.00  0.00    -0.001 A 
ATOM      4  C3  UNL d   1      -0.510   3.566  -0.470  0.00  0.00     0.003 A 
ATOM      5  C4  UNL d   1      -1.471   3.574   0.539  0.00  0.00    -0.005 A 
ATOM      6  C5  UNL d   1      -1.823   2.384   1.172  0.00  0.00     0.003 A 
ATOM      7  C6  UNL d   1      -1.216   1.185   0.794  0.00  0.00    -0.001 A 
ENDROOT
TORSDOF 0
ENDMDL
