MODEL 1
REMARK minimizedAffinity -4.76825809
REMARK minimizedRMSD -1
REMARK  0 active torsions:
REMARK  status: ('A' for Active; 'I' for Inactive)
ROOT
ATOM      1  C   UNL d   1       0.930  -1.194  -0.525  0.00  0.00     0.078 C 
ATOM      2  C1  UNL d   1       0.010  -0.167   0.064  0.00  0.00    -0.077 A 
ATOM      3  C2  UNL d   1      -0.466   0.902  -0.706  0.00  0.00    -0.001 A 
ATOM      4  C3  UNL d   1      -1.314   1.856  -0.142  0.00  0.00     0.003 A 
ATOM      5  C4  UNL d   1      -1.694   1.752   1.195  0.00  0.00    -0.005 A 
ATOM      6  C5  UNL d   1      -1.224   0.693   1.970  0.00  0.00     0.003 A 
ATOM      7  C6  UNL d   1      -0.376  -0.262   1.407  0.00  0.00    -0.001 A 
ENDROOT
TORSDOF 0
ENDMDL
