MODEL 1
REMARK minimizedAffinity -4.6699214
REMARK minimizedRMSD -1
REMARK  0 active torsions:
REMARK  status: ('A' for Active; 'I' for Inactive)
ROOT
ATOM      1  C   UNL d   1       1.151  -0.766  -0.996  0.00  0.00     0.078 C 
ATOM      2  C1  UNL d   1       0.149  -0.141  -0.071  0.00  0.00    -0.077 A 
ATOM      3  C2  UNL d   1      -0.397   1.119  -0.344  0.00  0.00    -0.001 A 
ATOM      4  C3  UNL d   1      -1.321   1.693   0.531  0.00  0.00     0.003 A 
ATOM      5  C4  UNL d   1      -1.706   1.014   1.685  0.00  0.00    -0.005 A 
ATOM      6  C5  UNL d   1      -1.166  -0.240   1.966  0.00  0.00     0.003 A 
ATOM      7  C6  UNL d   1      -0.242  -0.815   1.092  0.00  0.00    -0.001 A 
ENDROOT
TORSDOF 0
ENDMDL
