MODEL 1
REMARK minimizedAffinity -3.85323119
REMARK minimizedRMSD -1
REMARK  0 active torsions:
REMARK  status: ('A' for Active; 'I' for Inactive)
ROOT
ATOM      1  C   UNL d   1      -2.330   2.551   1.850  0.00  0.00     0.078 C 
ATOM      2  C1  UNL d   1      -1.467   1.640   1.028  0.00  0.00    -0.077 A 
ATOM      3  C2  UNL d   1      -0.984   2.041  -0.223  0.00  0.00    -0.001 A 
ATOM      4  C3  UNL d   1      -0.190   1.179  -0.982  0.00  0.00     0.003 A 
ATOM      5  C4  UNL d   1       0.126  -0.089  -0.499  0.00  0.00    -0.005 A 
ATOM      6  C5  UNL d   1      -0.352  -0.497   0.745  0.00  0.00     0.003 A 
ATOM      7  C6  UNL d   1      -1.146   0.363   1.505  0.00  0.00    -0.001 A 
ENDROOT
TORSDOF 0
ENDMDL
