MODEL 1
REMARK minimizedAffinity -4.18667984
REMARK minimizedRMSD -1
REMARK  0 active torsions:
REMARK  status: ('A' for Active; 'I' for Inactive)
ROOT
ATOM      1  C   UNL d   1      -2.185   2.035   1.117  0.00  0.00     0.078 C 
ATOM      2  C1  UNL d   1      -1.140   1.055   0.675  0.00  0.00    -0.077 A 
ATOM      3  C2  UNL d   1      -0.518   1.179  -0.573  0.00  0.00    -0.001 A 
ATOM      4  C3  UNL d   1       0.447   0.253  -0.976  0.00  0.00     0.003 A 
ATOM      5  C4  UNL d   1       0.796  -0.803  -0.137  0.00  0.00    -0.005 A 
ATOM      6  C5  UNL d   1       0.180  -0.935   1.106  0.00  0.00     0.003 A 
ATOM      7  C6  UNL d   1      -0.784  -0.011   1.510  0.00  0.00    -0.001 A 
ENDROOT
TORSDOF 0
ENDMDL
