MODEL 1
REMARK minimizedAffinity -2.33234882
REMARK minimizedRMSD -1
REMARK  0 active torsions:
REMARK  status: ('A' for Active; 'I' for Inactive)
ROOT
ATOM      1  C   UNL d   1       0.909  -1.958  -1.321  0.00  0.00     0.078 C 
ATOM      2  C1  UNL d   1       0.401  -0.813  -0.496  0.00  0.00    -0.077 A 
ATOM      3  C2  UNL d   1       0.037  -0.995   0.844  0.00  0.00    -0.001 A 
ATOM      4  C3  UNL d   1      -0.443   0.078   1.597  0.00  0.00     0.003 A 
ATOM      5  C4  UNL d   1      -0.565   1.340   1.019  0.00  0.00    -0.005 A 
ATOM      6  C5  UNL d   1      -0.208   1.530  -0.315  0.00  0.00     0.003 A 
ATOM      7  C6  UNL d   1       0.273   0.458  -1.069  0.00  0.00    -0.001 A 
ENDROOT
TORSDOF 0
ENDMDL
