MODEL 1
REMARK minimizedAffinity -4.96627188
REMARK minimizedRMSD -1
REMARK  0 active torsions:
REMARK  status: ('A' for Active; 'I' for Inactive)
ROOT
ATOM      1  C   UNL d   1      -2.267   2.018   1.097  0.00  0.00     0.078 C 
ATOM      2  C1  UNL d   1      -1.213   1.010   0.749  0.00  0.00    -0.077 A 
ATOM      3  C2  UNL d   1      -0.498   1.100  -0.451  0.00  0.00    -0.001 A 
ATOM      4  C3  UNL d   1       0.474   0.149  -0.766  0.00  0.00     0.003 A 
ATOM      5  C4  UNL d   1       0.739  -0.899   0.113  0.00  0.00    -0.005 A 
ATOM      6  C5  UNL d   1       0.031  -0.997   1.309  0.00  0.00     0.003 A 
ATOM      7  C6  UNL d   1      -0.941  -0.047   1.626  0.00  0.00    -0.001 A 
ENDROOT
TORSDOF 0
ENDMDL
