MODEL 1
REMARK minimizedAffinity -4.44836283
REMARK minimizedRMSD -1
REMARK  0 active torsions:
REMARK  status: ('A' for Active; 'I' for Inactive)
ROOT
ATOM      1  C   UNL d   1      -2.334   2.233   1.219  0.00  0.00     0.078 C 
ATOM      2  C1  UNL d   1      -1.305   1.213   0.833  0.00  0.00    -0.077 A 
ATOM      3  C2  UNL d   1      -0.674   1.263  -0.417  0.00  0.00    -0.001 A 
ATOM      4  C3  UNL d   1       0.275   0.301  -0.767  0.00  0.00     0.003 A 
ATOM      5  C4  UNL d   1       0.601  -0.718   0.126  0.00  0.00    -0.005 A 
ATOM      6  C5  UNL d   1      -0.023  -0.777   1.370  0.00  0.00     0.003 A 
ATOM      7  C6  UNL d   1      -0.972   0.184   1.723  0.00  0.00    -0.001 A 
ENDROOT
TORSDOF 0
ENDMDL
