MODEL 1
REMARK minimizedAffinity -2.07029414
REMARK minimizedRMSD -1
REMARK  0 active torsions:
REMARK  status: ('A' for Active; 'I' for Inactive)
ROOT
ATOM      1  C   UNL d   1       0.425  -0.730   0.009  0.00  0.00     0.078 C 
ATOM      2  C1  UNL d   1      -0.573   0.238   0.572  0.00  0.00    -0.077 A 
ATOM      3  C2  UNL d   1      -0.295   0.965   1.736  0.00  0.00    -0.001 A 
ATOM      4  C3  UNL d   1      -1.238   1.855   2.254  0.00  0.00     0.003 A 
ATOM      5  C4  UNL d   1      -2.464   2.025   1.615  0.00  0.00    -0.005 A 
ATOM      6  C5  UNL d   1      -2.751   1.305   0.458  0.00  0.00     0.003 A 
ATOM      7  C6  UNL d   1      -1.810   0.414  -0.062  0.00  0.00    -0.001 A 
ENDROOT
TORSDOF 0
ENDMDL
