MODEL 1
REMARK minimizedAffinity -5.61965466
REMARK minimizedRMSD -1
REMARK  0 active torsions:
REMARK  status: ('A' for Active; 'I' for Inactive)
ROOT
ATOM      1  C   UNL d   1       0.647  -0.660  -0.772  0.00  0.00     0.078 C 
ATOM      2  C1  UNL d   1      -0.210   0.328  -0.040  0.00  0.00    -0.077 A 
ATOM      3  C2  UNL d   1      -0.842   1.377  -0.718  0.00  0.00    -0.001 A 
ATOM      4  C3  UNL d   1      -1.629   2.296  -0.022  0.00  0.00     0.003 A 
ATOM      5  C4  UNL d   1      -1.790   2.176   1.357  0.00  0.00    -0.005 A 
ATOM      6  C5  UNL d   1      -1.163   1.137   2.041  0.00  0.00     0.003 A 
ATOM      7  C6  UNL d   1      -0.376   0.217   1.347  0.00  0.00    -0.001 A 
ENDROOT
TORSDOF 0
ENDMDL
