MODEL 1
REMARK minimizedAffinity -0.368718088
REMARK minimizedRMSD -1
REMARK  0 active torsions:
REMARK  status: ('A' for Active; 'I' for Inactive)
ROOT
ATOM      1  C   UNL d   1      -0.154  -1.294   1.144  0.00  0.00     0.078 C 
ATOM      2  C1  UNL d   1      -0.032  -0.043   0.326  0.00  0.00    -0.077 A 
ATOM      3  C2  UNL d   1      -0.957   1.000   0.462  0.00  0.00    -0.001 A 
ATOM      4  C3  UNL d   1      -0.837   2.154  -0.313  0.00  0.00     0.003 A 
ATOM      5  C4  UNL d   1       0.205   2.277  -1.230  0.00  0.00    -0.005 A 
ATOM      6  C5  UNL d   1       1.129   1.243  -1.373  0.00  0.00     0.003 A 
ATOM      7  C6  UNL d   1       1.011   0.088  -0.600  0.00  0.00    -0.001 A 
ENDROOT
TORSDOF 0
ENDMDL
