MODEL 1
REMARK minimizedAffinity -1.28134489
REMARK minimizedRMSD -1
REMARK  0 active torsions:
REMARK  status: ('A' for Active; 'I' for Inactive)
ROOT
ATOM      1  C   UNL d   1       0.417  -0.848  -0.408  0.00  0.00     0.078 C 
ATOM      2  C1  UNL d   1      -0.173   0.508  -0.656  0.00  0.00    -0.077 A 
ATOM      3  C2  UNL d   1       0.641   1.599  -0.987  0.00  0.00    -0.001 A 
ATOM      4  C3  UNL d   1       0.079   2.858  -1.205  0.00  0.00     0.003 A 
ATOM      5  C4  UNL d   1      -1.298   3.039  -1.094  0.00  0.00    -0.005 A 
ATOM      6  C5  UNL d   1      -2.115   1.960  -0.762  0.00  0.00     0.003 A 
ATOM      7  C6  UNL d   1      -1.556   0.700  -0.544  0.00  0.00    -0.001 A 
ENDROOT
TORSDOF 0
ENDMDL
