MODEL 1
REMARK minimizedAffinity -4.18641233
REMARK minimizedRMSD -1
REMARK  0 active torsions:
REMARK  status: ('A' for Active; 'I' for Inactive)
ROOT
ATOM      1  C   UNL d   1       0.294  -0.872  -0.449  0.00  0.00     0.078 C 
ATOM      2  C1  UNL d   1      -0.437   0.255   0.216  0.00  0.00    -0.077 A 
ATOM      3  C2  UNL d   1      -1.115   1.220  -0.539  0.00  0.00    -0.001 A 
ATOM      4  C3  UNL d   1      -1.783   2.270   0.093  0.00  0.00     0.003 A 
ATOM      5  C4  UNL d   1      -1.780   2.365   1.484  0.00  0.00    -0.005 A 
ATOM      6  C5  UNL d   1      -1.107   1.410   2.243  0.00  0.00     0.003 A 
ATOM      7  C6  UNL d   1      -0.438   0.360   1.613  0.00  0.00    -0.001 A 
ENDROOT
TORSDOF 0
ENDMDL
