MODEL 1
REMARK minimizedAffinity -3.8175683
REMARK minimizedRMSD -1
REMARK  0 active torsions:
REMARK  status: ('A' for Active; 'I' for Inactive)
ROOT
ATOM      1  C   UNL d   1       0.363  -1.372   0.121  0.00  0.00     0.078 C 
ATOM      2  C1  UNL d   1      -0.044   0.001  -0.321  0.00  0.00    -0.077 A 
ATOM      3  C2  UNL d   1       0.875   0.868  -0.924  0.00  0.00    -0.001 A 
ATOM      4  C3  UNL d   1       0.484   2.147  -1.321  0.00  0.00     0.003 A 
ATOM      5  C4  UNL d   1      -0.827   2.573  -1.118  0.00  0.00    -0.005 A 
ATOM      6  C5  UNL d   1      -1.749   1.719  -0.516  0.00  0.00     0.003 A 
ATOM      7  C6  UNL d   1      -1.360   0.439  -0.118  0.00  0.00    -0.001 A 
ENDROOT
TORSDOF 0
ENDMDL
