MODEL 1
REMARK minimizedAffinity 1.76276755
REMARK minimizedRMSD -1
REMARK  1 active torsions:
REMARK  status: ('A' for Active; 'I' for Inactive)
REMARK    1  A    between atoms: C1_2  and  C2_3 
ROOT
ATOM      1  C2  UNL d   1       0.593   0.022  -1.745  0.00  0.00    -0.073 A 
ATOM      2  C3  UNL d   1       1.075  -0.902  -0.810  0.00  0.00    -0.002 A 
ATOM      3  C4  UNL d   1       1.383  -0.496   0.489  0.00  0.00     0.004 A 
ATOM      4  C5  UNL d   1       1.206   0.835   0.868  0.00  0.00    -0.004 A 
ATOM      5  C6  UNL d   1       0.715   1.770  -0.047  0.00  0.00    -0.075 A 
ATOM      6  C7  UNL d   1       0.521   3.206   0.345  0.00  0.00     0.076 C 
ATOM      7  C8  UNL d   1       0.410   1.355  -1.351  0.00  0.00     0.001 A 
ENDROOT
BRANCH   1   8
ATOM      8  C1  UNL d   1       0.253  -0.414  -3.147  0.00  0.00     0.053 C 
ATOM      9  C   UNL d   1      -1.106   0.104  -3.591  0.00  0.00     0.018 C 
ENDBRANCH   1   8
TORSDOF 1
ENDMDL
