MODEL 1
REMARK minimizedAffinity 5.86412859
REMARK minimizedRMSD -1
REMARK  1 active torsions:
REMARK  status: ('A' for Active; 'I' for Inactive)
REMARK    1  A    between atoms: C1_2  and  C2_3 
ROOT
ATOM      1  C2  UNL d   1       0.214   0.733  -1.692  0.00  0.00    -0.073 A 
ATOM      2  C3  UNL d   1      -0.124   2.019  -1.257  0.00  0.00    -0.002 A 
ATOM      3  C4  UNL d   1       0.202   2.434   0.035  0.00  0.00     0.004 A 
ATOM      4  C5  UNL d   1       0.874   1.572   0.901  0.00  0.00    -0.004 A 
ATOM      5  C6  UNL d   1       1.231   0.287   0.481  0.00  0.00    -0.075 A 
ATOM      6  C7  UNL d   1       1.952  -0.653   1.401  0.00  0.00     0.076 C 
ATOM      7  C8  UNL d   1       0.898  -0.124  -0.817  0.00  0.00     0.001 A 
ENDROOT
BRANCH   1   8
ATOM      8  C1  UNL d   1      -0.130   0.282  -3.088  0.00  0.00     0.053 C 
ATOM      9  C   UNL d   1      -1.608   0.461  -3.397  0.00  0.00     0.018 C 
ENDBRANCH   1   8
TORSDOF 1
ENDMDL
