MODEL 1
REMARK minimizedAffinity 3.46855474
REMARK minimizedRMSD -1
REMARK  1 active torsions:
REMARK  status: ('A' for Active; 'I' for Inactive)
REMARK    1  A    between atoms: C1_2  and  C2_3 
ROOT
ATOM      1  C2  UNL d   1      -3.090   4.319  -4.136  0.00  0.00    -0.073 A 
ATOM      2  C3  UNL d   1      -3.152   5.632  -4.618  0.00  0.00    -0.002 A 
ATOM      3  C4  UNL d   1      -4.126   5.996  -5.548  0.00  0.00     0.004 A 
ATOM      4  C5  UNL d   1      -5.052   5.055  -6.000  0.00  0.00    -0.004 A 
ATOM      5  C6  UNL d   1      -5.013   3.741  -5.521  0.00  0.00    -0.075 A 
ATOM      6  C7  UNL d   1      -5.999   2.716  -5.999  0.00  0.00     0.076 C 
ATOM      7  C8  UNL d   1      -4.030   3.383  -4.589  0.00  0.00     0.001 A 
ENDROOT
BRANCH   1   8
ATOM      8  C1  UNL d   1      -2.043   3.923  -3.127  0.00  0.00     0.053 C 
ATOM      9  C   UNL d   1      -2.233   2.496  -2.638  0.00  0.00     0.018 C 
ENDBRANCH   1   8
TORSDOF 1
ENDMDL
