MODEL 1
REMARK minimizedAffinity 12.3640404
REMARK minimizedRMSD -1
REMARK  1 active torsions:
REMARK  status: ('A' for Active; 'I' for Inactive)
REMARK    1  A    between atoms: C1_2  and  C2_3 
ROOT
ATOM      1  C2  UNL d   1       3.322  -1.517   3.344  0.00  0.00    -0.073 A 
ATOM      2  C3  UNL d   1       2.383  -1.215   4.337  0.00  0.00    -0.002 A 
ATOM      3  C4  UNL d   1       2.602  -1.610   5.658  0.00  0.00     0.004 A 
ATOM      4  C5  UNL d   1       3.762  -2.304   6.000  0.00  0.00    -0.004 A 
ATOM      5  C6  UNL d   1       4.718  -2.604   5.024  0.00  0.00    -0.075 A 
ATOM      6  C7  UNL d   1       5.971  -3.352   5.375  0.00  0.00     0.076 C 
ATOM      7  C8  UNL d   1       4.490  -2.206   3.699  0.00  0.00     0.001 A 
ENDROOT
BRANCH   1   8
ATOM      8  C1  UNL d   1       3.093  -1.086   1.918  0.00  0.00     0.053 C 
ATOM      9  C   UNL d   1       1.617  -1.093   1.551  0.00  0.00     0.018 C 
ENDBRANCH   1   8
TORSDOF 1
ENDMDL
