MODEL 1
REMARK minimizedAffinity 8.56230831
REMARK minimizedRMSD -1
REMARK  1 active torsions:
REMARK  status: ('A' for Active; 'I' for Inactive)
REMARK    1  A    between atoms: C1_2  and  C2_3 
ROOT
ATOM      1  C2  UNL d   1       3.302   4.262   0.964  0.00  0.00    -0.073 A 
ATOM      2  C3  UNL d   1       2.647   3.059   1.250  0.00  0.00    -0.002 A 
ATOM      3  C4  UNL d   1       1.376   2.809   0.731  0.00  0.00     0.004 A 
ATOM      4  C5  UNL d   1       0.751   3.754  -0.082  0.00  0.00    -0.004 A 
ATOM      5  C6  UNL d   1       1.395   4.957  -0.389  0.00  0.00    -0.075 A 
ATOM      6  C7  UNL d   1       0.735   5.985  -1.260  0.00  0.00     0.076 C 
ATOM      7  C8  UNL d   1       2.670   5.203   0.138  0.00  0.00     0.001 A 
ENDROOT
BRANCH   1   8
ATOM      8  C1  UNL d   1       4.678   4.534   1.517  0.00  0.00     0.053 C 
ATOM      9  C   UNL d   1       4.868   5.999   1.876  0.00  0.00     0.018 C 
ENDBRANCH   1   8
TORSDOF 1
ENDMDL
