MODEL 1
REMARK minimizedAffinity -0.326269895
REMARK minimizedRMSD -1
REMARK  1 active torsions:
REMARK  status: ('A' for Active; 'I' for Inactive)
REMARK    1  A    between atoms: C1_2  and  C2_3 
ROOT
ATOM      1  C2  UNL d   1      -5.028   2.359  -4.094  0.00  0.00    -0.073 A 
ATOM      2  C3  UNL d   1      -3.786   2.735  -3.569  0.00  0.00    -0.002 A 
ATOM      3  C4  UNL d   1      -3.261   4.000  -3.836  0.00  0.00     0.004 A 
ATOM      4  C5  UNL d   1      -3.974   4.904  -4.624  0.00  0.00    -0.004 A 
ATOM      5  C6  UNL d   1      -5.222   4.551  -5.148  0.00  0.00    -0.075 A 
ATOM      6  C7  UNL d   1      -6.000   5.511  -5.999  0.00  0.00     0.076 C 
ATOM      7  C8  UNL d   1      -5.741   3.278  -4.877  0.00  0.00     0.001 A 
ENDROOT
BRANCH   1   8
ATOM      8  C1  UNL d   1      -5.601   0.997  -3.803  0.00  0.00     0.053 C 
ATOM      9  C   UNL d   1      -5.957   0.244  -5.076  0.00  0.00     0.018 C 
ENDBRANCH   1   8
TORSDOF 1
ENDMDL
