MODEL 1
REMARK minimizedAffinity 0.185604751
REMARK minimizedRMSD -1
REMARK  1 active torsions:
REMARK  status: ('A' for Active; 'I' for Inactive)
REMARK    1  A    between atoms: C1_2  and  C2_3 
ROOT
ATOM      1  C2  UNL d   1      -5.276   2.630  -5.004  0.00  0.00    -0.073 A 
ATOM      2  C3  UNL d   1      -6.000   3.731  -5.476  0.00  0.00    -0.002 A 
ATOM      3  C4  UNL d   1      -5.334   4.855  -5.967  0.00  0.00     0.004 A 
ATOM      4  C5  UNL d   1      -3.940   4.886  -5.999  0.00  0.00    -0.004 A 
ATOM      5  C6  UNL d   1      -3.199   3.791  -5.543  0.00  0.00    -0.075 A 
ATOM      6  C7  UNL d   1      -1.699   3.810  -5.568  0.00  0.00     0.076 C 
ATOM      7  C8  UNL d   1      -3.875   2.668  -5.048  0.00  0.00     0.001 A 
ENDROOT
BRANCH   1   8
ATOM      8  C1  UNL d   1      -5.991   1.412  -4.478  0.00  0.00     0.053 C 
ATOM      9  C   UNL d   1      -5.955   1.341  -2.960  0.00  0.00     0.018 C 
ENDBRANCH   1   8
TORSDOF 1
ENDMDL
