MODEL 1
REMARK minimizedAffinity -1.16123033
REMARK minimizedRMSD -1
REMARK  1 active torsions:
REMARK  status: ('A' for Active; 'I' for Inactive)
REMARK    1  A    between atoms: C1_2  and  C2_3 
ROOT
ATOM      1  C2  UNL d   1       3.247  -0.772  -0.960  0.00  0.00    -0.077 A 
ATOM      2  C3  UNL d   1       2.280   0.232  -0.811  0.00  0.00     0.002 A 
ATOM      3  C4  UNL d   1       0.928  -0.101  -0.697  0.00  0.00     0.002 A 
ATOM      4  C5  UNL d   1       0.533  -1.436  -0.727  0.00  0.00    -0.004 A 
ATOM      5  C6  UNL d   1       1.487  -2.442  -0.877  0.00  0.00     0.002 A 
ATOM      6  C7  UNL d   1       2.838  -2.112  -0.992  0.00  0.00     0.002 A 
ENDROOT
BRANCH   1   7
ATOM      7  C1  UNL d   1       4.709  -0.419  -1.034  0.00  0.00     0.055 C 
ATOM      8  C   UNL d   1       4.938   0.813  -1.898  0.00  0.00     0.019 C 
ENDBRANCH   1   7
TORSDOF 1
ENDMDL
