MODEL 1
REMARK minimizedAffinity 0.557798326
REMARK minimizedRMSD -1
REMARK  1 active torsions:
REMARK  status: ('A' for Active; 'I' for Inactive)
REMARK    1  A    between atoms: C1_2  and  C2_3 
ROOT
ATOM      1  C2  UNL d   1       4.845  -0.506  -2.043  0.00  0.00    -0.077 A 
ATOM      2  C3  UNL d   1       4.812  -1.407  -3.116  0.00  0.00     0.002 A 
ATOM      3  C4  UNL d   1       3.771  -2.330  -3.231  0.00  0.00     0.002 A 
ATOM      4  C5  UNL d   1       2.754  -2.358  -2.279  0.00  0.00    -0.004 A 
ATOM      5  C6  UNL d   1       2.779  -1.468  -1.207  0.00  0.00     0.002 A 
ATOM      6  C7  UNL d   1       3.820  -0.545  -1.089  0.00  0.00     0.002 A 
ENDROOT
BRANCH   1   7
ATOM      7  C1  UNL d   1       5.941   0.523  -1.944  0.00  0.00     0.055 C 
ATOM      8  C   UNL d   1       5.607   1.589  -0.910  0.00  0.00     0.019 C 
ENDBRANCH   1   7
TORSDOF 1
ENDMDL
