MODEL 1
REMARK minimizedAffinity -5.02102804
REMARK minimizedRMSD -1
REMARK  1 active torsions:
REMARK  status: ('A' for Active; 'I' for Inactive)
REMARK    1  A    between atoms: C1_2  and  C2_3 
ROOT
ATOM      1  C2  UNL d   1       2.097  -0.649  -1.090  0.00  0.00    -0.077 A 
ATOM      2  C3  UNL d   1       2.382  -2.011  -1.258  0.00  0.00     0.002 A 
ATOM      3  C4  UNL d   1       1.351  -2.927  -1.475  0.00  0.00     0.002 A 
ATOM      4  C5  UNL d   1       0.029  -2.490  -1.531  0.00  0.00    -0.004 A 
ATOM      5  C6  UNL d   1      -0.265  -1.137  -1.363  0.00  0.00     0.002 A 
ATOM      6  C7  UNL d   1       0.764  -0.220  -1.145  0.00  0.00     0.002 A 
ENDROOT
BRANCH   1   7
ATOM      7  C1  UNL d   1       3.212   0.347  -0.904  0.00  0.00     0.055 C 
ATOM      8  C   UNL d   1       4.407   0.011  -1.785  0.00  0.00     0.019 C 
ENDBRANCH   1   7
TORSDOF 1
ENDMDL
