MODEL 1
REMARK minimizedAffinity 2.48117518
REMARK minimizedRMSD -1
REMARK  1 active torsions:
REMARK  status: ('A' for Active; 'I' for Inactive)
REMARK    1  A    between atoms: C1_2  and  C2_3 
ROOT
ATOM      1  C2  UNL d   1       2.168  -0.067  -0.839  0.00  0.00    -0.077 A 
ATOM      2  C3  UNL d   1       2.440  -1.397  -1.189  0.00  0.00     0.002 A 
ATOM      3  C4  UNL d   1       1.408  -2.335  -1.255  0.00  0.00     0.002 A 
ATOM      4  C5  UNL d   1       0.097  -1.952  -0.976  0.00  0.00    -0.004 A 
ATOM      5  C6  UNL d   1      -0.183  -0.632  -0.625  0.00  0.00     0.002 A 
ATOM      6  C7  UNL d   1       0.848   0.307  -0.557  0.00  0.00     0.002 A 
ENDROOT
BRANCH   1   7
ATOM      7  C1  UNL d   1       3.273   0.957  -0.815  0.00  0.00     0.055 C 
ATOM      8  C   UNL d   1       4.515   0.448  -1.530  0.00  0.00     0.019 C 
ENDBRANCH   1   7
TORSDOF 1
ENDMDL
