MODEL 1
REMARK minimizedAffinity -3.22764015
REMARK minimizedRMSD -1
REMARK  0 active torsions:
REMARK  status: ('A' for Active; 'I' for Inactive)
ROOT
ATOM      1  C   UNL d   1       1.795   1.502  -3.509  0.00  0.00     0.078 C 
ATOM      2  C1  UNL d   1       1.457   0.537  -2.412  0.00  0.00    -0.077 A 
ATOM      3  C2  UNL d   1       2.051  -0.729  -2.357  0.00  0.00    -0.001 A 
ATOM      4  C3  UNL d   1       1.720  -1.621  -1.335  0.00  0.00     0.003 A 
ATOM      5  C4  UNL d   1       0.793  -1.255  -0.361  0.00  0.00    -0.005 A 
ATOM      6  C5  UNL d   1       0.195   0.002  -0.409  0.00  0.00     0.003 A 
ATOM      7  C6  UNL d   1       0.525   0.895  -1.430  0.00  0.00    -0.001 A 
ENDROOT
TORSDOF 0
ENDMDL
