MODEL 1
REMARK minimizedAffinity -3.20009327
REMARK minimizedRMSD -1
REMARK  0 active torsions:
REMARK  status: ('A' for Active; 'I' for Inactive)
ROOT
ATOM      1  C   UNL d   1      -1.889   1.173   2.901  0.00  0.00     0.078 C 
ATOM      2  C1  UNL d   1      -2.871   0.078   3.192  0.00  0.00    -0.077 A 
ATOM      3  C2  UNL d   1      -3.729  -0.405   2.196  0.00  0.00    -0.001 A 
ATOM      4  C3  UNL d   1      -4.645  -1.418   2.484  0.00  0.00     0.003 A 
ATOM      5  C4  UNL d   1      -4.712  -1.956   3.767  0.00  0.00    -0.005 A 
ATOM      6  C5  UNL d   1      -3.864  -1.481   4.765  0.00  0.00     0.003 A 
ATOM      7  C6  UNL d   1      -2.948  -0.468   4.479  0.00  0.00    -0.001 A 
ENDROOT
TORSDOF 0
ENDMDL
