MODEL 1
REMARK minimizedAffinity -2.71395278
REMARK minimizedRMSD -1
REMARK  0 active torsions:
REMARK  status: ('A' for Active; 'I' for Inactive)
ROOT
ATOM      1  C   UNL d   1      -1.877   0.125   1.223  0.00  0.00     0.078 C 
ATOM      2  C1  UNL d   1      -0.730  -0.438   0.439  0.00  0.00    -0.077 A 
ATOM      3  C2  UNL d   1      -0.343  -1.776   0.585  0.00  0.00    -0.001 A 
ATOM      4  C3  UNL d   1       0.734  -2.283  -0.145  0.00  0.00     0.003 A 
ATOM      5  C4  UNL d   1       1.432  -1.460  -1.025  0.00  0.00    -0.005 A 
ATOM      6  C5  UNL d   1       1.056  -0.127  -1.176  0.00  0.00     0.003 A 
ATOM      7  C6  UNL d   1      -0.020   0.383  -0.447  0.00  0.00    -0.001 A 
ENDROOT
TORSDOF 0
ENDMDL
