MODEL 1
REMARK minimizedAffinity -2.11078739
REMARK minimizedRMSD -1
REMARK  0 active torsions:
REMARK  status: ('A' for Active; 'I' for Inactive)
ROOT
ATOM      1  C   UNL d   1      -0.731  -0.220   0.008  0.00  0.00     0.078 C 
ATOM      2  C1  UNL d   1      -1.290   0.456   1.224  0.00  0.00    -0.077 A 
ATOM      3  C2  UNL d   1      -0.833   1.718   1.621  0.00  0.00    -0.001 A 
ATOM      4  C3  UNL d   1      -1.355   2.332   2.761  0.00  0.00     0.003 A 
ATOM      5  C4  UNL d   1      -2.337   1.690   3.513  0.00  0.00    -0.005 A 
ATOM      6  C5  UNL d   1      -2.797   0.432   3.126  0.00  0.00     0.003 A 
ATOM      7  C6  UNL d   1      -2.275  -0.182   1.987  0.00  0.00    -0.001 A 
ENDROOT
TORSDOF 0
ENDMDL
