MODEL 1
REMARK minimizedAffinity -4.53879595
REMARK minimizedRMSD -1
REMARK  0 active torsions:
REMARK  status: ('A' for Active; 'I' for Inactive)
ROOT
ATOM      1  C   UNL d   1       2.580  -0.811  -0.716  0.00  0.00     0.078 C 
ATOM      2  C1  UNL d   1       1.127  -0.609  -0.404  0.00  0.00    -0.077 A 
ATOM      3  C2  UNL d   1       0.284  -1.699  -0.159  0.00  0.00    -0.001 A 
ATOM      4  C3  UNL d   1      -1.069  -1.497   0.121  0.00  0.00     0.003 A 
ATOM      5  C4  UNL d   1      -1.590  -0.205   0.157  0.00  0.00    -0.005 A 
ATOM      6  C5  UNL d   1      -0.758   0.886  -0.088  0.00  0.00     0.003 A 
ATOM      7  C6  UNL d   1       0.594   0.686  -0.368  0.00  0.00    -0.001 A 
ENDROOT
TORSDOF 0
ENDMDL
