MODEL 1
REMARK minimizedAffinity -5.01451349
REMARK minimizedRMSD -1
REMARK  0 active torsions:
REMARK  status: ('A' for Active; 'I' for Inactive)
ROOT
ATOM      1  C   UNL d   1       2.964  -0.915  -1.198  0.00  0.00     0.078 C 
ATOM      2  C1  UNL d   1       1.531  -0.728  -0.798  0.00  0.00    -0.077 A 
ATOM      3  C2  UNL d   1       0.999   0.551  -0.595  0.00  0.00    -0.001 A 
ATOM      4  C3  UNL d   1      -0.334   0.709  -0.213  0.00  0.00     0.003 A 
ATOM      5  C4  UNL d   1      -1.147  -0.408  -0.029  0.00  0.00    -0.005 A 
ATOM      6  C5  UNL d   1      -0.626  -1.685  -0.226  0.00  0.00     0.003 A 
ATOM      7  C6  UNL d   1       0.707  -1.845  -0.608  0.00  0.00    -0.001 A 
ENDROOT
TORSDOF 0
ENDMDL
