MODEL 1
REMARK minimizedAffinity -5.28605413
REMARK minimizedRMSD -1
REMARK  0 active torsions:
REMARK  status: ('A' for Active; 'I' for Inactive)
ROOT
ATOM      1  C   UNL d   1      -1.066   0.343   0.251  0.00  0.00     0.078 C 
ATOM      2  C1  UNL d   1       0.349   0.165  -0.212  0.00  0.00    -0.077 A 
ATOM      3  C2  UNL d   1       0.936  -1.106  -0.262  0.00  0.00    -0.001 A 
ATOM      4  C3  UNL d   1       2.258  -1.256  -0.686  0.00  0.00     0.003 A 
ATOM      5  C4  UNL d   1       3.004  -0.140  -1.061  0.00  0.00    -0.005 A 
ATOM      6  C5  UNL d   1       2.429   1.128  -1.012  0.00  0.00     0.003 A 
ATOM      7  C6  UNL d   1       1.107   1.280  -0.589  0.00  0.00    -0.001 A 
ENDROOT
TORSDOF 0
ENDMDL
