MODEL 1
REMARK minimizedAffinity -5.42940807
REMARK minimizedRMSD -1
REMARK  0 active torsions:
REMARK  status: ('A' for Active; 'I' for Inactive)
ROOT
ATOM      1  C   UNL d   1      -0.494   0.366   0.017  0.00  0.00     0.078 C 
ATOM      2  C1  UNL d   1       0.753   0.383  -0.815  0.00  0.00    -0.077 A 
ATOM      3  C2  UNL d   1       1.041   1.461  -1.661  0.00  0.00    -0.001 A 
ATOM      4  C3  UNL d   1       2.201   1.458  -2.438  0.00  0.00     0.003 A 
ATOM      5  C4  UNL d   1       3.082   0.380  -2.377  0.00  0.00    -0.005 A 
ATOM      6  C5  UNL d   1       2.802  -0.698  -1.539  0.00  0.00     0.003 A 
ATOM      7  C6  UNL d   1       1.643  -0.697  -0.762  0.00  0.00    -0.001 A 
ENDROOT
TORSDOF 0
ENDMDL
