MODEL 1
REMARK minimizedAffinity -3.16296053
REMARK minimizedRMSD -1
REMARK  0 active torsions:
REMARK  status: ('A' for Active; 'I' for Inactive)
ROOT
ATOM      1  C   UNL d   1       1.340   1.995  -2.541  0.00  0.00     0.078 C 
ATOM      2  C1  UNL d   1       0.925   0.749  -1.818  0.00  0.00    -0.077 A 
ATOM      3  C2  UNL d   1      -0.232   0.724  -1.030  0.00  0.00    -0.001 A 
ATOM      4  C3  UNL d   1      -0.601  -0.440  -0.354  0.00  0.00     0.003 A 
ATOM      5  C4  UNL d   1       0.182  -1.588  -0.459  0.00  0.00    -0.005 A 
ATOM      6  C5  UNL d   1       1.336  -1.572  -1.238  0.00  0.00     0.003 A 
ATOM      7  C6  UNL d   1       1.707  -0.409  -1.915  0.00  0.00    -0.001 A 
ENDROOT
TORSDOF 0
ENDMDL
