MODEL 1
REMARK minimizedAffinity -5.00093365
REMARK minimizedRMSD -1
REMARK  0 active torsions:
REMARK  status: ('A' for Active; 'I' for Inactive)
ROOT
ATOM      1  C   UNL d   1       2.601   0.741  -1.946  0.00  0.00     0.078 C 
ATOM      2  C1  UNL d   1       1.536   0.076  -1.126  0.00  0.00    -0.077 A 
ATOM      3  C2  UNL d   1       1.650  -1.268  -0.750  0.00  0.00    -0.001 A 
ATOM      4  C3  UNL d   1       0.645  -1.877   0.004  0.00  0.00     0.003 A 
ATOM      5  C4  UNL d   1      -0.480  -1.150   0.388  0.00  0.00    -0.005 A 
ATOM      6  C5  UNL d   1      -0.603   0.187   0.016  0.00  0.00     0.003 A 
ATOM      7  C6  UNL d   1       0.400   0.798  -0.738  0.00  0.00    -0.001 A 
ENDROOT
TORSDOF 0
ENDMDL
