MODEL 1
REMARK minimizedAffinity -5.25740528
REMARK minimizedRMSD -1
REMARK  0 active torsions:
REMARK  status: ('A' for Active; 'I' for Inactive)
ROOT
ATOM      1  C   UNL d   1       2.692  -0.051  -1.319  0.00  0.00     0.078 C 
ATOM      2  C1  UNL d   1       1.257   0.207  -0.970  0.00  0.00    -0.077 A 
ATOM      3  C2  UNL d   1       0.487  -0.765  -0.320  0.00  0.00    -0.001 A 
ATOM      4  C3  UNL d   1      -0.851  -0.514  -0.010  0.00  0.00     0.003 A 
ATOM      5  C4  UNL d   1      -1.431   0.707  -0.348  0.00  0.00    -0.005 A 
ATOM      6  C5  UNL d   1      -0.673   1.679  -0.997  0.00  0.00     0.003 A 
ATOM      7  C6  UNL d   1       0.665   1.431  -1.308  0.00  0.00    -0.001 A 
ENDROOT
TORSDOF 0
ENDMDL
