MODEL 1
REMARK minimizedAffinity -4.97149849
REMARK minimizedRMSD -1
REMARK  0 active torsions:
REMARK  status: ('A' for Active; 'I' for Inactive)
ROOT
ATOM      1  C   UNL d   1       3.054  -0.351  -0.800  0.00  0.00     0.078 C 
ATOM      2  C1  UNL d   1       1.597  -0.224  -0.472  0.00  0.00    -0.077 A 
ATOM      3  C2  UNL d   1       0.930   0.999  -0.609  0.00  0.00    -0.001 A 
ATOM      4  C3  UNL d   1      -0.425   1.105  -0.291  0.00  0.00     0.003 A 
ATOM      5  C4  UNL d   1      -1.125  -0.009   0.168  0.00  0.00    -0.005 A 
ATOM      6  C5  UNL d   1      -0.469  -1.231   0.311  0.00  0.00     0.003 A 
ATOM      7  C6  UNL d   1       0.886  -1.338  -0.007  0.00  0.00    -0.001 A 
ENDROOT
TORSDOF 0
ENDMDL
