MODEL 1
REMARK minimizedAffinity -2.89821649
REMARK minimizedRMSD -1
REMARK  0 active torsions:
REMARK  status: ('A' for Active; 'I' for Inactive)
ROOT
ATOM      1  C   UNL d   1       2.614   0.170  -0.795  0.00  0.00     0.078 C 
ATOM      2  C1  UNL d   1       1.154   0.508  -0.760  0.00  0.00    -0.077 A 
ATOM      3  C2  UNL d   1       0.676   1.698  -1.322  0.00  0.00    -0.001 A 
ATOM      4  C3  UNL d   1      -0.685   2.005  -1.274  0.00  0.00     0.003 A 
ATOM      5  C4  UNL d   1      -1.579   1.127  -0.663  0.00  0.00    -0.005 A 
ATOM      6  C5  UNL d   1      -1.112  -0.058  -0.100  0.00  0.00     0.003 A 
ATOM      7  C6  UNL d   1       0.248  -0.367  -0.147  0.00  0.00    -0.001 A 
ENDROOT
TORSDOF 0
ENDMDL
