MODEL 1
REMARK minimizedAffinity -4.12188625
REMARK minimizedRMSD -1
REMARK  0 active torsions:
REMARK  status: ('A' for Active; 'I' for Inactive)
ROOT
ATOM      1  C   UNL d   1      -0.469   1.156   0.404  0.00  0.00     0.078 C 
ATOM      2  C1  UNL d   1       0.700   0.874  -0.492  0.00  0.00    -0.077 A 
ATOM      3  C2  UNL d   1       1.074   1.778  -1.495  0.00  0.00    -0.001 A 
ATOM      4  C3  UNL d   1       2.158   1.498  -2.328  0.00  0.00     0.003 A 
ATOM      5  C4  UNL d   1       2.876   0.314  -2.169  0.00  0.00    -0.005 A 
ATOM      6  C5  UNL d   1       2.510  -0.592  -1.176  0.00  0.00     0.003 A 
ATOM      7  C6  UNL d   1       1.426  -0.314  -0.341  0.00  0.00    -0.001 A 
ENDROOT
TORSDOF 0
ENDMDL
