MODEL 1
REMARK minimizedAffinity -4.15927935
REMARK minimizedRMSD -1
REMARK  0 active torsions:
REMARK  status: ('A' for Active; 'I' for Inactive)
ROOT
ATOM      1  C   UNL d   1       3.438  -0.085  -1.502  0.00  0.00     0.078 C 
ATOM      2  C1  UNL d   1       1.995  -0.212  -1.113  0.00  0.00    -0.077 A 
ATOM      3  C2  UNL d   1       1.492  -1.410  -0.592  0.00  0.00    -0.001 A 
ATOM      4  C3  UNL d   1       0.144  -1.517  -0.243  0.00  0.00     0.003 A 
ATOM      5  C4  UNL d   1      -0.711  -0.430  -0.413  0.00  0.00    -0.005 A 
ATOM      6  C5  UNL d   1      -0.219   0.765  -0.933  0.00  0.00     0.003 A 
ATOM      7  C6  UNL d   1       1.128   0.874  -1.282  0.00  0.00    -0.001 A 
ENDROOT
TORSDOF 0
ENDMDL
