MODEL 1
REMARK minimizedAffinity -5.7920208
REMARK minimizedRMSD -1
REMARK  0 active torsions:
REMARK  status: ('A' for Active; 'I' for Inactive)
ROOT
ATOM      1  C   UNL d   1      -1.147   0.395   0.275  0.00  0.00     0.078 C 
ATOM      2  C1  UNL d   1       0.132   0.406  -0.508  0.00  0.00    -0.077 A 
ATOM      3  C2  UNL d   1       0.460   1.485  -1.338  0.00  0.00    -0.001 A 
ATOM      4  C3  UNL d   1       1.649   1.478  -2.068  0.00  0.00     0.003 A 
ATOM      5  C4  UNL d   1       2.519   0.393  -1.978  0.00  0.00    -0.005 A 
ATOM      6  C5  UNL d   1       2.200  -0.687  -1.157  0.00  0.00     0.003 A 
ATOM      7  C6  UNL d   1       1.011  -0.681  -0.426  0.00  0.00    -0.001 A 
ENDROOT
TORSDOF 0
ENDMDL
