MODEL 1
REMARK minimizedAffinity -4.91167164
REMARK minimizedRMSD -1
REMARK  0 active torsions:
REMARK  status: ('A' for Active; 'I' for Inactive)
ROOT
ATOM      1  C   UNL d   1       3.216  -0.388  -0.878  0.00  0.00     0.078 C 
ATOM      2  C1  UNL d   1       1.740  -0.434  -0.617  0.00  0.00    -0.077 A 
ATOM      3  C2  UNL d   1       0.982   0.742  -0.552  0.00  0.00    -0.001 A 
ATOM      4  C3  UNL d   1      -0.389   0.684  -0.300  0.00  0.00     0.003 A 
ATOM      5  C4  UNL d   1      -1.015  -0.546  -0.109  0.00  0.00    -0.005 A 
ATOM      6  C5  UNL d   1      -0.268  -1.721  -0.169  0.00  0.00     0.003 A 
ATOM      7  C6  UNL d   1       1.103  -1.666  -0.422  0.00  0.00    -0.001 A 
ENDROOT
TORSDOF 0
ENDMDL
