MODEL 1
REMARK minimizedAffinity 4.06757355
REMARK minimizedRMSD -1
REMARK  0 active torsions:
REMARK  status: ('A' for Active; 'I' for Inactive)
ROOT
ATOM      1  C   UNL d   1       3.026  -1.197  -1.589  0.00  0.00     0.172 C 
ATOM      2  N   UNL d   1       3.914  -0.144  -1.152  0.00  0.00    -0.070 N 
ATOM      3  C1  UNL d   1       4.633   0.685  -1.971  0.00  0.00    -0.004 A 
ATOM      4  C2  UNL d   1       5.352   1.547  -1.172  0.00  0.00    -0.047 A 
ATOM      5  C3  UNL d   1       5.056   1.225   0.173  0.00  0.00    -0.047 A 
ATOM      6  C4  UNL d   1       4.163   0.174   0.157  0.00  0.00    -0.004 A 
ENDROOT
TORSDOF 0
ENDMDL
