MODEL 1
REMARK minimizedAffinity 7.23772717
REMARK minimizedRMSD -1
REMARK  0 active torsions:
REMARK  status: ('A' for Active; 'I' for Inactive)
ROOT
ATOM      1  C   UNL d   1      -4.835   4.004  -4.066  0.00  0.00     0.172 C 
ATOM      2  N   UNL d   1      -5.195   2.624  -3.842  0.00  0.00    -0.070 N 
ATOM      3  C1  UNL d   1      -4.969   1.589  -4.709  0.00  0.00    -0.004 A 
ATOM      4  C2  UNL d   1      -5.457   0.438  -4.129  0.00  0.00    -0.047 A 
ATOM      5  C3  UNL d   1      -5.997   0.794  -2.870  0.00  0.00    -0.047 A 
ATOM      6  C4  UNL d   1      -5.821   2.153  -2.718  0.00  0.00    -0.004 A 
ENDROOT
TORSDOF 0
ENDMDL
