MODEL 1
REMARK minimizedAffinity 4.98029089
REMARK minimizedRMSD -1
REMARK  0 active torsions:
REMARK  status: ('A' for Active; 'I' for Inactive)
ROOT
ATOM      1  C   UNL d   1       3.378  -1.893  -1.124  0.00  0.00     0.172 C 
ATOM      2  N   UNL d   1       4.208  -0.755  -0.805  0.00  0.00    -0.070 N 
ATOM      3  C1  UNL d   1       3.769   0.531  -0.636  0.00  0.00    -0.004 A 
ATOM      4  C2  UNL d   1       4.863   1.316  -0.344  0.00  0.00    -0.047 A 
ATOM      5  C3  UNL d   1       6.000   0.472  -0.338  0.00  0.00    -0.047 A 
ATOM      6  C4  UNL d   1       5.565  -0.804  -0.626  0.00  0.00    -0.004 A 
ENDROOT
TORSDOF 0
ENDMDL
