MODEL 1
REMARK minimizedAffinity 6.38182163
REMARK minimizedRMSD -1
REMARK  0 active torsions:
REMARK  status: ('A' for Active; 'I' for Inactive)
ROOT
ATOM      1  C   UNL d   1       2.792  -1.853  -1.423  0.00  0.00     0.172 C 
ATOM      2  N   UNL d   1       3.377  -0.567  -1.122  0.00  0.00    -0.070 N 
ATOM      3  C1  UNL d   1       2.850   0.371  -0.275  0.00  0.00    -0.004 A 
ATOM      4  C2  UNL d   1       3.705   1.452  -0.259  0.00  0.00    -0.047 A 
ATOM      5  C3  UNL d   1       4.782   1.154  -1.128  0.00  0.00    -0.047 A 
ATOM      6  C4  UNL d   1       4.553  -0.102  -1.648  0.00  0.00    -0.004 A 
ENDROOT
TORSDOF 0
ENDMDL
