MODEL 1
REMARK minimizedAffinity 4.26961613
REMARK minimizedRMSD -1
REMARK  0 active torsions:
REMARK  status: ('A' for Active; 'I' for Inactive)
ROOT
ATOM      1  C   UNL d   1       0.291  -2.208  -0.905  0.00  0.00     0.172 C 
ATOM      2  N   UNL d   1       0.259  -0.851  -0.412  0.00  0.00    -0.070 N 
ATOM      3  C1  UNL d   1      -0.575   0.140  -0.857  0.00  0.00    -0.004 A 
ATOM      4  C2  UNL d   1      -0.296   1.282  -0.137  0.00  0.00    -0.047 A 
ATOM      5  C3  UNL d   1       0.743   0.966   0.771  0.00  0.00    -0.047 A 
ATOM      6  C4  UNL d   1       1.067  -0.360   0.579  0.00  0.00    -0.004 A 
ENDROOT
TORSDOF 0
ENDMDL
