MODEL 1
REMARK minimizedAffinity 8.76964378
REMARK minimizedRMSD -1
REMARK  0 active torsions:
REMARK  status: ('A' for Active; 'I' for Inactive)
ROOT
ATOM      1  C   UNL d   1       2.346  -2.367  -2.220  0.00  0.00     0.172 C 
ATOM      2  N   UNL d   1       3.011  -1.241  -1.607  0.00  0.00    -0.070 N 
ATOM      3  C1  UNL d   1       3.677  -0.247  -2.274  0.00  0.00    -0.004 A 
ATOM      4  C2  UNL d   1       4.167   0.635  -1.336  0.00  0.00    -0.047 A 
ATOM      5  C3  UNL d   1       3.783   0.155  -0.061  0.00  0.00    -0.047 A 
ATOM      6  C4  UNL d   1       3.068  -1.007  -0.259  0.00  0.00    -0.004 A 
ENDROOT
TORSDOF 0
ENDMDL
