MODEL 1
REMARK minimizedAffinity 14.353363
REMARK minimizedRMSD -1
REMARK  0 active torsions:
REMARK  status: ('A' for Active; 'I' for Inactive)
ROOT
ATOM      1  C   UNL d   1      -5.207  -6.000  -5.505  0.00  0.00     0.020 A 
ATOM      2  C1  UNL d   1      -5.922  -5.740  -4.336  0.00  0.00     0.020 A 
ATOM      3  C2  UNL d   1      -5.742  -4.531  -3.662  0.00  0.00     0.034 A 
ATOM      4  C3  UNL d   1      -4.844  -3.576  -4.155  0.00  0.00     0.017 A 
ATOM      5  C4  UNL d   1      -4.127  -3.838  -5.328  0.00  0.00     0.017 A 
ATOM      6  C5  UNL d   1      -4.312  -5.051  -6.000  0.00  0.00     0.034 A 
ATOM      7 Cl   UNL d   1      -3.002  -2.710  -5.998  0.00  0.00    -0.070 Cl
ATOM      8 Cl1  UNL d   1      -4.671  -2.103  -3.270  0.00  0.00    -0.070 Cl
ENDROOT
TORSDOF 0
ENDMDL
