MODEL 1
REMARK minimizedAffinity 6.21112299
REMARK minimizedRMSD -1
REMARK  0 active torsions:
REMARK  status: ('A' for Active; 'I' for Inactive)
ROOT
ATOM      1  C   UNL d   1      -5.999  -4.131  -6.000  0.00  0.00     0.020 A 
ATOM      2  C1  UNL d   1      -5.610  -5.469  -6.000  0.00  0.00     0.020 A 
ATOM      3  C2  UNL d   1      -4.746  -5.945  -5.011  0.00  0.00     0.034 A 
ATOM      4  C3  UNL d   1      -4.269  -5.082  -4.018  0.00  0.00     0.017 A 
ATOM      5  C4  UNL d   1      -4.661  -3.738  -4.019  0.00  0.00     0.017 A 
ATOM      6  C5  UNL d   1      -5.526  -3.267  -5.011  0.00  0.00     0.034 A 
ATOM      7 Cl   UNL d   1      -4.114  -2.613  -2.826  0.00  0.00    -0.070 Cl
ATOM      8 Cl1  UNL d   1      -3.204  -5.738  -2.826  0.00  0.00    -0.070 Cl
ENDROOT
TORSDOF 0
ENDMDL
