MODEL 1
REMARK minimizedAffinity -0.352077931
REMARK minimizedRMSD -1
REMARK  0 active torsions:
REMARK  status: ('A' for Active; 'I' for Inactive)
ROOT
ATOM      1  C   UNL d   1       5.445   1.930  -6.000  0.00  0.00     0.020 A 
ATOM      2  C1  UNL d   1       4.203   2.170  -5.413  0.00  0.00     0.020 A 
ATOM      3  C2  UNL d   1       3.493   1.121  -4.825  0.00  0.00     0.034 A 
ATOM      4  C3  UNL d   1       4.025  -0.174  -4.823  0.00  0.00     0.017 A 
ATOM      5  C4  UNL d   1       5.272  -0.414  -5.412  0.00  0.00     0.017 A 
ATOM      6  C5  UNL d   1       5.978   0.640  -5.999  0.00  0.00     0.034 A 
ATOM      7 Cl   UNL d   1       5.993  -1.985  -5.448  0.00  0.00    -0.070 Cl
ATOM      8 Cl1  UNL d   1       3.093  -1.424  -4.078  0.00  0.00    -0.070 Cl
ENDROOT
TORSDOF 0
ENDMDL
