MODEL 1
REMARK minimizedAffinity 0.41059044
REMARK minimizedRMSD -1
REMARK  0 active torsions:
REMARK  status: ('A' for Active; 'I' for Inactive)
ROOT
ATOM      1  C   UNL d   1       5.948   5.672  -5.086  0.00  0.00     0.020 A 
ATOM      2  C1  UNL d   1       4.931   4.900  -5.644  0.00  0.00     0.020 A 
ATOM      3  C2  UNL d   1       3.875   4.454  -4.846  0.00  0.00     0.034 A 
ATOM      4  C3  UNL d   1       3.834   4.781  -3.486  0.00  0.00     0.017 A 
ATOM      5  C4  UNL d   1       4.856   5.556  -2.927  0.00  0.00     0.017 A 
ATOM      6  C5  UNL d   1       5.911   6.000  -3.731  0.00  0.00     0.034 A 
ATOM      7 Cl   UNL d   1       4.875   6.000  -1.257  0.00  0.00    -0.070 Cl
ATOM      8 Cl1  UNL d   1       2.498   4.196  -2.559  0.00  0.00    -0.070 Cl
ENDROOT
TORSDOF 0
ENDMDL
