MODEL 1
REMARK minimizedAffinity 4.5756731
REMARK minimizedRMSD -1
REMARK  0 active torsions:
REMARK  status: ('A' for Active; 'I' for Inactive)
ROOT
ATOM      1  C   UNL d   1       1.275  -2.141   2.711  0.00  0.00     0.020 A 
ATOM      2  C1  UNL d   1       0.751  -1.032   2.048  0.00  0.00     0.020 A 
ATOM      3  C2  UNL d   1       1.574  -0.253   1.232  0.00  0.00     0.034 A 
ATOM      4  C3  UNL d   1       2.926  -0.582   1.077  0.00  0.00     0.017 A 
ATOM      5  C4  UNL d   1       3.451  -1.695   1.743  0.00  0.00     0.017 A 
ATOM      6  C5  UNL d   1       2.622  -2.472   2.559  0.00  0.00     0.034 A 
ATOM      7 Cl   UNL d   1       5.109  -2.164   1.601  0.00  0.00    -0.070 Cl
ATOM      8 Cl1  UNL d   1       3.885   0.425   0.052  0.00  0.00    -0.070 Cl
ENDROOT
TORSDOF 0
ENDMDL
