MODEL 1
REMARK minimizedAffinity 12.6076937
REMARK minimizedRMSD -1
REMARK  0 active torsions:
REMARK  status: ('A' for Active; 'I' for Inactive)
ROOT
ATOM      1  C   UNL d   1      -1.776   1.903   0.669  0.00  0.00     0.020 A 
ATOM      2  C1  UNL d   1      -1.241   3.139   1.031  0.00  0.00     0.020 A 
ATOM      3  C2  UNL d   1       0.069   3.221   1.507  0.00  0.00     0.034 A 
ATOM      4  C3  UNL d   1       0.849   2.065   1.623  0.00  0.00     0.017 A 
ATOM      5  C4  UNL d   1       0.312   0.825   1.260  0.00  0.00     0.017 A 
ATOM      6  C5  UNL d   1      -1.001   0.749   0.784  0.00  0.00     0.034 A 
ATOM      7 Cl   UNL d   1       1.213  -0.646   1.376  0.00  0.00    -0.070 Cl
ATOM      8 Cl1  UNL d   1       2.461   2.240   2.219  0.00  0.00    -0.070 Cl
ENDROOT
TORSDOF 0
ENDMDL
