MODEL 1
REMARK minimizedAffinity 7.58689022
REMARK minimizedRMSD -1
REMARK  0 active torsions:
REMARK  status: ('A' for Active; 'I' for Inactive)
ROOT
ATOM      1  C   UNL d   1      -2.869   3.172  -0.584  0.00  0.00     0.020 A 
ATOM      2  C1  UNL d   1      -2.180   1.975  -0.393  0.00  0.00     0.020 A 
ATOM      3  C2  UNL d   1      -2.399   0.899  -1.255  0.00  0.00     0.034 A 
ATOM      4  C3  UNL d   1      -3.308   1.017  -2.313  0.00  0.00     0.017 A 
ATOM      5  C4  UNL d   1      -3.999   2.219  -2.504  0.00  0.00     0.017 A 
ATOM      6  C5  UNL d   1      -3.776   3.294  -1.637  0.00  0.00     0.034 A 
ATOM      7 Cl   UNL d   1      -5.136   2.441  -3.786  0.00  0.00    -0.070 Cl
ATOM      8 Cl1  UNL d   1      -3.528  -0.354  -3.341  0.00  0.00    -0.070 Cl
ENDROOT
TORSDOF 0
ENDMDL
