MODEL 1
REMARK minimizedAffinity 11.9938583
REMARK minimizedRMSD -1
REMARK  0 active torsions:
REMARK  status: ('A' for Active; 'I' for Inactive)
ROOT
ATOM      1  C   UNL d   1      -2.127   1.434   0.755  0.00  0.00     0.020 A 
ATOM      2  C1  UNL d   1      -2.727   2.672   0.532  0.00  0.00     0.020 A 
ATOM      3  C2  UNL d   1      -3.438   2.901  -0.648  0.00  0.00     0.034 A 
ATOM      4  C3  UNL d   1      -3.550   1.890  -1.609  0.00  0.00     0.017 A 
ATOM      5  C4  UNL d   1      -2.948   0.647  -1.384  0.00  0.00     0.017 A 
ATOM      6  C5  UNL d   1      -2.237   0.423  -0.201  0.00  0.00     0.034 A 
ATOM      7 Cl   UNL d   1      -3.043  -0.649  -2.523  0.00  0.00    -0.070 Cl
ATOM      8 Cl1  UNL d   1      -4.445   2.242  -3.045  0.00  0.00    -0.070 Cl
ENDROOT
TORSDOF 0
ENDMDL
