MODEL 1
REMARK minimizedAffinity 3.56382227
REMARK minimizedRMSD -1
REMARK  0 active torsions:
REMARK  status: ('A' for Active; 'I' for Inactive)
ROOT
ATOM      1  C   UNL d   1       0.649  -2.465   5.837  0.00  0.00     0.020 A 
ATOM      2  C1  UNL d   1       1.589  -3.460   5.569  0.00  0.00     0.020 A 
ATOM      3  C2  UNL d   1       2.382  -3.380   4.423  0.00  0.00     0.034 A 
ATOM      4  C3  UNL d   1       2.237  -2.304   3.540  0.00  0.00     0.017 A 
ATOM      5  C4  UNL d   1       1.293  -1.306   3.810  0.00  0.00     0.017 A 
ATOM      6  C5  UNL d   1       0.502  -1.391   4.959  0.00  0.00     0.034 A 
ATOM      7 Cl   UNL d   1       1.057   0.053   2.768  0.00  0.00    -0.070 Cl
ATOM      8 Cl1  UNL d   1       3.251  -2.269   2.142  0.00  0.00    -0.070 Cl
ENDROOT
TORSDOF 0
ENDMDL
