MODEL 1
REMARK minimizedAffinity -0.694681466
REMARK minimizedRMSD -1
REMARK  0 active torsions:
REMARK  status: ('A' for Active; 'I' for Inactive)
ROOT
ATOM      1  C1  DEN d   1       1.325   1.555  -0.638  0.00  0.00     0.130 A 
ATOM      2  C2  DEN d   1       2.764   1.376  -0.469  0.00  0.00    -0.031 A 
ATOM      3  C3  DEN d   1       3.037   1.210   0.973  0.00  0.00     0.027 A 
ATOM      4  C4  DEN d   1       1.380   1.210   2.949  0.00  0.00     0.027 A 
ATOM      5  C5  DEN d   1       0.055   1.339   3.303  0.00  0.00    -0.003 A 
ATOM      6  C6  DEN d   1      -0.927   1.581   2.379  0.00  0.00     0.001 A 
ATOM      7  C7  DEN d   1      -0.605   1.656   1.050  0.00  0.00     0.017 A 
ATOM      8  C8  DEN d   1       0.729   1.535   0.686  0.00  0.00    -0.094 A 
ATOM      9  C9  DEN d   1       1.706   1.278   1.634  0.00  0.00    -0.072 A 
ENDROOT
TORSDOF 0
ENDMDL
