MODEL 1
REMARK minimizedAffinity 2.97064829
REMARK minimizedRMSD -1
REMARK  0 active torsions:
REMARK  status: ('A' for Active; 'I' for Inactive)
ROOT
ATOM      1  C1  DEN d   1       2.383  -1.585  -0.873  0.00  0.00     0.130 A 
ATOM      2  C2  DEN d   1       1.016  -2.043  -0.638  0.00  0.00    -0.031 A 
ATOM      3  C3  DEN d   1       0.238  -0.904  -0.111  0.00  0.00     0.027 A 
ATOM      4  C4  DEN d   1       1.011   1.512   0.356  0.00  0.00     0.027 A 
ATOM      5  C5  DEN d   1       2.086   2.373   0.324  0.00  0.00    -0.003 A 
ATOM      6  C6  DEN d   1       3.333   1.969  -0.075  0.00  0.00     0.001 A 
ATOM      7  C7  DEN d   1       3.526   0.681  -0.500  0.00  0.00     0.017 A 
ATOM      8  C8  DEN d   1       2.448  -0.194  -0.463  0.00  0.00    -0.094 A 
ATOM      9  C9  DEN d   1       1.193   0.236  -0.068  0.00  0.00    -0.072 A 
ENDROOT
TORSDOF 0
ENDMDL
