MODEL 1
REMARK minimizedAffinity 0.0414285846
REMARK minimizedRMSD -1
REMARK  0 active torsions:
REMARK  status: ('A' for Active; 'I' for Inactive)
ROOT
ATOM      1  C1  DEN d   1       4.008   0.244  -1.183  0.00  0.00     0.130 A 
ATOM      2  C2  DEN d   1       3.623   1.588  -0.762  0.00  0.00    -0.031 A 
ATOM      3  C3  DEN d   1       2.188   1.564  -0.414  0.00  0.00     0.027 A 
ATOM      4  C4  DEN d   1       0.536  -0.416  -0.481  0.00  0.00     0.027 A 
ATOM      5  C5  DEN d   1       0.397  -1.753  -0.783  0.00  0.00    -0.003 A 
ATOM      6  C6  DEN d   1       1.436  -2.503  -1.267  0.00  0.00     0.001 A 
ATOM      7  C7  DEN d   1       2.671  -1.933  -1.422  0.00  0.00     0.017 A 
ATOM      8  C8  DEN d   1       2.817  -0.583  -1.127  0.00  0.00    -0.094 A 
ATOM      9  C9  DEN d   1       1.758   0.155  -0.627  0.00  0.00    -0.072 A 
ENDROOT
TORSDOF 0
ENDMDL
