MODEL 1
REMARK minimizedAffinity 0.346640229
REMARK minimizedRMSD -1
REMARK  0 active torsions:
REMARK  status: ('A' for Active; 'I' for Inactive)
ROOT
ATOM      1  C1  DEN d   1       4.408   1.024  -1.006  0.00  0.00     0.130 A 
ATOM      2  C2  DEN d   1       4.433   2.429  -0.606  0.00  0.00    -0.031 A 
ATOM      3  C3  DEN d   1       3.153   2.735   0.065  0.00  0.00     0.027 A 
ATOM      4  C4  DEN d   1       1.149   1.178   0.525  0.00  0.00     0.027 A 
ATOM      5  C5  DEN d   1       0.659  -0.099   0.361  0.00  0.00    -0.003 A 
ATOM      6  C6  DEN d   1       1.364  -1.073  -0.295  0.00  0.00     0.001 A 
ATOM      7  C7  DEN d   1       2.618  -0.799  -0.771  0.00  0.00     0.017 A 
ATOM      8  C8  DEN d   1       3.116   0.488  -0.616  0.00  0.00    -0.094 A 
ATOM      9  C9  DEN d   1       2.393   1.456   0.060  0.00  0.00    -0.072 A 
ENDROOT
TORSDOF 0
ENDMDL
