MODEL 1
REMARK minimizedAffinity 3.637429
REMARK minimizedRMSD -1
REMARK  0 active torsions:
REMARK  status: ('A' for Active; 'I' for Inactive)
ROOT
ATOM      1  C1  DEN d   1       4.063   3.358   1.528  0.00  0.00     0.130 A 
ATOM      2  C2  DEN d   1       4.490   2.997   0.179  0.00  0.00    -0.031 A 
ATOM      3  C3  DEN d   1       3.455   2.126  -0.411  0.00  0.00     0.027 A 
ATOM      4  C4  DEN d   1       1.239   1.308   0.626  0.00  0.00     0.027 A 
ATOM      5  C5  DEN d   1       0.447   1.342   1.752  0.00  0.00    -0.003 A 
ATOM      6  C6  DEN d   1       0.817   2.016   2.885  0.00  0.00     0.001 A 
ATOM      7  C7  DEN d   1       1.991   2.723   2.902  0.00  0.00     0.017 A 
ATOM      8  C8  DEN d   1       2.798   2.687   1.772  0.00  0.00    -0.094 A 
ATOM      9  C9  DEN d   1       2.401   2.010   0.632  0.00  0.00    -0.072 A 
ENDROOT
TORSDOF 0
ENDMDL
