MODEL 1
REMARK minimizedAffinity 4.80701923
REMARK minimizedRMSD -1
REMARK  0 active torsions:
REMARK  status: ('A' for Active; 'I' for Inactive)
ROOT
ATOM      1  C1  DEN d   1       3.870   0.770  -0.906  0.00  0.00     0.130 A 
ATOM      2  C2  DEN d   1       4.900   1.137  -1.874  0.00  0.00    -0.031 A 
ATOM      3  C3  DEN d   1       4.942   0.090  -2.915  0.00  0.00     0.027 A 
ATOM      4  C4  DEN d   1       3.516  -2.048  -3.123  0.00  0.00     0.027 A 
ATOM      5  C5  DEN d   1       2.519  -2.794  -2.534  0.00  0.00    -0.003 A 
ATOM      6  C6  DEN d   1       1.931  -2.425  -1.354  0.00  0.00     0.001 A 
ATOM      7  C7  DEN d   1       2.304  -1.255  -0.746  0.00  0.00     0.017 A 
ATOM      8  C8  DEN d   1       3.313  -0.502  -1.330  0.00  0.00    -0.094 A 
ATOM      9  C9  DEN d   1       3.887  -0.886  -2.530  0.00  0.00    -0.072 A 
ENDROOT
TORSDOF 0
ENDMDL
