MODEL 1
REMARK minimizedAffinity 3.65258574
REMARK minimizedRMSD -1
REMARK  0 active torsions:
REMARK  status: ('A' for Active; 'I' for Inactive)
ROOT
ATOM      1  C1  DEN d   1       1.058   0.619   1.433  0.00  0.00     0.130 A 
ATOM      2  C2  DEN d   1       0.814   2.040   1.202  0.00  0.00    -0.031 A 
ATOM      3  C3  DEN d   1       0.121   2.179  -0.094  0.00  0.00     0.027 A 
ATOM      4  C4  DEN d   1      -0.597   0.342  -1.756  0.00  0.00     0.027 A 
ATOM      5  C5  DEN d   1      -0.596  -1.013  -2.000  0.00  0.00    -0.003 A 
ATOM      6  C6  DEN d   1      -0.018  -1.910  -1.141  0.00  0.00     0.001 A 
ATOM      7  C7  DEN d   1       0.544  -1.465   0.027  0.00  0.00     0.017 A 
ATOM      8  C8  DEN d   1       0.553  -0.099   0.277  0.00  0.00    -0.094 A 
ATOM      9  C9  DEN d   1      -0.048   0.790  -0.599  0.00  0.00    -0.072 A 
ENDROOT
TORSDOF 0
ENDMDL
