MODEL 1
REMARK minimizedAffinity 4.64514971
REMARK minimizedRMSD -1
REMARK  0 active torsions:
REMARK  status: ('A' for Active; 'I' for Inactive)
ROOT
ATOM      1  C1  DEN d   1       4.232   0.261  -1.419  0.00  0.00     0.130 A 
ATOM      2  C2  DEN d   1       4.273   1.679  -1.070  0.00  0.00    -0.031 A 
ATOM      3  C3  DEN d   1       2.972   2.039  -0.471  0.00  0.00     0.027 A 
ATOM      4  C4  DEN d   1       0.911   0.548  -0.048  0.00  0.00     0.027 A 
ATOM      5  C5  DEN d   1       0.397  -0.723  -0.188  0.00  0.00    -0.003 A 
ATOM      6  C6  DEN d   1       1.107  -1.737  -0.773  0.00  0.00     0.001 A 
ATOM      7  C7  DEN d   1       2.388  -1.510  -1.201  0.00  0.00     0.017 A 
ATOM      8  C8  DEN d   1       2.911  -0.230  -1.070  0.00  0.00    -0.094 A 
ATOM      9  C9  DEN d   1       2.182   0.779  -0.464  0.00  0.00    -0.072 A 
ENDROOT
TORSDOF 0
ENDMDL
