MODEL 1
REMARK minimizedAffinity 3.1828177
REMARK minimizedRMSD -1
REMARK  0 active torsions:
REMARK  status: ('A' for Active; 'I' for Inactive)
ROOT
ATOM      1  C1  DEN d   1       2.251  -1.872  -1.184  0.00  0.00     0.130 A 
ATOM      2  C2  DEN d   1       0.898  -2.153  -0.712  0.00  0.00    -0.031 A 
ATOM      3  C3  DEN d   1       0.349  -0.911  -0.132  0.00  0.00     0.027 A 
ATOM      4  C4  DEN d   1       1.455   1.410   0.075  0.00  0.00     0.027 A 
ATOM      5  C5  DEN d   1       2.600   2.134  -0.172  0.00  0.00    -0.003 A 
ATOM      6  C6  DEN d   1       3.712   1.569  -0.739  0.00  0.00     0.001 A 
ATOM      7  C7  DEN d   1       3.687   0.253  -1.118  0.00  0.00     0.017 A 
ATOM      8  C8  DEN d   1       2.539  -0.485  -0.865  0.00  0.00    -0.094 A 
ATOM      9  C9  DEN d   1       1.420   0.107  -0.302  0.00  0.00    -0.072 A 
ENDROOT
TORSDOF 0
ENDMDL
