MODEL 1
REMARK minimizedAffinity 2.96448183
REMARK minimizedRMSD -1
REMARK  0 active torsions:
REMARK  status: ('A' for Active; 'I' for Inactive)
ROOT
ATOM      1  C1  DEN d   1       4.946  -0.404  -1.491  0.00  0.00     0.130 A 
ATOM      2  C2  DEN d   1       4.895   1.054  -1.407  0.00  0.00    -0.031 A 
ATOM      3  C3  DEN d   1       3.546   1.438  -0.945  0.00  0.00     0.027 A 
ATOM      4  C4  DEN d   1       1.544  -0.074  -0.347  0.00  0.00     0.027 A 
ATOM      5  C5  DEN d   1       1.104  -1.377  -0.273  0.00  0.00    -0.003 A 
ATOM      6  C6  DEN d   1       1.896  -2.437  -0.629  0.00  0.00     0.001 A 
ATOM      7  C7  DEN d   1       3.186  -2.214  -1.033  0.00  0.00     0.017 A 
ATOM      8  C8  DEN d   1       3.634  -0.902  -1.117  0.00  0.00    -0.094 A 
ATOM      9  C9  DEN d   1       2.822   0.154  -0.741  0.00  0.00    -0.072 A 
ENDROOT
TORSDOF 0
ENDMDL
