MODEL 1
REMARK minimizedAffinity 5.42071724
REMARK minimizedRMSD -1
REMARK  1 active torsions:
REMARK  status: ('A' for Active; 'I' for Inactive)
REMARK    1  A    between atoms: C1_2  and  C2_3 
ROOT
ATOM      1  C2  UNL d   1       4.874   1.419  -0.515  0.00  0.00    -0.073 A 
ATOM      2  C3  UNL d   1       5.517   0.419   0.224  0.00  0.00    -0.002 A 
ATOM      3  C4  UNL d   1       4.953  -0.053   1.410  0.00  0.00     0.004 A 
ATOM      4  C5  UNL d   1       3.740   0.463   1.865  0.00  0.00    -0.004 A 
ATOM      5  C6  UNL d   1       3.076   1.454   1.134  0.00  0.00    -0.075 A 
ATOM      6  C7  UNL d   1       1.771   2.021   1.611  0.00  0.00     0.076 C 
ATOM      7  C8  UNL d   1       3.650   1.925  -0.054  0.00  0.00     0.001 A 
ENDROOT
BRANCH   1   8
ATOM      8  C1  UNL d   1       5.475   1.927  -1.800  0.00  0.00     0.053 C 
ATOM      9  C   UNL d   1       4.446   2.015  -2.915  0.00  0.00     0.018 C 
ENDBRANCH   1   8
TORSDOF 1
ENDMDL
