MODEL 1
REMARK minimizedAffinity 11.8120356
REMARK minimizedRMSD -1
REMARK  1 active torsions:
REMARK  status: ('A' for Active; 'I' for Inactive)
REMARK    1  A    between atoms: C1_2  and  C2_3 
ROOT
ATOM      1  C2  UNL d   1      -2.152  -1.955   0.075  0.00  0.00    -0.073 A 
ATOM      2  C3  UNL d   1      -1.961  -3.224   0.634  0.00  0.00    -0.002 A 
ATOM      3  C4  UNL d   1      -1.115  -3.390   1.732  0.00  0.00     0.004 A 
ATOM      4  C5  UNL d   1      -0.459  -2.291   2.285  0.00  0.00    -0.004 A 
ATOM      5  C6  UNL d   1      -0.646  -1.013   1.747  0.00  0.00    -0.075 A 
ATOM      6  C7  UNL d   1       0.055   0.179   2.329  0.00  0.00     0.076 C 
ATOM      7  C8  UNL d   1      -1.494  -0.855   0.643  0.00  0.00     0.001 A 
ENDROOT
BRANCH   1   8
ATOM      8  C1  UNL d   1      -3.069  -1.770  -1.107  0.00  0.00     0.053 C 
ATOM      9  C   UNL d   1      -2.893  -2.869  -2.142  0.00  0.00     0.018 C 
ENDBRANCH   1   8
TORSDOF 1
ENDMDL
