MODEL 1
REMARK minimizedAffinity 11.8792276
REMARK minimizedRMSD -1
REMARK  1 active torsions:
REMARK  status: ('A' for Active; 'I' for Inactive)
REMARK    1  A    between atoms: C1_2  and  C2_3 
ROOT
ATOM      1  C2  UNL d   1       2.641   3.997  -4.038  0.00  0.00    -0.073 A 
ATOM      2  C3  UNL d   1       1.449   4.515  -4.556  0.00  0.00    -0.002 A 
ATOM      3  C4  UNL d   1       1.478   5.514  -5.529  0.00  0.00     0.004 A 
ATOM      4  C5  UNL d   1       2.698   6.000  -6.000  0.00  0.00    -0.004 A 
ATOM      5  C6  UNL d   1       3.901   5.486  -5.504  0.00  0.00    -0.075 A 
ATOM      6  C7  UNL d   1       5.221   5.999  -5.998  0.00  0.00     0.076 C 
ATOM      7  C8  UNL d   1       3.863   4.485  -4.524  0.00  0.00     0.001 A 
ENDROOT
BRANCH   1   8
ATOM      8  C1  UNL d   1       2.614   2.913  -2.991  0.00  0.00     0.053 C 
ATOM      9  C   UNL d   1       3.757   1.925  -3.164  0.00  0.00     0.018 C 
ENDBRANCH   1   8
TORSDOF 1
ENDMDL
