MODEL 1
REMARK minimizedAffinity 16.9361897
REMARK minimizedRMSD -1
REMARK  1 active torsions:
REMARK  status: ('A' for Active; 'I' for Inactive)
REMARK    1  A    between atoms: C1_2  and  C2_3 
ROOT
ATOM      1  C2  UNL d   1      -3.960   3.249   2.212  0.00  0.00    -0.073 A 
ATOM      2  C3  UNL d   1      -2.942   3.392   3.161  0.00  0.00    -0.002 A 
ATOM      3  C4  UNL d   1      -2.622   2.337   4.017  0.00  0.00     0.004 A 
ATOM      4  C5  UNL d   1      -3.312   1.128   3.928  0.00  0.00    -0.004 A 
ATOM      5  C6  UNL d   1      -4.324   0.962   2.978  0.00  0.00    -0.075 A 
ATOM      6  C7  UNL d   1      -5.077  -0.332   2.871  0.00  0.00     0.076 C 
ATOM      7  C8  UNL d   1      -4.641   2.027   2.124  0.00  0.00     0.001 A 
ENDROOT
BRANCH   1   8
ATOM      8  C1  UNL d   1      -4.304   4.383   1.281  0.00  0.00     0.053 C 
ATOM      9  C   UNL d   1      -3.184   4.669   0.293  0.00  0.00     0.018 C 
ENDBRANCH   1   8
TORSDOF 1
ENDMDL
