MODEL 1
REMARK minimizedAffinity 19.3680325
REMARK minimizedRMSD -1
REMARK  1 active torsions:
REMARK  status: ('A' for Active; 'I' for Inactive)
REMARK    1  A    between atoms: C1_2  and  C2_3 
ROOT
ATOM      1  C2  UNL d   1      -3.361  -5.154   1.239  0.00  0.00    -0.073 A 
ATOM      2  C3  UNL d   1      -2.212  -5.666   1.852  0.00  0.00    -0.002 A 
ATOM      3  C4  UNL d   1      -1.064  -4.881   1.965  0.00  0.00     0.004 A 
ATOM      4  C5  UNL d   1      -1.056  -3.575   1.474  0.00  0.00    -0.004 A 
ATOM      5  C6  UNL d   1      -2.198  -3.042   0.869  0.00  0.00    -0.075 A 
ATOM      6  C7  UNL d   1      -2.205  -1.640   0.334  0.00  0.00     0.076 C 
ATOM      7  C8  UNL d   1      -3.346  -3.838   0.757  0.00  0.00     0.001 A 
ENDROOT
BRANCH   1   8
ATOM      8  C1  UNL d   1      -4.605  -5.996   1.121  0.00  0.00     0.053 C 
ATOM      9  C   UNL d   1      -5.582  -5.733   2.255  0.00  0.00     0.018 C 
ENDBRANCH   1   8
TORSDOF 1
ENDMDL
