MODEL 1
REMARK minimizedAffinity 13.414669
REMARK minimizedRMSD -1
REMARK  1 active torsions:
REMARK  status: ('A' for Active; 'I' for Inactive)
REMARK    1  A    between atoms: C1_2  and  C2_3 
ROOT
ATOM      1  C2  UNL d   1      -3.624  -5.263   1.390  0.00  0.00    -0.073 A 
ATOM      2  C3  UNL d   1      -2.646  -5.999   2.069  0.00  0.00    -0.002 A 
ATOM      3  C4  UNL d   1      -1.396  -5.437   2.329  0.00  0.00     0.004 A 
ATOM      4  C5  UNL d   1      -1.113  -4.133   1.920  0.00  0.00    -0.004 A 
ATOM      5  C6  UNL d   1      -2.081  -3.378   1.251  0.00  0.00    -0.075 A 
ATOM      6  C7  UNL d   1      -1.792  -1.976   0.802  0.00  0.00     0.076 C 
ATOM      7  C8  UNL d   1      -3.334  -3.951   0.991  0.00  0.00     0.001 A 
ENDROOT
BRANCH   1   8
ATOM      8  C1  UNL d   1      -4.979  -5.863   1.113  0.00  0.00     0.053 C 
ATOM      9  C   UNL d   1      -5.980  -5.541   2.210  0.00  0.00     0.018 C 
ENDBRANCH   1   8
TORSDOF 1
ENDMDL
