MODEL 1
REMARK minimizedAffinity 12.8842602
REMARK minimizedRMSD -1
REMARK  1 active torsions:
REMARK  status: ('A' for Active; 'I' for Inactive)
REMARK    1  A    between atoms: C1_2  and  C2_3 
ROOT
ATOM      1  C2  UNL d   1      -2.385  -5.232  -3.193  0.00  0.00    -0.073 A 
ATOM      2  C3  UNL d   1      -2.412  -3.834  -3.245  0.00  0.00    -0.002 A 
ATOM      3  C4  UNL d   1      -3.596  -3.142  -2.990  0.00  0.00     0.004 A 
ATOM      4  C5  UNL d   1      -4.762  -3.838  -2.674  0.00  0.00    -0.004 A 
ATOM      5  C6  UNL d   1      -4.753  -5.235  -2.605  0.00  0.00    -0.075 A 
ATOM      6  C7  UNL d   1      -5.999  -6.000  -2.269  0.00  0.00     0.076 C 
ATOM      7  C8  UNL d   1      -3.560  -5.923  -2.865  0.00  0.00     0.001 A 
ENDROOT
BRANCH   1   8
ATOM      8  C1  UNL d   1      -1.106  -5.984  -3.461  0.00  0.00     0.053 C 
ATOM      9  C   UNL d   1      -0.266  -5.313  -4.536  0.00  0.00     0.018 C 
ENDBRANCH   1   8
TORSDOF 1
ENDMDL
