MODEL 1
REMARK minimizedAffinity 21.9068451
REMARK minimizedRMSD -1
REMARK  1 active torsions:
REMARK  status: ('A' for Active; 'I' for Inactive)
REMARK    1  A    between atoms: C1_2  and  C2_3 
ROOT
ATOM      1  C2  UNL d   1      -0.273  -1.717   1.801  0.00  0.00    -0.073 A 
ATOM      2  C3  UNL d   1       0.706  -1.066   1.041  0.00  0.00    -0.002 A 
ATOM      3  C4  UNL d   1       1.505  -0.079   1.617  0.00  0.00     0.004 A 
ATOM      4  C5  UNL d   1       1.340   0.264   2.959  0.00  0.00    -0.004 A 
ATOM      5  C6  UNL d   1       0.375  -0.382   3.738  0.00  0.00    -0.075 A 
ATOM      6  C7  UNL d   1       0.183  -0.024   5.182  0.00  0.00     0.076 C 
ATOM      7  C8  UNL d   1      -0.426  -1.372   3.151  0.00  0.00     0.001 A 
ENDROOT
BRANCH   1   8
ATOM      8  C1  UNL d   1      -1.134  -2.788   1.184  0.00  0.00     0.053 C 
ATOM      9  C   UNL d   1      -2.461  -2.237   0.686  0.00  0.00     0.018 C 
ENDBRANCH   1   8
TORSDOF 1
ENDMDL
