MODEL 1
REMARK minimizedAffinity 17.9695873
REMARK minimizedRMSD -1
REMARK  1 active torsions:
REMARK  status: ('A' for Active; 'I' for Inactive)
REMARK    1  A    between atoms: C1_2  and  C2_3 
ROOT
ATOM      1  C2  UNL d   1      -3.391  -5.268   1.555  0.00  0.00    -0.073 A 
ATOM      2  C3  UNL d   1      -2.390  -5.996   2.208  0.00  0.00    -0.002 A 
ATOM      3  C4  UNL d   1      -1.190  -5.380   2.566  0.00  0.00     0.004 A 
ATOM      4  C5  UNL d   1      -0.981  -4.031   2.281  0.00  0.00    -0.004 A 
ATOM      5  C6  UNL d   1      -1.974  -3.283   1.640  0.00  0.00    -0.075 A 
ATOM      6  C7  UNL d   1      -1.764  -1.832   1.324  0.00  0.00     0.076 C 
ATOM      7  C8  UNL d   1      -3.175  -3.910   1.281  0.00  0.00     0.001 A 
ENDROOT
BRANCH   1   8
ATOM      8  C1  UNL d   1      -4.691  -5.927   1.172  0.00  0.00     0.053 C 
ATOM      9  C   UNL d   1      -5.767  -5.720   2.227  0.00  0.00     0.018 C 
ENDBRANCH   1   8
TORSDOF 1
ENDMDL
