MODEL 1
REMARK minimizedAffinity 10.429389
REMARK minimizedRMSD -1
REMARK  1 active torsions:
REMARK  status: ('A' for Active; 'I' for Inactive)
REMARK    1  A    between atoms: C1_2  and  C2_3 
ROOT
ATOM      1  C2  UNL d   1      -3.309  -3.757  -2.389  0.00  0.00    -0.073 A 
ATOM      2  C3  UNL d   1      -3.895  -4.955  -1.963  0.00  0.00    -0.002 A 
ATOM      3  C4  UNL d   1      -5.043  -5.440  -2.590  0.00  0.00     0.004 A 
ATOM      4  C5  UNL d   1      -5.613  -4.738  -3.651  0.00  0.00    -0.004 A 
ATOM      5  C6  UNL d   1      -5.036  -3.545  -4.100  0.00  0.00    -0.075 A 
ATOM      6  C7  UNL d   1      -5.639  -2.777  -5.239  0.00  0.00     0.076 C 
ATOM      7  C8  UNL d   1      -3.885  -3.063  -3.464  0.00  0.00     0.001 A 
ENDROOT
BRANCH   1   8
ATOM      8  C1  UNL d   1      -2.065  -3.232  -1.720  0.00  0.00     0.053 C 
ATOM      9  C   UNL d   1      -2.268  -3.019  -0.228  0.00  0.00     0.018 C 
ENDBRANCH   1   8
TORSDOF 1
ENDMDL
