MODEL 1
REMARK minimizedAffinity -2.21761823
REMARK minimizedRMSD -1
REMARK  0 active torsions:
REMARK  status: ('A' for Active; 'I' for Inactive)
ROOT
ATOM      1  C   UNL d   1       1.136   1.527  -3.635  0.00  0.00     0.172 C 
ATOM      2  N   UNL d   1       0.841   1.278  -2.244  0.00  0.00    -0.070 N 
ATOM      3  C1  UNL d   1       0.066   0.257  -1.763  0.00  0.00    -0.004 A 
ATOM      4  C2  UNL d   1       0.030   0.365  -0.390  0.00  0.00    -0.047 A 
ATOM      5  C3  UNL d   1       0.811   1.490  -0.033  0.00  0.00    -0.047 A 
ATOM      6  C4  UNL d   1       1.300   2.037  -1.200  0.00  0.00    -0.004 A 
ENDROOT
TORSDOF 0
ENDMDL
