MODEL 1
REMARK minimizedAffinity -0.201456755
REMARK minimizedRMSD -1
REMARK  0 active torsions:
REMARK  status: ('A' for Active; 'I' for Inactive)
ROOT
ATOM      1  C   UNL d   1       0.879   2.350  -3.209  0.00  0.00     0.172 C 
ATOM      2  N   UNL d   1       0.655   1.763  -1.909  0.00  0.00    -0.070 N 
ATOM      3  C1  UNL d   1       0.172   0.504  -1.674  0.00  0.00    -0.004 A 
ATOM      4  C2  UNL d   1       0.105   0.325  -0.309  0.00  0.00    -0.047 A 
ATOM      5  C3  UNL d   1       0.564   1.519   0.297  0.00  0.00    -0.047 A 
ATOM      6  C4  UNL d   1       0.898   2.392  -0.716  0.00  0.00    -0.004 A 
ENDROOT
TORSDOF 0
ENDMDL
