MODEL 1
REMARK minimizedAffinity -2.58475518
REMARK minimizedRMSD -1
REMARK  0 active torsions:
REMARK  status: ('A' for Active; 'I' for Inactive)
ROOT
ATOM      1  C   UNL d   1       0.391   0.504   0.131  0.00  0.00     0.172 C 
ATOM      2  N   UNL d   1      -0.304  -0.371   1.045  0.00  0.00    -0.070 N 
ATOM      3  C1  UNL d   1      -1.400  -0.035   1.794  0.00  0.00    -0.004 A 
ATOM      4  C2  UNL d   1      -1.762  -1.141   2.532  0.00  0.00    -0.047 A 
ATOM      5  C3  UNL d   1      -0.851  -2.177   2.217  0.00  0.00    -0.047 A 
ATOM      6  C4  UNL d   1       0.041  -1.673   1.294  0.00  0.00    -0.004 A 
ENDROOT
TORSDOF 0
ENDMDL
