MODEL 1
REMARK minimizedAffinity -1.55771697
REMARK minimizedRMSD -1
REMARK  0 active torsions:
REMARK  status: ('A' for Active; 'I' for Inactive)
ROOT
ATOM      1  C   UNL d   1      -1.852  -0.290   0.774  0.00  0.00     0.172 C 
ATOM      2  N   UNL d   1      -0.479  -0.029   0.409  0.00  0.00    -0.070 N 
ATOM      3  C1  UNL d   1       0.565  -0.903   0.552  0.00  0.00    -0.004 A 
ATOM      4  C2  UNL d   1       1.704  -0.280   0.090  0.00  0.00    -0.047 A 
ATOM      5  C3  UNL d   1       1.331   1.015  -0.345  0.00  0.00    -0.047 A 
ATOM      6  C4  UNL d   1      -0.026   1.143  -0.136  0.00  0.00    -0.004 A 
ENDROOT
TORSDOF 0
ENDMDL
