MODEL 1
REMARK minimizedAffinity -3.80529547
REMARK minimizedRMSD -1
REMARK  0 active torsions:
REMARK  status: ('A' for Active; 'I' for Inactive)
ROOT
ATOM      1  C   UNL d   1       0.493  -0.039  -1.241  0.00  0.00     0.172 C 
ATOM      2  N   UNL d   1       0.047  -1.125  -0.401  0.00  0.00    -0.070 N 
ATOM      3  C1  UNL d   1       0.050  -2.451  -0.743  0.00  0.00    -0.004 A 
ATOM      4  C2  UNL d   1      -0.449  -3.164   0.326  0.00  0.00    -0.047 A 
ATOM      5  C3  UNL d   1      -0.763  -2.233   1.346  0.00  0.00    -0.047 A 
ATOM      6  C4  UNL d   1      -0.446  -0.979   0.869  0.00  0.00    -0.004 A 
ENDROOT
TORSDOF 0
ENDMDL
