MODEL 1
REMARK minimizedAffinity -3.79615283
REMARK minimizedRMSD -1
REMARK  0 active torsions:
REMARK  status: ('A' for Active; 'I' for Inactive)
ROOT
ATOM      1  C   UNL d   1      -0.123   1.025   0.523  0.00  0.00     0.172 C 
ATOM      2  N   UNL d   1      -0.639  -0.312   0.700  0.00  0.00    -0.070 N 
ATOM      3  C1  UNL d   1       0.052  -1.370   1.229  0.00  0.00    -0.004 A 
ATOM      4  C2  UNL d   1      -0.787  -2.464   1.227  0.00  0.00    -0.047 A 
ATOM      5  C3  UNL d   1      -2.023  -2.050   0.677  0.00  0.00    -0.047 A 
ATOM      6  C4  UNL d   1      -1.903  -0.713   0.360  0.00  0.00    -0.004 A 
ENDROOT
TORSDOF 0
ENDMDL
