MODEL 1
REMARK minimizedAffinity -3.02170897
REMARK minimizedRMSD -1
REMARK  0 active torsions:
REMARK  status: ('A' for Active; 'I' for Inactive)
ROOT
ATOM      1  C   UNL d   1      -1.013  -1.959   1.510  0.00  0.00     0.172 C 
ATOM      2  N   UNL d   1      -0.580  -0.688   0.978  0.00  0.00    -0.070 N 
ATOM      3  C1  UNL d   1      -1.207   0.513   1.172  0.00  0.00    -0.004 A 
ATOM      4  C2  UNL d   1      -0.485   1.479   0.505  0.00  0.00    -0.047 A 
ATOM      5  C3  UNL d   1       0.614   0.835  -0.112  0.00  0.00    -0.047 A 
ATOM      6  C4  UNL d   1       0.531  -0.506   0.198  0.00  0.00    -0.004 A 
ENDROOT
TORSDOF 0
ENDMDL
