MODEL 1
REMARK minimizedAffinity -3.30102658
REMARK minimizedRMSD -1
REMARK  0 active torsions:
REMARK  status: ('A' for Active; 'I' for Inactive)
ROOT
ATOM      1  C   UNL d   1       0.391   0.444  -0.417  0.00  0.00     0.172 C 
ATOM      2  N   UNL d   1       0.253  -0.837   0.237  0.00  0.00    -0.070 N 
ATOM      3  C1  UNL d   1      -0.722  -1.171   1.139  0.00  0.00    -0.004 A 
ATOM      4  C2  UNL d   1      -0.507  -2.476   1.528  0.00  0.00    -0.047 A 
ATOM      5  C3  UNL d   1       0.636  -2.941   0.835  0.00  0.00    -0.047 A 
ATOM      6  C4  UNL d   1       1.086  -1.906   0.043  0.00  0.00    -0.004 A 
ENDROOT
TORSDOF 0
ENDMDL
