MODEL 1
REMARK minimizedAffinity -3.71022606
REMARK minimizedRMSD -1
REMARK  0 active torsions:
REMARK  status: ('A' for Active; 'I' for Inactive)
ROOT
ATOM      1  C   UNL d   1       1.992  -0.970   0.566  0.00  0.00     0.172 C 
ATOM      2  N   UNL d   1       0.667  -1.523   0.726  0.00  0.00    -0.070 N 
ATOM      3  C1  UNL d   1       0.330  -2.562   1.551  0.00  0.00    -0.004 A 
ATOM      4  C2  UNL d   1      -1.024  -2.785   1.416  0.00  0.00    -0.047 A 
ATOM      5  C3  UNL d   1      -1.516  -1.848   0.477  0.00  0.00    -0.047 A 
ATOM      6  C4  UNL d   1      -0.448  -1.079   0.065  0.00  0.00    -0.004 A 
ENDROOT
TORSDOF 0
ENDMDL
