MODEL 1
REMARK minimizedAffinity -3.45688105
REMARK minimizedRMSD -1
REMARK  0 active torsions:
REMARK  status: ('A' for Active; 'I' for Inactive)
ROOT
ATOM      1  C   UNL d   1       0.740   1.331  -0.058  0.00  0.00     0.172 C 
ATOM      2  N   UNL d   1       0.755   1.399  -1.500  0.00  0.00    -0.070 N 
ATOM      3  C1  UNL d   1       1.397   2.350  -2.248  0.00  0.00    -0.004 A 
ATOM      4  C2  UNL d   1       1.171   2.065  -3.577  0.00  0.00    -0.047 A 
ATOM      5  C3  UNL d   1       0.365   0.903  -3.630  0.00  0.00    -0.047 A 
ATOM      6  C4  UNL d   1       0.123   0.512  -2.331  0.00  0.00    -0.004 A 
ENDROOT
TORSDOF 0
ENDMDL
