MODEL 1
REMARK minimizedAffinity -1.63389087
REMARK minimizedRMSD -1
REMARK  0 active torsions:
REMARK  status: ('A' for Active; 'I' for Inactive)
ROOT
ATOM      1  C   UNL d   1       0.023   0.416  -0.936  0.00  0.00     0.172 C 
ATOM      2  N   UNL d   1       0.269  -0.770  -0.149  0.00  0.00    -0.070 N 
ATOM      3  C1  UNL d   1       0.918  -1.895  -0.581  0.00  0.00    -0.004 A 
ATOM      4  C2  UNL d   1       0.947  -2.794   0.463  0.00  0.00    -0.047 A 
ATOM      5  C3  UNL d   1       0.293  -2.187   1.562  0.00  0.00    -0.047 A 
ATOM      6  C4  UNL d   1      -0.117  -0.935   1.155  0.00  0.00    -0.004 A 
ENDROOT
TORSDOF 0
ENDMDL
