MODEL 1
REMARK minimizedAffinity -1.67561543
REMARK minimizedRMSD -1
REMARK  0 active torsions:
REMARK  status: ('A' for Active; 'I' for Inactive)
ROOT
ATOM      1  C   UNL d   1       0.618  -2.692   0.966  0.00  0.00     0.172 C 
ATOM      2  N   UNL d   1       0.680  -1.471   0.198  0.00  0.00    -0.070 N 
ATOM      3  C1  UNL d   1       0.669  -1.386  -1.168  0.00  0.00    -0.004 A 
ATOM      4  C2  UNL d   1       0.741  -0.053  -1.509  0.00  0.00    -0.047 A 
ATOM      5  C3  UNL d   1       0.798   0.689  -0.306  0.00  0.00    -0.047 A 
ATOM      6  C4  UNL d   1       0.759  -0.213   0.736  0.00  0.00    -0.004 A 
ENDROOT
TORSDOF 0
ENDMDL
