MODEL 1
REMARK minimizedAffinity -2.65080786
REMARK minimizedRMSD -1
REMARK  0 active torsions:
REMARK  status: ('A' for Active; 'I' for Inactive)
ROOT
ATOM      1  C   UNL d   1       0.875   1.706  -0.149  0.00  0.00     0.172 C 
ATOM      2  N   UNL d   1       0.888   0.264  -0.059  0.00  0.00    -0.070 N 
ATOM      3  C1  UNL d   1       1.736  -0.480   0.717  0.00  0.00    -0.004 A 
ATOM      4  C2  UNL d   1       1.429  -1.809   0.524  0.00  0.00    -0.047 A 
ATOM      5  C3  UNL d   1       0.359  -1.866  -0.401  0.00  0.00    -0.047 A 
ATOM      6  C4  UNL d   1       0.044  -0.568  -0.746  0.00  0.00    -0.004 A 
ENDROOT
TORSDOF 0
ENDMDL
