MODEL 1
REMARK minimizedAffinity -2.54819345
REMARK minimizedRMSD -1
REMARK  0 active torsions:
REMARK  status: ('A' for Active; 'I' for Inactive)
ROOT
ATOM      1  C   UNL d   1       0.362  -1.129   0.733  0.00  0.00     0.172 C 
ATOM      2  N   UNL d   1       0.701  -0.149  -0.272  0.00  0.00    -0.070 N 
ATOM      3  C1  UNL d   1       0.667  -0.350  -1.626  0.00  0.00    -0.004 A 
ATOM      4  C2  UNL d   1       1.060   0.822  -2.236  0.00  0.00    -0.047 A 
ATOM      5  C3  UNL d   1       1.340   1.759  -1.213  0.00  0.00    -0.047 A 
ATOM      6  C4  UNL d   1       1.110   1.131  -0.007  0.00  0.00    -0.004 A 
ENDROOT
TORSDOF 0
ENDMDL
