MODEL 1
REMARK minimizedAffinity -3.29476357
REMARK minimizedRMSD -1
REMARK  0 active torsions:
REMARK  status: ('A' for Active; 'I' for Inactive)
ROOT
ATOM      1  C   UNL d   1       3.382   2.193   4.637  0.00  0.00     0.078 C 
ATOM      2  C1  UNL d   1       4.072   3.524   4.671  0.00  0.00    -0.077 A 
ATOM      3  C2  UNL d   1       3.471   4.662   4.120  0.00  0.00    -0.001 A 
ATOM      4  C3  UNL d   1       4.129   5.893   4.150  0.00  0.00     0.003 A 
ATOM      5  C4  UNL d   1       5.392   5.997   4.730  0.00  0.00    -0.005 A 
ATOM      6  C5  UNL d   1       5.999   4.869   5.279  0.00  0.00     0.003 A 
ATOM      7  C6  UNL d   1       5.342   3.638   5.250  0.00  0.00    -0.001 A 
ENDROOT
TORSDOF 0
ENDMDL
