MODEL 1
REMARK minimizedAffinity 8.59334564
REMARK minimizedRMSD -1
REMARK  0 active torsions:
REMARK  status: ('A' for Active; 'I' for Inactive)
ROOT
ATOM      1  C   UNL d   1      -4.909   4.942   1.738  0.00  0.00     0.078 C 
ATOM      2  C1  UNL d   1      -5.131   4.922   3.221  0.00  0.00    -0.077 A 
ATOM      3  C2  UNL d   1      -5.783   3.847   3.837  0.00  0.00    -0.001 A 
ATOM      4  C3  UNL d   1      -5.992   3.846   5.218  0.00  0.00     0.003 A 
ATOM      5  C4  UNL d   1      -5.551   4.917   5.993  0.00  0.00    -0.005 A 
ATOM      6  C5  UNL d   1      -4.903   5.991   5.388  0.00  0.00     0.003 A 
ATOM      7  C6  UNL d   1      -4.694   5.995   4.008  0.00  0.00    -0.001 A 
ENDROOT
TORSDOF 0
ENDMDL
