MODEL 1
REMARK minimizedAffinity 6.49005032
REMARK minimizedRMSD -1
REMARK  0 active torsions:
REMARK  status: ('A' for Active; 'I' for Inactive)
ROOT
ATOM      1  C   UNL d   1       1.844   1.128   1.821  0.00  0.00     0.078 C 
ATOM      2  C1  UNL d   1       1.579   0.423   0.524  0.00  0.00    -0.077 A 
ATOM      3  C2  UNL d   1       0.317   0.475  -0.081  0.00  0.00    -0.001 A 
ATOM      4  C3  UNL d   1       0.082  -0.194  -1.283  0.00  0.00     0.003 A 
ATOM      5  C4  UNL d   1       1.104  -0.921  -1.890  0.00  0.00    -0.005 A 
ATOM      6  C5  UNL d   1       2.363  -0.981  -1.295  0.00  0.00     0.003 A 
ATOM      7  C6  UNL d   1       2.599  -0.312  -0.093  0.00  0.00    -0.001 A 
ENDROOT
TORSDOF 0
ENDMDL
