MODEL 1
REMARK minimizedAffinity 0.844260275
REMARK minimizedRMSD -1
REMARK  0 active torsions:
REMARK  status: ('A' for Active; 'I' for Inactive)
ROOT
ATOM      1  C   UNL d   1       1.726   0.760   1.411  0.00  0.00     0.078 C 
ATOM      2  C1  UNL d   1       0.677   1.463   0.602  0.00  0.00    -0.077 A 
ATOM      3  C2  UNL d   1       0.798   2.822   0.290  0.00  0.00    -0.001 A 
ATOM      4  C3  UNL d   1      -0.191   3.466  -0.456  0.00  0.00     0.003 A 
ATOM      5  C4  UNL d   1      -1.308   2.758  -0.895  0.00  0.00    -0.005 A 
ATOM      6  C5  UNL d   1      -1.438   1.405  -0.587  0.00  0.00     0.003 A 
ATOM      7  C6  UNL d   1      -0.450   0.760   0.159  0.00  0.00    -0.001 A 
ENDROOT
TORSDOF 0
ENDMDL
