MODEL 1
REMARK minimizedAffinity -1.09127414
REMARK minimizedRMSD -1
REMARK  0 active torsions:
REMARK  status: ('A' for Active; 'I' for Inactive)
ROOT
ATOM      1  C   UNL d   1      -0.339  -5.454  -0.139  0.00  0.00     0.078 C 
ATOM      2  C1  UNL d   1       0.589  -4.278  -0.186  0.00  0.00    -0.077 A 
ATOM      3  C2  UNL d   1       0.110  -2.991  -0.460  0.00  0.00    -0.001 A 
ATOM      4  C3  UNL d   1       0.987  -1.907  -0.510  0.00  0.00     0.003 A 
ATOM      5  C4  UNL d   1       2.349  -2.098  -0.290  0.00  0.00    -0.005 A 
ATOM      6  C5  UNL d   1       2.836  -3.375  -0.019  0.00  0.00     0.003 A 
ATOM      7  C6  UNL d   1       1.960  -4.461   0.032  0.00  0.00    -0.001 A 
ENDROOT
TORSDOF 0
ENDMDL
