MODEL 1
REMARK minimizedAffinity -2.1371491
REMARK minimizedRMSD -1
REMARK  0 active torsions:
REMARK  status: ('A' for Active; 'I' for Inactive)
ROOT
ATOM      1  C   UNL d   1      -0.431  -4.174  -0.062  0.00  0.00     0.078 C 
ATOM      2  C1  UNL d   1       0.682  -3.181  -0.215  0.00  0.00    -0.077 A 
ATOM      3  C2  UNL d   1       0.414  -1.820  -0.410  0.00  0.00    -0.001 A 
ATOM      4  C3  UNL d   1       1.460  -0.909  -0.561  0.00  0.00     0.003 A 
ATOM      5  C4  UNL d   1       2.782  -1.348  -0.521  0.00  0.00    -0.005 A 
ATOM      6  C5  UNL d   1       3.059  -2.700  -0.330  0.00  0.00     0.003 A 
ATOM      7  C6  UNL d   1       2.014  -3.613  -0.178  0.00  0.00    -0.001 A 
ENDROOT
TORSDOF 0
ENDMDL
