MODEL 1
REMARK minimizedAffinity 2.10665822
REMARK minimizedRMSD -1
REMARK  0 active torsions:
REMARK  status: ('A' for Active; 'I' for Inactive)
ROOT
ATOM      1  C   UNL d   1       4.167   3.085   4.116  0.00  0.00     0.078 C 
ATOM      2  C1  UNL d   1       2.940   2.244   4.302  0.00  0.00    -0.077 A 
ATOM      3  C2  UNL d   1       1.958   2.170   3.306  0.00  0.00    -0.001 A 
ATOM      4  C3  UNL d   1       0.816   1.391   3.496  0.00  0.00     0.003 A 
ATOM      5  C4  UNL d   1       0.643   0.681   4.682  0.00  0.00    -0.005 A 
ATOM      6  C5  UNL d   1       1.613   0.749   5.680  0.00  0.00     0.003 A 
ATOM      7  C6  UNL d   1       2.756   1.528   5.492  0.00  0.00    -0.001 A 
ENDROOT
TORSDOF 0
ENDMDL
