MODEL 1
REMARK minimizedAffinity -3.39862037
REMARK minimizedRMSD -1
REMARK  0 active torsions:
REMARK  status: ('A' for Active; 'I' for Inactive)
ROOT
ATOM      1  C   UNL d   1       1.602  -4.112  -1.176  0.00  0.00     0.078 C 
ATOM      2  C1  UNL d   1       1.463  -2.620  -1.223  0.00  0.00    -0.077 A 
ATOM      3  C2  UNL d   1       2.571  -1.799  -1.467  0.00  0.00    -0.001 A 
ATOM      4  C3  UNL d   1       2.429  -0.411  -1.499  0.00  0.00     0.003 A 
ATOM      5  C4  UNL d   1       1.180   0.169  -1.285  0.00  0.00    -0.005 A 
ATOM      6  C5  UNL d   1       0.072  -0.639  -1.039  0.00  0.00     0.003 A 
ATOM      7  C6  UNL d   1       0.212  -2.027  -1.008  0.00  0.00    -0.001 A 
ENDROOT
TORSDOF 0
ENDMDL
