MODEL 1
REMARK minimizedAffinity -4.96239471
REMARK minimizedRMSD -1
REMARK  0 active torsions:
REMARK  status: ('A' for Active; 'I' for Inactive)
ROOT
ATOM      1  C   UNL d   1      -0.582  -0.125  -1.776  0.00  0.00     0.078 C 
ATOM      2  C1  UNL d   1       0.801  -0.612  -1.462  0.00  0.00    -0.077 A 
ATOM      3  C2  UNL d   1       1.884   0.274  -1.411  0.00  0.00    -0.001 A 
ATOM      4  C3  UNL d   1       3.168  -0.195  -1.127  0.00  0.00     0.003 A 
ATOM      5  C4  UNL d   1       3.381  -1.552  -0.892  0.00  0.00    -0.005 A 
ATOM      6  C5  UNL d   1       2.310  -2.442  -0.942  0.00  0.00     0.003 A 
ATOM      7  C6  UNL d   1       1.026  -1.975  -1.226  0.00  0.00    -0.001 A 
ENDROOT
TORSDOF 0
ENDMDL
