MODEL 1
REMARK minimizedAffinity -1.81155908
REMARK minimizedRMSD -1
REMARK  1 active torsions:
REMARK  status: ('A' for Active; 'I' for Inactive)
REMARK    1  A    between atoms: C1_2  and  C2_3 
ROOT
ATOM      1  C2  UNL d   1       1.184   4.932   3.707  0.00  0.00    -0.076 A 
ATOM      2  C3  UNL d   1       1.104   4.436   2.394  0.00  0.00     0.004 A 
ATOM      3  C4  UNL d   1       2.000   3.471   1.936  0.00  0.00    -0.003 A 
ATOM      4  C5  UNL d   1       2.988   2.985   2.785  0.00  0.00     0.000 A 
ATOM      5  C6  UNL d   1       3.071   3.452   4.096  0.00  0.00     0.000 A 
ATOM      6  C7  UNL d   1       2.166   4.414   4.578  0.00  0.00    -0.073 A 
ATOM      7  C8  UNL d   1       2.305   4.887   5.999  0.00  0.00     0.078 C 
ENDROOT
BRANCH   1   8
ATOM      8  C1  UNL d   1       0.203   5.998   4.139  0.00  0.00     0.053 C 
ATOM      9  C   UNL d   1      -1.241   5.610   3.859  0.00  0.00     0.018 C 
ENDBRANCH   1   8
TORSDOF 1
ENDMDL
