MODEL 1
REMARK minimizedAffinity 1.96541929
REMARK minimizedRMSD -1
REMARK  1 active torsions:
REMARK  status: ('A' for Active; 'I' for Inactive)
REMARK    1  A    between atoms: C1_2  and  C2_3 
ROOT
ATOM      1  C2  UNL d   1       1.964   3.789   3.908  0.00  0.00    -0.076 A 
ATOM      2  C3  UNL d   1       3.234   3.869   4.504  0.00  0.00     0.004 A 
ATOM      3  C4  UNL d   1       3.592   4.964   5.288  0.00  0.00    -0.003 A 
ATOM      4  C5  UNL d   1       2.684   5.998   5.489  0.00  0.00     0.000 A 
ATOM      5  C6  UNL d   1       1.413   5.928   4.920  0.00  0.00     0.000 A 
ATOM      6  C7  UNL d   1       1.031   4.823   4.140  0.00  0.00    -0.073 A 
ATOM      7  C8  UNL d   1      -0.350   4.802   3.545  0.00  0.00     0.078 C 
ENDROOT
BRANCH   1   8
ATOM      8  C1  UNL d   1       1.642   2.589   3.046  0.00  0.00     0.053 C 
ATOM      9  C   UNL d   1       2.094   2.769   1.605  0.00  0.00     0.018 C 
ENDBRANCH   1   8
TORSDOF 1
ENDMDL
