MODEL 1
REMARK minimizedAffinity 15.0865421
REMARK minimizedRMSD -1
REMARK  1 active torsions:
REMARK  status: ('A' for Active; 'I' for Inactive)
REMARK    1  A    between atoms: C1_2  and  C2_3 
ROOT
ATOM      1  C2  UNL d   1       3.489   3.970   4.145  0.00  0.00    -0.076 A 
ATOM      2  C3  UNL d   1       4.548   3.405   3.413  0.00  0.00     0.004 A 
ATOM      3  C4  UNL d   1       4.312   2.724   2.219  0.00  0.00    -0.003 A 
ATOM      4  C5  UNL d   1       3.014   2.598   1.738  0.00  0.00     0.000 A 
ATOM      5  C6  UNL d   1       1.953   3.168   2.442  0.00  0.00     0.000 A 
ATOM      6  C7  UNL d   1       2.175   3.871   3.638  0.00  0.00    -0.073 A 
ATOM      7  C8  UNL d   1       0.994   4.460   4.359  0.00  0.00     0.078 C 
ENDROOT
BRANCH   1   8
ATOM      8  C1  UNL d   1       3.802   4.672   5.446  0.00  0.00     0.053 C 
ATOM      9  C   UNL d   1       4.529   5.992   5.236  0.00  0.00     0.018 C 
ENDBRANCH   1   8
TORSDOF 1
ENDMDL
