MODEL 1
REMARK minimizedAffinity 8.93929863
REMARK minimizedRMSD -1
REMARK  1 active torsions:
REMARK  status: ('A' for Active; 'I' for Inactive)
REMARK    1  A    between atoms: C1_2  and  C2_3 
ROOT
ATOM      1  C2  UNL d   1       3.294   5.249   4.587  0.00  0.00    -0.076 A 
ATOM      2  C3  UNL d   1       2.513   5.965   5.512  0.00  0.00     0.004 A 
ATOM      3  C4  UNL d   1       1.124   6.000   5.403  0.00  0.00    -0.003 A 
ATOM      4  C5  UNL d   1       0.493   5.319   4.368  0.00  0.00     0.000 A 
ATOM      5  C6  UNL d   1       1.250   4.589   3.452  0.00  0.00     0.000 A 
ATOM      6  C7  UNL d   1       2.650   4.530   3.557  0.00  0.00    -0.073 A 
ATOM      7  C8  UNL d   1       3.418   3.732   2.539  0.00  0.00     0.078 C 
ENDROOT
BRANCH   1   8
ATOM      8  C1  UNL d   1       4.798   5.269   4.740  0.00  0.00     0.053 C 
ATOM      9  C   UNL d   1       5.246   5.998   5.997  0.00  0.00     0.018 C 
ENDBRANCH   1   8
TORSDOF 1
ENDMDL
