MODEL 1
REMARK minimizedAffinity 2.3447628
REMARK minimizedRMSD -1
REMARK  1 active torsions:
REMARK  status: ('A' for Active; 'I' for Inactive)
REMARK    1  A    between atoms: C1_2  and  C2_3 
ROOT
ATOM      1  C2  UNL d   1       2.987   3.854  -5.965  0.00  0.00    -0.076 A 
ATOM      2  C3  UNL d   1       4.054   4.769  -5.982  0.00  0.00     0.004 A 
ATOM      3  C4  UNL d   1       5.376   4.329  -5.996  0.00  0.00    -0.003 A 
ATOM      4  C5  UNL d   1       5.654   2.967  -5.996  0.00  0.00     0.000 A 
ATOM      5  C6  UNL d   1       4.608   2.045  -5.997  0.00  0.00     0.000 A 
ATOM      6  C7  UNL d   1       3.269   2.471  -5.999  0.00  0.00    -0.073 A 
ATOM      7  C8  UNL d   1       2.180   1.433  -5.994  0.00  0.00     0.078 C 
ENDROOT
BRANCH   1   8
ATOM      8  C1  UNL d   1       1.574   4.389  -5.922  0.00  0.00     0.053 C 
ATOM      9  C   UNL d   1       1.523   5.908  -5.992  0.00  0.00     0.018 C 
ENDBRANCH   1   8
TORSDOF 1
ENDMDL
