MODEL 1
REMARK minimizedAffinity 5.79310322
REMARK minimizedRMSD -1
REMARK  1 active torsions:
REMARK  status: ('A' for Active; 'I' for Inactive)
REMARK    1  A    between atoms: C1_2  and  C2_3 
ROOT
ATOM      1  C2  UNL d   1       3.847  -2.939   1.193  0.00  0.00    -0.076 A 
ATOM      2  C3  UNL d   1       5.088  -2.515   0.687  0.00  0.00     0.004 A 
ATOM      3  C4  UNL d   1       5.160  -1.633  -0.390  0.00  0.00    -0.003 A 
ATOM      4  C5  UNL d   1       3.992  -1.160  -0.978  0.00  0.00     0.000 A 
ATOM      5  C6  UNL d   1       2.752  -1.556  -0.478  0.00  0.00     0.000 A 
ATOM      6  C7  UNL d   1       2.662  -2.432   0.618  0.00  0.00    -0.073 A 
ATOM      7  C8  UNL d   1       1.299  -2.831   1.113  0.00  0.00     0.078 C 
ENDROOT
BRANCH   1   8
ATOM      8  C1  UNL d   1       3.831  -3.918   2.345  0.00  0.00     0.053 C 
ATOM      9  C   UNL d   1       4.723  -3.478   3.496  0.00  0.00     0.018 C 
ENDBRANCH   1   8
TORSDOF 1
ENDMDL
