MODEL 1
REMARK minimizedAffinity 1.53943908
REMARK minimizedRMSD -1
REMARK  1 active torsions:
REMARK  status: ('A' for Active; 'I' for Inactive)
REMARK    1  A    between atoms: C1_2  and  C2_3 
ROOT
ATOM      1  C2  UNL d   1       2.236   3.587  -5.974  0.00  0.00    -0.076 A 
ATOM      2  C3  UNL d   1       3.520   4.160  -5.992  0.00  0.00     0.004 A 
ATOM      3  C4  UNL d   1       4.662   3.362  -5.998  0.00  0.00    -0.003 A 
ATOM      4  C5  UNL d   1       4.540   1.977  -5.986  0.00  0.00     0.000 A 
ATOM      5  C6  UNL d   1       3.275   1.391  -5.986  0.00  0.00     0.000 A 
ATOM      6  C7  UNL d   1       2.112   2.181  -5.997  0.00  0.00    -0.073 A 
ATOM      7  C8  UNL d   1       0.773   1.496  -5.990  0.00  0.00     0.078 C 
ENDROOT
BRANCH   1   8
ATOM      8  C1  UNL d   1       1.034   4.503  -5.941  0.00  0.00     0.053 C 
ATOM      9  C   UNL d   1       1.420   5.973  -5.980  0.00  0.00     0.018 C 
ENDBRANCH   1   8
TORSDOF 1
ENDMDL
