MODEL 1
REMARK minimizedAffinity -2.12277365
REMARK minimizedRMSD -1
REMARK  1 active torsions:
REMARK  status: ('A' for Active; 'I' for Inactive)
REMARK    1  A    between atoms: C3_4  and  O_7 
ROOT
ATOM      1  C   UNL d   1      -2.060   1.618   0.344  0.00  0.00    -0.033 A 
ATOM      2  C1  UNL d   1      -2.122   0.704   1.398  0.00  0.00     0.039 A 
ATOM      3  C2  UNL d   1      -1.357  -0.463   1.358  0.00  0.00    -0.080 A 
ATOM      4  C3  UNL d   1      -0.535  -0.704   0.261  0.00  0.00     0.150 A 
ATOM      5  C4  UNL d   1      -0.466   0.204  -0.791  0.00  0.00    -0.007 A 
ATOM      6  C5  UNL d   1      -1.231   1.368  -0.750  0.00  0.00     0.039 A 
ENDROOT
BRANCH   4   7
ATOM      7  O   UNL d   1       0.227  -1.831   0.175  0.00  0.00    -0.526 OA
ATOM      8  H5  UNL d   1       0.055  -2.379   0.959  0.00  0.00     0.418 HD
ENDBRANCH   4   7
TORSDOF 1
ENDMDL
