MODEL 1
REMARK minimizedAffinity -0.873205483
REMARK minimizedRMSD -1
REMARK  1 active torsions:
REMARK  status: ('A' for Active; 'I' for Inactive)
REMARK    1  A    between atoms: C3_4  and  O_7 
ROOT
ATOM      1  C   UNL d   1      -0.976   0.030   0.002  0.00  0.00    -0.033 A 
ATOM      2  C1  UNL d   1       0.077   0.886  -0.326  0.00  0.00     0.039 A 
ATOM      3  C2  UNL d   1       1.326   0.361  -0.664  0.00  0.00    -0.080 A 
ATOM      4  C3  UNL d   1       1.509  -1.019  -0.670  0.00  0.00     0.150 A 
ATOM      5  C4  UNL d   1       0.463  -1.877  -0.348  0.00  0.00    -0.007 A 
ATOM      6  C5  UNL d   1      -0.784  -1.352  -0.010  0.00  0.00     0.039 A 
ENDROOT
BRANCH   4   7
ATOM      7  O   UNL d   1       2.711  -1.577  -0.989  0.00  0.00    -0.526 OA
ATOM      8  H5  UNL d   1       3.346  -0.863  -1.161  0.00  0.00     0.418 HD
ENDBRANCH   4   7
TORSDOF 1
ENDMDL
