MODEL 1
REMARK minimizedAffinity -3.03495288
REMARK minimizedRMSD -1
REMARK  1 active torsions:
REMARK  status: ('A' for Active; 'I' for Inactive)
REMARK    1  A    between atoms: C3_4  and  O_7 
ROOT
ATOM      1  C   UNL d   1       1.930  -0.853  -1.449  0.00  0.00    -0.033 A 
ATOM      2  C1  UNL d   1       1.586  -1.804  -0.486  0.00  0.00     0.039 A 
ATOM      3  C2  UNL d   1       0.539  -1.553   0.402  0.00  0.00    -0.080 A 
ATOM      4  C3  UNL d   1      -0.157  -0.350   0.317  0.00  0.00     0.150 A 
ATOM      5  C4  UNL d   1       0.178   0.600  -0.643  0.00  0.00    -0.007 A 
ATOM      6  C5  UNL d   1       1.225   0.349  -1.528  0.00  0.00     0.039 A 
ENDROOT
BRANCH   4   7
ATOM      7  O   UNL d   1      -1.183  -0.058   1.165  0.00  0.00    -0.526 OA
ATOM      8  H5  UNL d   1      -1.283  -0.794   1.792  0.00  0.00     0.418 HD
ENDBRANCH   4   7
TORSDOF 1
ENDMDL
