MODEL 1
REMARK minimizedAffinity -4.81848669
REMARK minimizedRMSD -1
REMARK  1 active torsions:
REMARK  status: ('A' for Active; 'I' for Inactive)
REMARK    1  A    between atoms: C3_4  and  O_7 
ROOT
ATOM      1  C   UNL d   1      -0.641  -0.825   0.057  0.00  0.00    -0.033 A 
ATOM      2  C1  UNL d   1       0.026   0.367  -0.232  0.00  0.00     0.039 A 
ATOM      3  C2  UNL d   1       1.392   0.352  -0.521  0.00  0.00    -0.080 A 
ATOM      4  C3  UNL d   1       2.078  -0.859  -0.518  0.00  0.00     0.150 A 
ATOM      5  C4  UNL d   1       1.419  -2.051  -0.235  0.00  0.00    -0.007 A 
ATOM      6  C5  UNL d   1       0.056  -2.034   0.055  0.00  0.00     0.039 A 
ENDROOT
BRANCH   4   7
ATOM      7  O   UNL d   1       3.413  -0.923  -0.790  0.00  0.00    -0.526 OA
ATOM      8  H5  UNL d   1       3.740  -0.020  -0.939  0.00  0.00     0.418 HD
ENDBRANCH   4   7
TORSDOF 1
ENDMDL
