MODEL 1
REMARK minimizedAffinity -4.71738672
REMARK minimizedRMSD -1
REMARK  1 active torsions:
REMARK  status: ('A' for Active; 'I' for Inactive)
REMARK    1  A    between atoms: C3_4  and  O_7 
ROOT
ATOM      1  C   UNL d   1      -1.257   0.108  -0.149  0.00  0.00    -0.033 A 
ATOM      2  C1  UNL d   1      -0.522   1.218  -0.570  0.00  0.00     0.039 A 
ATOM      3  C2  UNL d   1       0.824   1.076  -0.914  0.00  0.00    -0.080 A 
ATOM      4  C3  UNL d   1       1.421  -0.179  -0.832  0.00  0.00     0.150 A 
ATOM      5  C4  UNL d   1       0.694  -1.289  -0.417  0.00  0.00    -0.007 A 
ATOM      6  C5  UNL d   1      -0.650  -1.146  -0.074  0.00  0.00     0.039 A 
ENDROOT
BRANCH   4   7
ATOM      7  O   UNL d   1       2.733  -0.365  -1.152  0.00  0.00    -0.526 OA
ATOM      8  H5  UNL d   1       3.116   0.494  -1.394  0.00  0.00     0.418 HD
ENDBRANCH   4   7
TORSDOF 1
ENDMDL
