MODEL 1
REMARK minimizedAffinity -5.09742737
REMARK minimizedRMSD -1
REMARK  1 active torsions:
REMARK  status: ('A' for Active; 'I' for Inactive)
REMARK    1  A    between atoms: C3_4  and  O_7 
ROOT
ATOM      1  C   UNL d   1       1.768  -0.452  -1.377  0.00  0.00    -0.033 A 
ATOM      2  C1  UNL d   1       0.971  -1.557  -1.073  0.00  0.00     0.039 A 
ATOM      3  C2  UNL d   1      -0.129  -1.415  -0.224  0.00  0.00    -0.080 A 
ATOM      4  C3  UNL d   1      -0.420  -0.164   0.313  0.00  0.00     0.150 A 
ATOM      5  C4  UNL d   1       0.368   0.942   0.011  0.00  0.00    -0.007 A 
ATOM      6  C5  UNL d   1       1.466   0.798  -0.836  0.00  0.00     0.039 A 
ENDROOT
BRANCH   4   7
ATOM      7  O   UNL d   1      -1.479   0.024   1.150  0.00  0.00    -0.526 OA
ATOM      8  H5  UNL d   1      -1.916  -0.833   1.291  0.00  0.00     0.418 HD
ENDBRANCH   4   7
TORSDOF 1
ENDMDL
