MODEL 1
REMARK minimizedAffinity -3.83772373
REMARK minimizedRMSD -1
REMARK  1 active torsions:
REMARK  status: ('A' for Active; 'I' for Inactive)
REMARK    1  A    between atoms: C3_4  and  O_7 
ROOT
ATOM      1  C   UNL d   1      -1.695   1.959   1.785  0.00  0.00    -0.033 A 
ATOM      2  C1  UNL d   1      -2.144   2.332   3.054  0.00  0.00     0.039 A 
ATOM      3  C2  UNL d   1      -2.903   1.443   3.816  0.00  0.00    -0.080 A 
ATOM      4  C3  UNL d   1      -3.206   0.186   3.300  0.00  0.00     0.150 A 
ATOM      5  C4  UNL d   1      -2.759  -0.194   2.039  0.00  0.00    -0.007 A 
ATOM      6  C5  UNL d   1      -2.001   0.696   1.279  0.00  0.00     0.039 A 
ENDROOT
BRANCH   4   7
ATOM      7  O   UNL d   1      -3.949  -0.714   4.006  0.00  0.00    -0.526 OA
ATOM      8  H5  UNL d   1      -4.212  -0.304   4.846  0.00  0.00     0.418 HD
ENDBRANCH   4   7
TORSDOF 1
ENDMDL
