MODEL 1
REMARK minimizedAffinity -4.7024498
REMARK minimizedRMSD -1
REMARK  1 active torsions:
REMARK  status: ('A' for Active; 'I' for Inactive)
REMARK    1  A    between atoms: C3_4  and  O_7 
ROOT
ATOM      1  C   UNL d   1      -0.684  -0.184   0.219  0.00  0.00    -0.033 A 
ATOM      2  C1  UNL d   1      -0.154  -1.465   0.057  0.00  0.00     0.039 A 
ATOM      3  C2  UNL d   1       1.133  -1.630  -0.459  0.00  0.00    -0.080 A 
ATOM      4  C3  UNL d   1       1.878  -0.507  -0.807  0.00  0.00     0.150 A 
ATOM      5  C4  UNL d   1       1.358   0.773  -0.644  0.00  0.00    -0.007 A 
ATOM      6  C5  UNL d   1       0.073   0.935  -0.129  0.00  0.00     0.039 A 
ENDROOT
BRANCH   4   7
ATOM      7  O   UNL d   1       3.137  -0.618  -1.318  0.00  0.00    -0.526 OA
ATOM      8  H5  UNL d   1       3.353  -1.562  -1.402  0.00  0.00     0.418 HD
ENDBRANCH   4   7
TORSDOF 1
ENDMDL
