MODEL 1
REMARK minimizedAffinity -3.69684434
REMARK minimizedRMSD -1
REMARK  1 active torsions:
REMARK  status: ('A' for Active; 'I' for Inactive)
REMARK    1  A    between atoms: C3_4  and  O_7 
ROOT
ATOM      1  C   UNL d   1      -0.701  -0.195   0.228  0.00  0.00    -0.033 A 
ATOM      2  C1  UNL d   1       0.203   0.855   0.055  0.00  0.00     0.039 A 
ATOM      3  C2  UNL d   1       1.506   0.593  -0.372  0.00  0.00    -0.080 A 
ATOM      4  C3  UNL d   1       1.893  -0.721  -0.622  0.00  0.00     0.150 A 
ATOM      5  C4  UNL d   1       0.996  -1.771  -0.455  0.00  0.00    -0.007 A 
ATOM      6  C5  UNL d   1      -0.305  -1.508  -0.028  0.00  0.00     0.039 A 
ENDROOT
BRANCH   4   7
ATOM      7  O   UNL d   1       3.155  -1.026  -1.036  0.00  0.00    -0.526 OA
ATOM      8  H5  UNL d   1       3.672  -0.204  -1.079  0.00  0.00     0.418 HD
ENDBRANCH   4   7
TORSDOF 1
ENDMDL
