MODEL 1
REMARK minimizedAffinity -4.32318258
REMARK minimizedRMSD -1
REMARK  1 active torsions:
REMARK  status: ('A' for Active; 'I' for Inactive)
REMARK    1  A    between atoms: C3_4  and  O_7 
ROOT
ATOM      1  C   UNL d   1      -0.553   0.426   0.169  0.00  0.00    -0.033 A 
ATOM      2  C1  UNL d   1       0.436   1.100  -0.550  0.00  0.00     0.039 A 
ATOM      3  C2  UNL d   1       1.547   0.405  -1.032  0.00  0.00    -0.080 A 
ATOM      4  C3  UNL d   1       1.655  -0.962  -0.791  0.00  0.00     0.150 A 
ATOM      5  C4  UNL d   1       0.671  -1.640  -0.079  0.00  0.00    -0.007 A 
ATOM      6  C5  UNL d   1      -0.436  -0.944   0.403  0.00  0.00     0.039 A 
ENDROOT
BRANCH   4   7
ATOM      7  O   UNL d   1       2.723  -1.682  -1.238  0.00  0.00    -0.526 OA
ATOM      8  H5  UNL d   1       3.336  -1.077  -1.688  0.00  0.00     0.418 HD
ENDBRANCH   4   7
TORSDOF 1
ENDMDL
