MODEL 1
REMARK minimizedAffinity -3.62052178
REMARK minimizedRMSD -1
REMARK  1 active torsions:
REMARK  status: ('A' for Active; 'I' for Inactive)
REMARK    1  A    between atoms: C3_4  and  O_7 
ROOT
ATOM      1  C   UNL d   1      -0.036   0.026   0.032  0.00  0.00    -0.033 A 
ATOM      2  C1  UNL d   1      -1.392   0.334   0.161  0.00  0.00     0.039 A 
ATOM      3  C2  UNL d   1      -1.923   1.443  -0.502  0.00  0.00    -0.080 A 
ATOM      4  C3  UNL d   1      -1.089   2.233  -1.289  0.00  0.00     0.150 A 
ATOM      5  C4  UNL d   1       0.261   1.929  -1.424  0.00  0.00    -0.007 A 
ATOM      6  C5  UNL d   1       0.790   0.822  -0.761  0.00  0.00     0.039 A 
ENDROOT
BRANCH   4   7
ATOM      7  O   UNL d   1      -1.561   3.327  -1.951  0.00  0.00    -0.526 OA
ATOM      8  H5  UNL d   1      -2.505   3.430  -1.741  0.00  0.00     0.418 HD
ENDBRANCH   4   7
TORSDOF 1
ENDMDL
