MODEL 1
REMARK minimizedAffinity -2.3538723
REMARK minimizedRMSD -1
REMARK  1 active torsions:
REMARK  status: ('A' for Active; 'I' for Inactive)
REMARK    1  A    between atoms: C3_4  and  O_7 
ROOT
ATOM      1  C   UNL d   1       2.418  -0.891  -1.042  0.00  0.00    -0.033 A 
ATOM      2  C1  UNL d   1       1.375  -0.309  -0.320  0.00  0.00     0.039 A 
ATOM      3  C2  UNL d   1       0.850   0.922  -0.717  0.00  0.00    -0.080 A 
ATOM      4  C3  UNL d   1       1.376   1.561  -1.836  0.00  0.00     0.150 A 
ATOM      5  C4  UNL d   1       2.413   0.985  -2.563  0.00  0.00    -0.007 A 
ATOM      6  C5  UNL d   1       2.937  -0.244  -2.165  0.00  0.00     0.039 A 
ENDROOT
BRANCH   4   7
ATOM      7  O   UNL d   1       0.900   2.766  -2.259  0.00  0.00    -0.526 OA
ATOM      8  H5  UNL d   1       0.205   3.055  -1.645  0.00  0.00     0.418 HD
ENDBRANCH   4   7
TORSDOF 1
ENDMDL
