MODEL 1
REMARK minimizedAffinity -3.51143265
REMARK minimizedRMSD -1
REMARK  1 active torsions:
REMARK  status: ('A' for Active; 'I' for Inactive)
REMARK    1  A    between atoms: C3_4  and  O_7 
ROOT
ATOM      1  C   UNL d   1      -0.900  -0.261   0.422  0.00  0.00    -0.033 A 
ATOM      2  C1  UNL d   1       0.010   0.735   0.060  0.00  0.00     0.039 A 
ATOM      3  C2  UNL d   1       1.154   0.406  -0.670  0.00  0.00    -0.080 A 
ATOM      4  C3  UNL d   1       1.375  -0.920  -1.033  0.00  0.00     0.150 A 
ATOM      5  C4  UNL d   1       0.471  -1.916  -0.679  0.00  0.00    -0.007 A 
ATOM      6  C5  UNL d   1      -0.670  -1.586   0.051  0.00  0.00     0.039 A 
ENDROOT
BRANCH   4   7
ATOM      7  O   UNL d   1       2.480  -1.290  -1.741  0.00  0.00    -0.526 OA
ATOM      8  H5  UNL d   1       3.028  -0.502  -1.890  0.00  0.00     0.418 HD
ENDBRANCH   4   7
TORSDOF 1
ENDMDL
