MODEL 1
REMARK minimizedAffinity 22.0151367
REMARK minimizedRMSD -1
REMARK  0 active torsions:
REMARK  status: ('A' for Active; 'I' for Inactive)
ROOT
ATOM      1  C   UNL d   1       0.058   2.289   1.713  0.00  0.00     0.124 A 
ATOM      2  C1  UNL d   1      -1.108   3.030   1.584  0.00  0.00     0.062 A 
ATOM      3  C2  UNL d   1      -2.302   2.556   2.120  0.00  0.00     0.162 A 
ATOM      4  C3  UNL d   1      -2.335   1.334   2.791  0.00  0.00    -0.034 A 
ATOM      5  C4  UNL d   1      -1.158   0.594   2.916  0.00  0.00     0.162 A 
ATOM      6  C5  UNL d   1       0.033   1.072   2.379  0.00  0.00     0.062 A 
ATOM      7  F   UNL d   1       1.159   0.355   2.505  0.00  0.00    -0.097 F 
ATOM      8  F1  UNL d   1      -1.154  -0.585   3.556  0.00  0.00    -0.096 F 
ATOM      9  I   UNL d   1      -4.118   0.621   3.594  0.00  0.00    -0.060 I 
ATOM     10  F2  UNL d   1      -3.414   3.293   1.980  0.00  0.00    -0.096 F 
ATOM     11  F3  UNL d   1      -1.086   4.206   0.940  0.00  0.00    -0.097 F 
ATOM     12  F4  UNL d   1       1.205   2.748   1.195  0.00  0.00    -0.092 F 
ENDROOT
TORSDOF 0
ENDMDL
