MODEL 1
REMARK minimizedAffinity -2.67612243
REMARK minimizedRMSD -1
REMARK  0 active torsions:
REMARK  status: ('A' for Active; 'I' for Inactive)
ROOT
ATOM      1  C   UNL d   1       1.537   2.346   1.700  0.00  0.00     0.124 A 
ATOM      2  C1  UNL d   1       0.537   1.537   2.223  0.00  0.00     0.062 A 
ATOM      3  C2  UNL d   1       0.036   0.474   1.478  0.00  0.00     0.162 A 
ATOM      4  C3  UNL d   1       0.534   0.211   0.202  0.00  0.00    -0.034 A 
ATOM      5  C4  UNL d   1       1.539   1.029  -0.318  0.00  0.00     0.162 A 
ATOM      6  C5  UNL d   1       2.037   2.091   0.431  0.00  0.00     0.062 A 
ATOM      7  F   UNL d   1       3.003   2.871  -0.076  0.00  0.00    -0.097 F 
ATOM      8  F1  UNL d   1       2.041   0.805  -1.541  0.00  0.00    -0.096 F 
ATOM      9  I   UNL d   1      -0.213  -1.378  -0.914  0.00  0.00    -0.060 I 
ATOM     10  F2  UNL d   1      -0.930  -0.291   2.009  0.00  0.00    -0.096 F 
ATOM     11  F3  UNL d   1       0.052   1.782   3.449  0.00  0.00    -0.097 F 
ATOM     12  F4  UNL d   1       2.017   3.369   2.418  0.00  0.00    -0.092 F 
ENDROOT
TORSDOF 0
ENDMDL
