MODEL 1
REMARK minimizedAffinity 19.1052494
REMARK minimizedRMSD -1
REMARK  0 active torsions:
REMARK  status: ('A' for Active; 'I' for Inactive)
ROOT
ATOM      1  C   UNL d   1       1.529  -0.238  -2.736  0.00  0.00     0.124 A 
ATOM      2  C1  UNL d   1       2.233  -0.458  -1.560  0.00  0.00     0.062 A 
ATOM      3  C2  UNL d   1       2.178   0.472  -0.527  0.00  0.00     0.162 A 
ATOM      4  C3  UNL d   1       1.416   1.633  -0.664  0.00  0.00    -0.034 A 
ATOM      5  C4  UNL d   1       0.712   1.848  -1.850  0.00  0.00     0.162 A 
ATOM      6  C5  UNL d   1       0.770   0.915  -2.880  0.00  0.00     0.062 A 
ATOM      7  F   UNL d   1       0.090   1.129  -4.016  0.00  0.00    -0.097 F 
ATOM      8  F1  UNL d   1      -0.030   2.953  -2.016  0.00  0.00    -0.096 F 
ATOM      9  I   UNL d   1       1.332   3.027   0.879  0.00  0.00    -0.060 I 
ATOM     10  F2  UNL d   1       2.868   0.233   0.599  0.00  0.00    -0.096 F 
ATOM     11  F3  UNL d   1       2.968  -1.571  -1.419  0.00  0.00    -0.097 F 
ATOM     12  F4  UNL d   1       1.584  -1.135  -3.729  0.00  0.00    -0.092 F 
ENDROOT
TORSDOF 0
ENDMDL
