MODEL 1
REMARK minimizedAffinity 5.60561705
REMARK minimizedRMSD -1
REMARK  0 active torsions:
REMARK  status: ('A' for Active; 'I' for Inactive)
ROOT
ATOM      1  C   UNL d   1       3.129  -0.083  -0.514  0.00  0.00     0.124 A 
ATOM      2  C1  UNL d   1       2.197  -0.936   0.062  0.00  0.00     0.062 A 
ATOM      3  C2  UNL d   1       1.253  -0.440   0.956  0.00  0.00     0.162 A 
ATOM      4  C3  UNL d   1       1.234   0.917   1.279  0.00  0.00    -0.034 A 
ATOM      5  C4  UNL d   1       2.175   1.768   0.697  0.00  0.00     0.162 A 
ATOM      6  C5  UNL d   1       3.117   1.268  -0.196  0.00  0.00     0.062 A 
ATOM      7  F   UNL d   1       4.016   2.093  -0.751  0.00  0.00    -0.097 F 
ATOM      8  F1  UNL d   1       2.186   3.078   0.986  0.00  0.00    -0.096 F 
ATOM      9  I   UNL d   1      -0.176   1.662   2.616  0.00  0.00    -0.060 I 
ATOM     10  F2  UNL d   1       0.364  -1.287   1.497  0.00  0.00    -0.096 F 
ATOM     11  F3  UNL d   1       2.207  -2.242  -0.243  0.00  0.00    -0.097 F 
ATOM     12  F4  UNL d   1       4.037  -0.563  -1.373  0.00  0.00    -0.092 F 
ENDROOT
TORSDOF 0
ENDMDL
