MODEL 1
REMARK minimizedAffinity 10.7136173
REMARK minimizedRMSD -1
REMARK  0 active torsions:
REMARK  status: ('A' for Active; 'I' for Inactive)
ROOT
ATOM      1  C   UNL d   1       3.225   1.169  -0.075  0.00  0.00     0.124 A 
ATOM      2  C1  UNL d   1       2.940   2.318   0.650  0.00  0.00     0.062 A 
ATOM      3  C2  UNL d   1       1.750   2.417   1.365  0.00  0.00     0.162 A 
ATOM      4  C3  UNL d   1       0.836   1.363   1.361  0.00  0.00    -0.034 A 
ATOM      5  C4  UNL d   1       1.129   0.211   0.628  0.00  0.00     0.162 A 
ATOM      6  C5  UNL d   1       2.320   0.117  -0.085  0.00  0.00     0.062 A 
ATOM      7  F   UNL d   1       2.593  -0.994  -0.785  0.00  0.00    -0.097 F 
ATOM      8  F1  UNL d   1       0.273  -0.820   0.602  0.00  0.00    -0.096 F 
ATOM      9  I   UNL d   1      -0.944   1.508   2.429  0.00  0.00    -0.060 I 
ATOM     10  F2  UNL d   1       1.501   3.539   2.057  0.00  0.00    -0.096 F 
ATOM     11  F3  UNL d   1       3.813   3.336   0.660  0.00  0.00    -0.097 F 
ATOM     12  F4  UNL d   1       4.370   1.076  -0.764  0.00  0.00    -0.092 F 
ENDROOT
TORSDOF 0
ENDMDL
