MODEL 1
REMARK minimizedAffinity 16.9394989
REMARK minimizedRMSD -1
REMARK  0 active torsions:
REMARK  status: ('A' for Active; 'I' for Inactive)
ROOT
ATOM      1  C   UNL d   1       1.668   1.667   1.190  0.00  0.00     0.124 A 
ATOM      2  C1  UNL d   1       1.844   0.902   0.045  0.00  0.00     0.062 A 
ATOM      3  C2  UNL d   1       1.317  -0.384  -0.026  0.00  0.00     0.162 A 
ATOM      4  C3  UNL d   1       0.606  -0.914   1.051  0.00  0.00    -0.034 A 
ATOM      5  C4  UNL d   1       0.434  -0.139   2.199  0.00  0.00     0.162 A 
ATOM      6  C5  UNL d   1       0.963   1.145   2.266  0.00  0.00     0.062 A 
ATOM      7  F   UNL d   1       0.791   1.882   3.373  0.00  0.00    -0.097 F 
ATOM      8  F1  UNL d   1      -0.244  -0.618   3.253  0.00  0.00    -0.096 F 
ATOM      9  I   UNL d   1      -0.184  -2.836   0.948  0.00  0.00    -0.060 I 
ATOM     10  F2  UNL d   1       1.503  -1.100  -1.145  0.00  0.00    -0.096 F 
ATOM     11  F3  UNL d   1       2.526   1.403  -0.995  0.00  0.00    -0.097 F 
ATOM     12  F4  UNL d   1       2.177   2.903   1.256  0.00  0.00    -0.092 F 
ENDROOT
TORSDOF 0
ENDMDL
