MODEL 1
REMARK minimizedAffinity 15.2976284
REMARK minimizedRMSD -1
REMARK  0 active torsions:
REMARK  status: ('A' for Active; 'I' for Inactive)
ROOT
ATOM      1  C   UNL d   1       1.761   2.571   1.230  0.00  0.00     0.124 A 
ATOM      2  C1  UNL d   1       0.667   2.185   1.992  0.00  0.00     0.062 A 
ATOM      3  C2  UNL d   1       0.155   0.896   1.879  0.00  0.00     0.162 A 
ATOM      4  C3  UNL d   1       0.736  -0.018   1.000  0.00  0.00    -0.034 A 
ATOM      5  C4  UNL d   1       1.836   0.378   0.236  0.00  0.00     0.162 A 
ATOM      6  C5  UNL d   1       2.344   1.667   0.353  0.00  0.00     0.062 A 
ATOM      7  F   UNL d   1       3.401   2.038  -0.384  0.00  0.00    -0.097 F 
ATOM      8  F1  UNL d   1       2.419  -0.476  -0.618  0.00  0.00    -0.096 F 
ATOM      9  I   UNL d   1      -0.027  -1.946   0.829  0.00  0.00    -0.060 I 
ATOM     10  F2  UNL d   1      -0.903   0.551   2.628  0.00  0.00    -0.096 F 
ATOM     11  F3  UNL d   1       0.102   3.057   2.839  0.00  0.00    -0.097 F 
ATOM     12  F4  UNL d   1       2.252   3.812   1.340  0.00  0.00    -0.092 F 
ENDROOT
TORSDOF 0
ENDMDL
