MODEL 1
REMARK minimizedAffinity 13.0518913
REMARK minimizedRMSD -1
REMARK  0 active torsions:
REMARK  status: ('A' for Active; 'I' for Inactive)
ROOT
ATOM      1  C   UNL d   1       1.056  -0.414  -2.850  0.00  0.00     0.124 A 
ATOM      2  C1  UNL d   1       0.462   0.840  -2.897  0.00  0.00     0.062 A 
ATOM      3  C2  UNL d   1       0.640   1.739  -1.850  0.00  0.00     0.162 A 
ATOM      4  C3  UNL d   1       1.418   1.388  -0.746  0.00  0.00    -0.034 A 
ATOM      5  C4  UNL d   1       2.011   0.125  -0.705  0.00  0.00     0.162 A 
ATOM      6  C5  UNL d   1       1.830  -0.770  -1.755  0.00  0.00     0.062 A 
ATOM      7  F   UNL d   1       2.404  -1.980  -1.707  0.00  0.00    -0.097 F 
ATOM      8  F1  UNL d   1       2.765  -0.244   0.341  0.00  0.00    -0.096 F 
ATOM      9  I   UNL d   1       1.688   2.730   0.822  0.00  0.00    -0.060 I 
ATOM     10  F2  UNL d   1       0.055   2.944  -1.922  0.00  0.00    -0.096 F 
ATOM     11  F3  UNL d   1      -0.287   1.186  -3.954  0.00  0.00    -0.097 F 
ATOM     12  F4  UNL d   1       0.881  -1.277  -3.859  0.00  0.00    -0.092 F 
ENDROOT
TORSDOF 0
ENDMDL
