MODEL 1
REMARK minimizedAffinity 20.2093945
REMARK minimizedRMSD -1
REMARK  0 active torsions:
REMARK  status: ('A' for Active; 'I' for Inactive)
ROOT
ATOM      1  C   UNL d   1       1.317   1.342   2.090  0.00  0.00     0.124 A 
ATOM      2  C1  UNL d   1       1.925   1.940   0.994  0.00  0.00     0.062 A 
ATOM      3  C2  UNL d   1       1.878   1.324  -0.254  0.00  0.00     0.162 A 
ATOM      4  C3  UNL d   1       1.221   0.104  -0.413  0.00  0.00    -0.034 A 
ATOM      5  C4  UNL d   1       0.614  -0.491   0.694  0.00  0.00     0.162 A 
ATOM      6  C5  UNL d   1       0.663   0.128   1.939  0.00  0.00     0.062 A 
ATOM      7  F   UNL d   1       0.076  -0.451   2.997  0.00  0.00    -0.097 F 
ATOM      8  F1  UNL d   1      -0.026  -1.664   0.577  0.00  0.00    -0.096 F 
ATOM      9  I   UNL d   1       1.150  -0.819  -2.277  0.00  0.00    -0.060 I 
ATOM     10  F2  UNL d   1       2.474   1.924  -1.295  0.00  0.00    -0.096 F 
ATOM     11  F3  UNL d   1       2.558   3.113   1.137  0.00  0.00    -0.097 F 
ATOM     12  F4  UNL d   1       1.364   1.936   3.289  0.00  0.00    -0.092 F 
ENDROOT
TORSDOF 0
ENDMDL
