MODEL 1
REMARK minimizedAffinity 14.1482553
REMARK minimizedRMSD -1
REMARK  0 active torsions:
REMARK  status: ('A' for Active; 'I' for Inactive)
ROOT
ATOM      1  C   UNL d   1       0.894   2.532   2.235  0.00  0.00     0.124 A 
ATOM      2  C1  UNL d   1       0.902   1.314   2.901  0.00  0.00     0.062 A 
ATOM      3  C2  UNL d   1      -0.292   0.641   3.142  0.00  0.00     0.162 A 
ATOM      4  C3  UNL d   1      -1.505   1.183   2.717  0.00  0.00    -0.034 A 
ATOM      5  C4  UNL d   1      -1.505   2.409   2.049  0.00  0.00     0.162 A 
ATOM      6  C5  UNL d   1      -0.309   3.078   1.810  0.00  0.00     0.062 A 
ATOM      7  F   UNL d   1      -0.319   4.255   1.167  0.00  0.00    -0.097 F 
ATOM      8  F1  UNL d   1      -2.653   2.958   1.626  0.00  0.00    -0.096 F 
ATOM      9  I   UNL d   1      -3.292   0.178   3.076  0.00  0.00    -0.060 I 
ATOM     10  F2  UNL d   1      -0.254  -0.535   3.788  0.00  0.00    -0.096 F 
ATOM     11  F3  UNL d   1       2.063   0.785   3.314  0.00  0.00    -0.097 F 
ATOM     12  F4  UNL d   1       2.044   3.179   2.005  0.00  0.00    -0.092 F 
ENDROOT
TORSDOF 0
ENDMDL
