MODEL 1
REMARK minimizedAffinity 15.8787041
REMARK minimizedRMSD -1
REMARK  0 active torsions:
REMARK  status: ('A' for Active; 'I' for Inactive)
ROOT
ATOM      1  C   UNL d   1       1.876   2.767   1.503  0.00  0.00     0.124 A 
ATOM      2  C1  UNL d   1       0.683   2.321   2.054  0.00  0.00     0.062 A 
ATOM      3  C2  UNL d   1       0.196   1.056   1.739  0.00  0.00     0.162 A 
ATOM      4  C3  UNL d   1       0.903   0.226   0.868  0.00  0.00    -0.034 A 
ATOM      5  C4  UNL d   1       2.102   0.682   0.317  0.00  0.00     0.162 A 
ATOM      6  C5  UNL d   1       2.584   1.947   0.635  0.00  0.00     0.062 A 
ATOM      7  F   UNL d   1       3.737   2.376   0.102  0.00  0.00    -0.097 F 
ATOM      8  F1  UNL d   1       2.807  -0.090  -0.523  0.00  0.00    -0.096 F 
ATOM      9  I   UNL d   1       0.178  -1.666   0.394  0.00  0.00    -0.060 I 
ATOM     10  F2  UNL d   1      -0.960   0.651   2.286  0.00  0.00    -0.096 F 
ATOM     11  F3  UNL d   1      -0.004   3.111   2.892  0.00  0.00    -0.097 F 
ATOM     12  F4  UNL d   1       2.342   3.985   1.807  0.00  0.00    -0.092 F 
ENDROOT
TORSDOF 0
ENDMDL
