MODEL 1
REMARK minimizedAffinity 18.6182404
REMARK minimizedRMSD -1
REMARK  0 active torsions:
REMARK  status: ('A' for Active; 'I' for Inactive)
ROOT
ATOM      1  C   UNL d   1       1.333   0.065  -2.575  0.00  0.00     0.124 A 
ATOM      2  C1  UNL d   1       0.520   1.172  -2.778  0.00  0.00     0.062 A 
ATOM      3  C2  UNL d   1       0.393   2.139  -1.785  0.00  0.00     0.162 A 
ATOM      4  C3  UNL d   1       1.082   2.004  -0.579  0.00  0.00    -0.034 A 
ATOM      5  C4  UNL d   1       1.897   0.887  -0.382  0.00  0.00     0.162 A 
ATOM      6  C5  UNL d   1       2.020  -0.076  -1.378  0.00  0.00     0.062 A 
ATOM      7  F   UNL d   1       2.806  -1.145  -1.181  0.00  0.00    -0.097 F 
ATOM      8  F1  UNL d   1       2.573   0.726   0.765  0.00  0.00    -0.096 F 
ATOM      9  I   UNL d   1       0.896   3.447   0.908  0.00  0.00    -0.060 I 
ATOM     10  F2  UNL d   1      -0.399   3.198  -2.008  0.00  0.00    -0.096 F 
ATOM     11  F3  UNL d   1      -0.146   1.311  -3.934  0.00  0.00    -0.097 F 
ATOM     12  F4  UNL d   1       1.452  -0.864  -3.532  0.00  0.00    -0.092 F 
ENDROOT
TORSDOF 0
ENDMDL
