MODEL 1
REMARK minimizedAffinity 2.22932625
REMARK minimizedRMSD -1
REMARK  0 active torsions:
REMARK  status: ('A' for Active; 'I' for Inactive)
ROOT
ATOM      1  C   UNL d   1       2.435   0.977   0.940  0.00  0.00     0.124 A 
ATOM      2  C1  UNL d   1       1.391   0.640   1.790  0.00  0.00     0.062 A 
ATOM      3  C2  UNL d   1       0.562  -0.437   1.488  0.00  0.00     0.162 A 
ATOM      4  C3  UNL d   1       0.774  -1.185   0.330  0.00  0.00    -0.034 A 
ATOM      5  C4  UNL d   1       1.825  -0.839  -0.521  0.00  0.00     0.162 A 
ATOM      6  C5  UNL d   1       2.651   0.238  -0.215  0.00  0.00     0.062 A 
ATOM      7  F   UNL d   1       3.659   0.562  -1.037  0.00  0.00    -0.097 F 
ATOM      8  F1  UNL d   1       2.057  -1.537  -1.642  0.00  0.00    -0.096 F 
ATOM      9  I   UNL d   1      -0.463  -2.796  -0.125  0.00  0.00    -0.060 I 
ATOM     10  F2  UNL d   1      -0.439  -0.740   2.328  0.00  0.00    -0.096 F 
ATOM     11  F3  UNL d   1       1.179   1.353   2.905  0.00  0.00    -0.097 F 
ATOM     12  F4  UNL d   1       3.230   2.014   1.232  0.00  0.00    -0.092 F 
ENDROOT
TORSDOF 0
ENDMDL
