MODEL 1
REMARK minimizedAffinity 25.7882843
REMARK minimizedRMSD -1
REMARK  0 active torsions:
REMARK  status: ('A' for Active; 'I' for Inactive)
ROOT
ATOM      1  C   UNL d   1       0.876  -0.343  -2.791  0.00  0.00     0.124 A 
ATOM      2  C1  UNL d   1       0.153   0.827  -2.978  0.00  0.00     0.062 A 
ATOM      3  C2  UNL d   1       0.267   1.874  -2.067  0.00  0.00     0.162 A 
ATOM      4  C3  UNL d   1       1.109   1.755  -0.961  0.00  0.00    -0.034 A 
ATOM      5  C4  UNL d   1       1.832   0.575  -0.779  0.00  0.00     0.162 A 
ATOM      6  C5  UNL d   1       1.714  -0.468  -1.692  0.00  0.00     0.062 A 
ATOM      7  F   UNL d   1       2.413  -1.598  -1.510  0.00  0.00    -0.097 F 
ATOM      8  F1  UNL d   1       2.650   0.427   0.273  0.00  0.00    -0.096 F 
ATOM      9  I   UNL d   1       1.282   3.317   0.403  0.00  0.00    -0.060 I 
ATOM     10  F2  UNL d   1      -0.443   2.993  -2.273  0.00  0.00    -0.096 F 
ATOM     11  F3  UNL d   1      -0.658   0.951  -4.038  0.00  0.00    -0.097 F 
ATOM     12  F4  UNL d   1       0.763  -1.348  -3.668  0.00  0.00    -0.092 F 
ENDROOT
TORSDOF 0
ENDMDL
