MODEL 1
REMARK minimizedAffinity 12.4903221
REMARK minimizedRMSD -1
REMARK  2 active torsions:
REMARK  status: ('A' for Active; 'I' for Inactive)
REMARK    1  A    between atoms: C2'_3  and  C1'_4 
REMARK    2  A    between atoms: C1'_4  and  C1_5 
ROOT
ATOM      1  C1  I4B d   1       0.772  -2.611   4.207  0.00  0.00    -0.075 A 
ATOM      2  C2  I4B d   1      -0.465  -3.205   4.221  0.00  0.00     0.003 A 
ATOM      3  C3  I4B d   1      -0.749  -4.239   5.146  0.00  0.00     0.002 A 
ATOM      4  C4  I4B d   1       0.242  -4.678   5.999  0.00  0.00    -0.004 A 
ATOM      5  C5  I4B d   1       1.489  -4.059   6.000  0.00  0.00     0.002 A 
ATOM      6  C6  I4B d   1       1.752  -3.010   5.106  0.00  0.00     0.003 A 
ENDROOT
BRANCH   1   7
ATOM      7  C1' I4B d   1       1.048  -1.545   3.194  0.00  0.00     0.060 C 
BRANCH   7   8
ATOM      8  C2' I4B d   1       0.346  -0.280   3.645  0.00  0.00    -0.013 C 
ATOM      9  C4' I4B d   1       1.293   0.890   3.670  0.00  0.00     0.013 C 
ATOM     10  C3' I4B d   1      -0.800  -0.029   2.710  0.00  0.00     0.013 C 
ENDBRANCH   7   8
ENDBRANCH   1   7
TORSDOF 2
ENDMDL
