MODEL 1
REMARK minimizedAffinity 17.6538944
REMARK minimizedRMSD -1
REMARK  2 active torsions:
REMARK  status: ('A' for Active; 'I' for Inactive)
REMARK    1  A    between atoms: C2'_3  and  C1'_4 
REMARK    2  A    between atoms: C1'_4  and  C1_5 
ROOT
ATOM      1  C1  I4B d   1       2.902   2.941   0.855  0.00  0.00    -0.075 A 
ATOM      2  C2  I4B d   1       2.649   2.553  -0.437  0.00  0.00     0.003 A 
ATOM      3  C3  I4B d   1       2.050   1.298  -0.701  0.00  0.00     0.002 A 
ATOM      4  C4  I4B d   1       1.770   0.445   0.348  0.00  0.00    -0.004 A 
ATOM      5  C5  I4B d   1       2.006   0.849   1.659  0.00  0.00     0.002 A 
ATOM      6  C6  I4B d   1       2.565   2.110   1.915  0.00  0.00     0.003 A 
ENDROOT
BRANCH   1   7
ATOM      7  C1' I4B d   1       3.566   4.260   1.095  0.00  0.00     0.060 C 
BRANCH   7   8
ATOM      8  C2' I4B d   1       4.475   4.546  -0.082  0.00  0.00    -0.013 C 
ATOM      9  C4' I4B d   1       4.410   5.997  -0.481  0.00  0.00     0.013 C 
ATOM     10  C3' I4B d   1       5.870   4.152   0.304  0.00  0.00     0.013 C 
ENDBRANCH   7   8
ENDBRANCH   1   7
TORSDOF 2
ENDMDL
