MODEL 1
REMARK minimizedAffinity 2.69910693
REMARK minimizedRMSD -1
REMARK  2 active torsions:
REMARK  status: ('A' for Active; 'I' for Inactive)
REMARK    1  A    between atoms: C2'_3  and  C1'_4 
REMARK    2  A    between atoms: C1'_4  and  C1_5 
ROOT
ATOM      1  C1  I4B d   1       1.325  -0.716  -0.481  0.00  0.00    -0.075 A 
ATOM      2  C2  I4B d   1      -0.036  -0.768  -0.645  0.00  0.00     0.003 A 
ATOM      3  C3  I4B d   1      -0.699  -2.017  -0.712  0.00  0.00     0.002 A 
ATOM      4  C4  I4B d   1       0.039  -3.182  -0.660  0.00  0.00    -0.004 A 
ATOM      5  C5  I4B d   1       1.417  -3.128  -0.470  0.00  0.00     0.002 A 
ATOM      6  C6  I4B d   1       2.063  -1.887  -0.368  0.00  0.00     0.003 A 
ENDROOT
BRANCH   1   7
ATOM      7  C1' I4B d   1       1.997   0.620  -0.448  0.00  0.00     0.060 C 
BRANCH   7   8
ATOM      8  C2' I4B d   1       3.407   0.447  -0.975  0.00  0.00    -0.013 C 
ATOM      9  C4' I4B d   1       3.401  -0.124  -2.369  0.00  0.00     0.013 C 
ATOM     10  C3' I4B d   1       4.081   1.786  -0.942  0.00  0.00     0.013 C 
ENDBRANCH   7   8
ENDBRANCH   1   7
TORSDOF 2
ENDMDL
