MODEL 1
REMARK minimizedAffinity 6.08496189
REMARK minimizedRMSD -1
REMARK  2 active torsions:
REMARK  status: ('A' for Active; 'I' for Inactive)
REMARK    1  A    between atoms: C2'_3  and  C1'_4 
REMARK    2  A    between atoms: C1'_4  and  C1_5 
ROOT
ATOM      1  C1  I4B d   1      -0.369  -2.674  -1.277  0.00  0.00    -0.075 A 
ATOM      2  C2  I4B d   1      -0.650  -2.333  -2.576  0.00  0.00     0.003 A 
ATOM      3  C3  I4B d   1      -1.519  -3.138  -3.352  0.00  0.00     0.002 A 
ATOM      4  C4  I4B d   1      -2.042  -4.293  -2.808  0.00  0.00    -0.004 A 
ATOM      5  C5  I4B d   1      -1.774  -4.625  -1.483  0.00  0.00     0.002 A 
ATOM      6  C6  I4B d   1      -0.942  -3.804  -0.708  0.00  0.00     0.003 A 
ENDROOT
BRANCH   1   7
ATOM      7  C1' I4B d   1       0.579  -1.819  -0.496  0.00  0.00     0.060 C 
BRANCH   7   8
ATOM      8  C2' I4B d   1       1.954  -2.451  -0.580  0.00  0.00    -0.013 C 
ATOM      9  C4' I4B d   1       2.964  -1.485  -1.141  0.00  0.00     0.013 C 
ATOM     10  C3' I4B d   1       2.341  -2.902   0.796  0.00  0.00     0.013 C 
ENDBRANCH   7   8
ENDBRANCH   1   7
TORSDOF 2
ENDMDL
