MODEL 1
REMARK minimizedAffinity 13.9984694
REMARK minimizedRMSD -1
REMARK  2 active torsions:
REMARK  status: ('A' for Active; 'I' for Inactive)
REMARK    1  A    between atoms: C2'_3  and  C1'_4 
REMARK    2  A    between atoms: C1'_4  and  C1_5 
ROOT
ATOM      1  C1  I4B d   1      -2.665   0.643  -1.278  0.00  0.00    -0.075 A 
ATOM      2  C2  I4B d   1      -2.996  -0.666  -1.522  0.00  0.00     0.003 A 
ATOM      3  C3  I4B d   1      -2.827  -1.215  -2.816  0.00  0.00     0.002 A 
ATOM      4  C4  I4B d   1      -2.374  -0.410  -3.842  0.00  0.00    -0.004 A 
ATOM      5  C5  I4B d   1      -2.017   0.911  -3.587  0.00  0.00     0.002 A 
ATOM      6  C6  I4B d   1      -2.152   1.438  -2.294  0.00  0.00     0.003 A 
ENDROOT
BRANCH   1   7
ATOM      7  C1' I4B d   1      -2.887   1.199   0.093  0.00  0.00     0.060 C 
BRANCH   7   8
ATOM      8  C2' I4B d   1      -4.072   2.142   0.028  0.00  0.00    -0.013 C 
ATOM      9  C4' I4B d   1      -5.347   1.396  -0.266  0.00  0.00     0.013 C 
ATOM     10  C3' I4B d   1      -4.158   2.868   1.337  0.00  0.00     0.013 C 
ENDBRANCH   7   8
ENDBRANCH   1   7
TORSDOF 2
ENDMDL
