MODEL 1
REMARK minimizedAffinity 14.0771608
REMARK minimizedRMSD -1
REMARK  2 active torsions:
REMARK  status: ('A' for Active; 'I' for Inactive)
REMARK    1  A    between atoms: C2'_3  and  C1'_4 
REMARK    2  A    between atoms: C1'_4  and  C1_5 
ROOT
ATOM      1  C1  I4B d   1      -1.024   0.124  -1.734  0.00  0.00    -0.075 A 
ATOM      2  C2  I4B d   1      -1.559   0.459  -0.515  0.00  0.00     0.003 A 
ATOM      3  C3  I4B d   1      -2.944   0.292  -0.274  0.00  0.00     0.002 A 
ATOM      4  C4  I4B d   1      -3.761  -0.161  -1.290  0.00  0.00    -0.004 A 
ATOM      5  C5  I4B d   1      -3.214  -0.521  -2.518  0.00  0.00     0.002 A 
ATOM      6  C6  I4B d   1      -1.835  -0.389  -2.738  0.00  0.00     0.003 A 
ENDROOT
BRANCH   1   7
ATOM      7  C1' I4B d   1       0.437   0.344  -1.965  0.00  0.00     0.060 C 
BRANCH   7   8
ATOM      8  C2' I4B d   1       1.141  -0.989  -1.803  0.00  0.00    -0.013 C 
ATOM      9  C4' I4B d   1       1.491  -1.586  -3.140  0.00  0.00     0.013 C 
ATOM     10  C3' I4B d   1       2.368  -0.766  -0.971  0.00  0.00     0.013 C 
ENDBRANCH   7   8
ENDBRANCH   1   7
TORSDOF 2
ENDMDL
