MODEL 1
REMARK minimizedAffinity 16.0094757
REMARK minimizedRMSD -1
REMARK  2 active torsions:
REMARK  status: ('A' for Active; 'I' for Inactive)
REMARK    1  A    between atoms: C2'_3  and  C1'_4 
REMARK    2  A    between atoms: C1'_4  and  C1_5 
ROOT
ATOM      1  C1  I4B d   1       1.711  -3.674  -0.891  0.00  0.00    -0.075 A 
ATOM      2  C2  I4B d   1       2.364  -3.251   0.239  0.00  0.00     0.003 A 
ATOM      3  C3  I4B d   1       3.082  -2.030   0.232  0.00  0.00     0.002 A 
ATOM      4  C4  I4B d   1       3.162  -1.295  -0.934  0.00  0.00    -0.004 A 
ATOM      5  C5  I4B d   1       2.480  -1.715  -2.072  0.00  0.00     0.002 A 
ATOM      6  C6  I4B d   1       1.739  -2.906  -2.048  0.00  0.00     0.003 A 
ENDROOT
BRANCH   1   7
ATOM      7  C1' I4B d   1       0.989  -4.984  -0.858  0.00  0.00     0.060 C 
BRANCH   7   8
ATOM      8  C2' I4B d   1      -0.482  -4.702  -0.634  0.00  0.00    -0.013 C 
ATOM      9  C4' I4B d   1      -1.305  -5.115  -1.826  0.00  0.00     0.013 C 
ATOM     10  C3' I4B d   1      -0.912  -5.436   0.601  0.00  0.00     0.013 C 
ENDBRANCH   7   8
ENDBRANCH   1   7
TORSDOF 2
ENDMDL
