MODEL 1
REMARK minimizedAffinity 11.7697458
REMARK minimizedRMSD -1
REMARK  0 active torsions:
REMARK  status: ('A' for Active; 'I' for Inactive)
ROOT
ATOM      1  C   UNL d   1       5.646   5.999   0.800  0.00  0.00     0.172 C 
ATOM      2  N   UNL d   1       5.510   4.986   1.820  0.00  0.00    -0.070 N 
ATOM      3  C1  UNL d   1       5.283   5.219   3.150  0.00  0.00    -0.004 A 
ATOM      4  C2  UNL d   1       5.217   3.999   3.787  0.00  0.00    -0.047 A 
ATOM      5  C3  UNL d   1       5.412   2.998   2.806  0.00  0.00    -0.047 A 
ATOM      6  C4  UNL d   1       5.591   3.637   1.597  0.00  0.00    -0.004 A 
ENDROOT
TORSDOF 0
ENDMDL
