MODEL 1
REMARK minimizedAffinity 6.69093132
REMARK minimizedRMSD -1
REMARK  0 active torsions:
REMARK  status: ('A' for Active; 'I' for Inactive)
ROOT
ATOM      1  C   UNL d   1      -2.512   5.997   4.011  0.00  0.00     0.172 C 
ATOM      2  N   UNL d   1      -3.918   5.706   4.166  0.00  0.00    -0.070 N 
ATOM      3  C1  UNL d   1      -4.715   5.101   3.232  0.00  0.00    -0.004 A 
ATOM      4  C2  UNL d   1      -5.985   5.005   3.759  0.00  0.00    -0.047 A 
ATOM      5  C3  UNL d   1      -5.950   5.573   5.055  0.00  0.00    -0.047 A 
ATOM      6  C4  UNL d   1      -4.658   5.999   5.281  0.00  0.00    -0.004 A 
ENDROOT
TORSDOF 0
ENDMDL
