MODEL 1
REMARK minimizedAffinity 4.53987503
REMARK minimizedRMSD -1
REMARK  0 active torsions:
REMARK  status: ('A' for Active; 'I' for Inactive)
ROOT
ATOM      1  C   UNL d   1       3.648   3.437   3.310  0.00  0.00     0.172 C 
ATOM      2  N   UNL d   1       2.780   4.389   3.962  0.00  0.00    -0.070 N 
ATOM      3  C1  UNL d   1       1.583   4.841   3.475  0.00  0.00    -0.004 A 
ATOM      4  C2  UNL d   1       1.066   5.735   4.388  0.00  0.00    -0.047 A 
ATOM      5  C3  UNL d   1       1.985   5.824   5.460  0.00  0.00    -0.047 A 
ATOM      6  C4  UNL d   1       3.037   4.980   5.170  0.00  0.00    -0.004 A 
ENDROOT
TORSDOF 0
ENDMDL
