MODEL 1
REMARK minimizedAffinity 4.85626745
REMARK minimizedRMSD -1
REMARK  0 active torsions:
REMARK  status: ('A' for Active; 'I' for Inactive)
ROOT
ATOM      1  C   UNL d   1      -4.365   2.375   1.271  0.00  0.00     0.172 C 
ATOM      2  N   UNL d   1      -4.333   1.354   0.250  0.00  0.00    -0.070 N 
ATOM      3  C1  UNL d   1      -3.203   0.792  -0.282  0.00  0.00    -0.004 A 
ATOM      4  C2  UNL d   1      -3.596  -0.136  -1.222  0.00  0.00    -0.047 A 
ATOM      5  C3  UNL d   1      -5.011  -0.131  -1.257  0.00  0.00    -0.047 A 
ATOM      6  C4  UNL d   1      -5.441   0.801  -0.336  0.00  0.00    -0.004 A 
ENDROOT
TORSDOF 0
ENDMDL
