MODEL 1
REMARK minimizedAffinity 1.37611783
REMARK minimizedRMSD -1
REMARK  0 active torsions:
REMARK  status: ('A' for Active; 'I' for Inactive)
ROOT
ATOM      1  C   UNL d   1      -4.636   2.731   1.879  0.00  0.00     0.172 C 
ATOM      2  N   UNL d   1      -4.295   1.793   0.835  0.00  0.00    -0.070 N 
ATOM      3  C1  UNL d   1      -3.025   1.460   0.445  0.00  0.00    -0.004 A 
ATOM      4  C2  UNL d   1      -3.125   0.537  -0.573  0.00  0.00    -0.047 A 
ATOM      5  C3  UNL d   1      -4.503   0.308  -0.804  0.00  0.00    -0.047 A 
ATOM      6  C4  UNL d   1      -5.204   1.099   0.081  0.00  0.00    -0.004 A 
ENDROOT
TORSDOF 0
ENDMDL
