MODEL 1
REMARK minimizedAffinity -3.58343697
REMARK minimizedRMSD -1
REMARK  2 active torsions:
REMARK  status: ('A' for Active; 'I' for Inactive)
REMARK    1  A    between atoms: C1_2  and  C2_3 
REMARK    2  A    between atoms: C2_3  and  C3_4 
ROOT
ATOM      1  C3  UNL d   1       0.414   0.666   0.024  0.00  0.00    -0.075 A 
ATOM      2  C4  UNL d   1       0.264  -0.704  -0.235  0.00  0.00     0.002 A 
ATOM      3  C5  UNL d   1      -0.706  -1.449   0.436  0.00  0.00     0.002 A 
ATOM      4  C6  UNL d   1      -1.529  -0.839   1.379  0.00  0.00    -0.004 A 
ATOM      5  C7  UNL d   1      -1.378   0.518   1.656  0.00  0.00     0.002 A 
ATOM      6  C8  UNL d   1      -0.412   1.268   0.983  0.00  0.00     0.002 A 
ENDROOT
BRANCH   1   7
ATOM      7  C2  UNL d   1       1.441   1.485  -0.720  0.00  0.00     0.056 C 
BRANCH   7   8
ATOM      8  C1  UNL d   1       0.848   2.407  -1.791  0.00  0.00     0.007 C 
ATOM      9  C   UNL d   1       0.449   1.670  -3.063  0.00  0.00     0.009 C 
ENDBRANCH   7   8
ENDBRANCH   1   7
TORSDOF 2
ENDMDL
