MODEL 1
REMARK minimizedAffinity -5.50784779
REMARK minimizedRMSD -1
REMARK  2 active torsions:
REMARK  status: ('A' for Active; 'I' for Inactive)
REMARK    1  A    between atoms: C1_2  and  C2_3 
REMARK    2  A    between atoms: C2_3  and  C3_4 
ROOT
ATOM      1  C3  UNL d   1       0.267   0.207   0.301  0.00  0.00    -0.075 A 
ATOM      2  C4  UNL d   1       1.066   0.909  -0.613  0.00  0.00     0.002 A 
ATOM      3  C5  UNL d   1       0.922   2.288  -0.767  0.00  0.00     0.002 A 
ATOM      4  C6  UNL d   1      -0.028   2.980  -0.018  0.00  0.00    -0.004 A 
ATOM      5  C7  UNL d   1      -0.839   2.290   0.881  0.00  0.00     0.002 A 
ATOM      6  C8  UNL d   1      -0.693   0.911   1.040  0.00  0.00     0.002 A 
ENDROOT
BRANCH   1   7
ATOM      7  C2  UNL d   1       0.439  -1.281   0.494  0.00  0.00     0.056 C 
BRANCH   7   8
ATOM      8  C1  UNL d   1       0.332  -2.094  -0.801  0.00  0.00     0.007 C 
ATOM      9  C   UNL d   1       0.060  -3.573  -0.560  0.00  0.00     0.009 C 
ENDBRANCH   7   8
ENDBRANCH   1   7
TORSDOF 2
ENDMDL
