MODEL 1
REMARK minimizedAffinity -4.15922642
REMARK minimizedRMSD -1
REMARK  2 active torsions:
REMARK  status: ('A' for Active; 'I' for Inactive)
REMARK    1  A    between atoms: C1_2  and  C2_3 
REMARK    2  A    between atoms: C2_3  and  C3_4 
ROOT
ATOM      1  C3  UNL d   1       0.431  -0.064   0.382  0.00  0.00    -0.075 A 
ATOM      2  C4  UNL d   1       1.542   0.789   0.317  0.00  0.00     0.002 A 
ATOM      3  C5  UNL d   1       1.377   2.173   0.379  0.00  0.00     0.002 A 
ATOM      4  C6  UNL d   1       0.101   2.721   0.495  0.00  0.00    -0.004 A 
ATOM      5  C7  UNL d   1      -1.011   1.883   0.543  0.00  0.00     0.002 A 
ATOM      6  C8  UNL d   1      -0.849   0.498   0.486  0.00  0.00     0.002 A 
ENDROOT
BRANCH   1   7
ATOM      7  C2  UNL d   1       0.605  -1.564   0.345  0.00  0.00     0.056 C 
BRANCH   7   8
ATOM      8  C1  UNL d   1      -0.542  -2.309  -0.345  0.00  0.00     0.007 C 
ATOM      9  C   UNL d   1      -0.204  -2.751  -1.763  0.00  0.00     0.009 C 
ENDBRANCH   7   8
ENDBRANCH   1   7
TORSDOF 2
ENDMDL
