MODEL 1
REMARK minimizedAffinity -3.44874835
REMARK minimizedRMSD -1
REMARK  2 active torsions:
REMARK  status: ('A' for Active; 'I' for Inactive)
REMARK    1  A    between atoms: C1_2  and  C2_3 
REMARK    2  A    between atoms: C2_3  and  C3_4 
ROOT
ATOM      1  C3  UNL d   1       0.220   0.870   0.235  0.00  0.00    -0.075 A 
ATOM      2  C4  UNL d   1       1.610   0.698   0.180  0.00  0.00     0.002 A 
ATOM      3  C5  UNL d   1       2.466   1.776   0.409  0.00  0.00     0.002 A 
ATOM      4  C6  UNL d   1       1.944   3.038   0.684  0.00  0.00    -0.004 A 
ATOM      5  C7  UNL d   1       0.564   3.223   0.725  0.00  0.00     0.002 A 
ATOM      6  C8  UNL d   1      -0.295   2.146   0.500  0.00  0.00     0.002 A 
ENDROOT
BRANCH   1   7
ATOM      7  C2  UNL d   1      -0.712  -0.299   0.018  0.00  0.00     0.056 C 
BRANCH   7   8
ATOM      8  C1  UNL d   1      -0.007  -1.659  -0.022  0.00  0.00     0.007 C 
ATOM      9  C   UNL d   1      -0.839  -2.747  -0.688  0.00  0.00     0.009 C 
ENDBRANCH   7   8
ENDBRANCH   1   7
TORSDOF 2
ENDMDL
