MODEL 1
REMARK minimizedAffinity -3.63167858
REMARK minimizedRMSD -1
REMARK  2 active torsions:
REMARK  status: ('A' for Active; 'I' for Inactive)
REMARK    1  A    between atoms: C1_2  and  C2_3 
REMARK    2  A    between atoms: C2_3  and  C3_4 
ROOT
ATOM      1  C3  UNL d   1      -0.619   0.480   0.088  0.00  0.00    -0.075 A 
ATOM      2  C4  UNL d   1       0.121   0.959  -1.003  0.00  0.00     0.002 A 
ATOM      3  C5  UNL d   1       0.532   2.292  -1.049  0.00  0.00     0.002 A 
ATOM      4  C6  UNL d   1       0.200   3.163  -0.014  0.00  0.00    -0.004 A 
ATOM      5  C7  UNL d   1      -0.549   2.702   1.066  0.00  0.00     0.002 A 
ATOM      6  C8  UNL d   1      -0.958   1.368   1.118  0.00  0.00     0.002 A 
ENDROOT
BRANCH   1   7
ATOM      7  C2  UNL d   1      -1.042  -0.968   0.158  0.00  0.00     0.056 C 
BRANCH   7   8
ATOM      8  C1  UNL d   1      -0.195  -1.907  -0.707  0.00  0.00     0.007 C 
ATOM      9  C   UNL d   1      -0.870  -3.245  -0.978  0.00  0.00     0.009 C 
ENDBRANCH   7   8
ENDBRANCH   1   7
TORSDOF 2
ENDMDL
