MODEL 1
REMARK minimizedAffinity -4.33542967
REMARK minimizedRMSD -1
REMARK  2 active torsions:
REMARK  status: ('A' for Active; 'I' for Inactive)
REMARK    1  A    between atoms: C1_2  and  C2_3 
REMARK    2  A    between atoms: C2_3  and  C3_4 
ROOT
ATOM      1  C3  UNL d   1      -0.317   0.466   0.213  0.00  0.00    -0.075 A 
ATOM      2  C4  UNL d   1       0.685   0.779  -0.717  0.00  0.00     0.002 A 
ATOM      3  C5  UNL d   1       1.157   2.087  -0.837  0.00  0.00     0.002 A 
ATOM      4  C6  UNL d   1       0.626   3.098  -0.039  0.00  0.00    -0.004 A 
ATOM      5  C7  UNL d   1      -0.383   2.802   0.875  0.00  0.00     0.002 A 
ATOM      6  C8  UNL d   1      -0.853   1.493   1.001  0.00  0.00     0.002 A 
ENDROOT
BRANCH   1   7
ATOM      7  C2  UNL d   1      -0.811  -0.952   0.368  0.00  0.00     0.056 C 
BRANCH   7   8
ATOM      8  C1  UNL d   1       0.094  -2.003  -0.284  0.00  0.00     0.007 C 
ATOM      9  C   UNL d   1      -0.678  -3.173  -0.879  0.00  0.00     0.009 C 
ENDBRANCH   7   8
ENDBRANCH   1   7
TORSDOF 2
ENDMDL
