MODEL 1
REMARK minimizedAffinity 0.237616852
REMARK minimizedRMSD -1
REMARK  2 active torsions:
REMARK  status: ('A' for Active; 'I' for Inactive)
REMARK    1  A    between atoms: C1_2  and  C2_3 
REMARK    2  A    between atoms: C2_3  and  C3_4 
ROOT
ATOM      1  C3  UNL d   1      -0.315  -1.225  -1.495  0.00  0.00    -0.075 A 
ATOM      2  C4  UNL d   1       0.526  -1.868  -2.415  0.00  0.00     0.002 A 
ATOM      3  C5  UNL d   1       0.151  -3.083  -2.989  0.00  0.00     0.002 A 
ATOM      4  C6  UNL d   1      -1.062  -3.675  -2.644  0.00  0.00    -0.004 A 
ATOM      5  C7  UNL d   1      -1.898  -3.053  -1.719  0.00  0.00     0.002 A 
ATOM      6  C8  UNL d   1      -1.528  -1.835  -1.146  0.00  0.00     0.002 A 
ENDROOT
BRANCH   1   7
ATOM      7  C2  UNL d   1       0.071   0.105  -0.893  0.00  0.00     0.056 C 
BRANCH   7   8
ATOM      8  C1  UNL d   1      -0.394   0.293   0.554  0.00  0.00     0.007 C 
ATOM      9  C   UNL d   1      -0.731   1.739   0.894  0.00  0.00     0.009 C 
ENDBRANCH   7   8
ENDBRANCH   1   7
TORSDOF 2
ENDMDL
