MODEL 1
REMARK minimizedAffinity -3.40054631
REMARK minimizedRMSD -1
REMARK  2 active torsions:
REMARK  status: ('A' for Active; 'I' for Inactive)
REMARK    1  A    between atoms: C1_2  and  C2_3 
REMARK    2  A    between atoms: C2_3  and  C3_4 
ROOT
ATOM      1  C3  UNL d   1       0.198  -0.413   0.201  0.00  0.00    -0.075 A 
ATOM      2  C4  UNL d   1       1.442   0.232   0.251  0.00  0.00     0.002 A 
ATOM      3  C5  UNL d   1       1.520   1.625   0.227  0.00  0.00     0.002 A 
ATOM      4  C6  UNL d   1       0.358   2.389   0.142  0.00  0.00    -0.004 A 
ATOM      5  C7  UNL d   1      -0.883   1.759   0.075  0.00  0.00     0.002 A 
ATOM      6  C8  UNL d   1      -0.964   0.365   0.103  0.00  0.00     0.002 A 
ENDROOT
BRANCH   1   7
ATOM      7  C2  UNL d   1       0.105  -1.919   0.256  0.00  0.00     0.056 C 
BRANCH   7   8
ATOM      8  C1  UNL d   1       0.097  -2.594  -1.120  0.00  0.00     0.007 C 
ATOM      9  C   UNL d   1      -0.912  -3.730  -1.226  0.00  0.00     0.009 C 
ENDBRANCH   7   8
ENDBRANCH   1   7
TORSDOF 2
ENDMDL
