MODEL 1
REMARK minimizedAffinity -3.37307119
REMARK minimizedRMSD -1
REMARK  2 active torsions:
REMARK  status: ('A' for Active; 'I' for Inactive)
REMARK    1  A    between atoms: C1_2  and  C2_3 
REMARK    2  A    between atoms: C2_3  and  C3_4 
ROOT
ATOM      1  C3  UNL d   1       0.160   0.537  -0.699  0.00  0.00    -0.075 A 
ATOM      2  C4  UNL d   1       0.332   1.914  -0.901  0.00  0.00     0.002 A 
ATOM      3  C5  UNL d   1      -0.179   2.834   0.015  0.00  0.00     0.002 A 
ATOM      4  C6  UNL d   1      -0.875   2.390   1.138  0.00  0.00    -0.004 A 
ATOM      5  C7  UNL d   1      -1.066   1.025   1.340  0.00  0.00     0.002 A 
ATOM      6  C8  UNL d   1      -0.552   0.103   0.427  0.00  0.00     0.002 A 
ENDROOT
BRANCH   1   7
ATOM      7  C2  UNL d   1       0.735  -0.465  -1.672  0.00  0.00     0.056 C 
BRANCH   7   8
ATOM      8  C1  UNL d   1       2.235  -0.721  -1.488  0.00  0.00     0.007 C 
ATOM      9  C   UNL d   1       2.736  -0.380  -0.092  0.00  0.00     0.009 C 
ENDBRANCH   7   8
ENDBRANCH   1   7
TORSDOF 2
ENDMDL
