MODEL 1
REMARK minimizedAffinity -4.59071445
REMARK minimizedRMSD -1
REMARK  2 active torsions:
REMARK  status: ('A' for Active; 'I' for Inactive)
REMARK    1  A    between atoms: C1_2  and  C2_3 
REMARK    2  A    between atoms: C2_3  and  C3_4 
ROOT
ATOM      1  C3  UNL d   1       0.142  -0.593  -0.329  0.00  0.00    -0.075 A 
ATOM      2  C4  UNL d   1       1.380  -0.461   0.317  0.00  0.00     0.002 A 
ATOM      3  C5  UNL d   1       1.992   0.788   0.428  0.00  0.00     0.002 A 
ATOM      4  C6  UNL d   1       1.380   1.917  -0.113  0.00  0.00    -0.004 A 
ATOM      5  C7  UNL d   1       0.159   1.795  -0.772  0.00  0.00     0.002 A 
ATOM      6  C8  UNL d   1      -0.458   0.547  -0.880  0.00  0.00     0.002 A 
ENDROOT
BRANCH   1   7
ATOM      7  C2  UNL d   1      -0.539  -1.937  -0.426  0.00  0.00     0.056 C 
BRANCH   7   8
ATOM      8  C1  UNL d   1       0.325  -3.029  -1.066  0.00  0.00     0.007 C 
ATOM      9  C   UNL d   1      -0.459  -4.288  -1.415  0.00  0.00     0.009 C 
ENDBRANCH   7   8
ENDBRANCH   1   7
TORSDOF 2
ENDMDL
