MODEL 1
REMARK minimizedAffinity -4.03024721
REMARK minimizedRMSD -1
REMARK  2 active torsions:
REMARK  status: ('A' for Active; 'I' for Inactive)
REMARK    1  A    between atoms: C1_2  and  C2_3 
REMARK    2  A    between atoms: C2_3  and  C3_4 
ROOT
ATOM      1  C3  UNL d   1      -0.525   1.256   0.205  0.00  0.00    -0.075 A 
ATOM      2  C4  UNL d   1      -0.402   1.466  -1.176  0.00  0.00     0.002 A 
ATOM      3  C5  UNL d   1       0.130   2.659  -1.666  0.00  0.00     0.002 A 
ATOM      4  C6  UNL d   1       0.534   3.659  -0.785  0.00  0.00    -0.004 A 
ATOM      5  C7  UNL d   1       0.401   3.468   0.589  0.00  0.00     0.002 A 
ATOM      6  C8  UNL d   1      -0.127   2.273   1.082  0.00  0.00     0.002 A 
ENDROOT
BRANCH   1   7
ATOM      7  C2  UNL d   1      -1.073  -0.045   0.742  0.00  0.00     0.056 C 
BRANCH   7   8
ATOM      8  C1  UNL d   1      -0.230  -1.273   0.380  0.00  0.00     0.007 C 
ATOM      9  C   UNL d   1       1.235  -1.132   0.772  0.00  0.00     0.009 C 
ENDBRANCH   7   8
ENDBRANCH   1   7
TORSDOF 2
ENDMDL
