MODEL 1
REMARK minimizedAffinity 3.62374282
REMARK minimizedRMSD -1
REMARK  2 active torsions:
REMARK  status: ('A' for Active; 'I' for Inactive)
REMARK    1  A    between atoms: C1_2  and  C2_3 
REMARK    2  A    between atoms: C2_3  and  C3_4 
ROOT
ATOM      1  C3  UNL d   1       1.029   1.323  -1.156  0.00  0.00    -0.075 A 
ATOM      2  C4  UNL d   1       2.411   1.409  -0.936  0.00  0.00     0.002 A 
ATOM      3  C5  UNL d   1       3.083   0.397  -0.250  0.00  0.00     0.002 A 
ATOM      4  C6  UNL d   1       2.382  -0.706   0.232  0.00  0.00    -0.004 A 
ATOM      5  C7  UNL d   1       1.006  -0.794   0.032  0.00  0.00     0.002 A 
ATOM      6  C8  UNL d   1       0.332   0.215  -0.657  0.00  0.00     0.002 A 
ENDROOT
BRANCH   1   7
ATOM      7  C2  UNL d   1       0.300   2.401  -1.924  0.00  0.00     0.056 C 
BRANCH   7   8
ATOM      8  C1  UNL d   1       0.043   2.054  -3.394  0.00  0.00     0.007 C 
ATOM      9  C   UNL d   1      -1.261   2.634  -3.928  0.00  0.00     0.009 C 
ENDBRANCH   7   8
ENDBRANCH   1   7
TORSDOF 2
ENDMDL
