MODEL 1
REMARK minimizedAffinity -3.45693874
REMARK minimizedRMSD -1
REMARK  2 active torsions:
REMARK  status: ('A' for Active; 'I' for Inactive)
REMARK    1  A    between atoms: C1_2  and  C2_3 
REMARK    2  A    between atoms: C2_3  and  C3_4 
ROOT
ATOM      1  C3  UNL d   1      -0.417   0.233   0.338  0.00  0.00    -0.075 A 
ATOM      2  C4  UNL d   1      -1.087   1.286   0.978  0.00  0.00     0.002 A 
ATOM      3  C5  UNL d   1      -0.765   2.612   0.686  0.00  0.00     0.002 A 
ATOM      4  C6  UNL d   1       0.237   2.901  -0.238  0.00  0.00    -0.004 A 
ATOM      5  C7  UNL d   1       0.920   1.862  -0.867  0.00  0.00     0.002 A 
ATOM      6  C8  UNL d   1       0.596   0.535  -0.581  0.00  0.00     0.002 A 
ENDROOT
BRANCH   1   7
ATOM      7  C2  UNL d   1      -0.782  -1.203   0.627  0.00  0.00     0.056 C 
BRANCH   7   8
ATOM      8  C1  UNL d   1      -0.453  -2.172  -0.513  0.00  0.00     0.007 C 
ATOM      9  C   UNL d   1      -1.352  -3.401  -0.535  0.00  0.00     0.009 C 
ENDBRANCH   7   8
ENDBRANCH   1   7
TORSDOF 2
ENDMDL
