MODEL 1
REMARK minimizedAffinity -3.3361733
REMARK minimizedRMSD -1
REMARK  2 active torsions:
REMARK  status: ('A' for Active; 'I' for Inactive)
REMARK    1  A    between atoms: C1_2  and  C2_3 
REMARK    2  A    between atoms: C2_3  and  C3_4 
ROOT
ATOM      1  C3  UNL d   1       0.327  -0.171   0.464  0.00  0.00    -0.075 A 
ATOM      2  C4  UNL d   1      -0.452   0.987   0.601  0.00  0.00     0.002 A 
ATOM      3  C5  UNL d   1       0.154   2.225   0.820  0.00  0.00     0.002 A 
ATOM      4  C6  UNL d   1       1.540   2.319   0.914  0.00  0.00    -0.004 A 
ATOM      5  C7  UNL d   1       2.322   1.172   0.796  0.00  0.00     0.002 A 
ATOM      6  C8  UNL d   1       1.720  -0.067   0.573  0.00  0.00     0.002 A 
ENDROOT
BRANCH   1   7
ATOM      7  C2  UNL d   1      -0.320  -1.509   0.199  0.00  0.00     0.056 C 
BRANCH   7   8
ATOM      8  C1  UNL d   1      -0.125  -2.024  -1.231  0.00  0.00     0.007 C 
ATOM      9  C   UNL d   1      -0.691  -3.421  -1.450  0.00  0.00     0.009 C 
ENDBRANCH   7   8
ENDBRANCH   1   7
TORSDOF 2
ENDMDL
