MODEL 1
REMARK minimizedAffinity -4.0739398
REMARK minimizedRMSD -1
REMARK  0 active torsions:
REMARK  status: ('A' for Active; 'I' for Inactive)
ROOT
ATOM      1  C   UNL d   1      -1.655  -0.912   2.005  0.00  0.00     0.020 A 
ATOM      2  C1  UNL d   1      -0.600  -0.755   2.903  0.00  0.00     0.020 A 
ATOM      3  C2  UNL d   1       0.653  -0.346   2.443  0.00  0.00     0.034 A 
ATOM      4  C3  UNL d   1       0.855  -0.093   1.081  0.00  0.00     0.017 A 
ATOM      5  C4  UNL d   1      -0.205  -0.251   0.181  0.00  0.00     0.017 A 
ATOM      6  C5  UNL d   1      -1.458  -0.661   0.647  0.00  0.00     0.034 A 
ATOM      7 Cl   UNL d   1      -0.033   0.042  -1.514  0.00  0.00    -0.070 Cl
ATOM      8 Cl1  UNL d   1       2.431   0.409   0.582  0.00  0.00    -0.070 Cl
ENDROOT
TORSDOF 0
ENDMDL
