MODEL 1
REMARK minimizedAffinity -1.67262447
REMARK minimizedRMSD -1
REMARK  0 active torsions:
REMARK  status: ('A' for Active; 'I' for Inactive)
ROOT
ATOM      1  C   UNL d   1      -0.843   0.798  -1.213  0.00  0.00     0.020 A 
ATOM      2  C1  UNL d   1      -1.964   0.744  -0.386  0.00  0.00     0.020 A 
ATOM      3  C2  UNL d   1      -1.808   0.627   0.996  0.00  0.00     0.034 A 
ATOM      4  C3  UNL d   1      -0.527   0.562   1.556  0.00  0.00     0.017 A 
ATOM      5  C4  UNL d   1       0.599   0.616   0.726  0.00  0.00     0.017 A 
ATOM      6  C5  UNL d   1       0.436   0.734  -0.658  0.00  0.00     0.034 A 
ATOM      7 Cl   UNL d   1       2.211   0.542   1.343  0.00  0.00    -0.070 Cl
ATOM      8 Cl1  UNL d   1      -0.407   0.417   3.274  0.00  0.00    -0.070 Cl
ENDROOT
TORSDOF 0
ENDMDL
