MODEL 1
REMARK minimizedAffinity -2.68802261
REMARK minimizedRMSD -1
REMARK  0 active torsions:
REMARK  status: ('A' for Active; 'I' for Inactive)
ROOT
ATOM      1  C   UNL d   1      -1.290  -0.301  -0.417  0.00  0.00     0.020 A 
ATOM      2  C1  UNL d   1      -0.133  -0.103  -1.170  0.00  0.00     0.020 A 
ATOM      3  C2  UNL d   1       1.107  -0.018  -0.534  0.00  0.00     0.034 A 
ATOM      4  C3  UNL d   1       1.195  -0.131   0.858  0.00  0.00     0.017 A 
ATOM      5  C4  UNL d   1       0.033  -0.331   1.613  0.00  0.00     0.017 A 
ATOM      6  C5  UNL d   1      -1.207  -0.415   0.971  0.00  0.00     0.034 A 
ATOM      7 Cl   UNL d   1       0.061  -0.480   3.334  0.00  0.00    -0.070 Cl
ATOM      8 Cl1  UNL d   1       2.761  -0.017   1.577  0.00  0.00    -0.070 Cl
ENDROOT
TORSDOF 0
ENDMDL
