MODEL 1
REMARK minimizedAffinity -5.14619303
REMARK minimizedRMSD -1
REMARK  0 active torsions:
REMARK  status: ('A' for Active; 'I' for Inactive)
ROOT
ATOM      1  C   UNL d   1       1.252  -0.441   2.037  0.00  0.00     0.020 A 
ATOM      2  C1  UNL d   1       0.064  -0.383   2.766  0.00  0.00     0.020 A 
ATOM      3  C2  UNL d   1      -1.141  -0.112   2.115  0.00  0.00     0.034 A 
ATOM      4  C3  UNL d   1      -1.163   0.102   0.732  0.00  0.00     0.017 A 
ATOM      5  C4  UNL d   1       0.030   0.043   0.002  0.00  0.00     0.017 A 
ATOM      6  C5  UNL d   1       1.234  -0.228   0.658  0.00  0.00     0.034 A 
ATOM      7 Cl   UNL d   1       0.083   0.297  -1.707  0.00  0.00    -0.070 Cl
ATOM      8 Cl1  UNL d   1      -2.690   0.431  -0.006  0.00  0.00    -0.070 Cl
ENDROOT
TORSDOF 0
ENDMDL
