MODEL 1
REMARK minimizedAffinity -1.09016252
REMARK minimizedRMSD -1
REMARK  0 active torsions:
REMARK  status: ('A' for Active; 'I' for Inactive)
ROOT
ATOM      1  C   UNL d   1       0.338   0.373  -1.130  0.00  0.00     0.020 A 
ATOM      2  C1  UNL d   1       1.301   0.160  -0.145  0.00  0.00     0.020 A 
ATOM      3  C2  UNL d   1       0.910  -0.182   1.152  0.00  0.00     0.034 A 
ATOM      4  C3  UNL d   1      -0.447  -0.312   1.466  0.00  0.00     0.017 A 
ATOM      5  C4  UNL d   1      -1.414  -0.098   0.477  0.00  0.00     0.017 A 
ATOM      6  C5  UNL d   1      -1.017   0.244  -0.820  0.00  0.00     0.034 A 
ATOM      7 Cl   UNL d   1      -3.108  -0.240   0.789  0.00  0.00    -0.070 Cl
ATOM      8 Cl1  UNL d   1      -0.859  -0.738   3.090  0.00  0.00    -0.070 Cl
ENDROOT
TORSDOF 0
ENDMDL
