MODEL 1
REMARK minimizedAffinity -2.50499988
REMARK minimizedRMSD -1
REMARK  0 active torsions:
REMARK  status: ('A' for Active; 'I' for Inactive)
ROOT
ATOM      1  C   UNL d   1      -2.370  -0.366   2.402  0.00  0.00     0.020 A 
ATOM      2  C1  UNL d   1      -1.466   0.102   3.355  0.00  0.00     0.020 A 
ATOM      3  C2  UNL d   1      -0.184   0.497   2.966  0.00  0.00     0.034 A 
ATOM      4  C3  UNL d   1       0.197   0.424   1.621  0.00  0.00     0.017 A 
ATOM      5  C4  UNL d   1      -0.711  -0.046   0.666  0.00  0.00     0.017 A 
ATOM      6  C5  UNL d   1      -1.993  -0.440   1.060  0.00  0.00     0.034 A 
ATOM      7 Cl   UNL d   1      -0.313  -0.165  -1.012  0.00  0.00    -0.070 Cl
ATOM      8 Cl1  UNL d   1       1.798   0.929   1.212  0.00  0.00    -0.070 Cl
ENDROOT
TORSDOF 0
ENDMDL
