MODEL 1
REMARK minimizedAffinity -3.45297956
REMARK minimizedRMSD -1
REMARK  0 active torsions:
REMARK  status: ('A' for Active; 'I' for Inactive)
ROOT
ATOM      1  C   UNL d   1      -0.348   0.838  -1.520  0.00  0.00     0.020 A 
ATOM      2  C1  UNL d   1       0.748   0.404  -0.776  0.00  0.00     0.020 A 
ATOM      3  C2  UNL d   1       0.552  -0.207   0.465  0.00  0.00     0.034 A 
ATOM      4  C3  UNL d   1      -0.744  -0.384   0.965  0.00  0.00     0.017 A 
ATOM      5  C4  UNL d   1      -1.843   0.052   0.217  0.00  0.00     0.017 A 
ATOM      6  C5  UNL d   1      -1.641   0.663  -1.025  0.00  0.00     0.034 A 
ATOM      7 Cl   UNL d   1      -3.471  -0.132   0.768  0.00  0.00    -0.070 Cl
ATOM      8 Cl1  UNL d   1      -0.912  -1.147   2.506  0.00  0.00    -0.070 Cl
ENDROOT
TORSDOF 0
ENDMDL
