MODEL 1
REMARK minimizedAffinity -4.79404163
REMARK minimizedRMSD -1
REMARK  0 active torsions:
REMARK  status: ('A' for Active; 'I' for Inactive)
ROOT
ATOM      1  C   UNL d   1      -0.995  -0.070   3.767  0.00  0.00     0.020 A 
ATOM      2  C1  UNL d   1       0.267  -0.108   3.175  0.00  0.00     0.020 A 
ATOM      3  C2  UNL d   1       0.389  -0.034   1.786  0.00  0.00     0.034 A 
ATOM      4  C3  UNL d   1      -0.752   0.077   0.984  0.00  0.00     0.017 A 
ATOM      5  C4  UNL d   1      -2.019   0.115   1.578  0.00  0.00     0.017 A 
ATOM      6  C5  UNL d   1      -2.135   0.042   2.970  0.00  0.00     0.034 A 
ATOM      7 Cl   UNL d   1      -3.473   0.252   0.655  0.00  0.00    -0.070 Cl
ATOM      8 Cl1  UNL d   1      -0.527   0.163  -0.727  0.00  0.00    -0.070 Cl
ENDROOT
TORSDOF 0
ENDMDL
