MODEL 1
REMARK minimizedAffinity 0.311788768
REMARK minimizedRMSD -1
REMARK  0 active torsions:
REMARK  status: ('A' for Active; 'I' for Inactive)
ROOT
ATOM      1  C   UNL d   1       0.333  -1.705  -3.545  0.00  0.00     0.020 A 
ATOM      2  C1  UNL d   1       1.462  -0.912  -3.745  0.00  0.00     0.020 A 
ATOM      3  C2  UNL d   1       1.818   0.048  -2.795  0.00  0.00     0.034 A 
ATOM      4  C3  UNL d   1       1.044   0.217  -1.642  0.00  0.00     0.017 A 
ATOM      5  C4  UNL d   1      -0.090  -0.579  -1.442  0.00  0.00     0.017 A 
ATOM      6  C5  UNL d   1      -0.441  -1.539  -2.396  0.00  0.00     0.034 A 
ATOM      7 Cl   UNL d   1      -1.094  -0.428  -0.044  0.00  0.00    -0.070 Cl
ATOM      8 Cl1  UNL d   1       1.543   1.423  -0.509  0.00  0.00    -0.070 Cl
ENDROOT
TORSDOF 0
ENDMDL
