MODEL 1
REMARK minimizedAffinity -1.82400084
REMARK minimizedRMSD -1
REMARK  0 active torsions:
REMARK  status: ('A' for Active; 'I' for Inactive)
ROOT
ATOM      1  C   UNL d   1      -1.348  -1.031   1.958  0.00  0.00     0.020 A 
ATOM      2  C1  UNL d   1      -0.641  -0.409   2.986  0.00  0.00     0.020 A 
ATOM      3  C2  UNL d   1       0.476   0.375   2.690  0.00  0.00     0.034 A 
ATOM      4  C3  UNL d   1       0.889   0.539   1.363  0.00  0.00     0.017 A 
ATOM      5  C4  UNL d   1       0.179  -0.086   0.332  0.00  0.00     0.017 A 
ATOM      6  C5  UNL d   1      -0.939  -0.870   0.633  0.00  0.00     0.034 A 
ATOM      7 Cl   UNL d   1       0.629   0.070  -1.330  0.00  0.00    -0.070 Cl
ATOM      8 Cl1  UNL d   1       2.279   1.523   1.071  0.00  0.00    -0.070 Cl
ENDROOT
TORSDOF 0
ENDMDL
