MODEL 1
REMARK minimizedAffinity -2.12175965
REMARK minimizedRMSD -1
REMARK  0 active torsions:
REMARK  status: ('A' for Active; 'I' for Inactive)
ROOT
ATOM      1  C   UNL d   1      -1.134  -0.093   2.407  0.00  0.00     0.020 A 
ATOM      2  C1  UNL d   1      -1.916  -0.645   1.393  0.00  0.00     0.020 A 
ATOM      3  C2  UNL d   1      -1.422  -0.711   0.088  0.00  0.00     0.034 A 
ATOM      4  C3  UNL d   1      -0.143  -0.224  -0.206  0.00  0.00     0.017 A 
ATOM      5  C4  UNL d   1       0.640   0.330   0.813  0.00  0.00     0.017 A 
ATOM      6  C5  UNL d   1       0.141   0.393   2.117  0.00  0.00     0.034 A 
ATOM      7 Cl   UNL d   1       2.228   0.951   0.527  0.00  0.00    -0.070 Cl
ATOM      8 Cl1  UNL d   1       0.403  -0.337  -1.841  0.00  0.00    -0.070 Cl
ENDROOT
TORSDOF 0
ENDMDL
