MODEL 1
REMARK minimizedAffinity -4.44770432
REMARK minimizedRMSD -1
REMARK  0 active torsions:
REMARK  status: ('A' for Active; 'I' for Inactive)
ROOT
ATOM      1  C   UNL d   1      -1.500  -0.754   1.874  0.00  0.00     0.020 A 
ATOM      2  C1  UNL d   1      -0.784  -0.012   2.813  0.00  0.00     0.020 A 
ATOM      3  C2  UNL d   1       0.386   0.651   2.433  0.00  0.00     0.034 A 
ATOM      4  C3  UNL d   1       0.843   0.572   1.113  0.00  0.00     0.017 A 
ATOM      5  C4  UNL d   1       0.123  -0.173   0.172  0.00  0.00     0.017 A 
ATOM      6  C5  UNL d   1      -1.047  -0.834   0.557  0.00  0.00     0.034 A 
ATOM      7 Cl   UNL d   1       0.624  -0.316  -1.476  0.00  0.00    -0.070 Cl
ATOM      8 Cl1  UNL d   1       2.296   1.417   0.714  0.00  0.00    -0.070 Cl
ENDROOT
TORSDOF 0
ENDMDL
