MODEL 1
REMARK minimizedAffinity -5.93461418
REMARK minimizedRMSD -1
REMARK  0 active torsions:
REMARK  status: ('A' for Active; 'I' for Inactive)
ROOT
ATOM      1  C   UNL d   1      -1.522  -0.351   3.057  0.00  0.00     0.020 A 
ATOM      2  C1  UNL d   1      -2.482  -0.395   2.047  0.00  0.00     0.020 A 
ATOM      3  C2  UNL d   1      -2.102  -0.219   0.714  0.00  0.00     0.034 A 
ATOM      4  C3  UNL d   1      -0.758   0.001   0.389  0.00  0.00     0.017 A 
ATOM      5  C4  UNL d   1       0.204   0.045   1.404  0.00  0.00     0.017 A 
ATOM      6  C5  UNL d   1      -0.182  -0.132   2.736  0.00  0.00     0.034 A 
ATOM      7 Cl   UNL d   1       1.881   0.312   1.081  0.00  0.00    -0.070 Cl
ATOM      8 Cl1  UNL d   1      -0.359   0.210  -1.279  0.00  0.00    -0.070 Cl
ENDROOT
TORSDOF 0
ENDMDL
