MODEL 1
REMARK minimizedAffinity -1.74187946
REMARK minimizedRMSD -1
REMARK  0 active torsions:
REMARK  status: ('A' for Active; 'I' for Inactive)
ROOT
ATOM      1  C   UNL d   1       1.207   0.362   0.210  0.00  0.00     0.020 A 
ATOM      2  C1  UNL d   1       1.651   0.192   1.521  0.00  0.00     0.020 A 
ATOM      3  C2  UNL d   1       0.759  -0.224   2.512  0.00  0.00     0.034 A 
ATOM      4  C3  UNL d   1      -0.581  -0.470   2.194  0.00  0.00     0.017 A 
ATOM      5  C4  UNL d   1      -1.026  -0.299   0.878  0.00  0.00     0.017 A 
ATOM      6  C5  UNL d   1      -0.129   0.118  -0.110  0.00  0.00     0.034 A 
ATOM      7 Cl   UNL d   1      -2.665  -0.583   0.409  0.00  0.00    -0.070 Cl
ATOM      8 Cl1  UNL d   1      -1.629  -0.983   3.469  0.00  0.00    -0.070 Cl
ENDROOT
TORSDOF 0
ENDMDL
