MODEL 1
REMARK minimizedAffinity -3.17525458
REMARK minimizedRMSD -1
REMARK  0 active torsions:
REMARK  status: ('A' for Active; 'I' for Inactive)
ROOT
ATOM      1  C   UNL d   1       1.527  -0.367   2.135  0.00  0.00     0.020 A 
ATOM      2  C1  UNL d   1       0.339  -0.308   2.863  0.00  0.00     0.020 A 
ATOM      3  C2  UNL d   1      -0.881  -0.167   2.198  0.00  0.00     0.034 A 
ATOM      4  C3  UNL d   1      -0.916  -0.085   0.801  0.00  0.00     0.017 A 
ATOM      5  C4  UNL d   1       0.277  -0.145   0.072  0.00  0.00     0.017 A 
ATOM      6  C5  UNL d   1       1.496  -0.286   0.742  0.00  0.00     0.034 A 
ATOM      7 Cl   UNL d   1       0.314  -0.051  -1.654  0.00  0.00    -0.070 Cl
ATOM      8 Cl1  UNL d   1      -2.460   0.087   0.045  0.00  0.00    -0.070 Cl
ENDROOT
TORSDOF 0
ENDMDL
