MODEL 1
REMARK minimizedAffinity -2.91708875
REMARK minimizedRMSD -1
REMARK  0 active torsions:
REMARK  status: ('A' for Active; 'I' for Inactive)
ROOT
ATOM      1  C   UNL d   1       1.444   0.474   0.062  0.00  0.00     0.020 A 
ATOM      2  C1  UNL d   1       0.483   0.432  -0.947  0.00  0.00     0.020 A 
ATOM      3  C2  UNL d   1      -0.840   0.109  -0.640  0.00  0.00     0.034 A 
ATOM      4  C3  UNL d   1      -1.206  -0.174   0.681  0.00  0.00     0.017 A 
ATOM      5  C4  UNL d   1      -0.242  -0.132   1.694  0.00  0.00     0.017 A 
ATOM      6  C5  UNL d   1       1.082   0.192   1.380  0.00  0.00     0.034 A 
ATOM      7 Cl   UNL d   1      -0.618  -0.470   3.347  0.00  0.00    -0.070 Cl
ATOM      8 Cl1  UNL d   1      -2.861  -0.566   0.990  0.00  0.00    -0.070 Cl
ENDROOT
TORSDOF 0
ENDMDL
