MODEL 1
REMARK minimizedAffinity -3.61839795
REMARK minimizedRMSD -1
REMARK  0 active torsions:
REMARK  status: ('A' for Active; 'I' for Inactive)
ROOT
ATOM      1  C   UNL d   1       0.877  -0.332   2.490  0.00  0.00     0.020 A 
ATOM      2  C1  UNL d   1      -0.293  -0.740   3.129  0.00  0.00     0.020 A 
ATOM      3  C2  UNL d   1      -1.494  -0.794   2.419  0.00  0.00     0.034 A 
ATOM      4  C3  UNL d   1      -1.528  -0.439   1.066  0.00  0.00     0.017 A 
ATOM      5  C4  UNL d   1      -0.353  -0.030   0.425  0.00  0.00     0.017 A 
ATOM      6  C5  UNL d   1       0.847   0.022   1.141  0.00  0.00     0.034 A 
ATOM      7 Cl   UNL d   1      -0.316   0.423  -1.243  0.00  0.00    -0.070 Cl
ATOM      8 Cl1  UNL d   1      -3.048  -0.530   0.249  0.00  0.00    -0.070 Cl
ENDROOT
TORSDOF 0
ENDMDL
