MODEL 1
REMARK minimizedAffinity -2.91662025
REMARK minimizedRMSD -1
REMARK  0 active torsions:
REMARK  status: ('A' for Active; 'I' for Inactive)
ROOT
ATOM      1  C   UNL d   1       0.339   0.479  -0.916  0.00  0.00     0.020 A 
ATOM      2  C1  UNL d   1       1.149   0.124   0.161  0.00  0.00     0.020 A 
ATOM      3  C2  UNL d   1       0.571  -0.232   1.382  0.00  0.00     0.034 A 
ATOM      4  C3  UNL d   1      -0.821  -0.233   1.527  0.00  0.00     0.017 A 
ATOM      5  C4  UNL d   1      -1.633   0.124   0.445  0.00  0.00     0.017 A 
ATOM      6  C5  UNL d   1      -1.049   0.479  -0.775  0.00  0.00     0.034 A 
ATOM      7 Cl   UNL d   1      -3.359   0.146   0.548  0.00  0.00    -0.070 Cl
ATOM      8 Cl1  UNL d   1      -1.468  -0.684   3.065  0.00  0.00    -0.070 Cl
ENDROOT
TORSDOF 0
ENDMDL
