MODEL 1
REMARK minimizedAffinity 18.2351818
REMARK minimizedRMSD -1
REMARK  0 active torsions:
REMARK  status: ('A' for Active; 'I' for Inactive)
ROOT
ATOM      1  C   UNL d   1       2.965   2.261   0.452  0.00  0.00     0.124 A 
ATOM      2  C1  UNL d   1       1.964   2.972  -0.193  0.00  0.00     0.062 A 
ATOM      3  C2  UNL d   1       1.382   2.467  -1.352  0.00  0.00     0.162 A 
ATOM      4  C3  UNL d   1       1.799   1.242  -1.873  0.00  0.00    -0.034 A 
ATOM      5  C4  UNL d   1       2.808   0.532  -1.218  0.00  0.00     0.162 A 
ATOM      6  C5  UNL d   1       3.386   1.042  -0.060  0.00  0.00     0.062 A 
ATOM      7  F   UNL d   1       4.354   0.353   0.562  0.00  0.00    -0.097 F 
ATOM      8  F1  UNL d   1       3.233  -0.648  -1.692  0.00  0.00    -0.096 F 
ATOM      9  I   UNL d   1       0.931   0.483  -3.605  0.00  0.00    -0.060 I 
ATOM     10  F2  UNL d   1       0.416   3.176  -1.955  0.00  0.00    -0.096 F 
ATOM     11  F3  UNL d   1       1.556   4.151   0.300  0.00  0.00    -0.097 F 
ATOM     12  F4  UNL d   1       3.524   2.750   1.567  0.00  0.00    -0.092 F 
ENDROOT
TORSDOF 0
ENDMDL
