MODEL 1
REMARK minimizedAffinity 14.5382862
REMARK minimizedRMSD -1
REMARK  0 active torsions:
REMARK  status: ('A' for Active; 'I' for Inactive)
ROOT
ATOM      1  C   UNL d   1       2.516   0.799  -1.757  0.00  0.00     0.124 A 
ATOM      2  C1  UNL d   1       1.904  -0.134  -2.582  0.00  0.00     0.062 A 
ATOM      3  C2  UNL d   1       1.051  -1.092  -2.043  0.00  0.00     0.162 A 
ATOM      4  C3  UNL d   1       0.804  -1.123  -0.670  0.00  0.00    -0.034 A 
ATOM      5  C4  UNL d   1       1.424  -0.182   0.153  0.00  0.00     0.162 A 
ATOM      6  C5  UNL d   1       2.276   0.775  -0.390  0.00  0.00     0.062 A 
ATOM      7  F   UNL d   1       2.867   1.675   0.409  0.00  0.00    -0.097 F 
ATOM      8  F1  UNL d   1       1.209  -0.182   1.477  0.00  0.00    -0.096 F 
ATOM      9  I   UNL d   1      -0.470  -2.554   0.140  0.00  0.00    -0.060 I 
ATOM     10  F2  UNL d   1       0.473  -1.982  -2.864  0.00  0.00    -0.096 F 
ATOM     11  F3  UNL d   1       2.135  -0.112  -3.903  0.00  0.00    -0.097 F 
ATOM     12  F4  UNL d   1       3.337   1.720  -2.278  0.00  0.00    -0.092 F 
ENDROOT
TORSDOF 0
ENDMDL
