MODEL 1
REMARK minimizedAffinity 29.8442707
REMARK minimizedRMSD -1
REMARK  0 active torsions:
REMARK  status: ('A' for Active; 'I' for Inactive)
ROOT
ATOM      1  C   UNL d   1       1.467  -0.521  -0.621  0.00  0.00     0.124 A 
ATOM      2  C1  UNL d   1       0.588  -1.179   0.228  0.00  0.00     0.062 A 
ATOM      3  C2  UNL d   1       0.478  -0.789   1.560  0.00  0.00     0.162 A 
ATOM      4  C3  UNL d   1       1.249   0.264   2.051  0.00  0.00    -0.034 A 
ATOM      5  C4  UNL d   1       2.131   0.921   1.192  0.00  0.00     0.162 A 
ATOM      6  C5  UNL d   1       2.238   0.528  -0.138  0.00  0.00     0.062 A 
ATOM      7  F   UNL d   1       3.088   1.165  -0.957  0.00  0.00    -0.097 F 
ATOM      8  F1  UNL d   1       2.887   1.938   1.631  0.00  0.00    -0.096 F 
ATOM      9  I   UNL d   1       1.087   0.849   4.042  0.00  0.00    -0.060 I 
ATOM     10  F2  UNL d   1      -0.379  -1.443   2.358  0.00  0.00    -0.096 F 
ATOM     11  F3  UNL d   1      -0.156  -2.193  -0.235  0.00  0.00    -0.097 F 
ATOM     12  F4  UNL d   1       1.572  -0.898  -1.901  0.00  0.00    -0.092 F 
ENDROOT
TORSDOF 0
ENDMDL
