MODEL 1
REMARK minimizedAffinity 23.7355976
REMARK minimizedRMSD -1
REMARK  0 active torsions:
REMARK  status: ('A' for Active; 'I' for Inactive)
ROOT
ATOM      1  C   UNL d   1       3.283   0.195  -0.775  0.00  0.00     0.124 A 
ATOM      2  C1  UNL d   1       2.500   0.608  -1.844  0.00  0.00     0.062 A 
ATOM      3  C2  UNL d   1       1.896   1.862  -1.825  0.00  0.00     0.162 A 
ATOM      4  C3  UNL d   1       2.073   2.712  -0.733  0.00  0.00    -0.034 A 
ATOM      5  C4  UNL d   1       2.861   2.289   0.339  0.00  0.00     0.162 A 
ATOM      6  C5  UNL d   1       3.463   1.035   0.315  0.00  0.00     0.062 A 
ATOM      7  F   UNL d   1       4.219   0.637   1.348  0.00  0.00    -0.097 F 
ATOM      8  F1  UNL d   1       3.052   3.081   1.404  0.00  0.00    -0.096 F 
ATOM      9  I   UNL d   1       1.171   4.587  -0.701  0.00  0.00    -0.060 I 
ATOM     10  F2  UNL d   1       1.144   2.236  -2.871  0.00  0.00    -0.096 F 
ATOM     11  F3  UNL d   1       2.324  -0.202  -2.897  0.00  0.00    -0.097 F 
ATOM     12  F4  UNL d   1       3.863  -1.013  -0.795  0.00  0.00    -0.092 F 
ENDROOT
TORSDOF 0
ENDMDL
