MODEL 1
REMARK minimizedAffinity 21.8312149
REMARK minimizedRMSD -1
REMARK  0 active torsions:
REMARK  status: ('A' for Active; 'I' for Inactive)
ROOT
ATOM      1  C   UNL d   1       0.085  -2.756  -1.227  0.00  0.00     0.124 A 
ATOM      2  C1  UNL d   1      -0.345  -3.547  -2.284  0.00  0.00     0.062 A 
ATOM      3  C2  UNL d   1       0.131  -3.316  -3.571  0.00  0.00     0.162 A 
ATOM      4  C3  UNL d   1       1.045  -2.289  -3.809  0.00  0.00    -0.034 A 
ATOM      5  C4  UNL d   1       1.472  -1.497  -2.742  0.00  0.00     0.162 A 
ATOM      6  C5  UNL d   1       0.993  -1.732  -1.457  0.00  0.00     0.062 A 
ATOM      7  F   UNL d   1       1.410  -0.967  -0.438  0.00  0.00    -0.097 F 
ATOM      8  F1  UNL d   1       2.350  -0.502  -2.936  0.00  0.00    -0.096 F 
ATOM      9  I   UNL d   1       1.759  -1.940  -5.732  0.00  0.00    -0.060 I 
ATOM     10  F2  UNL d   1      -0.302  -4.095  -4.572  0.00  0.00    -0.096 F 
ATOM     11  F3  UNL d   1      -1.223  -4.536  -2.064  0.00  0.00    -0.097 F 
ATOM     12  F4  UNL d   1      -0.376  -2.980   0.010  0.00  0.00    -0.092 F 
ENDROOT
TORSDOF 0
ENDMDL
