MODEL 1
REMARK minimizedAffinity 31.3829861
REMARK minimizedRMSD -1
REMARK  0 active torsions:
REMARK  status: ('A' for Active; 'I' for Inactive)
ROOT
ATOM      1  C   UNL d   1       2.794   1.230  -1.838  0.00  0.00     0.124 A 
ATOM      2  C1  UNL d   1       3.425   0.328  -0.992  0.00  0.00     0.062 A 
ATOM      3  C2  UNL d   1       2.706  -0.719  -0.423  0.00  0.00     0.162 A 
ATOM      4  C3  UNL d   1       1.348  -0.872  -0.699  0.00  0.00    -0.034 A 
ATOM      5  C4  UNL d   1       0.720   0.039  -1.551  0.00  0.00     0.162 A 
ATOM      6  C5  UNL d   1       1.442   1.084  -2.117  0.00  0.00     0.062 A 
ATOM      7  F   UNL d   1       0.831   1.954  -2.934  0.00  0.00    -0.097 F 
ATOM      8  F1  UNL d   1      -0.585  -0.079  -1.838  0.00  0.00    -0.096 F 
ATOM      9  I   UNL d   1       0.269  -2.437   0.149  0.00  0.00    -0.060 I 
ATOM     10  F2  UNL d   1       3.342  -1.575   0.391  0.00  0.00    -0.096 F 
ATOM     11  F3  UNL d   1       4.731   0.467  -0.720  0.00  0.00    -0.097 F 
ATOM     12  F4  UNL d   1       3.488   2.237  -2.384  0.00  0.00    -0.092 F 
ENDROOT
TORSDOF 0
ENDMDL
