MODEL 1
REMARK minimizedAffinity 21.4108849
REMARK minimizedRMSD -1
REMARK  0 active torsions:
REMARK  status: ('A' for Active; 'I' for Inactive)
ROOT
ATOM      1  C   UNL d   1       1.504   4.717   0.036  0.00  0.00     0.124 A 
ATOM      2  C1  UNL d   1       0.914   4.273  -1.140  0.00  0.00     0.062 A 
ATOM      3  C2  UNL d   1       1.032   2.941  -1.523  0.00  0.00     0.162 A 
ATOM      4  C3  UNL d   1       1.744   2.041  -0.730  0.00  0.00    -0.034 A 
ATOM      5  C4  UNL d   1       2.336   2.494   0.450  0.00  0.00     0.162 A 
ATOM      6  C5  UNL d   1       2.214   3.827   0.829  0.00  0.00     0.062 A 
ATOM      7  F   UNL d   1       2.785   4.254   1.965  0.00  0.00    -0.097 F 
ATOM      8  F1  UNL d   1       3.027   1.656   1.237  0.00  0.00    -0.096 F 
ATOM      9  I   UNL d   1       1.923   0.047  -1.300  0.00  0.00    -0.060 I 
ATOM     10  F2  UNL d   1       0.452   2.540  -2.664  0.00  0.00    -0.096 F 
ATOM     11  F3  UNL d   1       0.228   5.131  -1.909  0.00  0.00    -0.097 F 
ATOM     12  F4  UNL d   1       1.389   6.000   0.402  0.00  0.00    -0.092 F 
ENDROOT
TORSDOF 0
ENDMDL
