MODEL 1
REMARK minimizedAffinity 20.0107803
REMARK minimizedRMSD -1
REMARK  0 active torsions:
REMARK  status: ('A' for Active; 'I' for Inactive)
ROOT
ATOM      1  C   UNL d   1       2.179   0.690   0.677  0.00  0.00     0.124 A 
ATOM      2  C1  UNL d   1       2.953   1.421   1.569  0.00  0.00     0.062 A 
ATOM      3  C2  UNL d   1       2.514   1.625   2.873  0.00  0.00     0.162 A 
ATOM      4  C3  UNL d   1       1.294   1.096   3.296  0.00  0.00    -0.034 A 
ATOM      5  C4  UNL d   1       0.520   0.364   2.394  0.00  0.00     0.162 A 
ATOM      6  C5  UNL d   1       0.964   0.163   1.091  0.00  0.00     0.062 A 
ATOM      7  F   UNL d   1       0.215  -0.543   0.231  0.00  0.00    -0.097 F 
ATOM      8  F1  UNL d   1      -0.658  -0.158   2.767  0.00  0.00    -0.096 F 
ATOM      9  I   UNL d   1       0.633   1.399   5.246  0.00  0.00    -0.060 I 
ATOM     10  F2  UNL d   1       3.282   2.334   3.713  0.00  0.00    -0.096 F 
ATOM     11  F3  UNL d   1       4.127   1.932   1.171  0.00  0.00    -0.097 F 
ATOM     12  F4  UNL d   1       2.604   0.497  -0.578  0.00  0.00    -0.092 F 
ENDROOT
TORSDOF 0
ENDMDL
