MODEL 1
REMARK minimizedAffinity 15.5464439
REMARK minimizedRMSD -1
REMARK  0 active torsions:
REMARK  status: ('A' for Active; 'I' for Inactive)
ROOT
ATOM      1  C   UNL d   1      -2.659  -4.096   0.220  0.00  0.00     0.124 A 
ATOM      2  C1  UNL d   1      -1.967  -3.445   1.233  0.00  0.00     0.062 A 
ATOM      3  C2  UNL d   1      -0.946  -2.552   0.921  0.00  0.00     0.162 A 
ATOM      4  C3  UNL d   1      -0.610  -2.304  -0.410  0.00  0.00    -0.034 A 
ATOM      5  C4  UNL d   1      -1.310  -2.963  -1.423  0.00  0.00     0.162 A 
ATOM      6  C5  UNL d   1      -2.330  -3.854  -1.106  0.00  0.00     0.062 A 
ATOM      7  F   UNL d   1      -2.997  -4.481  -2.085  0.00  0.00    -0.097 F 
ATOM      8  F1  UNL d   1      -1.013  -2.747  -2.713  0.00  0.00    -0.096 F 
ATOM      9  I   UNL d   1       0.916  -0.970  -0.880  0.00  0.00    -0.060 I 
ATOM     10  F2  UNL d   1      -0.294  -1.938   1.920  0.00  0.00    -0.096 F 
ATOM     11  F3  UNL d   1      -2.283  -3.678   2.515  0.00  0.00    -0.097 F 
ATOM     12  F4  UNL d   1      -3.640  -4.955   0.523  0.00  0.00    -0.092 F 
ENDROOT
TORSDOF 0
ENDMDL
