MODEL 1
REMARK minimizedAffinity 36.2456818
REMARK minimizedRMSD -1
REMARK  0 active torsions:
REMARK  status: ('A' for Active; 'I' for Inactive)
ROOT
ATOM      1  C   UNL d   1      -0.759   0.307   2.675  0.00  0.00     0.124 A 
ATOM      2  C1  UNL d   1      -1.170  -1.013   2.547  0.00  0.00     0.062 A 
ATOM      3  C2  UNL d   1      -2.484  -1.368   2.837  0.00  0.00     0.162 A 
ATOM      4  C3  UNL d   1      -3.398  -0.401   3.256  0.00  0.00    -0.034 A 
ATOM      5  C4  UNL d   1      -2.977   0.924   3.382  0.00  0.00     0.162 A 
ATOM      6  C5  UNL d   1      -1.662   1.274   3.092  0.00  0.00     0.062 A 
ATOM      7  F   UNL d   1      -1.267   2.549   3.216  0.00  0.00    -0.097 F 
ATOM      8  F1  UNL d   1      -3.830   1.879   3.783  0.00  0.00    -0.096 F 
ATOM      9  I   UNL d   1      -5.365  -0.927   3.689  0.00  0.00    -0.060 I 
ATOM     10  F2  UNL d   1      -2.854  -2.650   2.705  0.00  0.00    -0.096 F 
ATOM     11  F3  UNL d   1      -0.298  -1.949   2.146  0.00  0.00    -0.097 F 
ATOM     12  F4  UNL d   1       0.507   0.645   2.397  0.00  0.00    -0.092 F 
ENDROOT
TORSDOF 0
ENDMDL
