MODEL 1
REMARK minimizedAffinity 25.6621666
REMARK minimizedRMSD -1
REMARK  0 active torsions:
REMARK  status: ('A' for Active; 'I' for Inactive)
ROOT
ATOM      1  C   UNL d   1       2.994  -0.175  -1.151  0.00  0.00     0.124 A 
ATOM      2  C1  UNL d   1       2.114   0.308  -2.110  0.00  0.00     0.062 A 
ATOM      3  C2  UNL d   1       1.602   1.598  -2.003  0.00  0.00     0.162 A 
ATOM      4  C3  UNL d   1       1.970   2.415  -0.934  0.00  0.00    -0.034 A 
ATOM      5  C4  UNL d   1       2.855   1.922   0.026  0.00  0.00     0.162 A 
ATOM      6  C5  UNL d   1       3.364   0.632  -0.085  0.00  0.00     0.062 A 
ATOM      7  F   UNL d   1       4.214   0.167   0.842  0.00  0.00    -0.097 F 
ATOM      8  F1  UNL d   1       3.230   2.681   1.067  0.00  0.00    -0.096 F 
ATOM      9  I   UNL d   1       1.207   4.345  -0.771  0.00  0.00    -0.060 I 
ATOM     10  F2  UNL d   1       0.753   2.039  -2.944  0.00  0.00    -0.096 F 
ATOM     11  F3  UNL d   1       1.754  -0.470  -3.141  0.00  0.00    -0.097 F 
ATOM     12  F4  UNL d   1       3.484  -1.417  -1.256  0.00  0.00    -0.092 F 
ENDROOT
TORSDOF 0
ENDMDL
