MODEL 1
REMARK minimizedAffinity 12.0936575
REMARK minimizedRMSD -1
REMARK  0 active torsions:
REMARK  status: ('A' for Active; 'I' for Inactive)
ROOT
ATOM      1  C   UNL d   1      -0.399  -2.171   1.702  0.00  0.00     0.124 A 
ATOM      2  C1  UNL d   1       0.279  -1.497   0.696  0.00  0.00     0.062 A 
ATOM      3  C2  UNL d   1       0.096  -1.859  -0.636  0.00  0.00     0.162 A 
ATOM      4  C3  UNL d   1      -0.771  -2.900  -0.969  0.00  0.00    -0.034 A 
ATOM      5  C4  UNL d   1      -1.448  -3.574   0.049  0.00  0.00     0.162 A 
ATOM      6  C5  UNL d   1      -1.261  -3.209   1.378  0.00  0.00     0.062 A 
ATOM      7  F   UNL d   1      -1.917  -3.861   2.349  0.00  0.00    -0.097 F 
ATOM      8  F1  UNL d   1      -2.288  -4.580  -0.236  0.00  0.00    -0.096 F 
ATOM      9  I   UNL d   1      -1.048  -3.445  -2.959  0.00  0.00    -0.060 I 
ATOM     10  F2  UNL d   1       0.763  -1.190  -1.587  0.00  0.00    -0.096 F 
ATOM     11  F3  UNL d   1       1.114  -0.495   1.007  0.00  0.00    -0.097 F 
ATOM     12  F4  UNL d   1      -0.219  -1.822   2.982  0.00  0.00    -0.092 F 
ENDROOT
TORSDOF 0
ENDMDL
