MODEL 1
REMARK minimizedAffinity -1.62191689
REMARK minimizedRMSD -1
REMARK  0 active torsions:
REMARK  status: ('A' for Active; 'I' for Inactive)
ROOT
ATOM      1  C   UNL d   1       1.208  -0.685  -0.931  0.00  0.00     0.124 A 
ATOM      2  C1  UNL d   1       0.641   0.581  -0.917  0.00  0.00     0.062 A 
ATOM      3  C2  UNL d   1      -0.347   0.895   0.011  0.00  0.00     0.162 A 
ATOM      4  C3  UNL d   1      -0.775  -0.059   0.935  0.00  0.00    -0.034 A 
ATOM      5  C4  UNL d   1      -0.200  -1.331   0.914  0.00  0.00     0.162 A 
ATOM      6  C5  UNL d   1       0.787  -1.640  -0.016  0.00  0.00     0.062 A 
ATOM      7  F   UNL d   1       1.334  -2.865  -0.028  0.00  0.00    -0.097 F 
ATOM      8  F1  UNL d   1      -0.588  -2.273   1.787  0.00  0.00    -0.096 F 
ATOM      9  I   UNL d   1      -2.252   0.407   2.324  0.00  0.00    -0.060 I 
ATOM     10  F2  UNL d   1      -0.878   2.127   0.002  0.00  0.00    -0.096 F 
ATOM     11  F3  UNL d   1       1.046   1.505  -1.800  0.00  0.00    -0.097 F 
ATOM     12  F4  UNL d   1       2.159  -0.985  -1.826  0.00  0.00    -0.092 F 
ENDROOT
TORSDOF 0
ENDMDL
