MODEL 1
REMARK minimizedAffinity 1.92883849
REMARK minimizedRMSD -1
REMARK  0 active torsions:
REMARK  status: ('A' for Active; 'I' for Inactive)
ROOT
ATOM      1  C   UNL d   1       0.120  -2.459  -2.137  0.00  0.00     0.124 A 
ATOM      2  C1  UNL d   1      -0.104  -2.530  -0.769  0.00  0.00     0.062 A 
ATOM      3  C2  UNL d   1       0.112  -1.414   0.035  0.00  0.00     0.162 A 
ATOM      4  C3  UNL d   1       0.555  -0.217  -0.528  0.00  0.00    -0.034 A 
ATOM      5  C4  UNL d   1       0.779  -0.153  -1.904  0.00  0.00     0.162 A 
ATOM      6  C5  UNL d   1       0.561  -1.271  -2.703  0.00  0.00     0.062 A 
ATOM      7  F   UNL d   1       0.778  -1.201  -4.025  0.00  0.00    -0.097 F 
ATOM      8  F1  UNL d   1       1.204   0.982  -2.478  0.00  0.00    -0.096 F 
ATOM      9  I   UNL d   1       0.879   1.454   0.670  0.00  0.00    -0.060 I 
ATOM     10  F2  UNL d   1      -0.112  -1.511   1.354  0.00  0.00    -0.096 F 
ATOM     11  F3  UNL d   1      -0.529  -3.676  -0.219  0.00  0.00    -0.097 F 
ATOM     12  F4  UNL d   1      -0.088  -3.534  -2.907  0.00  0.00    -0.092 F 
ENDROOT
TORSDOF 0
ENDMDL
