MODEL 1
REMARK minimizedAffinity 11.0755243
REMARK minimizedRMSD -1
REMARK  0 active torsions:
REMARK  status: ('A' for Active; 'I' for Inactive)
ROOT
ATOM      1  C   UNL d   1      -2.061  -3.896  -4.027  0.00  0.00     0.124 A 
ATOM      2  C1  UNL d   1      -1.760  -2.601  -3.627  0.00  0.00     0.062 A 
ATOM      3  C2  UNL d   1      -2.606  -1.550  -3.966  0.00  0.00     0.162 A 
ATOM      4  C3  UNL d   1      -3.763  -1.788  -4.708  0.00  0.00    -0.034 A 
ATOM      5  C4  UNL d   1      -4.059  -3.093  -5.108  0.00  0.00     0.162 A 
ATOM      6  C5  UNL d   1      -3.210  -4.140  -4.767  0.00  0.00     0.062 A 
ATOM      7  F   UNL d   1      -3.502  -5.390  -5.154  0.00  0.00    -0.097 F 
ATOM      8  F1  UNL d   1      -5.162  -3.357  -5.822  0.00  0.00    -0.096 F 
ATOM      9  I   UNL d   1      -5.031  -0.218  -5.216  0.00  0.00    -0.060 I 
ATOM     10  F2  UNL d   1      -2.291  -0.309  -3.566  0.00  0.00    -0.096 F 
ATOM     11  F3  UNL d   1      -0.651  -2.363  -2.913  0.00  0.00    -0.097 F 
ATOM     12  F4  UNL d   1      -1.244  -4.906  -3.701  0.00  0.00    -0.092 F 
ENDROOT
TORSDOF 0
ENDMDL
