MODEL 1
REMARK minimizedAffinity -4.9099865
REMARK minimizedRMSD -1
REMARK  0 active torsions:
REMARK  status: ('A' for Active; 'I' for Inactive)
ROOT
ATOM      1  C   UNL d   1       0.327   0.556   1.079  0.00  0.00     0.124 A 
ATOM      2  C1  UNL d   1       0.293  -0.612   0.330  0.00  0.00     0.062 A 
ATOM      3  C2  UNL d   1      -0.923  -1.232   0.055  0.00  0.00     0.162 A 
ATOM      4  C3  UNL d   1      -2.115  -0.685   0.528  0.00  0.00    -0.034 A 
ATOM      5  C4  UNL d   1      -2.073   0.490   1.281  0.00  0.00     0.162 A 
ATOM      6  C5  UNL d   1      -0.856   1.106   1.554  0.00  0.00     0.062 A 
ATOM      7  F   UNL d   1      -0.825   2.234   2.278  0.00  0.00    -0.097 F 
ATOM      8  F1  UNL d   1      -3.200   1.043   1.752  0.00  0.00    -0.096 F 
ATOM      9  I   UNL d   1      -3.935  -1.608   0.119  0.00  0.00    -0.060 I 
ATOM     10  F2  UNL d   1      -0.926  -2.360  -0.672  0.00  0.00    -0.096 F 
ATOM     11  F3  UNL d   1       1.434  -1.146  -0.130  0.00  0.00    -0.097 F 
ATOM     12  F4  UNL d   1       1.498   1.150   1.343  0.00  0.00    -0.092 F 
ENDROOT
TORSDOF 0
ENDMDL
