MODEL 1
REMARK minimizedAffinity 2.99150348
REMARK minimizedRMSD -1
REMARK  0 active torsions:
REMARK  status: ('A' for Active; 'I' for Inactive)
ROOT
ATOM      1  C   UNL d   1       1.857  -2.580  -3.212  0.00  0.00     0.124 A 
ATOM      2  C1  UNL d   1       1.212  -2.764  -1.997  0.00  0.00     0.062 A 
ATOM      3  C2  UNL d   1       1.183  -1.738  -1.057  0.00  0.00     0.162 A 
ATOM      4  C3  UNL d   1       1.802  -0.517  -1.329  0.00  0.00    -0.034 A 
ATOM      5  C4  UNL d   1       2.449  -0.340  -2.553  0.00  0.00     0.162 A 
ATOM      6  C5  UNL d   1       2.475  -1.369  -3.489  0.00  0.00     0.062 A 
ATOM      7  F   UNL d   1       3.099  -1.190  -4.662  0.00  0.00    -0.097 F 
ATOM      8  F1  UNL d   1       3.054   0.820  -2.847  0.00  0.00    -0.096 F 
ATOM      9  I   UNL d   1       1.762   1.020   0.074  0.00  0.00    -0.060 I 
ATOM     10  F2  UNL d   1       0.552  -1.943   0.109  0.00  0.00    -0.096 F 
ATOM     11  F3  UNL d   1       0.614  -3.934  -1.727  0.00  0.00    -0.097 F 
ATOM     12  F4  UNL d   1       1.883  -3.570  -4.114  0.00  0.00    -0.092 F 
ENDROOT
TORSDOF 0
ENDMDL
