MODEL 1
REMARK minimizedAffinity -4.94869757
REMARK minimizedRMSD -1
REMARK  0 active torsions:
REMARK  status: ('A' for Active; 'I' for Inactive)
ROOT
ATOM      1  C   UNL d   1       1.771  -1.411  -2.389  0.00  0.00     0.124 A 
ATOM      2  C1  UNL d   1       1.162  -0.164  -2.377  0.00  0.00     0.062 A 
ATOM      3  C2  UNL d   1       0.263   0.167  -1.366  0.00  0.00     0.162 A 
ATOM      4  C3  UNL d   1      -0.031  -0.751  -0.358  0.00  0.00    -0.034 A 
ATOM      5  C4  UNL d   1       0.585  -2.004  -0.378  0.00  0.00     0.162 A 
ATOM      6  C5  UNL d   1       1.482  -2.330  -1.390  0.00  0.00     0.062 A 
ATOM      7  F   UNL d   1       2.069  -3.535  -1.400  0.00  0.00    -0.097 F 
ATOM      8  F1  UNL d   1       0.325  -2.911   0.576  0.00  0.00    -0.096 F 
ATOM      9  I   UNL d   1      -1.374  -0.261   1.154  0.00  0.00    -0.060 I 
ATOM     10  F2  UNL d   1      -0.310   1.379  -1.380  0.00  0.00    -0.096 F 
ATOM     11  F3  UNL d   1       1.439   0.726  -3.341  0.00  0.00    -0.097 F 
ATOM     12  F4  UNL d   1       2.634  -1.726  -3.363  0.00  0.00    -0.092 F 
ENDROOT
TORSDOF 0
ENDMDL
