MODEL 1
REMARK minimizedAffinity 3.37479448
REMARK minimizedRMSD -1
REMARK  0 active torsions:
REMARK  status: ('A' for Active; 'I' for Inactive)
ROOT
ATOM      1  C   UNL d   1       0.919  -1.838   5.650  0.00  0.00     0.020 A 
ATOM      2  C1  UNL d   1       1.729  -2.934   5.357  0.00  0.00     0.020 A 
ATOM      3  C2  UNL d   1       2.214  -3.117   4.060  0.00  0.00     0.034 A 
ATOM      4  C3  UNL d   1       1.889  -2.202   3.052  0.00  0.00     0.017 A 
ATOM      5  C4  UNL d   1       1.077  -1.101   3.348  0.00  0.00     0.017 A 
ATOM      6  C5  UNL d   1       0.594  -0.923   4.648  0.00  0.00     0.034 A 
ATOM      7 Cl   UNL d   1       0.634   0.071   2.157  0.00  0.00    -0.070 Cl
ATOM      8 Cl1  UNL d   1       2.524  -2.489   1.471  0.00  0.00    -0.070 Cl
ENDROOT
TORSDOF 0
ENDMDL
