MODEL 1
REMARK minimizedAffinity 7.36130095
REMARK minimizedRMSD -1
REMARK  0 active torsions:
REMARK  status: ('A' for Active; 'I' for Inactive)
ROOT
ATOM      1  C   UNL d   1      -3.203  -1.671  -0.086  0.00  0.00     0.020 A 
ATOM      2  C1  UNL d   1      -2.177  -1.193  -0.899  0.00  0.00     0.020 A 
ATOM      3  C2  UNL d   1      -1.251  -2.081  -1.451  0.00  0.00     0.034 A 
ATOM      4  C3  UNL d   1      -1.351  -3.453  -1.190  0.00  0.00     0.017 A 
ATOM      5  C4  UNL d   1      -2.382  -3.932  -0.375  0.00  0.00     0.017 A 
ATOM      6  C5  UNL d   1      -3.306  -3.038   0.175  0.00  0.00     0.034 A 
ATOM      7 Cl   UNL d   1      -2.570  -5.611  -0.008  0.00  0.00    -0.070 Cl
ATOM      8 Cl1  UNL d   1      -0.172  -4.494  -1.906  0.00  0.00    -0.070 Cl
ENDROOT
TORSDOF 0
ENDMDL
