MODEL 1
REMARK minimizedAffinity 10.6853857
REMARK minimizedRMSD -1
REMARK  0 active torsions:
REMARK  status: ('A' for Active; 'I' for Inactive)
ROOT
ATOM      1  C   UNL d   1      -2.505  -1.890   0.053  0.00  0.00     0.020 A 
ATOM      2  C1  UNL d   1      -3.093  -0.885  -0.713  0.00  0.00     0.020 A 
ATOM      3  C2  UNL d   1      -2.612   0.424  -0.635  0.00  0.00     0.034 A 
ATOM      4  C3  UNL d   1      -1.540   0.730   0.211  0.00  0.00     0.017 A 
ATOM      5  C4  UNL d   1      -0.951  -0.280   0.980  0.00  0.00     0.017 A 
ATOM      6  C5  UNL d   1      -1.436  -1.588   0.898  0.00  0.00     0.034 A 
ATOM      7 Cl   UNL d   1       0.375   0.022   2.047  0.00  0.00    -0.070 Cl
ATOM      8 Cl1  UNL d   1      -0.996   2.370   0.257  0.00  0.00    -0.070 Cl
ENDROOT
TORSDOF 0
ENDMDL
