MODEL 1
REMARK minimizedAffinity 14.4985342
REMARK minimizedRMSD -1
REMARK  0 active torsions:
REMARK  status: ('A' for Active; 'I' for Inactive)
ROOT
ATOM      1  C   UNL d   1       5.673   5.910   0.605  0.00  0.00     0.020 A 
ATOM      2  C1  UNL d   1       5.972   5.839  -0.755  0.00  0.00     0.020 A 
ATOM      3  C2  UNL d   1       4.972   5.512  -1.673  0.00  0.00     0.034 A 
ATOM      4  C3  UNL d   1       3.668   5.255  -1.233  0.00  0.00     0.017 A 
ATOM      5  C4  UNL d   1       3.370   5.327   0.133  0.00  0.00     0.017 A 
ATOM      6  C5  UNL d   1       4.375   5.655   1.048  0.00  0.00     0.034 A 
ATOM      7 Cl   UNL d   1       1.785   5.024   0.752  0.00  0.00    -0.070 Cl
ATOM      8 Cl1  UNL d   1       2.481   4.857  -2.423  0.00  0.00    -0.070 Cl
ENDROOT
TORSDOF 0
ENDMDL
