MODEL 1
REMARK minimizedAffinity 4.26618767
REMARK minimizedRMSD -1
REMARK  0 active torsions:
REMARK  status: ('A' for Active; 'I' for Inactive)
ROOT
ATOM      1  C   UNL d   1       1.555  -1.108   1.631  0.00  0.00     0.020 A 
ATOM      2  C1  UNL d   1       1.902  -2.405   2.008  0.00  0.00     0.020 A 
ATOM      3  C2  UNL d   1       2.011  -2.733   3.361  0.00  0.00     0.034 A 
ATOM      4  C3  UNL d   1       1.774  -1.764   4.342  0.00  0.00     0.017 A 
ATOM      5  C4  UNL d   1       1.426  -0.462   3.963  0.00  0.00     0.017 A 
ATOM      6  C5  UNL d   1       1.317  -0.139   2.607  0.00  0.00     0.034 A 
ATOM      7 Cl   UNL d   1       1.117   0.788   5.116  0.00  0.00    -0.070 Cl
ATOM      8 Cl1  UNL d   1       1.927  -2.240   5.996  0.00  0.00    -0.070 Cl
ENDROOT
TORSDOF 0
ENDMDL
