MODEL 1
REMARK minimizedAffinity 1.75955224
REMARK minimizedRMSD -1
REMARK  0 active torsions:
REMARK  status: ('A' for Active; 'I' for Inactive)
ROOT
ATOM      1  C   UNL d   1      -3.271  -3.346  -0.201  0.00  0.00     0.020 A 
ATOM      2  C1  UNL d   1      -2.118  -4.117  -0.054  0.00  0.00     0.020 A 
ATOM      3  C2  UNL d   1      -0.915  -3.511   0.314  0.00  0.00     0.034 A 
ATOM      4  C3  UNL d   1      -0.861  -2.130   0.537  0.00  0.00     0.017 A 
ATOM      5  C4  UNL d   1      -2.018  -1.357   0.389  0.00  0.00     0.017 A 
ATOM      6  C5  UNL d   1      -3.221  -1.969   0.021  0.00  0.00     0.034 A 
ATOM      7 Cl   UNL d   1      -2.030   0.352   0.647  0.00  0.00    -0.070 Cl
ATOM      8 Cl1  UNL d   1       0.660  -1.448   0.990  0.00  0.00    -0.070 Cl
ENDROOT
TORSDOF 0
ENDMDL
