MODEL 1
REMARK minimizedAffinity 16.2490921
REMARK minimizedRMSD -1
REMARK  0 active torsions:
REMARK  status: ('A' for Active; 'I' for Inactive)
ROOT
ATOM      1  C   UNL d   1      -0.487   2.691   0.035  0.00  0.00     0.020 A 
ATOM      2  C1  UNL d   1      -1.755   2.323  -0.415  0.00  0.00     0.020 A 
ATOM      3  C2  UNL d   1      -2.264   1.059  -0.108  0.00  0.00     0.034 A 
ATOM      4  C3  UNL d   1      -1.507   0.159   0.650  0.00  0.00     0.017 A 
ATOM      5  C4  UNL d   1      -0.234   0.530   1.101  0.00  0.00     0.017 A 
ATOM      6  C5  UNL d   1       0.271   1.796   0.791  0.00  0.00     0.034 A 
ATOM      7 Cl   UNL d   1       0.760  -0.526   2.041  0.00  0.00    -0.070 Cl
ATOM      8 Cl1  UNL d   1      -2.200  -1.386   0.991  0.00  0.00    -0.070 Cl
ENDROOT
TORSDOF 0
ENDMDL
