MODEL 1
REMARK minimizedAffinity 17.5843582
REMARK minimizedRMSD -1
REMARK  0 active torsions:
REMARK  status: ('A' for Active; 'I' for Inactive)
ROOT
ATOM      1  C   UNL d   1       1.175  -0.151   1.569  0.00  0.00     0.020 A 
ATOM      2  C1  UNL d   1       0.730   0.402   2.770  0.00  0.00     0.020 A 
ATOM      3  C2  UNL d   1       0.825  -0.333   3.954  0.00  0.00     0.034 A 
ATOM      4  C3  UNL d   1       1.366  -1.624   3.940  0.00  0.00     0.017 A 
ATOM      5  C4  UNL d   1       1.812  -2.177   2.734  0.00  0.00     0.017 A 
ATOM      6  C5  UNL d   1       1.715  -1.437   1.552  0.00  0.00     0.034 A 
ATOM      7 Cl   UNL d   1       2.491  -3.764   2.638  0.00  0.00    -0.070 Cl
ATOM      8 Cl1  UNL d   1       1.453  -2.474   5.441  0.00  0.00    -0.070 Cl
ENDROOT
TORSDOF 0
ENDMDL
