MODEL 1
REMARK minimizedAffinity 4.62925196
REMARK minimizedRMSD -1
REMARK  0 active torsions:
REMARK  status: ('A' for Active; 'I' for Inactive)
ROOT
ATOM      1  C   UNL d   1       2.259  -2.301   1.508  0.00  0.00     0.020 A 
ATOM      2  C1  UNL d   1       2.511  -3.420   2.300  0.00  0.00     0.020 A 
ATOM      3  C2  UNL d   1       2.347  -3.346   3.685  0.00  0.00     0.034 A 
ATOM      4  C3  UNL d   1       1.931  -2.150   4.282  0.00  0.00     0.017 A 
ATOM      5  C4  UNL d   1       1.678  -1.027   3.485  0.00  0.00     0.017 A 
ATOM      6  C5  UNL d   1       1.844  -1.107   2.099  0.00  0.00     0.034 A 
ATOM      7 Cl   UNL d   1       1.162   0.483   4.148  0.00  0.00    -0.070 Cl
ATOM      8 Cl1  UNL d   1       1.749  -2.130   6.000  0.00  0.00    -0.070 Cl
ENDROOT
TORSDOF 0
ENDMDL
