MODEL 1
REMARK minimizedAffinity 15.0265055
REMARK minimizedRMSD -1
REMARK  0 active torsions:
REMARK  status: ('A' for Active; 'I' for Inactive)
ROOT
ATOM      1  C   UNL d   1      -0.470   3.096   0.400  0.00  0.00     0.020 A 
ATOM      2  C1  UNL d   1      -1.703   2.649  -0.072  0.00  0.00     0.020 A 
ATOM      3  C2  UNL d   1      -2.126   1.347   0.203  0.00  0.00     0.034 A 
ATOM      4  C3  UNL d   1      -1.314   0.486   0.952  0.00  0.00     0.017 A 
ATOM      5  C4  UNL d   1      -0.076   0.936   1.425  0.00  0.00     0.017 A 
ATOM      6  C5  UNL d   1       0.342   2.241   1.147  0.00  0.00     0.034 A 
ATOM      7 Cl   UNL d   1       0.980  -0.068   2.355  0.00  0.00    -0.070 Cl
ATOM      8 Cl1  UNL d   1      -1.901  -1.111   1.254  0.00  0.00    -0.070 Cl
ENDROOT
TORSDOF 0
ENDMDL
