MODEL 1
REMARK minimizedAffinity 10.9154902
REMARK minimizedRMSD -1
REMARK  0 active torsions:
REMARK  status: ('A' for Active; 'I' for Inactive)
ROOT
ATOM      1  C   UNL d   1      -2.946   1.462  -0.320  0.00  0.00     0.020 A 
ATOM      2  C1  UNL d   1      -2.744   0.187   0.208  0.00  0.00     0.020 A 
ATOM      3  C2  UNL d   1      -1.517  -0.143   0.786  0.00  0.00     0.034 A 
ATOM      4  C3  UNL d   1      -0.486   0.803   0.838  0.00  0.00     0.017 A 
ATOM      5  C4  UNL d   1      -0.690   2.082   0.308  0.00  0.00     0.017 A 
ATOM      6  C5  UNL d   1      -1.921   2.407  -0.270  0.00  0.00     0.034 A 
ATOM      7 Cl   UNL d   1       0.534   3.303   0.335  0.00  0.00    -0.070 Cl
ATOM      8 Cl1  UNL d   1       1.006   0.327   1.568  0.00  0.00    -0.070 Cl
ENDROOT
TORSDOF 0
ENDMDL
