MODEL 1
REMARK minimizedAffinity -0.107000977
REMARK minimizedRMSD -1
REMARK  0 active torsions:
REMARK  status: ('A' for Active; 'I' for Inactive)
ROOT
ATOM      1  C   UNL d   1       1.082  -1.659   2.321  0.00  0.00     0.020 A 
ATOM      2  C1  UNL d   1       0.681  -2.950   1.976  0.00  0.00     0.020 A 
ATOM      3  C2  UNL d   1      -0.398  -3.137   1.110  0.00  0.00     0.034 A 
ATOM      4  C3  UNL d   1      -1.081  -2.033   0.586  0.00  0.00     0.017 A 
ATOM      5  C4  UNL d   1      -0.678  -0.739   0.933  0.00  0.00     0.017 A 
ATOM      6  C5  UNL d   1       0.404  -0.557   1.801  0.00  0.00     0.034 A 
ATOM      7 Cl   UNL d   1      -1.471   0.672   0.327  0.00  0.00    -0.070 Cl
ATOM      8 Cl1  UNL d   1      -2.407  -2.340  -0.479  0.00  0.00    -0.070 Cl
ENDROOT
TORSDOF 0
ENDMDL
