MODEL 1
REMARK minimizedAffinity -2.46872878
REMARK minimizedRMSD -1
REMARK  0 active torsions:
REMARK  status: ('A' for Active; 'I' for Inactive)
ROOT
ATOM      1  C2' OXE d   1      -1.724   2.624   1.809  0.00  0.00     0.078 C 
ATOM      2  C1' OXE d   1       0.644   1.863   3.110  0.00  0.00     0.078 C 
ATOM      3  C1  OXE d   1       0.297   1.169   1.816  0.00  0.00    -0.078 A 
ATOM      4  C2  OXE d   1      -0.887   1.514   1.211  0.00  0.00    -0.078 A 
ATOM      5  C3  OXE d   1      -1.228   0.944  -0.012  0.00  0.00     0.003 A 
ATOM      6  C4  OXE d   1      -0.452  -0.089  -0.554  0.00  0.00    -0.002 A 
ATOM      7  C5  OXE d   1       0.737  -0.484   0.067  0.00  0.00    -0.002 A 
ATOM      8  C6  OXE d   1       1.147   0.163   1.228  0.00  0.00     0.003 A 
ENDROOT
TORSDOF 0
ENDMDL
