MODEL 1
REMARK minimizedAffinity -5.78133869
REMARK minimizedRMSD -1
REMARK  0 active torsions:
REMARK  status: ('A' for Active; 'I' for Inactive)
ROOT
ATOM      1  C2' OXE d   1       0.101  -0.473  -1.267  0.00  0.00     0.078 C 
ATOM      2  C1' OXE d   1      -0.548   2.228  -1.673  0.00  0.00     0.078 C 
ATOM      3  C1  OXE d   1      -0.477   1.727  -0.252  0.00  0.00    -0.078 A 
ATOM      4  C2  OXE d   1      -0.205   0.393  -0.064  0.00  0.00    -0.078 A 
ATOM      5  C3  OXE d   1      -0.075  -0.108   1.228  0.00  0.00     0.003 A 
ATOM      6  C4  OXE d   1      -0.369   0.697   2.334  0.00  0.00    -0.002 A 
ATOM      7  C5  OXE d   1      -0.687   2.049   2.164  0.00  0.00    -0.002 A 
ATOM      8  C6  OXE d   1      -0.704   2.589   0.882  0.00  0.00     0.003 A 
ENDROOT
TORSDOF 0
ENDMDL
