MODEL 1
REMARK minimizedAffinity -3.07746983
REMARK minimizedRMSD -1
REMARK  0 active torsions:
REMARK  status: ('A' for Active; 'I' for Inactive)
ROOT
ATOM      1  C2' OXE d   1       0.417  -0.853  -0.897  0.00  0.00     0.078 C 
ATOM      2  C1' OXE d   1      -0.378   1.694  -1.770  0.00  0.00     0.078 C 
ATOM      3  C1  OXE d   1      -0.137   1.500  -0.294  0.00  0.00    -0.078 A 
ATOM      4  C2  OXE d   1       0.206   0.238   0.130  0.00  0.00    -0.078 A 
ATOM      5  C3  OXE d   1       0.492   0.017   1.474  0.00  0.00     0.003 A 
ATOM      6  C4  OXE d   1       0.285   1.029   2.419  0.00  0.00    -0.002 A 
ATOM      7  C5  OXE d   1      -0.103   2.311   2.013  0.00  0.00    -0.002 A 
ATOM      8  C6  OXE d   1      -0.277   2.573   0.659  0.00  0.00     0.003 A 
ENDROOT
TORSDOF 0
ENDMDL
