MODEL 1
REMARK minimizedAffinity -3.34546471
REMARK minimizedRMSD -1
REMARK  0 active torsions:
REMARK  status: ('A' for Active; 'I' for Inactive)
ROOT
ATOM      1  C2' OXE d   1      -0.237   1.682   1.971  0.00  0.00     0.078 C 
ATOM      2  C1' OXE d   1       0.909  -0.581   3.171  0.00  0.00     0.078 C 
ATOM      3  C1  OXE d   1       0.749  -0.586   1.672  0.00  0.00    -0.078 A 
ATOM      4  C2  OXE d   1       0.145   0.507   1.097  0.00  0.00    -0.078 A 
ATOM      5  C3  OXE d   1       0.022   0.577  -0.287  0.00  0.00     0.003 A 
ATOM      6  C4  OXE d   1       0.368  -0.519  -1.087  0.00  0.00    -0.002 A 
ATOM      7  C5  OXE d   1       0.949  -1.657  -0.518  0.00  0.00    -0.002 A 
ATOM      8  C6  OXE d   1       1.185  -1.689   0.852  0.00  0.00     0.003 A 
ENDROOT
TORSDOF 0
ENDMDL
