MODEL 1
REMARK minimizedAffinity -5.13931894
REMARK minimizedRMSD -1
REMARK  0 active torsions:
REMARK  status: ('A' for Active; 'I' for Inactive)
ROOT
ATOM      1  C2' OXE d   1      -0.889   3.714   1.204  0.00  0.00     0.078 C 
ATOM      2  C1' OXE d   1      -0.902   2.841  -1.464  0.00  0.00     0.078 C 
ATOM      3  C1  OXE d   1      -0.436   1.870  -0.408  0.00  0.00    -0.078 A 
ATOM      4  C2  OXE d   1      -0.388   2.321   0.889  0.00  0.00    -0.078 A 
ATOM      5  C3  OXE d   1      -0.018   1.449   1.909  0.00  0.00     0.003 A 
ATOM      6  C4  OXE d   1       0.453   0.165   1.607  0.00  0.00    -0.002 A 
ATOM      7  C5  OXE d   1       0.450  -0.301   0.288  0.00  0.00    -0.002 A 
ATOM      8  C6  OXE d   1      -0.030   0.523  -0.724  0.00  0.00     0.003 A 
ENDROOT
TORSDOF 0
ENDMDL
