MODEL 1
REMARK minimizedAffinity -4.94748211
REMARK minimizedRMSD -1
REMARK  0 active torsions:
REMARK  status: ('A' for Active; 'I' for Inactive)
ROOT
ATOM      1  C2' OXE d   1       1.309  -0.061   1.762  0.00  0.00     0.078 C 
ATOM      2  C1' OXE d   1      -0.124  -0.619  -0.587  0.00  0.00     0.078 C 
ATOM      3  C1  OXE d   1      -0.466   0.644   0.162  0.00  0.00    -0.078 A 
ATOM      4  C2  OXE d   1       0.208   0.886   1.335  0.00  0.00    -0.078 A 
ATOM      5  C3  OXE d   1      -0.030   2.064   2.037  0.00  0.00     0.003 A 
ATOM      6  C4  OXE d   1      -1.057   2.930   1.641  0.00  0.00    -0.002 A 
ATOM      7  C5  OXE d   1      -1.782   2.683   0.471  0.00  0.00    -0.002 A 
ATOM      8  C6  OXE d   1      -1.471   1.569  -0.301  0.00  0.00     0.003 A 
ENDROOT
TORSDOF 0
ENDMDL
