MODEL 1
REMARK minimizedAffinity -3.40234041
REMARK minimizedRMSD -1
REMARK  0 active torsions:
REMARK  status: ('A' for Active; 'I' for Inactive)
ROOT
ATOM      1  C2' OXE d   1      -1.493   1.817  -1.237  0.00  0.00     0.078 C 
ATOM      2  C1' OXE d   1      -1.455   2.375   1.514  0.00  0.00     0.078 C 
ATOM      3  C1  OXE d   1      -0.503   1.327   0.996  0.00  0.00    -0.078 A 
ATOM      4  C2  OXE d   1      -0.561   1.027  -0.344  0.00  0.00    -0.078 A 
ATOM      5  C3  OXE d   1       0.333   0.107  -0.883  0.00  0.00     0.003 A 
ATOM      6  C4  OXE d   1       1.185  -0.627  -0.049  0.00  0.00    -0.002 A 
ATOM      7  C5  OXE d   1       1.232  -0.365   1.324  0.00  0.00    -0.002 A 
ATOM      8  C6  OXE d   1       0.427   0.636   1.855  0.00  0.00     0.003 A 
ENDROOT
TORSDOF 0
ENDMDL
