MODEL 1
REMARK minimizedAffinity -5.16022015
REMARK minimizedRMSD -1
REMARK  0 active torsions:
REMARK  status: ('A' for Active; 'I' for Inactive)
ROOT
ATOM      1  C2' OXE d   1      -1.466   2.663   1.275  0.00  0.00     0.078 C 
ATOM      2  C1' OXE d   1       0.617   1.352   2.624  0.00  0.00     0.078 C 
ATOM      3  C1  OXE d   1       0.500   1.140   1.136  0.00  0.00    -0.078 A 
ATOM      4  C2  OXE d   1      -0.550   1.748   0.491  0.00  0.00    -0.078 A 
ATOM      5  C3  OXE d   1      -0.673   1.629  -0.890  0.00  0.00     0.003 A 
ATOM      6  C4  OXE d   1       0.171   0.773  -1.606  0.00  0.00    -0.002 A 
ATOM      7  C5  OXE d   1       1.223   0.112  -0.962  0.00  0.00    -0.002 A 
ATOM      8  C6  OXE d   1       1.427   0.318   0.398  0.00  0.00     0.003 A 
ENDROOT
TORSDOF 0
ENDMDL
