MODEL 1
REMARK minimizedAffinity 2.13582373
REMARK minimizedRMSD -1
REMARK  1 active torsions:
REMARK  status: ('A' for Active; 'I' for Inactive)
REMARK    1  A    between atoms: C1_2  and  C2_3 
ROOT
ATOM      1  C2  UNL d   1      -2.191   5.973  -3.368  0.00  0.00    -0.073 A 
ATOM      2  C3  UNL d   1      -1.451   5.989  -2.180  0.00  0.00    -0.002 A 
ATOM      3  C4  UNL d   1      -0.056   5.998  -2.219  0.00  0.00     0.004 A 
ATOM      4  C5  UNL d   1       0.613   5.999  -3.443  0.00  0.00    -0.004 A 
ATOM      5  C6  UNL d   1      -0.109   5.995  -4.641  0.00  0.00    -0.075 A 
ATOM      6  C7  UNL d   1       0.595   5.993  -5.966  0.00  0.00     0.076 C 
ATOM      7  C8  UNL d   1      -1.510   5.982  -4.594  0.00  0.00     0.001 A 
ENDROOT
BRANCH   1   8
ATOM      8  C1  UNL d   1      -3.697   5.969  -3.332  0.00  0.00     0.053 C 
ATOM      9  C   UNL d   1      -4.301   5.999  -4.727  0.00  0.00     0.018 C 
ENDBRANCH   1   8
TORSDOF 1
ENDMDL
