MODEL 1
REMARK minimizedAffinity 0.0588560849
REMARK minimizedRMSD -1
REMARK  1 active torsions:
REMARK  status: ('A' for Active; 'I' for Inactive)
REMARK    1  A    between atoms: C1_2  and  C2_3 
ROOT
ATOM      1  C2  UNL d   1      -0.285   5.993  -4.834  0.00  0.00    -0.073 A 
ATOM      2  C3  UNL d   1       0.120   5.988  -3.495  0.00  0.00    -0.002 A 
ATOM      3  C4  UNL d   1      -0.829   5.995  -2.472  0.00  0.00     0.004 A 
ATOM      4  C5  UNL d   1      -2.190   5.999  -2.776  0.00  0.00    -0.004 A 
ATOM      5  C6  UNL d   1      -2.615   5.992  -4.109  0.00  0.00    -0.075 A 
ATOM      6  C7  UNL d   1      -4.075   5.999  -4.453  0.00  0.00     0.076 C 
ATOM      7  C8  UNL d   1      -1.656   5.988  -5.131  0.00  0.00     0.001 A 
ENDROOT
BRANCH   1   8
ATOM      8  C1  UNL d   1       0.735   5.979  -5.943  0.00  0.00     0.053 C 
ATOM      9  C   UNL d   1       2.158   5.967  -5.407  0.00  0.00     0.018 C 
ENDBRANCH   1   8
TORSDOF 1
ENDMDL
