MODEL 1
REMARK minimizedAffinity 4.96668339
REMARK minimizedRMSD -1
REMARK  1 active torsions:
REMARK  status: ('A' for Active; 'I' for Inactive)
REMARK    1  A    between atoms: C1_2  and  C2_3 
ROOT
ATOM      1  C2  UNL d   1       1.929   4.915  -5.207  0.00  0.00    -0.073 A 
ATOM      2  C3  UNL d   1       1.474   5.999  -4.447  0.00  0.00    -0.002 A 
ATOM      3  C4  UNL d   1       0.286   5.902  -3.721  0.00  0.00     0.004 A 
ATOM      4  C5  UNL d   1      -0.454   4.720  -3.741  0.00  0.00    -0.004 A 
ATOM      5  C6  UNL d   1      -0.010   3.622  -4.485  0.00  0.00    -0.075 A 
ATOM      6  C7  UNL d   1      -0.796   2.344  -4.519  0.00  0.00     0.076 C 
ATOM      7  C8  UNL d   1       1.182   3.728  -5.214  0.00  0.00     0.001 A 
ENDROOT
BRANCH   1   8
ATOM      8  C1  UNL d   1       3.214   5.014  -5.987  0.00  0.00     0.053 C 
ATOM      9  C   UNL d   1       4.198   5.978  -5.345  0.00  0.00     0.018 C 
ENDBRANCH   1   8
TORSDOF 1
ENDMDL
