MODEL 1
REMARK minimizedAffinity -1.79335701
REMARK minimizedRMSD -1
REMARK  1 active torsions:
REMARK  status: ('A' for Active; 'I' for Inactive)
REMARK    1  A    between atoms: C1_2  and  C2_3 
ROOT
ATOM      1  C2  UNL d   1       2.922   4.820  -5.097  0.00  0.00    -0.073 A 
ATOM      2  C3  UNL d   1       3.513   5.862  -5.821  0.00  0.00    -0.002 A 
ATOM      3  C4  UNL d   1       4.901   5.998  -5.853  0.00  0.00     0.004 A 
ATOM      4  C5  UNL d   1       5.712   5.093  -5.170  0.00  0.00    -0.004 A 
ATOM      5  C6  UNL d   1       5.141   4.038  -4.450  0.00  0.00    -0.075 A 
ATOM      6  C7  UNL d   1       6.000   3.056  -3.708  0.00  0.00     0.076 C 
ATOM      7  C8  UNL d   1       3.746   3.909  -4.420  0.00  0.00     0.001 A 
ENDROOT
BRANCH   1   8
ATOM      8  C1  UNL d   1       1.424   4.664  -5.063  0.00  0.00     0.053 C 
ATOM      9  C   UNL d   1       0.716   5.997  -4.876  0.00  0.00     0.018 C 
ENDBRANCH   1   8
TORSDOF 1
ENDMDL
