MODEL 1
REMARK minimizedAffinity 2.71095967
REMARK minimizedRMSD -1
REMARK  1 active torsions:
REMARK  status: ('A' for Active; 'I' for Inactive)
REMARK    1  A    between atoms: C1_2  and  C2_3 
ROOT
ATOM      1  C2  UNL d   1       2.639   1.451   1.179  0.00  0.00    -0.073 A 
ATOM      2  C3  UNL d   1       2.387   2.765   0.768  0.00  0.00    -0.002 A 
ATOM      3  C4  UNL d   1       1.082   3.185   0.508  0.00  0.00     0.004 A 
ATOM      4  C5  UNL d   1       0.016   2.299   0.664  0.00  0.00    -0.004 A 
ATOM      5  C6  UNL d   1       0.246   0.985   1.085  0.00  0.00    -0.075 A 
ATOM      6  C7  UNL d   1      -0.890   0.020   1.254  0.00  0.00     0.076 C 
ATOM      7  C8  UNL d   1       1.560   0.571   1.341  0.00  0.00     0.001 A 
ENDROOT
BRANCH   1   8
ATOM      8  C1  UNL d   1       4.046   0.995   1.466  0.00  0.00     0.053 C 
ATOM      9  C   UNL d   1       5.079   2.019   1.023  0.00  0.00     0.018 C 
ENDBRANCH   1   8
TORSDOF 1
ENDMDL
