MODEL 1
REMARK minimizedAffinity 1.65941978
REMARK minimizedRMSD -1
REMARK  1 active torsions:
REMARK  status: ('A' for Active; 'I' for Inactive)
REMARK    1  A    between atoms: C1_2  and  C2_3 
ROOT
ATOM      1  C2  UNL d   1       0.334   0.768   1.686  0.00  0.00    -0.073 A 
ATOM      2  C3  UNL d   1      -0.028  -0.333   0.901  0.00  0.00    -0.002 A 
ATOM      3  C4  UNL d   1       0.251  -0.346  -0.467  0.00  0.00     0.004 A 
ATOM      4  C5  UNL d   1       0.899   0.736  -1.061  0.00  0.00    -0.004 A 
ATOM      5  C6  UNL d   1       1.279   1.841  -0.292  0.00  0.00    -0.075 A 
ATOM      6  C7  UNL d   1       1.975   3.014  -0.916  0.00  0.00     0.076 C 
ATOM      7  C8  UNL d   1       0.993   1.847   1.080  0.00  0.00     0.001 A 
ENDROOT
BRANCH   1   8
ATOM      8  C1  UNL d   1       0.041   0.783   3.164  0.00  0.00     0.053 C 
ATOM      9  C   UNL d   1      -1.438   0.586   3.454  0.00  0.00     0.018 C 
ENDBRANCH   1   8
TORSDOF 1
ENDMDL
