MODEL 1
REMARK minimizedAffinity 2.77943873
REMARK minimizedRMSD -1
REMARK  1 active torsions:
REMARK  status: ('A' for Active; 'I' for Inactive)
REMARK    1  A    between atoms: C1_2  and  C2_3 
ROOT
ATOM      1  C2  UNL d   1       4.795   3.880  -4.488  0.00  0.00    -0.073 A 
ATOM      2  C3  UNL d   1       5.591   4.961  -4.884  0.00  0.00    -0.002 A 
ATOM      3  C4  UNL d   1       5.045   6.000  -5.639  0.00  0.00     0.004 A 
ATOM      4  C5  UNL d   1       3.698   5.972  -6.000  0.00  0.00    -0.004 A 
ATOM      5  C6  UNL d   1       2.883   4.906  -5.604  0.00  0.00    -0.075 A 
ATOM      6  C7  UNL d   1       1.433   4.860  -5.985  0.00  0.00     0.076 C 
ATOM      7  C8  UNL d   1       3.440   3.866  -4.848  0.00  0.00     0.001 A 
ENDROOT
BRANCH   1   8
ATOM      8  C1  UNL d   1       5.379   2.759  -3.667  0.00  0.00     0.053 C 
ATOM      9  C   UNL d   1       4.890   1.397  -4.133  0.00  0.00     0.018 C 
ENDBRANCH   1   8
TORSDOF 1
ENDMDL
