MODEL 1
REMARK minimizedAffinity 3.43874979
REMARK minimizedRMSD -1
REMARK  1 active torsions:
REMARK  status: ('A' for Active; 'I' for Inactive)
REMARK    1  A    between atoms: C1_2  and  C2_3 
ROOT
ATOM      1  C2  UNL d   1       0.985   5.410  -5.246  0.00  0.00    -0.073 A 
ATOM      2  C3  UNL d   1       1.061   4.339  -4.349  0.00  0.00    -0.002 A 
ATOM      3  C4  UNL d   1       2.299   3.803  -3.994  0.00  0.00     0.004 A 
ATOM      4  C5  UNL d   1       3.473   4.336  -4.526  0.00  0.00    -0.004 A 
ATOM      5  C6  UNL d   1       3.419   5.414  -5.415  0.00  0.00    -0.075 A 
ATOM      6  C7  UNL d   1       4.672   5.998  -5.998  0.00  0.00     0.076 C 
ATOM      7  C8  UNL d   1       2.171   5.945  -5.768  0.00  0.00     0.001 A 
ENDROOT
BRANCH   1   8
ATOM      8  C1  UNL d   1      -0.350   5.996  -5.627  0.00  0.00     0.053 C 
ATOM      9  C   UNL d   1      -1.329   5.990  -4.463  0.00  0.00     0.018 C 
ENDBRANCH   1   8
TORSDOF 1
ENDMDL
