MODEL 1
REMARK minimizedAffinity -2.91245341
REMARK minimizedRMSD -1
REMARK  1 active torsions:
REMARK  status: ('A' for Active; 'I' for Inactive)
REMARK    1  A    between atoms: C1_2  and  C2_3 
ROOT
ATOM      1  C2  UNL d   1      -0.739  -0.556   1.030  0.00  0.00    -0.081 A 
ATOM      2  C3  UNL d   1      -0.373  -0.486  -0.320  0.00  0.00     0.006 A 
ATOM      3  C4  UNL d   1       0.852  -1.001  -0.749  0.00  0.00     0.002 A 
ATOM      4  C5  UNL d   1       1.728  -1.601   0.162  0.00  0.00    -0.080 A 
ATOM      5  C6  UNL d   1       3.034  -2.185  -0.290  0.00  0.00     0.076 C 
ATOM      6  C7  UNL d   1       1.370  -1.656   1.513  0.00  0.00     0.002 A 
ATOM      7  C8  UNL d   1       0.145  -1.140   1.943  0.00  0.00     0.006 A 
ENDROOT
BRANCH   1   8
ATOM      8  C1  UNL d   1      -2.088  -0.061   1.485  0.00  0.00     0.054 C 
ATOM      9  C   UNL d   1      -2.076   0.295   2.965  0.00  0.00     0.018 C 
ENDBRANCH   1   8
TORSDOF 1
ENDMDL
