MODEL 1
REMARK minimizedAffinity -3.87107468
REMARK minimizedRMSD -1
REMARK  1 active torsions:
REMARK  status: ('A' for Active; 'I' for Inactive)
REMARK    1  A    between atoms: C1_2  and  C2_3 
ROOT
ATOM      1  C2  UNL d   1      -0.266   0.128  -0.233  0.00  0.00    -0.081 A 
ATOM      2  C3  UNL d   1      -0.971  -0.273   0.909  0.00  0.00     0.006 A 
ATOM      3  C4  UNL d   1      -0.296  -0.822   2.002  0.00  0.00     0.002 A 
ATOM      4  C5  UNL d   1       1.095  -0.972   1.975  0.00  0.00    -0.080 A 
ATOM      5  C6  UNL d   1       1.835  -1.532   3.153  0.00  0.00     0.076 C 
ATOM      6  C7  UNL d   1       1.797  -0.587   0.828  0.00  0.00     0.002 A 
ATOM      7  C8  UNL d   1       1.123  -0.039  -0.266  0.00  0.00     0.006 A 
ENDROOT
BRANCH   1   8
ATOM      8  C1  UNL d   1      -0.983   0.780  -1.387  0.00  0.00     0.054 C 
ATOM      9  C   UNL d   1      -0.310   2.083  -1.792  0.00  0.00     0.018 C 
ENDBRANCH   1   8
TORSDOF 1
ENDMDL
