MODEL 1
REMARK minimizedAffinity -3.2134757
REMARK minimizedRMSD -1
REMARK  1 active torsions:
REMARK  status: ('A' for Active; 'I' for Inactive)
REMARK    1  A    between atoms: C1_2  and  C2_3 
ROOT
ATOM      1  C2  UNL d   1      -0.334   0.123  -0.943  0.00  0.00    -0.081 A 
ATOM      2  C3  UNL d   1       0.707  -0.494  -1.648  0.00  0.00     0.006 A 
ATOM      3  C4  UNL d   1       1.563  -1.391  -1.006  0.00  0.00     0.002 A 
ATOM      4  C5  UNL d   1       1.388  -1.694   0.349  0.00  0.00    -0.080 A 
ATOM      5  C6  UNL d   1       2.281  -2.679   1.043  0.00  0.00     0.076 C 
ATOM      6  C7  UNL d   1       0.359  -1.065   1.058  0.00  0.00     0.002 A 
ATOM      7  C8  UNL d   1      -0.497  -0.167   0.416  0.00  0.00     0.006 A 
ENDROOT
BRANCH   1   8
ATOM      8  C1  UNL d   1      -1.298   1.042  -1.648  0.00  0.00     0.054 C 
ATOM      9  C   UNL d   1      -0.614   2.327  -2.092  0.00  0.00     0.018 C 
ENDBRANCH   1   8
TORSDOF 1
ENDMDL
