MODEL 1
REMARK minimizedAffinity -3.43674803
REMARK minimizedRMSD -1
REMARK  1 active torsions:
REMARK  status: ('A' for Active; 'I' for Inactive)
REMARK    1  A    between atoms: C1_2  and  C2_3 
ROOT
ATOM      1  C2  UNL d   1      -1.158   0.251   0.190  0.00  0.00    -0.081 A 
ATOM      2  C3  UNL d   1      -2.095   1.282   0.051  0.00  0.00     0.006 A 
ATOM      3  C4  UNL d   1      -1.950   2.240  -0.956  0.00  0.00     0.002 A 
ATOM      4  C5  UNL d   1      -0.871   2.178  -1.844  0.00  0.00    -0.080 A 
ATOM      5  C6  UNL d   1      -0.721   3.182  -2.948  0.00  0.00     0.076 C 
ATOM      6  C7  UNL d   1       0.074   1.158  -1.695  0.00  0.00     0.002 A 
ATOM      7  C8  UNL d   1      -0.070   0.200  -0.688  0.00  0.00     0.006 A 
ENDROOT
BRANCH   1   8
ATOM      8  C1  UNL d   1      -1.346  -0.820   1.233  0.00  0.00     0.054 C 
ATOM      9  C   UNL d   1      -0.435  -0.592   2.431  0.00  0.00     0.018 C 
ENDBRANCH   1   8
TORSDOF 1
ENDMDL
