MODEL 1
REMARK minimizedAffinity 8.39855576
REMARK minimizedRMSD -1
REMARK  0 active torsions:
REMARK  status: ('A' for Active; 'I' for Inactive)
ROOT
ATOM      1  C   UNL d   1      -2.200  -5.636   2.152  0.00  0.00     0.077 C 
ATOM      2  C1  UNL d   1      -3.492  -5.213   1.519  0.00  0.00    -0.074 A 
ATOM      3  C2  UNL d   1      -4.104  -6.000   0.538  0.00  0.00    -0.005 A 
ATOM      4  C3  UNL d   1      -5.311  -5.598  -0.035  0.00  0.00     0.006 A 
ATOM      5  C4  UNL d   1      -5.917  -4.407   0.367  0.00  0.00    -0.005 A 
ATOM      6  C5  UNL d   1      -5.320  -3.607   1.347  0.00  0.00    -0.074 A 
ATOM      7  C6  UNL d   1      -5.963  -2.329   1.797  0.00  0.00     0.077 C 
ATOM      8  C7  UNL d   1      -4.111  -4.021   1.923  0.00  0.00    -0.001 A 
ENDROOT
TORSDOF 0
ENDMDL
