MODEL 1
REMARK minimizedAffinity 6.36998987
REMARK minimizedRMSD -1
REMARK  0 active torsions:
REMARK  status: ('A' for Active; 'I' for Inactive)
ROOT
ATOM      1  C   UNL d   1      -0.227  -2.902  -5.071  0.00  0.00     0.077 C 
ATOM      2  C1  UNL d   1      -1.126  -2.231  -4.075  0.00  0.00    -0.074 A 
ATOM      3  C2  UNL d   1      -2.385  -2.759  -3.772  0.00  0.00    -0.005 A 
ATOM      4  C3  UNL d   1      -3.206  -2.129  -2.837  0.00  0.00     0.006 A 
ATOM      5  C4  UNL d   1      -2.777  -0.966  -2.196  0.00  0.00    -0.005 A 
ATOM      6  C5  UNL d   1      -1.521  -0.423  -2.486  0.00  0.00    -0.074 A 
ATOM      7  C6  UNL d   1      -1.041   0.820  -1.799  0.00  0.00     0.077 C 
ATOM      8  C7  UNL d   1      -0.699  -1.066  -3.422  0.00  0.00    -0.001 A 
ENDROOT
TORSDOF 0
ENDMDL
