MODEL 1
REMARK minimizedAffinity 0.555162489
REMARK minimizedRMSD -1
REMARK  0 active torsions:
REMARK  status: ('A' for Active; 'I' for Inactive)
ROOT
ATOM      1  C   UNL d   1       1.127  -5.159   5.897  0.00  0.00     0.077 C 
ATOM      2  C1  UNL d   1       1.166  -5.446   4.425  0.00  0.00    -0.074 A 
ATOM      3  C2  UNL d   1       2.384  -5.599   3.755  0.00  0.00    -0.005 A 
ATOM      4  C3  UNL d   1       2.405  -5.875   2.388  0.00  0.00     0.006 A 
ATOM      5  C4  UNL d   1       1.210  -6.000   1.678  0.00  0.00    -0.005 A 
ATOM      6  C5  UNL d   1      -0.018  -5.851   2.332  0.00  0.00    -0.074 A 
ATOM      7  C6  UNL d   1      -1.312  -5.992   1.586  0.00  0.00     0.077 C 
ATOM      8  C7  UNL d   1      -0.030  -5.581   3.707  0.00  0.00    -0.001 A 
ENDROOT
TORSDOF 0
ENDMDL
