MODEL 1
REMARK minimizedAffinity 9.07780075
REMARK minimizedRMSD -1
REMARK  0 active torsions:
REMARK  status: ('A' for Active; 'I' for Inactive)
ROOT
ATOM      1  C   UNL d   1      -2.930  -1.019   3.995  0.00  0.00     0.077 C 
ATOM      2  C1  UNL d   1      -1.915  -0.958   2.892  0.00  0.00    -0.074 A 
ATOM      3  C2  UNL d   1      -1.868  -1.948   1.905  0.00  0.00    -0.005 A 
ATOM      4  C3  UNL d   1      -0.925  -1.873   0.879  0.00  0.00     0.006 A 
ATOM      5  C4  UNL d   1      -0.022  -0.811   0.831  0.00  0.00    -0.005 A 
ATOM      6  C5  UNL d   1      -0.055   0.188   1.809  0.00  0.00    -0.074 A 
ATOM      7  C6  UNL d   1       0.902   1.342   1.767  0.00  0.00     0.077 C 
ATOM      8  C7  UNL d   1      -1.010   0.110   2.832  0.00  0.00    -0.001 A 
ENDROOT
TORSDOF 0
ENDMDL
