MODEL 1
REMARK minimizedAffinity 5.0813508
REMARK minimizedRMSD -1
REMARK  0 active torsions:
REMARK  status: ('A' for Active; 'I' for Inactive)
ROOT
ATOM      1  C   UNL d   1       2.264  -6.000   1.151  0.00  0.00     0.077 C 
ATOM      2  C1  UNL d   1       1.076  -5.992   2.066  0.00  0.00    -0.074 A 
ATOM      3  C2  UNL d   1      -0.226  -5.998   1.555  0.00  0.00    -0.005 A 
ATOM      4  C3  UNL d   1      -1.321  -6.000   2.419  0.00  0.00     0.006 A 
ATOM      5  C4  UNL d   1      -1.125  -5.996   3.801  0.00  0.00    -0.005 A 
ATOM      6  C5  UNL d   1       0.169  -5.991   4.330  0.00  0.00    -0.074 A 
ATOM      7  C6  UNL d   1       0.397  -5.997   5.813  0.00  0.00     0.077 C 
ATOM      8  C7  UNL d   1       1.264  -5.996   3.456  0.00  0.00    -0.001 A 
ENDROOT
TORSDOF 0
ENDMDL
