MODEL 1
REMARK minimizedAffinity 3.35537958
REMARK minimizedRMSD -1
REMARK  0 active torsions:
REMARK  status: ('A' for Active; 'I' for Inactive)
ROOT
ATOM      1  C   UNL d   1      -0.734  -6.000   1.871  0.00  0.00     0.077 C 
ATOM      2  C1  UNL d   1      -1.333  -4.626   1.815  0.00  0.00    -0.074 A 
ATOM      3  C2  UNL d   1      -1.700  -3.953   2.985  0.00  0.00    -0.005 A 
ATOM      4  C3  UNL d   1      -2.246  -2.672   2.918  0.00  0.00     0.006 A 
ATOM      5  C4  UNL d   1      -2.431  -2.051   1.682  0.00  0.00    -0.005 A 
ATOM      6  C5  UNL d   1      -2.070  -2.707   0.502  0.00  0.00    -0.074 A 
ATOM      7  C6  UNL d   1      -2.253  -2.050  -0.834  0.00  0.00     0.077 C 
ATOM      8  C7  UNL d   1      -1.515  -3.992   0.578  0.00  0.00    -0.001 A 
ENDROOT
TORSDOF 0
ENDMDL
