MODEL 1
REMARK minimizedAffinity 7.13196564
REMARK minimizedRMSD -1
REMARK  0 active torsions:
REMARK  status: ('A' for Active; 'I' for Inactive)
ROOT
ATOM      1  C   UNL d   1      -2.630  -0.191  -2.797  0.00  0.00     0.077 C 
ATOM      2  C1  UNL d   1      -2.101  -0.443  -1.416  0.00  0.00    -0.074 A 
ATOM      3  C2  UNL d   1      -2.620  -1.472  -0.624  0.00  0.00    -0.005 A 
ATOM      4  C3  UNL d   1      -2.111  -1.701   0.654  0.00  0.00     0.006 A 
ATOM      5  C4  UNL d   1      -1.080  -0.904   1.153  0.00  0.00    -0.005 A 
ATOM      6  C5  UNL d   1      -0.547   0.129   0.375  0.00  0.00    -0.074 A 
ATOM      7  C6  UNL d   1       0.568   0.989   0.891  0.00  0.00     0.077 C 
ATOM      8  C7  UNL d   1      -1.059   0.348  -0.911  0.00  0.00    -0.001 A 
ENDROOT
TORSDOF 0
ENDMDL
