MODEL 1
REMARK minimizedAffinity -0.316549718
REMARK minimizedRMSD -1
REMARK  0 active torsions:
REMARK  status: ('A' for Active; 'I' for Inactive)
ROOT
ATOM      1  C   UNL d   1      -1.758  -5.988   3.048  0.00  0.00     0.077 C 
ATOM      2  C1  UNL d   1      -3.217  -5.998   2.699  0.00  0.00    -0.074 A 
ATOM      3  C2  UNL d   1      -4.195  -5.999   3.698  0.00  0.00    -0.005 A 
ATOM      4  C3  UNL d   1      -5.548  -5.999   3.357  0.00  0.00     0.006 A 
ATOM      5  C4  UNL d   1      -5.935  -5.997   2.017  0.00  0.00    -0.005 A 
ATOM      6  C5  UNL d   1      -4.971  -5.995   1.004  0.00  0.00    -0.074 A 
ATOM      7  C6  UNL d   1      -5.370  -5.983  -0.442  0.00  0.00     0.077 C 
ATOM      8  C7  UNL d   1      -3.614  -5.988   1.354  0.00  0.00    -0.001 A 
ENDROOT
TORSDOF 0
ENDMDL
