MODEL 1
REMARK minimizedAffinity 4.10133171
REMARK minimizedRMSD -1
REMARK  0 active torsions:
REMARK  status: ('A' for Active; 'I' for Inactive)
ROOT
ATOM      1  C   UNL d   1      -5.255   3.739   5.998  0.00  0.00     0.077 C 
ATOM      2  C1  UNL d   1      -5.236   2.447   5.236  0.00  0.00    -0.074 A 
ATOM      3  C2  UNL d   1      -5.210   2.438   3.837  0.00  0.00    -0.005 A 
ATOM      4  C3  UNL d   1      -5.183   1.229   3.142  0.00  0.00     0.006 A 
ATOM      5  C4  UNL d   1      -5.183   0.019   3.837  0.00  0.00    -0.005 A 
ATOM      6  C5  UNL d   1      -5.209   0.008   5.236  0.00  0.00    -0.074 A 
ATOM      7  C6  UNL d   1      -5.199  -1.283   5.998  0.00  0.00     0.077 C 
ATOM      8  C7  UNL d   1      -5.228   1.228   5.927  0.00  0.00    -0.001 A 
ENDROOT
TORSDOF 0
ENDMDL
