MODEL 1
REMARK minimizedAffinity -1.72074759
REMARK minimizedRMSD -1
REMARK  0 active torsions:
REMARK  status: ('A' for Active; 'I' for Inactive)
ROOT
ATOM      1  C   UNL d   1      -1.250  -2.815   2.188  0.00  0.00     0.077 C 
ATOM      2  C1  UNL d   1      -1.286  -1.325   2.355  0.00  0.00    -0.074 A 
ATOM      3  C2  UNL d   1      -0.179  -0.538   2.021  0.00  0.00    -0.005 A 
ATOM      4  C3  UNL d   1      -0.230   0.848   2.172  0.00  0.00     0.006 A 
ATOM      5  C4  UNL d   1      -1.387   1.459   2.658  0.00  0.00    -0.005 A 
ATOM      6  C5  UNL d   1      -2.504   0.689   2.996  0.00  0.00    -0.074 A 
ATOM      7  C6  UNL d   1      -3.758   1.331   3.510  0.00  0.00     0.077 C 
ATOM      8  C7  UNL d   1      -2.447  -0.703   2.835  0.00  0.00    -0.001 A 
ENDROOT
TORSDOF 0
ENDMDL
