MODEL 1
REMARK minimizedAffinity -1.36204875
REMARK minimizedRMSD -1
REMARK  0 active torsions:
REMARK  status: ('A' for Active; 'I' for Inactive)
ROOT
ATOM      1  C   UNL d   1      -4.183  -1.142   4.210  0.00  0.00     0.077 C 
ATOM      2  C1  UNL d   1      -3.034  -1.328   3.265  0.00  0.00    -0.074 A 
ATOM      3  C2  UNL d   1      -2.870  -2.524   2.558  0.00  0.00    -0.005 A 
ATOM      4  C3  UNL d   1      -1.801  -2.678   1.676  0.00  0.00     0.006 A 
ATOM      5  C4  UNL d   1      -0.886  -1.641   1.491  0.00  0.00    -0.005 A 
ATOM      6  C5  UNL d   1      -1.035  -0.437   2.188  0.00  0.00    -0.074 A 
ATOM      7  C6  UNL d   1      -0.066   0.692   1.994  0.00  0.00     0.077 C 
ATOM      8  C7  UNL d   1      -2.115  -0.287   3.068  0.00  0.00    -0.001 A 
ENDROOT
TORSDOF 0
ENDMDL
