MODEL 1
REMARK minimizedAffinity -2.38356471
REMARK minimizedRMSD -1
REMARK  0 active torsions:
REMARK  status: ('A' for Active; 'I' for Inactive)
ROOT
ATOM      1  C   UNL d   1      -5.991   3.661   5.998  0.00  0.00     0.077 C 
ATOM      2  C1  UNL d   1      -5.525   2.390   5.353  0.00  0.00    -0.074 A 
ATOM      3  C2  UNL d   1      -4.765   2.417   4.179  0.00  0.00    -0.005 A 
ATOM      4  C3  UNL d   1      -4.330   1.227   3.596  0.00  0.00     0.006 A 
ATOM      5  C4  UNL d   1      -4.650   0.000   4.179  0.00  0.00    -0.005 A 
ATOM      6  C5  UNL d   1      -5.408  -0.046   5.353  0.00  0.00    -0.074 A 
ATOM      7  C6  UNL d   1      -5.753  -1.356   5.999  0.00  0.00     0.077 C 
ATOM      8  C7  UNL d   1      -5.836   1.154   5.937  0.00  0.00    -0.001 A 
ENDROOT
TORSDOF 0
ENDMDL
