MODEL 1
REMARK minimizedAffinity 6.14286423
REMARK minimizedRMSD -1
REMARK  0 active torsions:
REMARK  status: ('A' for Active; 'I' for Inactive)
ROOT
ATOM      1  C   UNL d   1      -3.093  -0.412  -2.358  0.00  0.00     0.077 C 
ATOM      2  C1  UNL d   1      -2.273  -1.424  -3.101  0.00  0.00    -0.074 A 
ATOM      3  C2  UNL d   1      -2.843  -2.620  -3.551  0.00  0.00    -0.005 A 
ATOM      4  C3  UNL d   1      -2.070  -3.548  -4.249  0.00  0.00     0.006 A 
ATOM      5  C4  UNL d   1      -0.722  -3.290  -4.504  0.00  0.00    -0.005 A 
ATOM      6  C5  UNL d   1      -0.136  -2.099  -4.063  0.00  0.00    -0.074 A 
ATOM      7  C6  UNL d   1       1.308  -1.802  -4.337  0.00  0.00     0.077 C 
ATOM      8  C7  UNL d   1      -0.921  -1.169  -3.368  0.00  0.00    -0.001 A 
ENDROOT
TORSDOF 0
ENDMDL
