MODEL 1
REMARK minimizedAffinity 0.267176807
REMARK minimizedRMSD -1
REMARK  0 active torsions:
REMARK  status: ('A' for Active; 'I' for Inactive)
ROOT
ATOM      1  C   UNL d   1       0.814  -6.000   4.500  0.00  0.00     0.077 C 
ATOM      2  C1  UNL d   1      -0.222  -5.240   3.725  0.00  0.00    -0.074 A 
ATOM      3  C2  UNL d   1      -0.149  -3.849   3.600  0.00  0.00    -0.005 A 
ATOM      4  C3  UNL d   1      -1.114  -3.157   2.868  0.00  0.00     0.006 A 
ATOM      5  C4  UNL d   1      -2.159  -3.849   2.254  0.00  0.00    -0.005 A 
ATOM      6  C5  UNL d   1      -2.248  -5.240   2.367  0.00  0.00    -0.074 A 
ATOM      7  C6  UNL d   1      -3.359  -5.999   1.705  0.00  0.00     0.077 C 
ATOM      8  C7  UNL d   1      -1.270  -5.928   3.098  0.00  0.00    -0.001 A 
ENDROOT
TORSDOF 0
ENDMDL
