MODEL 1
REMARK minimizedAffinity 17.9050694
REMARK minimizedRMSD -1
REMARK  2 active torsions:
REMARK  status: ('A' for Active; 'I' for Inactive)
REMARK    1  A    between atoms: C2'_3  and  C1'_4 
REMARK    2  A    between atoms: C1'_4  and  C1_5 
ROOT
ATOM      1  C1  I4B d   1       4.488   2.007   2.795  0.00  0.00    -0.075 A 
ATOM      2  C2  I4B d   1       5.568   1.294   2.338  0.00  0.00     0.003 A 
ATOM      3  C3  I4B d   1       5.997   1.431   0.996  0.00  0.00     0.002 A 
ATOM      4  C4  I4B d   1       5.291   2.249   0.137  0.00  0.00    -0.004 A 
ATOM      5  C5  I4B d   1       4.210   2.989   0.608  0.00  0.00     0.002 A 
ATOM      6  C6  I4B d   1       3.813   2.877   1.948  0.00  0.00     0.003 A 
ENDROOT
BRANCH   1   7
ATOM      7  C1' I4B d   1       4.042   1.813   4.210  0.00  0.00     0.060 C 
BRANCH   7   8
ATOM      8  C2' I4B d   1       4.314   3.098   4.965  0.00  0.00    -0.013 C 
ATOM      9  C4' I4B d   1       3.250   3.358   5.999  0.00  0.00     0.013 C 
ATOM     10  C3' I4B d   1       5.668   2.985   5.599  0.00  0.00     0.013 C 
ENDBRANCH   7   8
ENDBRANCH   1   7
TORSDOF 2
ENDMDL
