MODEL 1
REMARK minimizedAffinity 13.5261221
REMARK minimizedRMSD -1
REMARK  2 active torsions:
REMARK  status: ('A' for Active; 'I' for Inactive)
REMARK    1  A    between atoms: C2'_3  and  C1'_4 
REMARK    2  A    between atoms: C1'_4  and  C1_5 
ROOT
ATOM      1  C1  I4B d   1       4.261   2.110   2.986  0.00  0.00    -0.075 A 
ATOM      2  C2  I4B d   1       3.764   2.983   2.051  0.00  0.00     0.003 A 
ATOM      3  C3  I4B d   1       4.264   2.968   0.726  0.00  0.00     0.002 A 
ATOM      4  C4  I4B d   1       5.288   2.104   0.395  0.00  0.00    -0.004 A 
ATOM      5  C5  I4B d   1       5.774   1.204   1.339  0.00  0.00     0.002 A 
ATOM      6  C6  I4B d   1       5.249   1.198   2.639  0.00  0.00     0.003 A 
ENDROOT
BRANCH   1   7
ATOM      7  C1' I4B d   1       3.734   2.175   4.385  0.00  0.00     0.060 C 
BRANCH   7   8
ATOM      8  C2' I4B d   1       4.526   3.228   5.133  0.00  0.00    -0.013 C 
ATOM      9  C4' I4B d   1       3.628   4.074   5.997  0.00  0.00     0.013 C 
ATOM     10  C3' I4B d   1       5.565   2.527   5.957  0.00  0.00     0.013 C 
ENDBRANCH   7   8
ENDBRANCH   1   7
TORSDOF 2
ENDMDL
