MODEL 1
REMARK minimizedAffinity 7.03851223
REMARK minimizedRMSD -1
REMARK  2 active torsions:
REMARK  status: ('A' for Active; 'I' for Inactive)
REMARK    1  A    between atoms: C2'_3  and  C1'_4 
REMARK    2  A    between atoms: C1'_4  and  C1_5 
ROOT
ATOM      1  C1  I4B d   1      -3.721  -3.610   0.379  0.00  0.00    -0.075 A 
ATOM      2  C2  I4B d   1      -3.227  -4.885   0.269  0.00  0.00     0.003 A 
ATOM      3  C3  I4B d   1      -4.095  -5.999   0.379  0.00  0.00     0.002 A 
ATOM      4  C4  I4B d   1      -5.433  -5.793   0.648  0.00  0.00    -0.004 A 
ATOM      5  C5  I4B d   1      -5.936  -4.499   0.737  0.00  0.00     0.002 A 
ATOM      6  C6  I4B d   1      -5.078  -3.400   0.589  0.00  0.00     0.003 A 
ENDROOT
BRANCH   1   7
ATOM      7  C1' I4B d   1      -2.771  -2.458   0.290  0.00  0.00     0.060 C 
BRANCH   7   8
ATOM      8  C2' I4B d   1      -1.661  -2.691   1.294  0.00  0.00    -0.013 C 
ATOM      9  C4' I4B d   1      -2.214  -2.921   2.676  0.00  0.00     0.013 C 
ATOM     10  C3' I4B d   1      -0.856  -3.868   0.831  0.00  0.00     0.013 C 
ENDBRANCH   7   8
ENDBRANCH   1   7
TORSDOF 2
ENDMDL
