MODEL 1
REMARK minimizedAffinity 9.42056751
REMARK minimizedRMSD -1
REMARK  2 active torsions:
REMARK  status: ('A' for Active; 'I' for Inactive)
REMARK    1  A    between atoms: C2'_3  and  C1'_4 
REMARK    2  A    between atoms: C1'_4  and  C1_5 
ROOT
ATOM      1  C1  I4B d   1      -1.390  -1.894   0.186  0.00  0.00    -0.075 A 
ATOM      2  C2  I4B d   1      -0.795  -3.075   0.554  0.00  0.00     0.003 A 
ATOM      3  C3  I4B d   1      -0.827  -3.498   1.905  0.00  0.00     0.002 A 
ATOM      4  C4  I4B d   1      -1.416  -2.691   2.857  0.00  0.00    -0.004 A 
ATOM      5  C5  I4B d   1      -2.039  -1.505   2.477  0.00  0.00     0.002 A 
ATOM      6  C6  I4B d   1      -2.037  -1.110   1.132  0.00  0.00     0.003 A 
ENDROOT
BRANCH   1   7
ATOM      7  C1' I4B d   1      -1.308  -1.461  -1.244  0.00  0.00     0.060 C 
BRANCH   7   8
ATOM      8  C2' I4B d   1      -2.709  -1.487  -1.820  0.00  0.00    -0.013 C 
ATOM      9  C4' I4B d   1      -3.726  -1.045  -0.800  0.00  0.00     0.013 C 
ATOM     10  C3' I4B d   1      -2.730  -0.598  -3.027  0.00  0.00     0.013 C 
ENDBRANCH   7   8
ENDBRANCH   1   7
TORSDOF 2
ENDMDL
