MODEL 1
REMARK minimizedAffinity 15.285428
REMARK minimizedRMSD -1
REMARK  2 active torsions:
REMARK  status: ('A' for Active; 'I' for Inactive)
REMARK    1  A    between atoms: C2'_3  and  C1'_4 
REMARK    2  A    between atoms: C1'_4  and  C1_5 
ROOT
ATOM      1  C1  I4B d   1       3.151   1.455  -1.512  0.00  0.00    -0.075 A 
ATOM      2  C2  I4B d   1       2.586   0.211  -1.375  0.00  0.00     0.003 A 
ATOM      3  C3  I4B d   1       2.997  -0.854  -2.212  0.00  0.00     0.002 A 
ATOM      4  C4  I4B d   1       3.932  -0.621  -3.200  0.00  0.00    -0.004 A 
ATOM      5  C5  I4B d   1       4.520   0.635  -3.322  0.00  0.00     0.002 A 
ATOM      6  C6  I4B d   1       4.137   1.676  -2.465  0.00  0.00     0.003 A 
ENDROOT
BRANCH   1   7
ATOM      7  C1' I4B d   1       2.670   2.565  -0.633  0.00  0.00     0.060 C 
BRANCH   7   8
ATOM      8  C2' I4B d   1       3.718   2.802   0.436  0.00  0.00    -0.013 C 
ATOM      9  C4' I4B d   1       4.653   1.627   0.552  0.00  0.00     0.013 C 
ATOM     10  C3' I4B d   1       4.464   4.055   0.084  0.00  0.00     0.013 C 
ENDBRANCH   7   8
ENDBRANCH   1   7
TORSDOF 2
ENDMDL
