MODEL 1
REMARK minimizedAffinity 10.013835
REMARK minimizedRMSD -1
REMARK  2 active torsions:
REMARK  status: ('A' for Active; 'I' for Inactive)
REMARK    1  A    between atoms: C2'_3  and  C1'_4 
REMARK    2  A    between atoms: C1'_4  and  C1_5 
ROOT
ATOM      1  C1  I4B d   1       3.842   2.280   2.377  0.00  0.00    -0.075 A 
ATOM      2  C2  I4B d   1       4.646   3.193   1.741  0.00  0.00     0.003 A 
ATOM      3  C3  I4B d   1       4.440   3.493   0.373  0.00  0.00     0.002 A 
ATOM      4  C4  I4B d   1       3.459   2.823  -0.330  0.00  0.00    -0.004 A 
ATOM      5  C5  I4B d   1       2.630   1.914   0.322  0.00  0.00     0.002 A 
ATOM      6  C6  I4B d   1       2.815   1.649   1.687  0.00  0.00     0.003 A 
ENDROOT
BRANCH   1   7
ATOM      7  C1' I4B d   1       4.109   1.963   3.815  0.00  0.00     0.060 C 
BRANCH   7   8
ATOM      8  C2' I4B d   1       4.501   3.250   4.511  0.00  0.00    -0.013 C 
ATOM      9  C4' I4B d   1       3.892   3.333   5.886  0.00  0.00     0.013 C 
ATOM     10  C3' I4B d   1       5.998   3.304   4.577  0.00  0.00     0.013 C 
ENDBRANCH   7   8
ENDBRANCH   1   7
TORSDOF 2
ENDMDL
