MODEL 1
REMARK minimizedAffinity 11.8062925
REMARK minimizedRMSD -1
REMARK  2 active torsions:
REMARK  status: ('A' for Active; 'I' for Inactive)
REMARK    1  A    between atoms: C2'_3  and  C1'_4 
REMARK    2  A    between atoms: C1'_4  and  C1_5 
ROOT
ATOM      1  C1  I4B d   1       4.058  -0.325  -2.435  0.00  0.00    -0.075 A 
ATOM      2  C2  I4B d   1       4.042   0.954  -2.931  0.00  0.00     0.003 A 
ATOM      3  C3  I4B d   1       5.009   1.362  -3.881  0.00  0.00     0.002 A 
ATOM      4  C4  I4B d   1       5.999   0.480  -4.266  0.00  0.00    -0.004 A 
ATOM      5  C5  I4B d   1       5.999  -0.824  -3.779  0.00  0.00     0.002 A 
ATOM      6  C6  I4B d   1       5.016  -1.233  -2.867  0.00  0.00     0.003 A 
ENDROOT
BRANCH   1   7
ATOM      7  C1' I4B d   1       3.040  -0.713  -1.409  0.00  0.00     0.060 C 
BRANCH   7   8
ATOM      8  C2' I4B d   1       1.915   0.300  -1.461  0.00  0.00    -0.013 C 
ATOM      9  C4' I4B d   1       0.571  -0.379  -1.489  0.00  0.00     0.013 C 
ATOM     10  C3' I4B d   1       2.044   1.197  -0.266  0.00  0.00     0.013 C 
ENDBRANCH   7   8
ENDBRANCH   1   7
TORSDOF 2
ENDMDL
