MODEL 1
REMARK minimizedAffinity 17.9654675
REMARK minimizedRMSD -1
REMARK  2 active torsions:
REMARK  status: ('A' for Active; 'I' for Inactive)
REMARK    1  A    between atoms: C2'_3  and  C1'_4 
REMARK    2  A    between atoms: C1'_4  and  C1_5 
ROOT
ATOM      1  C1  I4B d   1       3.392   2.471   0.322  0.00  0.00    -0.075 A 
ATOM      2  C2  I4B d   1       2.404   2.715  -0.599  0.00  0.00     0.003 A 
ATOM      3  C3  I4B d   1       1.764   1.638  -1.260  0.00  0.00     0.002 A 
ATOM      4  C4  I4B d   1       2.175   0.345  -1.008  0.00  0.00    -0.004 A 
ATOM      5  C5  I4B d   1       3.161   0.098  -0.057  0.00  0.00     0.002 A 
ATOM      6  C6  I4B d   1       3.765   1.167   0.622  0.00  0.00     0.003 A 
ENDROOT
BRANCH   1   7
ATOM      7  C1' I4B d   1       4.070   3.632   0.977  0.00  0.00     0.060 C 
BRANCH   7   8
ATOM      8  C2' I4B d   1       4.415   4.639  -0.100  0.00  0.00    -0.013 C 
ATOM      9  C4' I4B d   1       4.776   5.974   0.496  0.00  0.00     0.013 C 
ATOM     10  C3' I4B d   1       5.550   4.083  -0.907  0.00  0.00     0.013 C 
ENDBRANCH   7   8
ENDBRANCH   1   7
TORSDOF 2
ENDMDL
