MODEL 1
REMARK minimizedAffinity 12.423584
REMARK minimizedRMSD -1
REMARK  2 active torsions:
REMARK  status: ('A' for Active; 'I' for Inactive)
REMARK    1  A    between atoms: C2'_3  and  C1'_4 
REMARK    2  A    between atoms: C1'_4  and  C1_5 
ROOT
ATOM      1  C1  I4B d   1      -1.769  -1.938  -0.803  0.00  0.00    -0.075 A 
ATOM      2  C2  I4B d   1      -2.562  -1.570   0.256  0.00  0.00     0.003 A 
ATOM      3  C3  I4B d   1      -2.429  -2.222   1.506  0.00  0.00     0.002 A 
ATOM      4  C4  I4B d   1      -1.534  -3.264   1.637  0.00  0.00    -0.004 A 
ATOM      5  C5  I4B d   1      -0.716  -3.620   0.570  0.00  0.00     0.002 A 
ATOM      6  C6  I4B d   1      -0.825  -2.946  -0.655  0.00  0.00     0.003 A 
ENDROOT
BRANCH   1   7
ATOM      7  C1' I4B d   1      -1.958  -1.251  -2.118  0.00  0.00     0.060 C 
BRANCH   7   8
ATOM      8  C2' I4B d   1      -1.098  -1.960  -3.144  0.00  0.00    -0.013 C 
ATOM      9  C4' I4B d   1      -1.939  -2.554  -4.243  0.00  0.00     0.013 C 
ATOM     10  C3' I4B d   1      -0.115  -0.968  -3.689  0.00  0.00     0.013 C 
ENDBRANCH   7   8
ENDBRANCH   1   7
TORSDOF 2
ENDMDL
