MODEL 1
REMARK minimizedAffinity 16.278986
REMARK minimizedRMSD -1
REMARK  2 active torsions:
REMARK  status: ('A' for Active; 'I' for Inactive)
REMARK    1  A    between atoms: C2'_3  and  C1'_4 
REMARK    2  A    between atoms: C1'_4  and  C1_5 
ROOT
ATOM      1  C1  I4B d   1      -1.535  -1.945   0.020  0.00  0.00    -0.075 A 
ATOM      2  C2  I4B d   1      -0.713  -3.044   0.047  0.00  0.00     0.003 A 
ATOM      3  C3  I4B d   1      -0.671  -3.875   1.192  0.00  0.00     0.002 A 
ATOM      4  C4  I4B d   1      -1.424  -3.544   2.300  0.00  0.00    -0.004 A 
ATOM      5  C5  I4B d   1      -2.275  -2.442   2.263  0.00  0.00     0.002 A 
ATOM      6  C6  I4B d   1      -2.340  -1.644   1.111  0.00  0.00     0.003 A 
ENDROOT
BRANCH   1   7
ATOM      7  C1' I4B d   1      -1.530  -1.070  -1.194  0.00  0.00     0.060 C 
BRANCH   7   8
ATOM      8  C2' I4B d   1      -0.347  -1.469  -2.052  0.00  0.00    -0.013 C 
ATOM      9  C4' I4B d   1      -0.774  -1.762  -3.466  0.00  0.00     0.013 C 
ATOM     10  C3' I4B d   1       0.654  -0.354  -2.008  0.00  0.00     0.013 C 
ENDBRANCH   7   8
ENDBRANCH   1   7
TORSDOF 2
ENDMDL
