MODEL 1
REMARK minimizedAffinity 11.530879
REMARK minimizedRMSD -1
REMARK  2 active torsions:
REMARK  status: ('A' for Active; 'I' for Inactive)
REMARK    1  A    between atoms: C2'_3  and  C1'_4 
REMARK    2  A    between atoms: C1'_4  and  C1_5 
ROOT
ATOM      1  C1  I4B d   1       0.100  -0.447  -2.159  0.00  0.00    -0.075 A 
ATOM      2  C2  I4B d   1       0.488   0.405  -1.155  0.00  0.00     0.003 A 
ATOM      3  C3  I4B d   1       1.791   0.960  -1.156  0.00  0.00     0.002 A 
ATOM      4  C4  I4B d   1       2.683   0.599  -2.144  0.00  0.00    -0.004 A 
ATOM      5  C5  I4B d   1       2.281  -0.247  -3.174  0.00  0.00     0.002 A 
ATOM      6  C6  I4B d   1       0.977  -0.764  -3.188  0.00  0.00     0.003 A 
ENDROOT
BRANCH   1   7
ATOM      7  C1' I4B d   1      -1.272  -1.041  -2.110  0.00  0.00     0.060 C 
BRANCH   7   8
ATOM      8  C2' I4B d   1      -1.555  -1.443  -0.677  0.00  0.00    -0.013 C 
ATOM      9  C4' I4B d   1      -3.036  -1.491  -0.406  0.00  0.00     0.013 C 
ATOM     10  C3' I4B d   1      -0.918  -2.779  -0.436  0.00  0.00     0.013 C 
ENDBRANCH   7   8
ENDBRANCH   1   7
TORSDOF 2
ENDMDL
