MODEL 1
REMARK minimizedAffinity 7.16305733
REMARK minimizedRMSD -1
REMARK  2 active torsions:
REMARK  status: ('A' for Active; 'I' for Inactive)
REMARK    1  A    between atoms: C2'_3  and  C1'_4 
REMARK    2  A    between atoms: C1'_4  and  C1_5 
ROOT
ATOM      1  C1  I4B d   1      -0.868  -1.185  -1.743  0.00  0.00    -0.075 A 
ATOM      2  C2  I4B d   1      -0.498  -2.368  -1.154  0.00  0.00     0.003 A 
ATOM      3  C3  I4B d   1      -1.309  -2.948  -0.149  0.00  0.00     0.002 A 
ATOM      4  C4  I4B d   1      -2.448  -2.290   0.269  0.00  0.00    -0.004 A 
ATOM      5  C5  I4B d   1      -2.833  -1.102  -0.345  0.00  0.00     0.002 A 
ATOM      6  C6  I4B d   1      -2.045  -0.552  -1.367  0.00  0.00     0.003 A 
ENDROOT
BRANCH   1   7
ATOM      7  C1' I4B d   1       0.029  -0.584  -2.778  0.00  0.00     0.060 C 
BRANCH   7   8
ATOM      8  C2' I4B d   1       1.415  -0.458  -2.178  0.00  0.00    -0.013 C 
ATOM      9  C4' I4B d   1       2.465  -0.994  -3.115  0.00  0.00     0.013 C 
ATOM     10  C3' I4B d   1       1.655   0.989  -1.867  0.00  0.00     0.013 C 
ENDBRANCH   7   8
ENDBRANCH   1   7
TORSDOF 2
ENDMDL
