MODEL 1
REMARK minimizedAffinity 25.2425861
REMARK minimizedRMSD -1
REMARK  2 active torsions:
REMARK  status: ('A' for Active; 'I' for Inactive)
REMARK    1  A    between atoms: C2'_3  and  C1'_4 
REMARK    2  A    between atoms: C1'_4  and  C1_5 
ROOT
ATOM      1  C1  I4B d   1      -1.808  -1.678  -1.114  0.00  0.00    -0.075 A 
ATOM      2  C2  I4B d   1      -2.645  -1.247  -0.115  0.00  0.00     0.003 A 
ATOM      3  C3  I4B d   1      -2.581  -1.835   1.171  0.00  0.00     0.002 A 
ATOM      4  C4  I4B d   1      -1.706  -2.877   1.400  0.00  0.00    -0.004 A 
ATOM      5  C5  I4B d   1      -0.842  -3.297   0.392  0.00  0.00     0.002 A 
ATOM      6  C6  I4B d   1      -0.884  -2.686  -0.869  0.00  0.00     0.003 A 
ENDROOT
BRANCH   1   7
ATOM      7  C1' I4B d   1      -1.926  -1.058  -2.470  0.00  0.00     0.060 C 
BRANCH   7   8
ATOM      8  C2' I4B d   1      -1.412  -2.057  -3.487  0.00  0.00    -0.013 C 
ATOM      9  C4' I4B d   1      -2.502  -2.478  -4.437  0.00  0.00     0.013 C 
ATOM     10  C3' I4B d   1      -0.268  -1.424  -4.221  0.00  0.00     0.013 C 
ENDBRANCH   7   8
ENDBRANCH   1   7
TORSDOF 2
ENDMDL
