MODEL 1
REMARK minimizedAffinity 20.2300224
REMARK minimizedRMSD -1
REMARK  2 active torsions:
REMARK  status: ('A' for Active; 'I' for Inactive)
REMARK    1  A    between atoms: C2'_3  and  C1'_4 
REMARK    2  A    between atoms: C1'_4  and  C1_5 
ROOT
ATOM      1  C1  I4B d   1      -3.576   4.340  -4.289  0.00  0.00    -0.075 A 
ATOM      2  C2  I4B d   1      -4.103   5.534  -3.866  0.00  0.00     0.003 A 
ATOM      3  C3  I4B d   1      -5.330   6.000  -4.397  0.00  0.00     0.002 A 
ATOM      4  C4  I4B d   1      -5.966   5.269  -5.379  0.00  0.00    -0.004 A 
ATOM      5  C5  I4B d   1      -5.443   4.047  -5.791  0.00  0.00     0.002 A 
ATOM      6  C6  I4B d   1      -4.246   3.573  -5.234  0.00  0.00     0.003 A 
ENDROOT
BRANCH   1   7
ATOM      7  C1' I4B d   1      -2.261   3.893  -3.732  0.00  0.00     0.060 C 
BRANCH   7   8
ATOM      8  C2' I4B d   1      -1.805   2.684  -4.523  0.00  0.00    -0.013 C 
ATOM      9  C4' I4B d   1      -0.302   2.626  -4.611  0.00  0.00     0.013 C 
ATOM     10  C3' I4B d   1      -2.356   1.460  -3.856  0.00  0.00     0.013 C 
ENDBRANCH   7   8
ENDBRANCH   1   7
TORSDOF 2
ENDMDL
