MODEL 1
REMARK minimizedAffinity 25.3748817
REMARK minimizedRMSD -1
REMARK  2 active torsions:
REMARK  status: ('A' for Active; 'I' for Inactive)
REMARK    1  A    between atoms: C2'_3  and  C1'_4 
REMARK    2  A    between atoms: C1'_4  and  C1_5 
ROOT
ATOM      1  C1  I4B d   1      -0.934  -3.588   0.193  0.00  0.00    -0.075 A 
ATOM      2  C2  I4B d   1      -0.464  -3.554   1.482  0.00  0.00     0.003 A 
ATOM      3  C3  I4B d   1       0.000  -4.739   2.103  0.00  0.00     0.002 A 
ATOM      4  C4  I4B d   1      -0.071  -5.936   1.421  0.00  0.00    -0.004 A 
ATOM      5  C5  I4B d   1      -0.528  -5.965   0.106  0.00  0.00     0.002 A 
ATOM      6  C6  I4B d   1      -0.950  -4.782  -0.516  0.00  0.00     0.003 A 
ENDROOT
BRANCH   1   7
ATOM      7  C1' I4B d   1      -1.447  -2.324  -0.421  0.00  0.00     0.060 C 
BRANCH   7   8
ATOM      8  C2' I4B d   1      -2.537  -1.777   0.478  0.00  0.00    -0.013 C 
ATOM      9  C4' I4B d   1      -3.345  -0.719  -0.226  0.00  0.00     0.013 C 
ATOM     10  C3' I4B d   1      -3.403  -2.924   0.906  0.00  0.00     0.013 C 
ENDBRANCH   7   8
ENDBRANCH   1   7
TORSDOF 2
ENDMDL
