MODEL 1
REMARK minimizedAffinity 12.0057201
REMARK minimizedRMSD -1
REMARK  0 active torsions:
REMARK  status: ('A' for Active; 'I' for Inactive)
ROOT
ATOM      1  C1  DEN d   1       1.061  -4.669   0.100  0.00  0.00     0.130 A 
ATOM      2  C2  DEN d   1       2.416  -5.195  -0.037  0.00  0.00    -0.031 A 
ATOM      3  C3  DEN d   1       3.356  -4.167   0.453  0.00  0.00     0.027 A 
ATOM      4  C4  DEN d   1       2.848  -1.826   1.408  0.00  0.00     0.027 A 
ATOM      5  C5  DEN d   1       1.846  -0.930   1.709  0.00  0.00    -0.003 A 
ATOM      6  C6  DEN d   1       0.526  -1.201   1.465  0.00  0.00     0.001 A 
ATOM      7  C7  DEN d   1       0.168  -2.417   0.946  0.00  0.00     0.017 A 
ATOM      8  C8  DEN d   1       1.173  -3.323   0.633  0.00  0.00    -0.094 A 
ATOM      9  C9  DEN d   1       2.501  -3.034   0.898  0.00  0.00    -0.072 A 
ENDROOT
TORSDOF 0
ENDMDL
