MODEL 1
REMARK minimizedAffinity 16.6480598
REMARK minimizedRMSD -1
REMARK  0 active torsions:
REMARK  status: ('A' for Active; 'I' for Inactive)
ROOT
ATOM      1  C1  DEN d   1      -0.069  -0.937   0.408  0.00  0.00     0.130 A 
ATOM      2  C2  DEN d   1      -0.057  -1.775  -0.788  0.00  0.00    -0.031 A 
ATOM      3  C3  DEN d   1       1.154  -2.619  -0.741  0.00  0.00     0.027 A 
ATOM      4  C4  DEN d   1       2.998  -2.713   1.060  0.00  0.00     0.027 A 
ATOM      5  C5  DEN d   1       3.428  -2.180   2.255  0.00  0.00    -0.003 A 
ATOM      6  C6  DEN d   1       2.747  -1.180   2.896  0.00  0.00     0.001 A 
ATOM      7  C7  DEN d   1       1.572  -0.712   2.367  0.00  0.00     0.017 A 
ATOM      8  C8  DEN d   1       1.136  -1.239   1.159  0.00  0.00    -0.094 A 
ATOM      9  C9  DEN d   1       1.833  -2.258   0.533  0.00  0.00    -0.072 A 
ENDROOT
TORSDOF 0
ENDMDL
