MODEL 1
REMARK minimizedAffinity 11.0274315
REMARK minimizedRMSD -1
REMARK  0 active torsions:
REMARK  status: ('A' for Active; 'I' for Inactive)
ROOT
ATOM      1  C1  DEN d   1       5.976  -4.797   5.993  0.00  0.00     0.130 A 
ATOM      2  C2  DEN d   1       5.145  -5.998   5.974  0.00  0.00    -0.031 A 
ATOM      3  C3  DEN d   1       3.813  -5.623   5.458  0.00  0.00     0.027 A 
ATOM      4  C4  DEN d   1       2.963  -3.313   4.686  0.00  0.00     0.027 A 
ATOM      5  C5  DEN d   1       3.302  -1.987   4.529  0.00  0.00    -0.003 A 
ATOM      6  C6  DEN d   1       4.534  -1.502   4.879  0.00  0.00     0.001 A 
ATOM      7  C7  DEN d   1       5.489  -2.358   5.360  0.00  0.00     0.017 A 
ATOM      8  C8  DEN d   1       5.152  -3.695   5.528  0.00  0.00    -0.094 A 
ATOM      9  C9  DEN d   1       3.905  -4.169   5.158  0.00  0.00    -0.072 A 
ENDROOT
TORSDOF 0
ENDMDL
