MODEL 1
REMARK minimizedAffinity 12.3985214
REMARK minimizedRMSD -1
REMARK  0 active torsions:
REMARK  status: ('A' for Active; 'I' for Inactive)
ROOT
ATOM      1  C1  DEN d   1       5.911  -0.099  -0.749  0.00  0.00     0.130 A 
ATOM      2  C2  DEN d   1       5.954  -0.771   0.547  0.00  0.00    -0.031 A 
ATOM      3  C3  DEN d   1       5.999   0.266   1.598  0.00  0.00     0.027 A 
ATOM      4  C4  DEN d   1       6.000   2.833   1.346  0.00  0.00     0.027 A 
ATOM      5  C5  DEN d   1       5.984   3.872   0.441  0.00  0.00    -0.003 A 
ATOM      6  C6  DEN d   1       5.977   3.662  -0.912  0.00  0.00     0.001 A 
ATOM      7  C7  DEN d   1       5.941   2.383  -1.400  0.00  0.00     0.017 A 
ATOM      8  C8  DEN d   1       5.964   1.330  -0.495  0.00  0.00    -0.094 A 
ATOM      9  C9  DEN d   1       5.958   1.563   0.870  0.00  0.00    -0.072 A 
ENDROOT
TORSDOF 0
ENDMDL
