MODEL 1
REMARK minimizedAffinity 13.8118525
REMARK minimizedRMSD -1
REMARK  0 active torsions:
REMARK  status: ('A' for Active; 'I' for Inactive)
ROOT
ATOM      1  C1  DEN d   1       1.355  -5.475   0.526  0.00  0.00     0.130 A 
ATOM      2  C2  DEN d   1       2.667  -6.000   0.158  0.00  0.00    -0.031 A 
ATOM      3  C3  DEN d   1       3.628  -4.879   0.170  0.00  0.00     0.027 A 
ATOM      4  C4  DEN d   1       3.215  -2.394   0.725  0.00  0.00     0.027 A 
ATOM      5  C5  DEN d   1       2.261  -1.467   1.083  0.00  0.00    -0.003 A 
ATOM      6  C6  DEN d   1       0.943  -1.802   1.246  0.00  0.00     0.001 A 
ATOM      7  C7  DEN d   1       0.550  -3.106   1.095  0.00  0.00     0.017 A 
ATOM      8  C8  DEN d   1       1.505  -4.044   0.727  0.00  0.00    -0.094 A 
ATOM      9  C9  DEN d   1       2.834  -3.688   0.578  0.00  0.00    -0.072 A 
ENDROOT
TORSDOF 0
ENDMDL
