MODEL 1
REMARK minimizedAffinity 12.9839668
REMARK minimizedRMSD -1
REMARK  0 active torsions:
REMARK  status: ('A' for Active; 'I' for Inactive)
ROOT
ATOM      1  C1  DEN d   1       4.038  -5.238   3.807  0.00  0.00     0.130 A 
ATOM      2  C2  DEN d   1       4.572  -5.997   4.934  0.00  0.00    -0.031 A 
ATOM      3  C3  DEN d   1       4.948  -5.039   5.993  0.00  0.00     0.027 A 
ATOM      4  C4  DEN d   1       4.750  -2.467   5.998  0.00  0.00     0.027 A 
ATOM      5  C5  DEN d   1       4.367  -1.369   5.260  0.00  0.00    -0.003 A 
ATOM      6  C6  DEN d   1       3.883  -1.480   3.983  0.00  0.00     0.001 A 
ATOM      7  C7  DEN d   1       3.727  -2.720   3.422  0.00  0.00     0.017 A 
ATOM      8  C8  DEN d   1       4.118  -3.831   4.158  0.00  0.00    -0.094 A 
ATOM      9  C9  DEN d   1       4.594  -3.699   5.451  0.00  0.00    -0.072 A 
ENDROOT
TORSDOF 0
ENDMDL
