MODEL 1
REMARK minimizedAffinity 22.9034786
REMARK minimizedRMSD -1
REMARK  0 active torsions:
REMARK  status: ('A' for Active; 'I' for Inactive)
ROOT
ATOM      1  C1  DEN d   1      -2.998   4.148  -3.373  0.00  0.00     0.130 A 
ATOM      2  C2  DEN d   1      -2.363   2.964  -2.799  0.00  0.00    -0.031 A 
ATOM      3  C3  DEN d   1      -3.082   1.774  -3.295  0.00  0.00     0.027 A 
ATOM      4  C4  DEN d   1      -5.104   1.648  -4.892  0.00  0.00     0.027 A 
ATOM      5  C5  DEN d   1      -5.999   2.391  -5.630  0.00  0.00    -0.003 A 
ATOM      6  C6  DEN d   1      -5.978   3.760  -5.642  0.00  0.00     0.001 A 
ATOM      7  C7  DEN d   1      -5.014   4.430  -4.935  0.00  0.00     0.017 A 
ATOM      8  C8  DEN d   1      -4.113   3.689  -4.182  0.00  0.00    -0.094 A 
ATOM      9  C9  DEN d   1      -4.143   2.304  -4.193  0.00  0.00    -0.072 A 
ENDROOT
TORSDOF 0
ENDMDL
