MODEL 1
REMARK minimizedAffinity 6.01270819
REMARK minimizedRMSD -1
REMARK  0 active torsions:
REMARK  status: ('A' for Active; 'I' for Inactive)
ROOT
ATOM      1  C1  DEN d   1       1.385   3.927  -4.468  0.00  0.00     0.130 A 
ATOM      2  C2  DEN d   1       0.512   4.996  -4.945  0.00  0.00    -0.031 A 
ATOM      3  C3  DEN d   1       1.352   6.000  -5.630  0.00  0.00     0.027 A 
ATOM      4  C4  DEN d   1       3.904   6.000  -6.000  0.00  0.00     0.027 A 
ATOM      5  C5  DEN d   1       5.073   5.309  -5.765  0.00  0.00    -0.003 A 
ATOM      6  C6  DEN d   1       5.098   4.136  -5.058  0.00  0.00     0.001 A 
ATOM      7  C7  DEN d   1       3.926   3.595  -4.599  0.00  0.00     0.017 A 
ATOM      8  C8  DEN d   1       2.745   4.289  -4.825  0.00  0.00    -0.094 A 
ATOM      9  C9  DEN d   1       2.739   5.467  -5.553  0.00  0.00    -0.072 A 
ENDROOT
TORSDOF 0
ENDMDL
