MODEL 1
REMARK minimizedAffinity 12.3739538
REMARK minimizedRMSD -1
REMARK  0 active torsions:
REMARK  status: ('A' for Active; 'I' for Inactive)
ROOT
ATOM      1  N1  IND d   1       4.636  -5.971  -4.644  0.00  0.00    -0.196 N 
ATOM      2  C2  IND d   1       4.155  -5.970  -5.924  0.00  0.00     0.054 A 
ATOM      3  C3  IND d   1       2.803  -5.991  -5.918  0.00  0.00    -0.031 A 
ATOM      4  C4  IND d   1       1.174  -5.927  -3.926  0.00  0.00     0.051 A 
ATOM      5  C5  IND d   1       1.142  -5.959  -2.560  0.00  0.00    -0.031 A 
ATOM      6  C6  IND d   1       2.296  -5.994  -1.803  0.00  0.00     0.015 A 
ATOM      7  C7  IND d   1       3.531  -5.988  -2.388  0.00  0.00    -0.016 A 
ATOM      8  C8  IND d   1       3.567  -5.962  -3.775  0.00  0.00    -0.047 A 
ATOM      9  C9  IND d   1       2.399  -5.970  -4.548  0.00  0.00    -0.096 A 
ATOM     10  HN1 IND d   1       5.466  -5.976  -4.421  0.00  0.00     0.298 HD
ENDROOT
TORSDOF 0
ENDMDL
