MODEL 1
REMARK minimizedAffinity 11.8652096
REMARK minimizedRMSD -1
REMARK  0 active torsions:
REMARK  status: ('A' for Active; 'I' for Inactive)
ROOT
ATOM      1  N1  IND d   1      -3.801   1.034  -5.295  0.00  0.00    -0.196 N 
ATOM      2  C2  IND d   1      -4.465   2.228  -5.344  0.00  0.00     0.054 A 
ATOM      3  C3  IND d   1      -4.437   2.833  -4.136  0.00  0.00    -0.031 A 
ATOM      4  C4  IND d   1      -3.270   2.092  -1.963  0.00  0.00     0.051 A 
ATOM      5  C5  IND d   1      -2.570   1.053  -1.417  0.00  0.00    -0.031 A 
ATOM      6  C6  IND d   1      -2.235  -0.066  -2.151  0.00  0.00     0.015 A 
ATOM      7  C7  IND d   1      -2.580  -0.184  -3.468  0.00  0.00    -0.016 A 
ATOM      8  C8  IND d   1      -3.297   0.865  -4.024  0.00  0.00    -0.047 A 
ATOM      9  C9  IND d   1      -3.677   1.985  -3.273  0.00  0.00    -0.096 A 
ATOM     10  HN1 IND d   1      -3.713   0.481  -5.948  0.00  0.00     0.298 HD
ENDROOT
TORSDOF 0
ENDMDL
