MODEL 1
REMARK minimizedAffinity 3.37523556
REMARK minimizedRMSD -1
REMARK  0 active torsions:
REMARK  status: ('A' for Active; 'I' for Inactive)
ROOT
ATOM      1  N1  IND d   1       1.325  -2.579   2.322  0.00  0.00    -0.196 N 
ATOM      2  C2  IND d   1       1.539  -1.230   2.370  0.00  0.00     0.054 A 
ATOM      3  C3  IND d   1       2.481  -0.936   3.294  0.00  0.00    -0.031 A 
ATOM      4  C4  IND d   1       3.874  -2.519   4.770  0.00  0.00     0.051 A 
ATOM      5  C5  IND d   1       4.010  -3.836   5.107  0.00  0.00    -0.031 A 
ATOM      6  C6  IND d   1       3.244  -4.822   4.520  0.00  0.00     0.015 A 
ATOM      7  C7  IND d   1       2.317  -4.527   3.560  0.00  0.00    -0.016 A 
ATOM      8  C8  IND d   1       2.172  -3.190   3.220  0.00  0.00    -0.047 A 
ATOM      9  C9  IND d   1       2.917  -2.180   3.844  0.00  0.00    -0.096 A 
ATOM     10  HN1 IND d   1       0.756  -2.979   1.816  0.00  0.00     0.298 HD
ENDROOT
TORSDOF 0
ENDMDL
