MODEL 1
REMARK minimizedAffinity -0.993377566
REMARK minimizedRMSD -1
REMARK  0 active torsions:
REMARK  status: ('A' for Active; 'I' for Inactive)
ROOT
ATOM      1  N1  IND d   1       1.408  -5.972  -2.425  0.00  0.00    -0.196 N 
ATOM      2  C2  IND d   1       2.155  -5.974  -1.280  0.00  0.00     0.054 A 
ATOM      3  C3  IND d   1       3.473  -6.000  -1.579  0.00  0.00    -0.031 A 
ATOM      4  C4  IND d   1       4.631  -5.939  -3.878  0.00  0.00     0.051 A 
ATOM      5  C5  IND d   1       4.366  -5.969  -5.218  0.00  0.00    -0.031 A 
ATOM      6  C6  IND d   1       3.076  -6.000  -5.706  0.00  0.00     0.015 A 
ATOM      7  C7  IND d   1       1.997  -5.990  -4.868  0.00  0.00    -0.016 A 
ATOM      8  C8  IND d   1       2.262  -5.966  -3.506  0.00  0.00    -0.047 A 
ATOM      9  C9  IND d   1       3.570  -5.978  -3.004  0.00  0.00    -0.096 A 
ATOM     10  HN1 IND d   1       0.549  -5.974  -2.464  0.00  0.00     0.298 HD
ENDROOT
TORSDOF 0
ENDMDL
