MODEL 1
REMARK minimizedAffinity 5.56770706
REMARK minimizedRMSD -1
REMARK  0 active torsions:
REMARK  status: ('A' for Active; 'I' for Inactive)
ROOT
ATOM      1  N1  IND d   1       1.724  -5.871   1.928  0.00  0.00    -0.196 N 
ATOM      2  C2  IND d   1       2.802  -5.913   1.090  0.00  0.00     0.054 A 
ATOM      3  C3  IND d   1       2.395  -5.999  -0.197  0.00  0.00    -0.031 A 
ATOM      4  C4  IND d   1       0.008  -5.982  -1.161  0.00  0.00     0.051 A 
ATOM      5  C5  IND d   1      -1.305  -5.993  -0.785  0.00  0.00    -0.031 A 
ATOM      6  C6  IND d   1      -1.685  -5.961   0.541  0.00  0.00     0.015 A 
ATOM      7  C7  IND d   1      -0.760  -5.904   1.545  0.00  0.00    -0.016 A 
ATOM      8  C8  IND d   1       0.576  -5.900   1.167  0.00  0.00    -0.047 A 
ATOM      9  C9  IND d   1       0.967  -5.975  -0.175  0.00  0.00    -0.096 A 
ATOM     10  HN1 IND d   1       1.757  -5.833   2.787  0.00  0.00     0.298 HD
ENDROOT
TORSDOF 0
ENDMDL
