MODEL 1
REMARK minimizedAffinity 6.02521896
REMARK minimizedRMSD -1
REMARK  0 active torsions:
REMARK  status: ('A' for Active; 'I' for Inactive)
ROOT
ATOM      1  N1  IND d   1       1.777  -0.097   3.003  0.00  0.00    -0.196 N 
ATOM      2  C2  IND d   1       2.353  -0.144   1.765  0.00  0.00     0.054 A 
ATOM      3  C3  IND d   1       2.824  -1.386   1.512  0.00  0.00    -0.031 A 
ATOM      4  C4  IND d   1       2.667  -3.518   2.947  0.00  0.00     0.051 A 
ATOM      5  C5  IND d   1       2.263  -3.963   4.174  0.00  0.00    -0.031 A 
ATOM      6  C6  IND d   1       1.661  -3.126   5.091  0.00  0.00     0.015 A 
ATOM      7  C7  IND d   1       1.430  -1.809   4.810  0.00  0.00    -0.016 A 
ATOM      8  C8  IND d   1       1.846  -1.352   3.567  0.00  0.00    -0.047 A 
ATOM      9  C9  IND d   1       2.495  -2.187   2.649  0.00  0.00    -0.096 A 
ATOM     10  HN1 IND d   1       1.430   0.600   3.369  0.00  0.00     0.298 HD
ENDROOT
TORSDOF 0
ENDMDL
