MODEL 1
REMARK minimizedAffinity 1.34627795
REMARK minimizedRMSD -1
REMARK  0 active torsions:
REMARK  status: ('A' for Active; 'I' for Inactive)
ROOT
ATOM      1  N1  IND d   1       1.378  -0.314   2.895  0.00  0.00    -0.196 N 
ATOM      2  C2  IND d   1       1.834  -0.395   1.609  0.00  0.00     0.054 A 
ATOM      3  C3  IND d   1       2.314  -1.633   1.357  0.00  0.00    -0.031 A 
ATOM      4  C4  IND d   1       2.358  -3.711   2.877  0.00  0.00     0.051 A 
ATOM      5  C5  IND d   1       2.086  -4.118   4.153  0.00  0.00    -0.031 A 
ATOM      6  C6  IND d   1       1.551  -3.262   5.093  0.00  0.00     0.015 A 
ATOM      7  C7  IND d   1       1.256  -1.963   4.787  0.00  0.00    -0.016 A 
ATOM      8  C8  IND d   1       1.537  -1.544   3.495  0.00  0.00    -0.047 A 
ATOM      9  C9  IND d   1       2.120  -2.397   2.549  0.00  0.00    -0.096 A 
ATOM     10  HN1 IND d   1       1.048   0.387   3.267  0.00  0.00     0.298 HD
ENDROOT
TORSDOF 0
ENDMDL
