MODEL 1
REMARK minimizedAffinity -2.16131949
REMARK minimizedRMSD -1
REMARK  0 active torsions:
REMARK  status: ('A' for Active; 'I' for Inactive)
ROOT
ATOM      1  C1  BNZ d   1       4.345  -2.872   3.899  0.00  0.00     0.000 A 
ATOM      2  C2  BNZ d   1       3.609  -2.230   2.940  0.00  0.00     0.000 A 
ATOM      3  C3  BNZ d   1       2.242  -2.249   2.977  0.00  0.00     0.000 A 
ATOM      4  C4  BNZ d   1       1.615  -2.942   3.949  0.00  0.00     0.000 A 
ATOM      5  C5  BNZ d   1       2.344  -3.602   4.918  0.00  0.00     0.000 A 
ATOM      6  C6  BNZ d   1       3.719  -3.548   4.900  0.00  0.00     0.000 A 
ENDROOT
TORSDOF 0
ENDMDL
