MODEL 1
REMARK minimizedAffinity 1.60476065
REMARK minimizedRMSD -1
REMARK  0 active torsions:
REMARK  status: ('A' for Active; 'I' for Inactive)
ROOT
ATOM      1  C1  BNZ d   1      -2.782   3.198   0.884  0.00  0.00     0.000 A 
ATOM      2  C2  BNZ d   1      -3.460   2.795   2.003  0.00  0.00     0.000 A 
ATOM      3  C3  BNZ d   1      -4.799   3.036   2.135  0.00  0.00     0.000 A 
ATOM      4  C4  BNZ d   1      -5.449   3.715   1.167  0.00  0.00     0.000 A 
ATOM      5  C5  BNZ d   1      -4.777   4.137   0.037  0.00  0.00     0.000 A 
ATOM      6  C6  BNZ d   1      -3.437   3.857  -0.109  0.00  0.00     0.000 A 
ENDROOT
TORSDOF 0
ENDMDL
