MODEL 1
REMARK minimizedAffinity 5.13510799
REMARK minimizedRMSD -1
REMARK  0 active torsions:
REMARK  status: ('A' for Active; 'I' for Inactive)
ROOT
ATOM      1  C1  BNZ d   1      -3.063   2.900   1.112  0.00  0.00     0.000 A 
ATOM      2  C2  BNZ d   1      -3.809   2.803   2.256  0.00  0.00     0.000 A 
ATOM      3  C3  BNZ d   1      -5.132   3.148   2.260  0.00  0.00     0.000 A 
ATOM      4  C4  BNZ d   1      -5.696   3.626   1.132  0.00  0.00     0.000 A 
ATOM      5  C5  BNZ d   1      -4.954   3.738  -0.027  0.00  0.00     0.000 A 
ATOM      6  C6  BNZ d   1      -3.633   3.354  -0.037  0.00  0.00     0.000 A 
ENDROOT
TORSDOF 0
ENDMDL
