MODEL 1
REMARK minimizedAffinity 7.90779018
REMARK minimizedRMSD -1
REMARK  0 active torsions:
REMARK  status: ('A' for Active; 'I' for Inactive)
ROOT
ATOM      1  C1  BNZ d   1       5.211  -0.615  -4.262  0.00  0.00     0.000 A 
ATOM      2  C2  BNZ d   1       5.998  -0.199  -5.302  0.00  0.00     0.000 A 
ATOM      3  C3  BNZ d   1       5.717   0.958  -5.974  0.00  0.00     0.000 A 
ATOM      4  C4  BNZ d   1       4.628   1.675  -5.631  0.00  0.00     0.000 A 
ATOM      5  C5  BNZ d   1       3.819   1.264  -4.590  0.00  0.00     0.000 A 
ATOM      6  C6  BNZ d   1       4.127   0.119  -3.892  0.00  0.00     0.000 A 
ENDROOT
TORSDOF 0
ENDMDL
