MODEL 1
REMARK minimizedAffinity 10.3068228
REMARK minimizedRMSD -1
REMARK  0 active torsions:
REMARK  status: ('A' for Active; 'I' for Inactive)
ROOT
ATOM      1  C1  BNZ d   1      -0.916  -1.054  -3.143  0.00  0.00     0.000 A 
ATOM      2  C2  BNZ d   1      -1.333   0.102  -3.747  0.00  0.00     0.000 A 
ATOM      3  C3  BNZ d   1      -1.023   1.322  -3.215  0.00  0.00     0.000 A 
ATOM      4  C4  BNZ d   1      -0.331   1.385  -2.059  0.00  0.00     0.000 A 
ATOM      5  C5  BNZ d   1       0.089   0.228  -1.432  0.00  0.00     0.000 A 
ATOM      6  C6  BNZ d   1      -0.192  -0.997  -1.992  0.00  0.00     0.000 A 
ENDROOT
TORSDOF 0
ENDMDL
