MODEL 1
REMARK minimizedAffinity 6.55310535
REMARK minimizedRMSD -1
REMARK  0 active torsions:
REMARK  status: ('A' for Active; 'I' for Inactive)
ROOT
ATOM      1  C1  BNZ d   1       1.572  -1.306   5.018  0.00  0.00     0.000 A 
ATOM      2  C2  BNZ d   1       1.951  -0.225   4.267  0.00  0.00     0.000 A 
ATOM      3  C3  BNZ d   1       2.360  -0.381   2.973  0.00  0.00     0.000 A 
ATOM      4  C4  BNZ d   1       2.429  -1.620   2.444  0.00  0.00     0.000 A 
ATOM      5  C5  BNZ d   1       2.059  -2.721   3.191  0.00  0.00     0.000 A 
ATOM      6  C6  BNZ d   1       1.610  -2.555   4.482  0.00  0.00     0.000 A 
ENDROOT
TORSDOF 0
ENDMDL
