MODEL 1
REMARK minimizedAffinity 6.23579168
REMARK minimizedRMSD -1
REMARK  0 active torsions:
REMARK  status: ('A' for Active; 'I' for Inactive)
ROOT
ATOM      1  C1  BNZ d   1       2.046  -3.602   4.279  0.00  0.00     0.000 A 
ATOM      2  C2  BNZ d   1       1.124  -2.807   3.652  0.00  0.00     0.000 A 
ATOM      3  C3  BNZ d   1       1.451  -1.546   3.241  0.00  0.00     0.000 A 
ATOM      4  C4  BNZ d   1       2.687  -1.066   3.491  0.00  0.00     0.000 A 
ATOM      5  C5  BNZ d   1       3.625  -1.852   4.130  0.00  0.00     0.000 A 
ATOM      6  C6  BNZ d   1       3.304  -3.136   4.509  0.00  0.00     0.000 A 
ENDROOT
TORSDOF 0
ENDMDL
