MODEL 1
REMARK minimizedAffinity 0.730806112
REMARK minimizedRMSD -1
REMARK  0 active torsions:
REMARK  status: ('A' for Active; 'I' for Inactive)
ROOT
ATOM      1  C1  BNZ d   1       3.825  -2.278   5.999  0.00  0.00     0.000 A 
ATOM      2  C2  BNZ d   1       5.152  -2.616   5.999  0.00  0.00     0.000 A 
ATOM      3  C3  BNZ d   1       5.886  -2.572   4.847  0.00  0.00     0.000 A 
ATOM      4  C4  BNZ d   1       5.283  -2.229   3.690  0.00  0.00     0.000 A 
ATOM      5  C5  BNZ d   1       3.944  -1.894   3.672  0.00  0.00     0.000 A 
ATOM      6  C6  BNZ d   1       3.218  -1.902   4.841  0.00  0.00     0.000 A 
ENDROOT
TORSDOF 0
ENDMDL
