MODEL 1
REMARK minimizedAffinity 0.908095837
REMARK minimizedRMSD -1
REMARK  0 active torsions:
REMARK  status: ('A' for Active; 'I' for Inactive)
ROOT
ATOM      1  C1  BNZ d   1       3.101   1.377   2.469  0.00  0.00     0.000 A 
ATOM      2  C2  BNZ d   1       3.130   0.066   2.073  0.00  0.00     0.000 A 
ATOM      3  C3  BNZ d   1       2.568  -0.911   2.846  0.00  0.00     0.000 A 
ATOM      4  C4  BNZ d   1       2.015  -0.582   4.032  0.00  0.00     0.000 A 
ATOM      5  C5  BNZ d   1       1.986   0.733   4.449  0.00  0.00     0.000 A 
ATOM      6  C6  BNZ d   1       2.518   1.719   3.650  0.00  0.00     0.000 A 
ENDROOT
TORSDOF 0
ENDMDL
