MODEL 1
REMARK minimizedAffinity 4.66652346
REMARK minimizedRMSD -1
REMARK  0 active torsions:
REMARK  status: ('A' for Active; 'I' for Inactive)
ROOT
ATOM      1  C   UNL d   1      -6.000  -3.395  -4.075  0.00  0.00     0.172 C 
ATOM      2  N   UNL d   1      -5.374  -4.305  -3.146  0.00  0.00    -0.070 N 
ATOM      3  C1  UNL d   1      -4.076  -4.241  -2.716  0.00  0.00    -0.004 A 
ATOM      4  C2  UNL d   1      -3.869  -5.283  -1.839  0.00  0.00    -0.047 A 
ATOM      5  C3  UNL d   1      -5.085  -6.000  -1.738  0.00  0.00    -0.047 A 
ATOM      6  C4  UNL d   1      -6.000  -5.373  -2.558  0.00  0.00    -0.004 A 
ENDROOT
TORSDOF 0
ENDMDL
