MODEL 1
REMARK minimizedAffinity 4.74758768
REMARK minimizedRMSD -1
REMARK  0 active torsions:
REMARK  status: ('A' for Active; 'I' for Inactive)
ROOT
ATOM      1  C   UNL d   1      -4.067   2.833   3.445  0.00  0.00     0.172 C 
ATOM      2  N   UNL d   1      -4.758   4.090   3.607  0.00  0.00    -0.070 N 
ATOM      3  C1  UNL d   1      -5.439   4.760   2.626  0.00  0.00    -0.004 A 
ATOM      4  C2  UNL d   1      -5.953   5.912   3.180  0.00  0.00    -0.047 A 
ATOM      5  C3  UNL d   1      -5.567   5.937   4.541  0.00  0.00    -0.047 A 
ATOM      6  C4  UNL d   1      -4.828   4.797   4.779  0.00  0.00    -0.004 A 
ENDROOT
TORSDOF 0
ENDMDL
