MODEL 1
REMARK minimizedAffinity 3.54743242
REMARK minimizedRMSD -1
REMARK  0 active torsions:
REMARK  status: ('A' for Active; 'I' for Inactive)
ROOT
ATOM      1  C   UNL d   1       5.952  -0.639   1.119  0.00  0.00     0.172 C 
ATOM      2  N   UNL d   1       5.971   0.778   0.837  0.00  0.00    -0.070 N 
ATOM      3  C1  UNL d   1       5.982   1.777   1.773  0.00  0.00    -0.004 A 
ATOM      4  C2  UNL d   1       6.000   2.982   1.103  0.00  0.00    -0.047 A 
ATOM      5  C3  UNL d   1       5.999   2.696  -0.283  0.00  0.00    -0.047 A 
ATOM      6  C4  UNL d   1       5.981   1.324  -0.419  0.00  0.00    -0.004 A 
ENDROOT
TORSDOF 0
ENDMDL
