MODEL 1
REMARK minimizedAffinity 0.0673716292
REMARK minimizedRMSD -1
REMARK  0 active torsions:
REMARK  status: ('A' for Active; 'I' for Inactive)
ROOT
ATOM      1  C   UNL d   1      -3.101  -4.698  -5.190  0.00  0.00     0.172 C 
ATOM      2  N   UNL d   1      -3.963  -5.040  -4.083  0.00  0.00    -0.070 N 
ATOM      3  C1  UNL d   1      -3.644  -5.886  -3.055  0.00  0.00    -0.004 A 
ATOM      4  C2  UNL d   1      -4.729  -5.947  -2.207  0.00  0.00    -0.047 A 
ATOM      5  C3  UNL d   1      -5.735  -5.110  -2.745  0.00  0.00    -0.047 A 
ATOM      6  C4  UNL d   1      -5.234  -4.561  -3.907  0.00  0.00    -0.004 A 
ENDROOT
TORSDOF 0
ENDMDL
