MODEL 1
REMARK minimizedAffinity -2.69923496
REMARK minimizedRMSD -1
REMARK  0 active torsions:
REMARK  status: ('A' for Active; 'I' for Inactive)
ROOT
ATOM      1  C   UNL d   1      -2.884  -4.623  -6.000  0.00  0.00     0.172 C 
ATOM      2  N   UNL d   1      -3.783  -4.877  -4.899  0.00  0.00    -0.070 N 
ATOM      3  C1  UNL d   1      -5.056  -4.386  -4.778  0.00  0.00    -0.004 A 
ATOM      4  C2  UNL d   1      -5.579  -4.855  -3.593  0.00  0.00    -0.047 A 
ATOM      5  C3  UNL d   1      -4.586  -5.655  -2.979  0.00  0.00    -0.047 A 
ATOM      6  C4  UNL d   1      -3.484  -5.651  -3.809  0.00  0.00    -0.004 A 
ENDROOT
TORSDOF 0
ENDMDL
