MODEL 1
REMARK minimizedAffinity 5.40954065
REMARK minimizedRMSD -1
REMARK  0 active torsions:
REMARK  status: ('A' for Active; 'I' for Inactive)
ROOT
ATOM      1  C   UNL d   1       5.637  -0.149   1.121  0.00  0.00     0.172 C 
ATOM      2  N   UNL d   1       4.342  -0.081   1.757  0.00  0.00    -0.070 N 
ATOM      3  C1  UNL d   1       3.940  -0.828   2.832  0.00  0.00    -0.004 A 
ATOM      4  C2  UNL d   1       2.645  -0.469   3.135  0.00  0.00    -0.047 A 
ATOM      5  C3  UNL d   1       2.253   0.527   2.208  0.00  0.00    -0.047 A 
ATOM      6  C4  UNL d   1       3.323   0.747   1.367  0.00  0.00    -0.004 A 
ENDROOT
TORSDOF 0
ENDMDL
