MODEL 1
REMARK minimizedAffinity 0.739043236
REMARK minimizedRMSD -1
REMARK  0 active torsions:
REMARK  status: ('A' for Active; 'I' for Inactive)
ROOT
ATOM      1  C   UNL d   1       6.000  -0.822   1.913  0.00  0.00     0.172 C 
ATOM      2  N   UNL d   1       5.325   0.172   1.112  0.00  0.00    -0.070 N 
ATOM      3  C1  UNL d   1       5.768   1.447   0.882  0.00  0.00    -0.004 A 
ATOM      4  C2  UNL d   1       4.846   2.075   0.072  0.00  0.00    -0.047 A 
ATOM      5  C3  UNL d   1       3.813   1.145  -0.192  0.00  0.00    -0.047 A 
ATOM      6  C4  UNL d   1       4.135  -0.024   0.463  0.00  0.00    -0.004 A 
ENDROOT
TORSDOF 0
ENDMDL
