MODEL 1
REMARK minimizedAffinity 1.30461848
REMARK minimizedRMSD -1
REMARK  0 active torsions:
REMARK  status: ('A' for Active; 'I' for Inactive)
ROOT
ATOM      1  C   UNL d   1      -3.295  -2.981  -1.440  0.00  0.00     0.172 C 
ATOM      2  N   UNL d   1      -2.190  -2.889  -0.514  0.00  0.00    -0.070 N 
ATOM      3  C1  UNL d   1      -1.101  -2.072  -0.650  0.00  0.00    -0.004 A 
ATOM      4  C2  UNL d   1      -0.279  -2.278   0.437  0.00  0.00    -0.047 A 
ATOM      5  C3  UNL d   1      -0.896  -3.255   1.254  0.00  0.00    -0.047 A 
ATOM      6  C4  UNL d   1      -2.078  -3.616   0.642  0.00  0.00    -0.004 A 
ENDROOT
TORSDOF 0
ENDMDL
