MODEL 1
REMARK minimizedAffinity -0.0242543202
REMARK minimizedRMSD -1
REMARK  0 active torsions:
REMARK  status: ('A' for Active; 'I' for Inactive)
ROOT
ATOM      1  C   UNL d   1      -1.313  -2.988  -5.990  0.00  0.00     0.172 C 
ATOM      2  N   UNL d   1       0.131  -2.973  -5.991  0.00  0.00    -0.070 N 
ATOM      3  C1  UNL d   1       0.918  -1.853  -6.000  0.00  0.00    -0.004 A 
ATOM      4  C2  UNL d   1       2.234  -2.261  -5.998  0.00  0.00    -0.047 A 
ATOM      5  C3  UNL d   1       2.238  -3.676  -5.988  0.00  0.00    -0.047 A 
ATOM      6  C4  UNL d   1       0.923  -4.091  -5.985  0.00  0.00    -0.004 A 
ENDROOT
TORSDOF 0
ENDMDL
