MODEL 1
REMARK minimizedAffinity -2.68243289
REMARK minimizedRMSD -1
REMARK  0 active torsions:
REMARK  status: ('A' for Active; 'I' for Inactive)
ROOT
ATOM      1  C   UNL d   1       5.022   5.934   6.000  0.00  0.00     0.172 C 
ATOM      2  N   UNL d   1       5.256   5.385   4.685  0.00  0.00    -0.070 N 
ATOM      3  C1  UNL d   1       5.999   4.269   4.406  0.00  0.00    -0.004 A 
ATOM      4  C2  UNL d   1       5.978   4.078   3.041  0.00  0.00    -0.047 A 
ATOM      5  C3  UNL d   1       5.195   5.115   2.480  0.00  0.00    -0.047 A 
ATOM      6  C4  UNL d   1       4.761   5.910   3.520  0.00  0.00    -0.004 A 
ENDROOT
TORSDOF 0
ENDMDL
