MODEL 1
REMARK minimizedAffinity -3.31507111
REMARK minimizedRMSD -1
REMARK  0 active torsions:
REMARK  status: ('A' for Active; 'I' for Inactive)
ROOT
ATOM      1  C   UNL d   1      -3.026  -4.839  -5.771  0.00  0.00     0.172 C 
ATOM      2  N   UNL d   1      -3.956  -5.081  -4.693  0.00  0.00    -0.070 N 
ATOM      3  C1  UNL d   1      -5.319  -4.989  -4.779  0.00  0.00    -0.004 A 
ATOM      4  C2  UNL d   1      -5.842  -5.296  -3.542  0.00  0.00    -0.047 A 
ATOM      5  C3  UNL d   1      -4.755  -5.582  -2.682  0.00  0.00    -0.047 A 
ATOM      6  C4  UNL d   1      -3.599  -5.441  -3.421  0.00  0.00    -0.004 A 
ENDROOT
TORSDOF 0
ENDMDL
