MODEL 1
REMARK minimizedAffinity 6.19035912
REMARK minimizedRMSD -1
REMARK  0 active torsions:
REMARK  status: ('A' for Active; 'I' for Inactive)
ROOT
ATOM      1  C   UNL d   1       2.254  -0.777  -5.832  0.00  0.00     0.172 C 
ATOM      2  N   UNL d   1       1.603  -2.066  -5.831  0.00  0.00    -0.070 N 
ATOM      3  C1  UNL d   1       0.251  -2.277  -5.790  0.00  0.00    -0.004 A 
ATOM      4  C2  UNL d   1       0.036  -3.638  -5.806  0.00  0.00    -0.047 A 
ATOM      5  C3  UNL d   1       1.303  -4.267  -5.856  0.00  0.00    -0.047 A 
ATOM      6  C4  UNL d   1       2.255  -3.270  -5.871  0.00  0.00    -0.004 A 
ENDROOT
TORSDOF 0
ENDMDL
