MODEL 1
REMARK minimizedAffinity 8.44643307
REMARK minimizedRMSD -1
REMARK  0 active torsions:
REMARK  status: ('A' for Active; 'I' for Inactive)
ROOT
ATOM      1  C   UNL d   1      -1.717  -5.999   3.859  0.00  0.00     0.172 C 
ATOM      2  N   UNL d   1      -1.911  -5.228   2.654  0.00  0.00    -0.070 N 
ATOM      3  C1  UNL d   1      -2.863  -5.466   1.699  0.00  0.00    -0.004 A 
ATOM      4  C2  UNL d   1      -2.720  -4.513   0.713  0.00  0.00    -0.047 A 
ATOM      5  C3  UNL d   1      -1.644  -3.674   1.089  0.00  0.00    -0.047 A 
ATOM      6  C4  UNL d   1      -1.162  -4.139   2.294  0.00  0.00    -0.004 A 
ENDROOT
TORSDOF 0
ENDMDL
