MODEL 1
REMARK minimizedAffinity 2.00006461
REMARK minimizedRMSD -1
REMARK  0 active torsions:
REMARK  status: ('A' for Active; 'I' for Inactive)
ROOT
ATOM      1  C   UNL d   1      -3.151  -3.772  -2.431  0.00  0.00     0.172 C 
ATOM      2  N   UNL d   1      -4.310  -4.612  -2.625  0.00  0.00    -0.070 N 
ATOM      3  C1  UNL d   1      -4.945  -5.333  -1.650  0.00  0.00    -0.004 A 
ATOM      4  C2  UNL d   1      -6.000  -5.998  -2.236  0.00  0.00    -0.047 A 
ATOM      5  C3  UNL d   1      -5.999  -5.665  -3.612  0.00  0.00    -0.047 A 
ATOM      6  C4  UNL d   1      -4.942  -4.805  -3.825  0.00  0.00    -0.004 A 
ENDROOT
TORSDOF 0
ENDMDL
