MODEL 1
REMARK minimizedAffinity 5.83546257
REMARK minimizedRMSD -1
REMARK  0 active torsions:
REMARK  status: ('A' for Active; 'I' for Inactive)
ROOT
ATOM      1  C   UNL d   1      -0.128  -3.668   0.266  0.00  0.00     0.172 C 
ATOM      2  N   UNL d   1      -1.125  -3.631  -0.778  0.00  0.00    -0.070 N 
ATOM      3  C1  UNL d   1      -0.985  -4.156  -2.035  0.00  0.00    -0.004 A 
ATOM      4  C2  UNL d   1      -2.154  -3.916  -2.725  0.00  0.00    -0.047 A 
ATOM      5  C3  UNL d   1      -3.026  -3.223  -1.852  0.00  0.00    -0.047 A 
ATOM      6  C4  UNL d   1      -2.364  -3.059  -0.654  0.00  0.00    -0.004 A 
ENDROOT
TORSDOF 0
ENDMDL
