MODEL 1
REMARK minimizedAffinity 0.664686143
REMARK minimizedRMSD -1
REMARK  0 active torsions:
REMARK  status: ('A' for Active; 'I' for Inactive)
ROOT
ATOM      1  C   UNL d   1      -2.460  -3.674  -4.851  0.00  0.00     0.172 C 
ATOM      2  N   UNL d   1      -3.417  -4.098  -3.856  0.00  0.00    -0.070 N 
ATOM      3  C1  UNL d   1      -3.155  -4.284  -2.524  0.00  0.00    -0.004 A 
ATOM      4  C2  UNL d   1      -4.323  -4.688  -1.916  0.00  0.00    -0.047 A 
ATOM      5  C3  UNL d   1      -5.322  -4.748  -2.917  0.00  0.00    -0.047 A 
ATOM      6  C4  UNL d   1      -4.734  -4.379  -4.108  0.00  0.00    -0.004 A 
ENDROOT
TORSDOF 0
ENDMDL
