MODEL 1
REMARK minimizedAffinity -2.41283274
REMARK minimizedRMSD -1
REMARK  0 active torsions:
REMARK  status: ('A' for Active; 'I' for Inactive)
ROOT
ATOM      1  C1  BNZ d   1      -1.244  -0.702   1.336  0.00  0.00     0.000 A 
ATOM      2  C2  BNZ d   1      -1.198   0.602   0.920  0.00  0.00     0.000 A 
ATOM      3  C3  BNZ d   1      -0.035   1.147   0.454  0.00  0.00     0.000 A 
ATOM      4  C4  BNZ d   1       1.089   0.402   0.442  0.00  0.00     0.000 A 
ATOM      5  C5  BNZ d   1       1.061  -0.911   0.868  0.00  0.00     0.000 A 
ATOM      6  C6  BNZ d   1      -0.120  -1.469   1.300  0.00  0.00     0.000 A 
ENDROOT
TORSDOF 0
ENDMDL
