MODEL 1
REMARK minimizedAffinity -5.20979786
REMARK minimizedRMSD -1
REMARK  0 active torsions:
REMARK  status: ('A' for Active; 'I' for Inactive)
ROOT
ATOM      1  C1  BNZ d   1      -1.666   0.164  -1.699  0.00  0.00     0.000 A 
ATOM      2  C2  BNZ d   1      -3.019  -0.034  -1.765  0.00  0.00     0.000 A 
ATOM      3  C3  BNZ d   1      -3.697  -0.590  -0.715  0.00  0.00     0.000 A 
ATOM      4  C4  BNZ d   1      -3.015  -0.982   0.380  0.00  0.00     0.000 A 
ATOM      5  C5  BNZ d   1      -1.649  -0.797   0.457  0.00  0.00     0.000 A 
ATOM      6  C6  BNZ d   1      -0.976  -0.202  -0.585  0.00  0.00     0.000 A 
ENDROOT
TORSDOF 0
ENDMDL
