MODEL 1
REMARK minimizedAffinity -4.1946044
REMARK minimizedRMSD -1
REMARK  0 active torsions:
REMARK  status: ('A' for Active; 'I' for Inactive)
ROOT
ATOM      1  C1  BNZ d   1      -0.390   0.708  -0.022  0.00  0.00     0.000 A 
ATOM      2  C2  BNZ d   1      -0.136   0.066  -1.205  0.00  0.00     0.000 A 
ATOM      3  C3  BNZ d   1      -1.118  -0.641  -1.842  0.00  0.00     0.000 A 
ATOM      4  C4  BNZ d   1      -2.338  -0.739  -1.276  0.00  0.00     0.000 A 
ATOM      5  C5  BNZ d   1      -2.606  -0.106  -0.079  0.00  0.00     0.000 A 
ATOM      6  C6  BNZ d   1      -1.627   0.637   0.540  0.00  0.00     0.000 A 
ENDROOT
TORSDOF 0
ENDMDL
