MODEL 1
REMARK minimizedAffinity -3.63547182
REMARK minimizedRMSD -1
REMARK  0 active torsions:
REMARK  status: ('A' for Active; 'I' for Inactive)
ROOT
ATOM      1  C1  BNZ d   1      -1.171   0.268  -1.842  0.00  0.00     0.000 A 
ATOM      2  C2  BNZ d   1      -0.357   0.394  -0.748  0.00  0.00     0.000 A 
ATOM      3  C3  BNZ d   1      -0.434  -0.493   0.289  0.00  0.00     0.000 A 
ATOM      4  C4  BNZ d   1      -1.352  -1.481   0.249  0.00  0.00     0.000 A 
ATOM      5  C5  BNZ d   1      -2.186  -1.617  -0.843  0.00  0.00     0.000 A 
ATOM      6  C6  BNZ d   1      -2.079  -0.744  -1.902  0.00  0.00     0.000 A 
ENDROOT
TORSDOF 0
ENDMDL
