MODEL 1
REMARK minimizedAffinity -4.14115477
REMARK minimizedRMSD -1
REMARK  0 active torsions:
REMARK  status: ('A' for Active; 'I' for Inactive)
ROOT
ATOM      1  C1  BNZ d   1      -1.261  -0.678   0.465  0.00  0.00     0.000 A 
ATOM      2  C2  BNZ d   1       0.045  -0.842   0.846  0.00  0.00     0.000 A 
ATOM      3  C3  BNZ d   1       1.050  -0.172   0.206  0.00  0.00     0.000 A 
ATOM      4  C4  BNZ d   1       0.754   0.629  -0.837  0.00  0.00     0.000 A 
ATOM      5  C5  BNZ d   1      -0.556   0.797  -1.240  0.00  0.00     0.000 A 
ATOM      6  C6  BNZ d   1      -1.570   0.151  -0.569  0.00  0.00     0.000 A 
ENDROOT
TORSDOF 0
ENDMDL
