MODEL 1
REMARK minimizedAffinity -1.4297924
REMARK minimizedRMSD -1
REMARK  0 active torsions:
REMARK  status: ('A' for Active; 'I' for Inactive)
ROOT
ATOM      1  C1  BNZ d   1      -0.389  -0.539   0.057  0.00  0.00     0.000 A 
ATOM      2  C2  BNZ d   1      -1.673  -0.080   0.187  0.00  0.00     0.000 A 
ATOM      3  C3  BNZ d   1      -2.379  -0.296   1.337  0.00  0.00     0.000 A 
ATOM      4  C4  BNZ d   1      -1.817  -1.003   2.338  0.00  0.00     0.000 A 
ATOM      5  C5  BNZ d   1      -0.527  -1.481   2.218  0.00  0.00     0.000 A 
ATOM      6  C6  BNZ d   1       0.195  -1.228   1.074  0.00  0.00     0.000 A 
ENDROOT
TORSDOF 0
ENDMDL
