MODEL 1
REMARK minimizedAffinity -3.31046081
REMARK minimizedRMSD -1
REMARK  0 active torsions:
REMARK  status: ('A' for Active; 'I' for Inactive)
ROOT
ATOM      1  C1  BNZ d   1      -0.011  -0.083  -0.832  0.00  0.00     0.000 A 
ATOM      2  C2  BNZ d   1      -1.344  -0.392  -0.796  0.00  0.00     0.000 A 
ATOM      3  C3  BNZ d   1      -1.836  -1.263   0.136  0.00  0.00     0.000 A 
ATOM      4  C4  BNZ d   1      -0.989  -1.853   1.003  0.00  0.00     0.000 A 
ATOM      5  C5  BNZ d   1       0.360  -1.559   0.974  0.00  0.00     0.000 A 
ATOM      6  C6  BNZ d   1       0.845  -0.652   0.060  0.00  0.00     0.000 A 
ENDROOT
TORSDOF 0
ENDMDL
