MODEL 1
REMARK minimizedAffinity -4.39325666
REMARK minimizedRMSD -1
REMARK  0 active torsions:
REMARK  status: ('A' for Active; 'I' for Inactive)
ROOT
ATOM      1  C1  BNZ d   1      -2.601  -0.983  -1.491  0.00  0.00     0.000 A 
ATOM      2  C2  BNZ d   1      -1.413  -0.397  -1.839  0.00  0.00     0.000 A 
ATOM      3  C3  BNZ d   1      -1.048   0.811  -1.313  0.00  0.00     0.000 A 
ATOM      4  C4  BNZ d   1      -1.888   1.449  -0.473  0.00  0.00     0.000 A 
ATOM      5  C5  BNZ d   1      -3.093   0.876  -0.120  0.00  0.00     0.000 A 
ATOM      6  C6  BNZ d   1      -3.440  -0.358  -0.620  0.00  0.00     0.000 A 
ENDROOT
TORSDOF 0
ENDMDL
