MODEL 1
REMARK minimizedAffinity -4.81642866
REMARK minimizedRMSD -1
REMARK  0 active torsions:
REMARK  status: ('A' for Active; 'I' for Inactive)
ROOT
ATOM      1  C1  BNZ d   1      -1.258  -0.412   0.282  0.00  0.00     0.000 A 
ATOM      2  C2  BNZ d   1      -2.563  -0.823   0.239  0.00  0.00     0.000 A 
ATOM      3  C3  BNZ d   1      -3.301  -0.693  -0.904  0.00  0.00     0.000 A 
ATOM      4  C4  BNZ d   1      -2.746  -0.116  -1.989  0.00  0.00     0.000 A 
ATOM      5  C5  BNZ d   1      -1.434   0.312  -1.959  0.00  0.00     0.000 A 
ATOM      6  C6  BNZ d   1      -0.682   0.144  -0.818  0.00  0.00     0.000 A 
ENDROOT
TORSDOF 0
ENDMDL
