MODEL 1
REMARK minimizedAffinity -4.2921195
REMARK minimizedRMSD -1
REMARK  0 active torsions:
REMARK  status: ('A' for Active; 'I' for Inactive)
ROOT
ATOM      1  C1  BNZ d   1      -0.267   0.814  -0.305  0.00  0.00     0.000 A 
ATOM      2  C2  BNZ d   1       1.073   0.588  -0.137  0.00  0.00     0.000 A 
ATOM      3  C3  BNZ d   1       1.516  -0.464   0.616  0.00  0.00     0.000 A 
ATOM      4  C4  BNZ d   1       0.620  -1.262   1.232  0.00  0.00     0.000 A 
ATOM      5  C5  BNZ d   1      -0.734  -1.041   1.080  0.00  0.00     0.000 A 
ATOM      6  C6  BNZ d   1      -1.177  -0.005   0.289  0.00  0.00     0.000 A 
ENDROOT
TORSDOF 0
ENDMDL
