MODEL 1
REMARK minimizedAffinity -4.63864374
REMARK minimizedRMSD -1
REMARK  0 active torsions:
REMARK  status: ('A' for Active; 'I' for Inactive)
ROOT
ATOM      1  C1  BNZ d   1      -0.090   0.038   0.211  0.00  0.00     0.000 A 
ATOM      2  C2  BNZ d   1      -1.309  -0.520   0.486  0.00  0.00     0.000 A 
ATOM      3  C3  BNZ d   1      -2.258  -0.645  -0.490  0.00  0.00     0.000 A 
ATOM      4  C4  BNZ d   1      -2.001  -0.176  -1.728  0.00  0.00     0.000 A 
ATOM      5  C5  BNZ d   1      -0.780   0.397  -2.019  0.00  0.00     0.000 A 
ATOM      6  C6  BNZ d   1       0.187   0.486  -1.044  0.00  0.00     0.000 A 
ENDROOT
TORSDOF 0
ENDMDL
