MODEL 1
REMARK minimizedAffinity -2.14740515
REMARK minimizedRMSD -1
REMARK  0 active torsions:
REMARK  status: ('A' for Active; 'I' for Inactive)
ROOT
ATOM      1  C1  BNZ d   1      -0.580  -0.918   0.070  0.00  0.00     0.000 A 
ATOM      2  C2  BNZ d   1      -1.611  -1.668  -0.430  0.00  0.00     0.000 A 
ATOM      3  C3  BNZ d   1      -2.454  -1.157  -1.377  0.00  0.00     0.000 A 
ATOM      4  C4  BNZ d   1      -2.290   0.115  -1.793  0.00  0.00     0.000 A 
ATOM      5  C5  BNZ d   1      -1.260   0.887  -1.293  0.00  0.00     0.000 A 
ATOM      6  C6  BNZ d   1      -0.390   0.356  -0.368  0.00  0.00     0.000 A 
ENDROOT
TORSDOF 0
ENDMDL
