MODEL 1
REMARK minimizedAffinity -2.32106733
REMARK minimizedRMSD -1
REMARK  0 active torsions:
REMARK  status: ('A' for Active; 'I' for Inactive)
ROOT
ATOM      1  C1  BNZ d   1       1.533   0.230   0.930  0.00  0.00     0.000 A 
ATOM      2  C2  BNZ d   1       1.663   1.112   1.970  0.00  0.00     0.000 A 
ATOM      3  C3  BNZ d   1       2.353   2.282   1.813  0.00  0.00     0.000 A 
ATOM      4  C4  BNZ d   1       2.945   2.549   0.631  0.00  0.00     0.000 A 
ATOM      5  C5  BNZ d   1       2.831   1.666  -0.424  0.00  0.00     0.000 A 
ATOM      6  C6  BNZ d   1       2.103   0.508  -0.274  0.00  0.00     0.000 A 
ENDROOT
TORSDOF 0
ENDMDL
