MODEL 1
REMARK minimizedAffinity -5.14480877
REMARK minimizedRMSD -1
REMARK  0 active torsions:
REMARK  status: ('A' for Active; 'I' for Inactive)
ROOT
ATOM      1  C1  BNZ d   1      -1.700   0.872   0.457  0.00  0.00     0.000 A 
ATOM      2  C2  BNZ d   1      -2.842   0.116   0.431  0.00  0.00     0.000 A 
ATOM      3  C3  BNZ d   1      -3.075  -0.764  -0.588  0.00  0.00     0.000 A 
ATOM      4  C4  BNZ d   1      -2.188  -0.858  -1.599  0.00  0.00     0.000 A 
ATOM      5  C5  BNZ d   1      -1.037  -0.096  -1.593  0.00  0.00     0.000 A 
ATOM      6  C6  BNZ d   1      -0.786   0.761  -0.545  0.00  0.00     0.000 A 
ENDROOT
TORSDOF 0
ENDMDL
