MODEL 1
REMARK minimizedAffinity -3.33127332
REMARK minimizedRMSD -1
REMARK  0 active torsions:
REMARK  status: ('A' for Active; 'I' for Inactive)
ROOT
ATOM      1  C1  BNZ d   1       0.539   0.850  -1.051  0.00  0.00     0.000 A 
ATOM      2  C2  BNZ d   1      -0.772   0.567  -0.772  0.00  0.00     0.000 A 
ATOM      3  C3  BNZ d   1      -1.137   0.074   0.449  0.00  0.00     0.000 A 
ATOM      4  C4  BNZ d   1      -0.188  -0.173   1.375  0.00  0.00     0.000 A 
ATOM      5  C5  BNZ d   1       1.139   0.098   1.106  0.00  0.00     0.000 A 
ATOM      6  C6  BNZ d   1       1.498   0.631  -0.111  0.00  0.00     0.000 A 
ENDROOT
TORSDOF 0
ENDMDL
