MODEL 1
REMARK minimizedAffinity -2.08092499
REMARK minimizedRMSD -1
REMARK  0 active torsions:
REMARK  status: ('A' for Active; 'I' for Inactive)
ROOT
ATOM      1  C1  BNZ d   1      -2.717  -1.401  -2.747  0.00  0.00     0.000 A 
ATOM      2  C2  BNZ d   1      -2.062  -1.942  -1.673  0.00  0.00     0.000 A 
ATOM      3  C3  BNZ d   1      -1.357  -1.150  -0.811  0.00  0.00     0.000 A 
ATOM      4  C4  BNZ d   1      -1.277   0.176  -1.045  0.00  0.00     0.000 A 
ATOM      5  C5  BNZ d   1      -1.925   0.736  -2.128  0.00  0.00     0.000 A 
ATOM      6  C6  BNZ d   1      -2.665  -0.060  -2.972  0.00  0.00     0.000 A 
ENDROOT
TORSDOF 0
ENDMDL
