MODEL 1
REMARK minimizedAffinity 2.58478999
REMARK minimizedRMSD -1
REMARK  0 active torsions:
REMARK  status: ('A' for Active; 'I' for Inactive)
ROOT
ATOM      1  O1  BZF d   1       1.714  -5.172   1.242  0.00  0.00    -0.204 OA
ATOM      2  C2  BZF d   1       2.785  -4.424   0.792  0.00  0.00     0.174 A 
ATOM      3  C3  BZF d   1       2.603  -3.116   1.064  0.00  0.00    -0.012 A 
ATOM      4  C3A BZF d   1       1.382  -3.052   1.807  0.00  0.00    -0.107 A 
ATOM      5  C4  BZF d   1       0.680  -2.027   2.374  0.00  0.00     0.055 A 
ATOM      6  C5  BZF d   1      -0.513  -2.292   2.967  0.00  0.00    -0.016 A 
ATOM      7  C6  BZF d   1      -1.037  -3.568   3.007  0.00  0.00     0.022 A 
ATOM      8  C7  BZF d   1      -0.375  -4.618   2.462  0.00  0.00     0.029 A 
ATOM      9  C7A BZF d   1       0.847  -4.359   1.891  0.00  0.00     0.058 A 
ENDROOT
TORSDOF 0
ENDMDL
