MODEL 1
REMARK minimizedAffinity 6.00983143
REMARK minimizedRMSD -1
REMARK  0 active torsions:
REMARK  status: ('A' for Active; 'I' for Inactive)
ROOT
ATOM      1  O1  BZF d   1      -2.190   3.439  -3.385  0.00  0.00    -0.204 OA
ATOM      2  C2  BZF d   1      -3.285   2.884  -2.751  0.00  0.00     0.174 A 
ATOM      3  C3  BZF d   1      -2.927   1.793  -2.044  0.00  0.00    -0.012 A 
ATOM      4  C3A BZF d   1      -1.504   1.712  -2.173  0.00  0.00    -0.107 A 
ATOM      5  C4  BZF d   1      -0.565   0.851  -1.682  0.00  0.00     0.055 A 
ATOM      6  C5  BZF d   1       0.733   1.006  -2.055  0.00  0.00    -0.016 A 
ATOM      7  C6  BZF d   1       1.124   2.006  -2.921  0.00  0.00     0.022 A 
ATOM      8  C7  BZF d   1       0.229   2.887  -3.430  0.00  0.00     0.029 A 
ATOM      9  C7A BZF d   1      -1.077   2.754  -3.028  0.00  0.00     0.058 A 
ENDROOT
TORSDOF 0
ENDMDL
