MODEL 1
REMARK minimizedAffinity 7.05446053
REMARK minimizedRMSD -1
REMARK  0 active torsions:
REMARK  status: ('A' for Active; 'I' for Inactive)
ROOT
ATOM      1  O1  BZF d   1       1.438  -1.255   2.799  0.00  0.00    -0.204 OA
ATOM      2  C2  BZF d   1       0.551  -1.063   1.757  0.00  0.00     0.174 A 
ATOM      3  C3  BZF d   1       0.617  -2.083   0.878  0.00  0.00    -0.012 A 
ATOM      4  C3A BZF d   1       1.540  -3.014   1.450  0.00  0.00    -0.107 A 
ATOM      5  C4  BZF d   1       2.011  -4.234   1.055  0.00  0.00     0.055 A 
ATOM      6  C5  BZF d   1       2.961  -4.850   1.805  0.00  0.00    -0.016 A 
ATOM      7  C6  BZF d   1       3.467  -4.275   2.952  0.00  0.00     0.022 A 
ATOM      8  C7  BZF d   1       3.028  -3.068   3.387  0.00  0.00     0.029 A 
ATOM      9  C7A BZF d   1       2.044  -2.458   2.649  0.00  0.00     0.058 A 
ENDROOT
TORSDOF 0
ENDMDL
