MODEL 1
REMARK minimizedAffinity 6.76841259
REMARK minimizedRMSD -1
REMARK  0 active torsions:
REMARK  status: ('A' for Active; 'I' for Inactive)
ROOT
ATOM      1  O1  BZF d   1      -0.339   1.955  -2.155  0.00  0.00    -0.204 OA
ATOM      2  C2  BZF d   1      -1.535   1.418  -1.722  0.00  0.00     0.174 A 
ATOM      3  C3  BZF d   1      -2.577   2.149  -2.169  0.00  0.00    -0.012 A 
ATOM      4  C3A BZF d   1      -1.999   3.157  -3.004  0.00  0.00    -0.107 A 
ATOM      5  C4  BZF d   1      -2.524   4.175  -3.747  0.00  0.00     0.055 A 
ATOM      6  C5  BZF d   1      -1.682   5.026  -4.390  0.00  0.00    -0.016 A 
ATOM      7  C6  BZF d   1      -0.312   4.890  -4.309  0.00  0.00     0.022 A 
ATOM      8  C7  BZF d   1       0.256   3.892  -3.589  0.00  0.00     0.029 A 
ATOM      9  C7A BZF d   1      -0.593   3.011  -2.965  0.00  0.00     0.058 A 
ENDROOT
TORSDOF 0
ENDMDL
