MODEL 1
REMARK minimizedAffinity 8.02429771
REMARK minimizedRMSD -1
REMARK  0 active torsions:
REMARK  status: ('A' for Active; 'I' for Inactive)
ROOT
ATOM      1  O1  BZF d   1       5.785   2.659  -4.995  0.00  0.00    -0.204 OA
ATOM      2  C2  BZF d   1       5.914   3.126  -3.701  0.00  0.00     0.174 A 
ATOM      3  C3  BZF d   1       5.964   2.102  -2.825  0.00  0.00    -0.012 A 
ATOM      4  C3A BZF d   1       5.952   0.918  -3.629  0.00  0.00    -0.107 A 
ATOM      5  C4  BZF d   1       6.000  -0.415  -3.337  0.00  0.00     0.055 A 
ATOM      6  C5  BZF d   1       5.896  -1.316  -4.349  0.00  0.00    -0.016 A 
ATOM      7  C6  BZF d   1       5.739  -0.920  -5.661  0.00  0.00     0.022 A 
ATOM      8  C7  BZF d   1       5.692   0.391  -6.000  0.00  0.00     0.029 A 
ATOM      9  C7A BZF d   1       5.829   1.305  -4.984  0.00  0.00     0.058 A 
ENDROOT
TORSDOF 0
ENDMDL
