MODEL 1
REMARK minimizedAffinity 3.18373322
REMARK minimizedRMSD -1
REMARK  0 active torsions:
REMARK  status: ('A' for Active; 'I' for Inactive)
ROOT
ATOM      1  O1  BZF d   1       0.258  -1.407  -0.396  0.00  0.00    -0.204 OA
ATOM      2  C2  BZF d   1       1.558  -1.868  -0.472  0.00  0.00     0.174 A 
ATOM      3  C3  BZF d   1       2.067  -2.071   0.760  0.00  0.00    -0.012 A 
ATOM      4  C3A BZF d   1       0.989  -1.802   1.661  0.00  0.00    -0.107 A 
ATOM      5  C4  BZF d   1       0.869  -1.845   3.021  0.00  0.00     0.055 A 
ATOM      6  C5  BZF d   1      -0.300  -1.453   3.593  0.00  0.00    -0.016 A 
ATOM      7  C6  BZF d   1      -1.365  -1.008   2.838  0.00  0.00     0.022 A 
ATOM      8  C7  BZF d   1      -1.295  -0.952   1.486  0.00  0.00     0.029 A 
ATOM      9  C7A BZF d   1      -0.127  -1.379   0.902  0.00  0.00     0.058 A 
ENDROOT
TORSDOF 0
ENDMDL
