MODEL 1
REMARK minimizedAffinity 8.98466015
REMARK minimizedRMSD -1
REMARK  0 active torsions:
REMARK  status: ('A' for Active; 'I' for Inactive)
ROOT
ATOM      1  O1  BZF d   1       0.144   3.063  -1.838  0.00  0.00    -0.204 OA
ATOM      2  C2  BZF d   1      -0.616   3.004  -2.990  0.00  0.00     0.174 A 
ATOM      3  C3  BZF d   1      -0.178   2.019  -3.801  0.00  0.00    -0.012 A 
ATOM      4  C3A BZF d   1       0.865   1.366  -3.071  0.00  0.00    -0.107 A 
ATOM      5  C4  BZF d   1       1.676   0.301  -3.342  0.00  0.00     0.055 A 
ATOM      6  C5  BZF d   1       2.642  -0.037  -2.448  0.00  0.00    -0.016 A 
ATOM      7  C6  BZF d   1       2.828   0.669  -1.278  0.00  0.00     0.022 A 
ATOM      8  C7  BZF d   1       2.045   1.729  -0.963  0.00  0.00     0.029 A 
ATOM      9  C7A BZF d   1       1.047   2.054  -1.849  0.00  0.00     0.058 A 
ENDROOT
TORSDOF 0
ENDMDL
