MODEL 1
REMARK minimizedAffinity 8.72926521
REMARK minimizedRMSD -1
REMARK  0 active torsions:
REMARK  status: ('A' for Active; 'I' for Inactive)
ROOT
ATOM      1  O1  BZF d   1      -1.225   3.589  -3.061  0.00  0.00    -0.204 OA
ATOM      2  C2  BZF d   1      -2.527   3.205  -2.807  0.00  0.00     0.174 A 
ATOM      3  C3  BZF d   1      -2.562   1.996  -2.210  0.00  0.00    -0.012 A 
ATOM      4  C3A BZF d   1      -1.192   1.641  -2.000  0.00  0.00    -0.107 A 
ATOM      5  C4  BZF d   1      -0.579   0.560  -1.433  0.00  0.00     0.055 A 
ATOM      6  C5  BZF d   1       0.777   0.485  -1.452  0.00  0.00    -0.016 A 
ATOM      7  C6  BZF d   1       1.551   1.470  -2.031  0.00  0.00     0.022 A 
ATOM      8  C7  BZF d   1       0.988   2.563  -2.601  0.00  0.00     0.029 A 
ATOM      9  C7A BZF d   1      -0.381   2.657  -2.555  0.00  0.00     0.058 A 
ENDROOT
TORSDOF 0
ENDMDL
