MODEL 1
REMARK minimizedAffinity 0.0138236582
REMARK minimizedRMSD -1
REMARK  0 active torsions:
REMARK  status: ('A' for Active; 'I' for Inactive)
ROOT
ATOM      1  C   UNL d   1       5.997  -2.507  -5.904  0.00  0.00     0.172 C 
ATOM      2  N   UNL d   1       5.998  -1.193  -5.305  0.00  0.00    -0.070 N 
ATOM      3  C1  UNL d   1       6.000  -0.005  -5.986  0.00  0.00    -0.004 A 
ATOM      4  C2  UNL d   1       6.000   1.014  -5.058  0.00  0.00    -0.047 A 
ATOM      5  C3  UNL d   1       6.000   0.418  -3.775  0.00  0.00    -0.047 A 
ATOM      6  C4  UNL d   1       5.999  -0.949  -3.957  0.00  0.00    -0.004 A 
ENDROOT
TORSDOF 0
ENDMDL
