MODEL 1
REMARK minimizedAffinity 1.41974223
REMARK minimizedRMSD -1
REMARK  0 active torsions:
REMARK  status: ('A' for Active; 'I' for Inactive)
ROOT
ATOM      1  C   UNL d   1       2.698   3.774  -4.276  0.00  0.00     0.172 C 
ATOM      2  N   UNL d   1       2.405   3.321  -2.936  0.00  0.00    -0.070 N 
ATOM      3  C1  UNL d   1       1.162   3.269  -2.365  0.00  0.00    -0.004 A 
ATOM      4  C2  UNL d   1       1.306   2.783  -1.084  0.00  0.00    -0.047 A 
ATOM      5  C3  UNL d   1       2.684   2.535  -0.878  0.00  0.00    -0.047 A 
ATOM      6  C4  UNL d   1       3.341   2.877  -2.041  0.00  0.00    -0.004 A 
ENDROOT
TORSDOF 0
ENDMDL
