MODEL 1
REMARK minimizedAffinity 3.08609271
REMARK minimizedRMSD -1
REMARK  0 active torsions:
REMARK  status: ('A' for Active; 'I' for Inactive)
ROOT
ATOM      1  C   UNL d   1       0.921   1.162  -1.920  0.00  0.00     0.172 C 
ATOM      2  N   UNL d   1       1.165  -0.059  -2.652  0.00  0.00    -0.070 N 
ATOM      3  C1  UNL d   1       1.101  -1.326  -2.136  0.00  0.00    -0.004 A 
ATOM      4  C2  UNL d   1       1.397  -2.210  -3.151  0.00  0.00    -0.047 A 
ATOM      5  C3  UNL d   1       1.649  -1.448  -4.316  0.00  0.00    -0.047 A 
ATOM      6  C4  UNL d   1       1.498  -0.120  -3.980  0.00  0.00    -0.004 A 
ENDROOT
TORSDOF 0
ENDMDL
