MODEL 1
REMARK minimizedAffinity 1.33665192
REMARK minimizedRMSD -1
REMARK  0 active torsions:
REMARK  status: ('A' for Active; 'I' for Inactive)
ROOT
ATOM      1  C   UNL d   1       4.133   1.658   2.621  0.00  0.00     0.172 C 
ATOM      2  N   UNL d   1       4.891   0.789   3.491  0.00  0.00    -0.070 N 
ATOM      3  C1  UNL d   1       5.301   1.092   4.762  0.00  0.00    -0.004 A 
ATOM      4  C2  UNL d   1       5.993   0.006   5.252  0.00  0.00    -0.047 A 
ATOM      5  C3  UNL d   1       6.000  -0.984   4.241  0.00  0.00    -0.047 A 
ATOM      6  C4  UNL d   1       5.311  -0.473   3.161  0.00  0.00    -0.004 A 
ENDROOT
TORSDOF 0
ENDMDL
