MODEL 1
REMARK minimizedAffinity 2.29701829
REMARK minimizedRMSD -1
REMARK  0 active torsions:
REMARK  status: ('A' for Active; 'I' for Inactive)
ROOT
ATOM      1  C   UNL d   1       0.590   0.651  -1.263  0.00  0.00     0.172 C 
ATOM      2  N   UNL d   1       0.985  -0.402  -2.168  0.00  0.00    -0.070 N 
ATOM      3  C1  UNL d   1       1.168  -1.717  -1.833  0.00  0.00    -0.004 A 
ATOM      4  C2  UNL d   1       1.541  -2.396  -2.973  0.00  0.00    -0.047 A 
ATOM      5  C3  UNL d   1       1.585  -1.456  -4.030  0.00  0.00    -0.047 A 
ATOM      6  C4  UNL d   1       1.237  -0.230  -3.504  0.00  0.00    -0.004 A 
ENDROOT
TORSDOF 0
ENDMDL
