MODEL 1
REMARK minimizedAffinity 0.158098608
REMARK minimizedRMSD -1
REMARK  0 active torsions:
REMARK  status: ('A' for Active; 'I' for Inactive)
ROOT
ATOM      1  C   UNL d   1      -4.965   5.808   5.088  0.00  0.00     0.172 C 
ATOM      2  N   UNL d   1      -4.916   5.233   3.764  0.00  0.00    -0.070 N 
ATOM      3  C1  UNL d   1      -6.000   4.842   3.024  0.00  0.00    -0.004 A 
ATOM      4  C2  UNL d   1      -5.535   4.347   1.824  0.00  0.00    -0.047 A 
ATOM      5  C3  UNL d   1      -4.123   4.443   1.845  0.00  0.00    -0.047 A 
ATOM      6  C4  UNL d   1      -3.767   4.995   3.058  0.00  0.00    -0.004 A 
ENDROOT
TORSDOF 0
ENDMDL
