MODEL 1
REMARK minimizedAffinity -1.22357893
REMARK minimizedRMSD -1
REMARK  0 active torsions:
REMARK  status: ('A' for Active; 'I' for Inactive)
ROOT
ATOM      1  C   UNL d   1       0.811  -2.321  -3.749  0.00  0.00     0.172 C 
ATOM      2  N   UNL d   1       0.769  -1.050  -3.066  0.00  0.00    -0.070 N 
ATOM      3  C1  UNL d   1       0.854   0.180  -3.663  0.00  0.00    -0.004 A 
ATOM      4  C2  UNL d   1       0.775   1.136  -2.673  0.00  0.00    -0.047 A 
ATOM      5  C3  UNL d   1       0.638   0.457  -1.439  0.00  0.00    -0.047 A 
ATOM      6  C4  UNL d   1       0.638  -0.895  -1.712  0.00  0.00    -0.004 A 
ENDROOT
TORSDOF 0
ENDMDL
