MODEL 1
REMARK minimizedAffinity -1.11272717
REMARK minimizedRMSD -1
REMARK  0 active torsions:
REMARK  status: ('A' for Active; 'I' for Inactive)
ROOT
ATOM      1  C   UNL d   1       0.221   1.445  -0.927  0.00  0.00     0.172 C 
ATOM      2  N   UNL d   1       0.952   0.762  -1.969  0.00  0.00    -0.070 N 
ATOM      3  C1  UNL d   1       1.208  -0.583  -2.015  0.00  0.00    -0.004 A 
ATOM      4  C2  UNL d   1       1.927  -0.836  -3.163  0.00  0.00    -0.047 A 
ATOM      5  C3  UNL d   1       2.112   0.398  -3.829  0.00  0.00    -0.047 A 
ATOM      6  C4  UNL d   1       1.498   1.371  -3.068  0.00  0.00    -0.004 A 
ENDROOT
TORSDOF 0
ENDMDL
