MODEL 1
REMARK minimizedAffinity -0.123792239
REMARK minimizedRMSD -1
REMARK  0 active torsions:
REMARK  status: ('A' for Active; 'I' for Inactive)
ROOT
ATOM      1  C   UNL d   1       5.058   3.859  -4.479  0.00  0.00     0.172 C 
ATOM      2  N   UNL d   1       5.360   2.479  -4.778  0.00  0.00    -0.070 N 
ATOM      3  C1  UNL d   1       5.218   1.878  -6.000  0.00  0.00    -0.004 A 
ATOM      4  C2  UNL d   1       5.610   0.563  -5.871  0.00  0.00    -0.047 A 
ATOM      5  C3  UNL d   1       6.000   0.367  -4.525  0.00  0.00    -0.047 A 
ATOM      6  C4  UNL d   1       5.835   1.569  -3.871  0.00  0.00    -0.004 A 
ENDROOT
TORSDOF 0
ENDMDL
