MODEL 1
REMARK minimizedAffinity -0.664371431
REMARK minimizedRMSD -1
REMARK  0 active torsions:
REMARK  status: ('A' for Active; 'I' for Inactive)
ROOT
ATOM      1  C   UNL d   1       0.646   0.759  -1.505  0.00  0.00     0.172 C 
ATOM      2  N   UNL d   1       0.999  -0.341  -2.371  0.00  0.00    -0.070 N 
ATOM      3  C1  UNL d   1       1.346  -0.238  -3.692  0.00  0.00    -0.004 A 
ATOM      4  C2  UNL d   1       1.609  -1.507  -4.160  0.00  0.00    -0.047 A 
ATOM      5  C3  UNL d   1       1.412  -2.405  -3.084  0.00  0.00    -0.047 A 
ATOM      6  C4  UNL d   1       1.034  -1.656  -1.989  0.00  0.00    -0.004 A 
ENDROOT
TORSDOF 0
ENDMDL
