MODEL 1
REMARK minimizedAffinity -0.63929522
REMARK minimizedRMSD -1
REMARK  0 active torsions:
REMARK  status: ('A' for Active; 'I' for Inactive)
ROOT
ATOM      1  C   UNL d   1      -3.583   2.547   5.953  0.00  0.00     0.172 C 
ATOM      2  N   UNL d   1      -3.723   3.908   5.491  0.00  0.00    -0.070 N 
ATOM      3  C1  UNL d   1      -2.997   4.489   4.486  0.00  0.00    -0.004 A 
ATOM      4  C2  UNL d   1      -3.430   5.790   4.350  0.00  0.00    -0.047 A 
ATOM      5  C3  UNL d   1      -4.451   5.999   5.307  0.00  0.00    -0.047 A 
ATOM      6  C4  UNL d   1      -4.612   4.818   6.000  0.00  0.00    -0.004 A 
ENDROOT
TORSDOF 0
ENDMDL
