MODEL 1
REMARK minimizedAffinity 0.737560809
REMARK minimizedRMSD -1
REMARK  0 active torsions:
REMARK  status: ('A' for Active; 'I' for Inactive)
ROOT
ATOM      1  C   UNL d   1      -3.723   2.401   6.000  0.00  0.00     0.172 C 
ATOM      2  N   UNL d   1      -3.558   1.030   5.578  0.00  0.00    -0.070 N 
ATOM      3  C1  UNL d   1      -4.360  -0.019   5.941  0.00  0.00    -0.004 A 
ATOM      4  C2  UNL d   1      -3.872  -1.154   5.331  0.00  0.00    -0.047 A 
ATOM      5  C3  UNL d   1      -2.737  -0.774   4.575  0.00  0.00    -0.047 A 
ATOM      6  C4  UNL d   1      -2.566   0.583   4.746  0.00  0.00    -0.004 A 
ENDROOT
TORSDOF 0
ENDMDL
