MODEL 1
REMARK minimizedAffinity 1.52314436
REMARK minimizedRMSD -1
REMARK  0 active torsions:
REMARK  status: ('A' for Active; 'I' for Inactive)
ROOT
ATOM      1  C   UNL d   1       1.257  -2.489  -3.064  0.00  0.00     0.172 C 
ATOM      2  N   UNL d   1       1.040  -1.187  -2.479  0.00  0.00    -0.070 N 
ATOM      3  C1  UNL d   1       0.470  -0.945  -1.257  0.00  0.00    -0.004 A 
ATOM      4  C2  UNL d   1       0.444   0.419  -1.066  0.00  0.00    -0.047 A 
ATOM      5  C3  UNL d   1       1.017   1.018  -2.213  0.00  0.00    -0.047 A 
ATOM      6  C4  UNL d   1       1.377   0.001  -3.071  0.00  0.00    -0.004 A 
ENDROOT
TORSDOF 0
ENDMDL
