MODEL 1
REMARK minimizedAffinity -0.0731482506
REMARK minimizedRMSD -1
REMARK  0 active torsions:
REMARK  status: ('A' for Active; 'I' for Inactive)
ROOT
ATOM      1  C   UNL d   1       1.158  -1.909  -3.305  0.00  0.00     0.172 C 
ATOM      2  N   UNL d   1       1.025  -0.639  -2.631  0.00  0.00    -0.070 N 
ATOM      3  C1  UNL d   1       1.167   0.592  -3.213  0.00  0.00    -0.004 A 
ATOM      4  C2  UNL d   1       0.965   1.546  -2.239  0.00  0.00    -0.047 A 
ATOM      5  C3  UNL d   1       0.693   0.864  -1.029  0.00  0.00    -0.047 A 
ATOM      6  C4  UNL d   1       0.737  -0.487  -1.300  0.00  0.00    -0.004 A 
ENDROOT
TORSDOF 0
ENDMDL
