MODEL 1
REMARK minimizedAffinity 2.92669725
REMARK minimizedRMSD -1
REMARK  0 active torsions:
REMARK  status: ('A' for Active; 'I' for Inactive)
ROOT
ATOM      1  C   UNL d   1       0.820  -0.018  -0.617  0.00  0.00     0.172 C 
ATOM      2  N   UNL d   1       0.983  -0.716  -1.871  0.00  0.00    -0.070 N 
ATOM      3  C1  UNL d   1       1.035  -0.132  -3.108  0.00  0.00    -0.004 A 
ATOM      4  C2  UNL d   1       1.199  -1.134  -4.041  0.00  0.00    -0.047 A 
ATOM      5  C3  UNL d   1       1.245  -2.362  -3.340  0.00  0.00    -0.047 A 
ATOM      6  C4  UNL d   1       1.110  -2.074  -1.998  0.00  0.00    -0.004 A 
ENDROOT
TORSDOF 0
ENDMDL
