MODEL 1
REMARK minimizedAffinity -2.68639278
REMARK minimizedRMSD -1
REMARK  0 active torsions:
REMARK  status: ('A' for Active; 'I' for Inactive)
ROOT
ATOM      1  C   UNL d   1       2.902   3.702  -5.625  0.00  0.00     0.172 C 
ATOM      2  N   UNL d   1       4.011   2.785  -5.508  0.00  0.00    -0.070 N 
ATOM      3  C1  UNL d   1       4.045   1.507  -5.999  0.00  0.00    -0.004 A 
ATOM      4  C2  UNL d   1       5.272   0.966  -5.682  0.00  0.00    -0.047 A 
ATOM      5  C3  UNL d   1       6.000   1.952  -4.974  0.00  0.00    -0.047 A 
ATOM      6  C4  UNL d   1       5.195   3.068  -4.880  0.00  0.00    -0.004 A 
ENDROOT
TORSDOF 0
ENDMDL
