MODEL 1
REMARK minimizedAffinity 3.05544782
REMARK minimizedRMSD -1
REMARK  0 active torsions:
REMARK  status: ('A' for Active; 'I' for Inactive)
ROOT
ATOM      1  C   UNL d   1       3.860   0.467  -0.682  0.00  0.00     0.023 A 
ATOM      2  C1  UNL d   1       2.641   0.744  -0.062  0.00  0.00     0.003 A 
ATOM      3  C2  UNL d   1       1.647  -0.234  -0.004  0.00  0.00     0.048 A 
ATOM      4  C3  UNL d   1       1.879  -1.489  -0.568  0.00  0.00     0.023 A 
ATOM      5  C4  UNL d   1       3.097  -1.771  -1.188  0.00  0.00     0.048 A 
ATOM      6  C5  UNL d   1       4.087  -0.789  -1.244  0.00  0.00     0.003 A 
ATOM      7  I   UNL d   1       0.401  -2.948  -0.483  0.00  0.00    -0.146 I 
ENDROOT
TORSDOF 0
ENDMDL
