MODEL 1
REMARK minimizedAffinity 6.90215206
REMARK minimizedRMSD -1
REMARK  0 active torsions:
REMARK  status: ('A' for Active; 'I' for Inactive)
ROOT
ATOM      1  C   UNL d   1      -1.123   1.781  -1.434  0.00  0.00     0.023 A 
ATOM      2  C1  UNL d   1      -1.687   0.823  -2.277  0.00  0.00     0.003 A 
ATOM      3  C2  UNL d   1      -3.008   0.413  -2.084  0.00  0.00     0.048 A 
ATOM      4  C3  UNL d   1      -3.759   0.965  -1.048  0.00  0.00     0.023 A 
ATOM      5  C4  UNL d   1      -3.199   1.924  -0.202  0.00  0.00     0.048 A 
ATOM      6  C5  UNL d   1      -1.878   2.331  -0.398  0.00  0.00     0.003 A 
ATOM      7  I   UNL d   1      -5.725   0.356  -0.759  0.00  0.00    -0.146 I 
ENDROOT
TORSDOF 0
ENDMDL
