MODEL 1
REMARK minimizedAffinity 3.97039986
REMARK minimizedRMSD -1
REMARK  0 active torsions:
REMARK  status: ('A' for Active; 'I' for Inactive)
ROOT
ATOM      1  C   UNL d   1       1.236  -1.305   5.190  0.00  0.00     0.023 A 
ATOM      2  C1  UNL d   1       0.676  -0.059   5.475  0.00  0.00     0.003 A 
ATOM      3  C2  UNL d   1      -0.026   0.635   4.488  0.00  0.00     0.048 A 
ATOM      4  C3  UNL d   1      -0.166   0.077   3.218  0.00  0.00     0.023 A 
ATOM      5  C4  UNL d   1       0.392  -1.169   2.928  0.00  0.00     0.048 A 
ATOM      6  C5  UNL d   1       1.094  -1.859   3.918  0.00  0.00     0.003 A 
ATOM      7  I   UNL d   1      -1.211   1.108   1.746  0.00  0.00    -0.146 I 
ENDROOT
TORSDOF 0
ENDMDL
