MODEL 1
REMARK minimizedAffinity 4.45485497
REMARK minimizedRMSD -1
REMARK  0 active torsions:
REMARK  status: ('A' for Active; 'I' for Inactive)
ROOT
ATOM      1  C   UNL d   1      -1.700   1.537   1.415  0.00  0.00     0.023 A 
ATOM      2  C1  UNL d   1      -1.343   1.619   0.069  0.00  0.00     0.003 A 
ATOM      3  C2  UNL d   1      -0.035   1.330  -0.327  0.00  0.00     0.048 A 
ATOM      4  C3  UNL d   1       0.910   0.959   0.628  0.00  0.00     0.023 A 
ATOM      5  C4  UNL d   1       0.558   0.875   1.976  0.00  0.00     0.048 A 
ATOM      6  C5  UNL d   1      -0.751   1.166   2.367  0.00  0.00     0.003 A 
ATOM      7  I   UNL d   1       2.857   0.528   0.041  0.00  0.00    -0.146 I 
ENDROOT
TORSDOF 0
ENDMDL
