MODEL 1
REMARK minimizedAffinity 3.98383689
REMARK minimizedRMSD -1
REMARK  0 active torsions:
REMARK  status: ('A' for Active; 'I' for Inactive)
ROOT
ATOM      1  O1  BZF d   1      -1.282   5.988  -5.999  0.00  0.00    -0.204 OA
ATOM      2  C2  BZF d   1      -0.327   5.032  -5.711  0.00  0.00     0.174 A 
ATOM      3  C3  BZF d   1      -0.908   3.880  -5.315  0.00  0.00    -0.012 A 
ATOM      4  C3A BZF d   1      -2.315   4.104  -5.447  0.00  0.00    -0.107 A 
ATOM      5  C4  BZF d   1      -3.414   3.326  -5.221  0.00  0.00     0.055 A 
ATOM      6  C5  BZF d   1      -4.650   3.868  -5.378  0.00  0.00    -0.016 A 
ATOM      7  C6  BZF d   1      -4.824   5.184  -5.753  0.00  0.00     0.022 A 
ATOM      8  C7  BZF d   1      -3.764   5.993  -5.994  0.00  0.00     0.029 A 
ATOM      9  C7A BZF d   1      -2.513   5.439  -5.869  0.00  0.00     0.058 A 
ENDROOT
TORSDOF 0
ENDMDL
