MODEL 1
REMARK minimizedAffinity -3.18314266
REMARK minimizedRMSD -1
REMARK  0 active torsions:
REMARK  status: ('A' for Active; 'I' for Inactive)
ROOT
ATOM      1  O1  BZF d   1      -2.469  -5.610  -0.891  0.00  0.00    -0.204 OA
ATOM      2  C2  BZF d   1      -3.738  -5.920  -0.442  0.00  0.00     0.174 A 
ATOM      3  C3  BZF d   1      -4.190  -4.975   0.407  0.00  0.00    -0.012 A 
ATOM      4  C3A BZF d   1      -3.175  -3.967   0.423  0.00  0.00    -0.107 A 
ATOM      5  C4  BZF d   1      -3.052  -2.769   1.066  0.00  0.00     0.055 A 
ATOM      6  C5  BZF d   1      -1.902  -2.058   0.924  0.00  0.00    -0.016 A 
ATOM      7  C6  BZF d   1      -0.855  -2.517   0.152  0.00  0.00     0.022 A 
ATOM      8  C7  BZF d   1      -0.933  -3.698  -0.510  0.00  0.00     0.029 A 
ATOM      9  C7A BZF d   1      -2.106  -4.403  -0.394  0.00  0.00     0.058 A 
ENDROOT
TORSDOF 0
ENDMDL
