MODEL 1
REMARK minimizedAffinity 0.587581277
REMARK minimizedRMSD -1
REMARK  0 active torsions:
REMARK  status: ('A' for Active; 'I' for Inactive)
ROOT
ATOM      1  O1  BZF d   1      -1.865  -3.622  -2.350  0.00  0.00    -0.204 OA
ATOM      2  C2  BZF d   1      -0.937  -4.395  -1.679  0.00  0.00     0.174 A 
ATOM      3  C3  BZF d   1      -0.677  -3.881  -0.460  0.00  0.00    -0.012 A 
ATOM      4  C3A BZF d   1      -1.563  -2.765  -0.326  0.00  0.00    -0.107 A 
ATOM      5  C4  BZF d   1      -1.789  -1.860   0.672  0.00  0.00     0.055 A 
ATOM      6  C5  BZF d   1      -2.670  -0.848   0.458  0.00  0.00    -0.016 A 
ATOM      7  C6  BZF d   1      -3.338  -0.708  -0.741  0.00  0.00     0.022 A 
ATOM      8  C7  BZF d   1      -3.150  -1.583  -1.758  0.00  0.00     0.029 A 
ATOM      9  C7A BZF d   1      -2.285  -2.626  -1.534  0.00  0.00     0.058 A 
ENDROOT
TORSDOF 0
ENDMDL
