MODEL 1
REMARK minimizedAffinity -0.526996136
REMARK minimizedRMSD -1
REMARK  0 active torsions:
REMARK  status: ('A' for Active; 'I' for Inactive)
ROOT
ATOM      1  O1  BZF d   1      -1.943  -2.323  -0.484  0.00  0.00    -0.204 OA
ATOM      2  C2  BZF d   1      -0.749  -1.824   0.000  0.00  0.00     0.174 A 
ATOM      3  C3  BZF d   1       0.224  -2.754  -0.075  0.00  0.00    -0.012 A 
ATOM      4  C3A BZF d   1      -0.377  -3.877  -0.726  0.00  0.00    -0.107 A 
ATOM      5  C4  BZF d   1       0.087  -5.105  -1.100  0.00  0.00     0.055 A 
ATOM      6  C5  BZF d   1      -0.776  -5.999  -1.651  0.00  0.00    -0.016 A 
ATOM      7  C6  BZF d   1      -2.110  -5.700  -1.836  0.00  0.00     0.022 A 
ATOM      8  C7  BZF d   1      -2.617  -4.492  -1.485  0.00  0.00     0.029 A 
ATOM      9  C7A BZF d   1      -1.739  -3.576  -0.959  0.00  0.00     0.058 A 
ENDROOT
TORSDOF 0
ENDMDL
