MODEL 1
REMARK minimizedAffinity 13.3622341
REMARK minimizedRMSD -1
REMARK  0 active torsions:
REMARK  status: ('A' for Active; 'I' for Inactive)
ROOT
ATOM      1  O1  BZF d   1       3.303   0.831   1.275  0.00  0.00    -0.204 OA
ATOM      2  C2  BZF d   1       2.126   0.808   0.552  0.00  0.00     0.174 A 
ATOM      3  C3  BZF d   1       1.438   1.955   0.721  0.00  0.00    -0.012 A 
ATOM      4  C3A BZF d   1       2.278   2.782   1.531  0.00  0.00    -0.107 A 
ATOM      5  C4  BZF d   1       2.152   4.049   2.027  0.00  0.00     0.055 A 
ATOM      6  C5  BZF d   1       3.121   4.537   2.845  0.00  0.00    -0.016 A 
ATOM      7  C6  BZF d   1       4.225   3.786   3.193  0.00  0.00     0.022 A 
ATOM      8  C7  BZF d   1       4.396   2.526   2.722  0.00  0.00     0.029 A 
ATOM      9  C7A BZF d   1       3.435   2.042   1.868  0.00  0.00     0.058 A 
ENDROOT
TORSDOF 0
ENDMDL
