MODEL 1
REMARK minimizedAffinity 8.39219856
REMARK minimizedRMSD -1
REMARK  0 active torsions:
REMARK  status: ('A' for Active; 'I' for Inactive)
ROOT
ATOM      1  O1  BZF d   1       1.361  -4.435  -0.913  0.00  0.00    -0.204 OA
ATOM      2  C2  BZF d   1      -0.009  -4.585  -0.816  0.00  0.00     0.174 A 
ATOM      3  C3  BZF d   1      -0.557  -3.546  -0.152  0.00  0.00    -0.012 A 
ATOM      4  C3A BZF d   1       0.527  -2.649   0.105  0.00  0.00    -0.107 A 
ATOM      5  C4  BZF d   1       0.613  -1.432   0.718  0.00  0.00     0.055 A 
ATOM      6  C5  BZF d   1       1.834  -0.854   0.870  0.00  0.00    -0.016 A 
ATOM      7  C6  BZF d   1       2.988  -1.466   0.426  0.00  0.00     0.022 A 
ATOM      8  C7  BZF d   1       2.952  -2.671  -0.192  0.00  0.00     0.029 A 
ATOM      9  C7A BZF d   1       1.717  -3.243  -0.377  0.00  0.00     0.058 A 
ENDROOT
TORSDOF 0
ENDMDL
