MODEL 1
REMARK minimizedAffinity 9.25169754
REMARK minimizedRMSD -1
REMARK  0 active torsions:
REMARK  status: ('A' for Active; 'I' for Inactive)
ROOT
ATOM      1  O1  BZF d   1       3.043   0.720   0.772  0.00  0.00    -0.204 OA
ATOM      2  C2  BZF d   1       1.717   0.453   0.490  0.00  0.00     0.174 A 
ATOM      3  C3  BZF d   1       0.905   1.280   1.180  0.00  0.00    -0.012 A 
ATOM      4  C3A BZF d   1       1.781   2.177   1.870  0.00  0.00    -0.107 A 
ATOM      5  C4  BZF d   1       1.571   3.235   2.708  0.00  0.00     0.055 A 
ATOM      6  C5  BZF d   1       2.641   3.854   3.271  0.00  0.00    -0.016 A 
ATOM      7  C6  BZF d   1       3.933   3.439   3.023  0.00  0.00     0.022 A 
ATOM      8  C7  BZF d   1       4.192   2.397   2.196  0.00  0.00     0.029 A 
ATOM      9  C7A BZF d   1       3.113   1.790   1.600  0.00  0.00     0.058 A 
ENDROOT
TORSDOF 0
ENDMDL
