MODEL 1
REMARK minimizedAffinity 10.4452705
REMARK minimizedRMSD -1
REMARK  0 active torsions:
REMARK  status: ('A' for Active; 'I' for Inactive)
ROOT
ATOM      1  O1  BZF d   1       3.080   0.561   1.548  0.00  0.00    -0.204 OA
ATOM      2  C2  BZF d   1       1.724   0.580   1.283  0.00  0.00     0.174 A 
ATOM      3  C3  BZF d   1       1.204   1.798   1.537  0.00  0.00    -0.012 A 
ATOM      4  C3A BZF d   1       2.320   2.616   1.902  0.00  0.00    -0.107 A 
ATOM      5  C4  BZF d   1       2.448   3.929   2.252  0.00  0.00     0.055 A 
ATOM      6  C5  BZF d   1       3.668   4.399   2.621  0.00  0.00    -0.016 A 
ATOM      7  C6  BZF d   1       4.780   3.584   2.657  0.00  0.00     0.022 A 
ATOM      8  C7  BZF d   1       4.704   2.275   2.313  0.00  0.00     0.029 A 
ATOM      9  C7A BZF d   1       3.479   1.805   1.908  0.00  0.00     0.058 A 
ENDROOT
TORSDOF 0
ENDMDL
