MODEL 1
REMARK minimizedAffinity 3.13310814
REMARK minimizedRMSD -1
REMARK  0 active torsions:
REMARK  status: ('A' for Active; 'I' for Inactive)
ROOT
ATOM      1  O1  BZF d   1       2.549   1.258   2.042  0.00  0.00    -0.204 OA
ATOM      2  C2  BZF d   1       3.759   1.304   1.378  0.00  0.00     0.174 A 
ATOM      3  C3  BZF d   1       4.366   2.493   1.571  0.00  0.00    -0.012 A 
ATOM      4  C3A BZF d   1       3.522   3.202   2.483  0.00  0.00    -0.107 A 
ATOM      5  C4  BZF d   1       3.598   4.434   3.068  0.00  0.00     0.055 A 
ATOM      6  C5  BZF d   1       2.572   4.856   3.854  0.00  0.00    -0.016 A 
ATOM      7  C6  BZF d   1       1.456   4.076   4.072  0.00  0.00     0.022 A 
ATOM      8  C7  BZF d   1       1.338   2.845   3.517  0.00  0.00     0.029 A 
ATOM      9  C7A BZF d   1       2.387   2.402   2.749  0.00  0.00     0.058 A 
ENDROOT
TORSDOF 0
ENDMDL
