MODEL 1
REMARK minimizedAffinity 7.14465332
REMARK minimizedRMSD -1
REMARK  0 active torsions:
REMARK  status: ('A' for Active; 'I' for Inactive)
ROOT
ATOM      1  O1  BZF d   1       0.764   2.270   2.707  0.00  0.00    -0.204 OA
ATOM      2  C2  BZF d   1       0.203   3.393   3.285  0.00  0.00     0.174 A 
ATOM      3  C3  BZF d   1       1.096   4.403   3.332  0.00  0.00    -0.012 A 
ATOM      4  C3A BZF d   1       2.260   3.908   2.664  0.00  0.00    -0.107 A 
ATOM      5  C4  BZF d   1       3.479   4.451   2.375  0.00  0.00     0.055 A 
ATOM      6  C5  BZF d   1       4.421   3.677   1.774  0.00  0.00    -0.016 A 
ATOM      7  C6  BZF d   1       4.181   2.357   1.455  0.00  0.00     0.022 A 
ATOM      8  C7  BZF d   1       2.985   1.775   1.717  0.00  0.00     0.029 A 
ATOM      9  C7A BZF d   1       2.020   2.564   2.294  0.00  0.00     0.058 A 
ENDROOT
TORSDOF 0
ENDMDL
