MODEL 1
REMARK minimizedAffinity 1.99053431
REMARK minimizedRMSD -1
REMARK  0 active torsions:
REMARK  status: ('A' for Active; 'I' for Inactive)
ROOT
ATOM      1  O1  BZF d   1      -1.734  -3.425  -1.034  0.00  0.00    -0.204 OA
ATOM      2  C2  BZF d   1      -2.128  -4.512  -1.790  0.00  0.00     0.174 A 
ATOM      3  C3  BZF d   1      -1.168  -5.460  -1.800  0.00  0.00    -0.012 A 
ATOM      4  C3A BZF d   1      -0.147  -4.971  -0.925  0.00  0.00    -0.107 A 
ATOM      5  C4  BZF d   1       1.055  -5.472  -0.513  0.00  0.00     0.055 A 
ATOM      6  C5  BZF d   1       1.848  -4.712   0.287  0.00  0.00    -0.016 A 
ATOM      7  C6  BZF d   1       1.473  -3.447   0.690  0.00  0.00     0.022 A 
ATOM      8  C7  BZF d   1       0.287  -2.910   0.311  0.00  0.00     0.029 A 
ATOM      9  C7A BZF d   1      -0.530  -3.688  -0.471  0.00  0.00     0.058 A 
ENDROOT
TORSDOF 0
ENDMDL
