MODEL 1
REMARK minimizedAffinity 3.04050517
REMARK minimizedRMSD -1
REMARK  0 active torsions:
REMARK  status: ('A' for Active; 'I' for Inactive)
ROOT
ATOM      1  O1  BZF d   1       1.570   5.043   3.628  0.00  0.00    -0.204 OA
ATOM      2  C2  BZF d   1       2.543   6.000   3.846  0.00  0.00     0.174 A 
ATOM      3  C3  BZF d   1       3.755   5.545   3.466  0.00  0.00    -0.012 A 
ATOM      4  C3A BZF d   1       3.511   4.256   2.895  0.00  0.00    -0.107 A 
ATOM      5  C4  BZF d   1       4.319   3.314   2.326  0.00  0.00     0.055 A 
ATOM      6  C5  BZF d   1       3.778   2.130   1.934  0.00  0.00    -0.016 A 
ATOM      7  C6  BZF d   1       2.437   1.854   2.101  0.00  0.00     0.022 A 
ATOM      8  C7  BZF d   1       1.595   2.759   2.656  0.00  0.00     0.029 A 
ATOM      9  C7A BZF d   1       2.132   3.969   3.023  0.00  0.00     0.058 A 
ENDROOT
TORSDOF 0
ENDMDL
