MODEL 1
REMARK minimizedAffinity 8.14941311
REMARK minimizedRMSD -1
REMARK  0 active torsions:
REMARK  status: ('A' for Active; 'I' for Inactive)
ROOT
ATOM      1  O1  BZF d   1       4.827  -5.978  -4.432  0.00  0.00    -0.204 OA
ATOM      2  C2  BZF d   1       5.573  -6.000  -3.270  0.00  0.00     0.174 A 
ATOM      3  C3  BZF d   1       4.772  -5.954  -2.186  0.00  0.00    -0.012 A 
ATOM      4  C3A BZF d   1       3.438  -5.994  -2.702  0.00  0.00    -0.107 A 
ATOM      5  C4  BZF d   1       2.204  -5.992  -2.116  0.00  0.00     0.055 A 
ATOM      6  C5  BZF d   1       1.099  -5.964  -2.906  0.00  0.00    -0.016 A 
ATOM      7  C6  BZF d   1       1.189  -5.931  -4.282  0.00  0.00     0.022 A 
ATOM      8  C7  BZF d   1       2.391  -5.936  -4.908  0.00  0.00     0.029 A 
ATOM      9  C7A BZF d   1       3.510  -5.998  -4.114  0.00  0.00     0.058 A 
ENDROOT
TORSDOF 0
ENDMDL
