MODEL 1
REMARK minimizedAffinity 8.39200878
REMARK minimizedRMSD -1
REMARK  0 active torsions:
REMARK  status: ('A' for Active; 'I' for Inactive)
ROOT
ATOM      1  O1  BZF d   1       2.344   1.549   2.467  0.00  0.00    -0.204 OA
ATOM      2  C2  BZF d   1       2.904   1.943   1.268  0.00  0.00     0.174 A 
ATOM      3  C3  BZF d   1       2.917   3.288   1.165  0.00  0.00    -0.012 A 
ATOM      4  C3A BZF d   1       2.413   3.766   2.416  0.00  0.00    -0.107 A 
ATOM      5  C4  BZF d   1       2.202   5.014   2.927  0.00  0.00     0.055 A 
ATOM      6  C5  BZF d   1       1.629   5.137   4.153  0.00  0.00    -0.016 A 
ATOM      7  C6  BZF d   1       1.251   4.035   4.892  0.00  0.00     0.022 A 
ATOM      8  C7  BZF d   1       1.446   2.777   4.429  0.00  0.00     0.029 A 
ATOM      9  C7A BZF d   1       2.054   2.648   3.204  0.00  0.00     0.058 A 
ENDROOT
TORSDOF 0
ENDMDL
