MODEL 1
REMARK minimizedAffinity 13.9832172
REMARK minimizedRMSD -1
REMARK  0 active torsions:
REMARK  status: ('A' for Active; 'I' for Inactive)
ROOT
ATOM      1  O1  BZF d   1       5.534   4.957   3.200  0.00  0.00    -0.204 OA
ATOM      2  C2  BZF d   1       5.765   4.429   4.455  0.00  0.00     0.174 A 
ATOM      3  C3  BZF d   1       4.815   3.527   4.777  0.00  0.00    -0.012 A 
ATOM      4  C3A BZF d   1       3.987   3.421   3.615  0.00  0.00    -0.107 A 
ATOM      5  C4  BZF d   1       2.885   2.673   3.312  0.00  0.00     0.055 A 
ATOM      6  C5  BZF d   1       2.269   2.860   2.115  0.00  0.00    -0.016 A 
ATOM      7  C6  BZF d   1       2.725   3.787   1.201  0.00  0.00     0.022 A 
ATOM      8  C7  BZF d   1       3.817   4.548   1.455  0.00  0.00     0.029 A 
ATOM      9  C7A BZF d   1       4.461   4.339   2.650  0.00  0.00     0.058 A 
ENDROOT
TORSDOF 0
ENDMDL
