MODEL 1
REMARK minimizedAffinity 10.3574429
REMARK minimizedRMSD -1
REMARK  0 active torsions:
REMARK  status: ('A' for Active; 'I' for Inactive)
ROOT
ATOM      1  O1  BZF d   1      -5.183   3.172   0.370  0.00  0.00    -0.204 OA
ATOM      2  C2  BZF d   1      -5.998   3.037  -0.738  0.00  0.00     0.174 A 
ATOM      3  C3  BZF d   1      -5.683   1.923  -1.429  0.00  0.00    -0.012 A 
ATOM      4  C3A BZF d   1      -4.666   1.276  -0.659  0.00  0.00    -0.107 A 
ATOM      5  C4  BZF d   1      -3.961   0.117  -0.819  0.00  0.00     0.055 A 
ATOM      6  C5  BZF d   1      -2.987  -0.192   0.076  0.00  0.00    -0.016 A 
ATOM      7  C6  BZF d   1      -2.687   0.636   1.138  0.00  0.00     0.022 A 
ATOM      8  C7  BZF d   1      -3.362   1.793   1.341  0.00  0.00     0.029 A 
ATOM      9  C7A BZF d   1      -4.370   2.092   0.457  0.00  0.00     0.058 A 
ENDROOT
TORSDOF 0
ENDMDL
