MODEL 1
REMARK minimizedAffinity 12.3759155
REMARK minimizedRMSD -1
REMARK  0 active torsions:
REMARK  status: ('A' for Active; 'I' for Inactive)
ROOT
ATOM      1  O1  BZF d   1      -1.406   2.911  -5.971  0.00  0.00    -0.204 OA
ATOM      2  C2  BZF d   1      -0.935   1.613  -5.990  0.00  0.00     0.174 A 
ATOM      3  C3  BZF d   1      -1.957   0.733  -5.936  0.00  0.00    -0.012 A 
ATOM      4  C3A BZF d   1      -3.143   1.532  -5.973  0.00  0.00    -0.107 A 
ATOM      5  C4  BZF d   1      -4.476   1.234  -5.964  0.00  0.00     0.055 A 
ATOM      6  C5  BZF d   1      -5.379   2.249  -5.935  0.00  0.00    -0.016 A 
ATOM      7  C6  BZF d   1      -4.985   3.571  -5.909  0.00  0.00     0.022 A 
ATOM      8  C7  BZF d   1      -3.675   3.916  -5.922  0.00  0.00     0.029 A 
ATOM      9  C7A BZF d   1      -2.760   2.893  -5.985  0.00  0.00     0.058 A 
ENDROOT
TORSDOF 0
ENDMDL
