MODEL 1
REMARK minimizedAffinity 11.2604513
REMARK minimizedRMSD -1
REMARK  0 active torsions:
REMARK  status: ('A' for Active; 'I' for Inactive)
ROOT
ATOM      1  O1  BZF d   1       4.669   5.641   1.783  0.00  0.00    -0.204 OA
ATOM      2  C2  BZF d   1       3.334   5.998   1.777  0.00  0.00     0.174 A 
ATOM      3  C3  BZF d   1       2.547   4.910   1.900  0.00  0.00    -0.012 A 
ATOM      4  C3A BZF d   1       3.447   3.813   2.080  0.00  0.00    -0.107 A 
ATOM      5  C4  BZF d   1       3.267   2.473   2.272  0.00  0.00     0.055 A 
ATOM      6  C5  BZF d   1       4.357   1.663   2.339  0.00  0.00    -0.016 A 
ATOM      7  C6  BZF d   1       5.638   2.158   2.213  0.00  0.00     0.022 A 
ATOM      8  C7  BZF d   1       5.867   3.481   2.026  0.00  0.00     0.029 A 
ATOM      9  C7A BZF d   1       4.769   4.306   1.991  0.00  0.00     0.058 A 
ENDROOT
TORSDOF 0
ENDMDL
