MODEL 1
REMARK minimizedAffinity 3.61165428
REMARK minimizedRMSD -1
REMARK  0 active torsions:
REMARK  status: ('A' for Active; 'I' for Inactive)
ROOT
ATOM      1  O1  BZF d   1       4.263   5.733   2.159  0.00  0.00    -0.204 OA
ATOM      2  C2  BZF d   1       4.223   5.728   3.540  0.00  0.00     0.174 A 
ATOM      3  C3  BZF d   1       3.522   4.670   3.995  0.00  0.00    -0.012 A 
ATOM      4  C3A BZF d   1       3.175   3.918   2.827  0.00  0.00    -0.107 A 
ATOM      5  C4  BZF d   1       2.491   2.753   2.630  0.00  0.00     0.055 A 
ATOM      6  C5  BZF d   1       2.263   2.329   1.359  0.00  0.00    -0.016 A 
ATOM      7  C6  BZF d   1       2.699   3.046   0.264  0.00  0.00     0.022 A 
ATOM      8  C7  BZF d   1       3.387   4.205   0.410  0.00  0.00     0.029 A 
ATOM      9  C7A BZF d   1       3.647   4.619   1.694  0.00  0.00     0.058 A 
ENDROOT
TORSDOF 0
ENDMDL
