MODEL 1
REMARK minimizedAffinity 8.4666996
REMARK minimizedRMSD -1
REMARK  1 active torsions:
REMARK  status: ('A' for Active; 'I' for Inactive)
REMARK    1  A    between atoms: C1_2  and  C2_3 
ROOT
ATOM      1  C2  UNL d   1      -3.805   2.287  -3.018  0.00  0.00    -0.076 A 
ATOM      2  C3  UNL d   1      -3.447   2.188  -4.374  0.00  0.00     0.004 A 
ATOM      3  C4  UNL d   1      -3.548   3.288  -5.224  0.00  0.00    -0.003 A 
ATOM      4  C5  UNL d   1      -4.009   4.504  -4.732  0.00  0.00     0.000 A 
ATOM      5  C6  UNL d   1      -4.352   4.624  -3.386  0.00  0.00     0.000 A 
ATOM      6  C7  UNL d   1      -4.240   3.530  -2.511  0.00  0.00    -0.073 A 
ATOM      7  C8  UNL d   1      -4.629   3.714  -1.070  0.00  0.00     0.078 C 
ENDROOT
BRANCH   1   8
ATOM      8  C1  UNL d   1      -3.699   1.053  -2.150  0.00  0.00     0.053 C 
ATOM      9  C   UNL d   1      -2.270   0.766  -1.716  0.00  0.00     0.018 C 
ENDBRANCH   1   8
TORSDOF 1
ENDMDL
