MODEL 1
REMARK minimizedAffinity 4.36534357
REMARK minimizedRMSD -1
REMARK  1 active torsions:
REMARK  status: ('A' for Active; 'I' for Inactive)
REMARK    1  A    between atoms: C1_2  and  C2_3 
ROOT
ATOM      1  C2  UNL d   1       1.610  -2.243   3.412  0.00  0.00    -0.076 A 
ATOM      2  C3  UNL d   1       1.032  -1.626   4.534  0.00  0.00     0.004 A 
ATOM      3  C4  UNL d   1       1.248  -2.124   5.818  0.00  0.00    -0.003 A 
ATOM      4  C5  UNL d   1       2.046  -3.248   6.000  0.00  0.00     0.000 A 
ATOM      5  C6  UNL d   1       2.641  -3.863   4.899  0.00  0.00     0.000 A 
ATOM      6  C7  UNL d   1       2.447  -3.364   3.600  0.00  0.00    -0.073 A 
ATOM      7  C8  UNL d   1       3.109  -4.070   2.449  0.00  0.00     0.078 C 
ENDROOT
BRANCH   1   8
ATOM      8  C1  UNL d   1       1.319  -1.674   2.041  0.00  0.00     0.053 C 
ATOM      9  C   UNL d   1       2.585  -1.325   1.274  0.00  0.00     0.018 C 
ENDBRANCH   1   8
TORSDOF 1
ENDMDL
