MODEL 1
REMARK minimizedAffinity 9.50697613
REMARK minimizedRMSD -1
REMARK  1 active torsions:
REMARK  status: ('A' for Active; 'I' for Inactive)
REMARK    1  A    between atoms: C1_2  and  C2_3 
ROOT
ATOM      1  C2  UNL d   1       3.501  -2.680   0.446  0.00  0.00    -0.076 A 
ATOM      2  C3  UNL d   1       2.853  -3.418   1.451  0.00  0.00     0.004 A 
ATOM      3  C4  UNL d   1       1.903  -2.823   2.279  0.00  0.00    -0.003 A 
ATOM      4  C5  UNL d   1       1.586  -1.479   2.115  0.00  0.00     0.000 A 
ATOM      5  C6  UNL d   1       2.207  -0.735   1.112  0.00  0.00     0.000 A 
ATOM      6  C7  UNL d   1       3.154  -1.325   0.258  0.00  0.00    -0.073 A 
ATOM      7  C8  UNL d   1       3.797  -0.475  -0.804  0.00  0.00     0.078 C 
ENDROOT
BRANCH   1   8
ATOM      8  C1  UNL d   1       4.542  -3.372  -0.404  0.00  0.00     0.053 C 
ATOM      9  C   UNL d   1       5.855  -3.581   0.336  0.00  0.00     0.018 C 
ENDBRANCH   1   8
TORSDOF 1
ENDMDL
