MODEL 1
REMARK minimizedAffinity 12.4881353
REMARK minimizedRMSD -1
REMARK  1 active torsions:
REMARK  status: ('A' for Active; 'I' for Inactive)
REMARK    1  A    between atoms: C1_2  and  C2_3 
ROOT
ATOM      1  C2  UNL d   1       1.155  -2.136   3.657  0.00  0.00    -0.076 A 
ATOM      2  C3  UNL d   1       1.010  -0.750   3.473  0.00  0.00     0.004 A 
ATOM      3  C4  UNL d   1       1.343  -0.148   2.261  0.00  0.00    -0.003 A 
ATOM      4  C5  UNL d   1       1.826  -0.923   1.212  0.00  0.00     0.000 A 
ATOM      5  C6  UNL d   1       1.960  -2.302   1.371  0.00  0.00     0.000 A 
ATOM      6  C7  UNL d   1       1.613  -2.927   2.582  0.00  0.00    -0.073 A 
ATOM      7  C8  UNL d   1       1.782  -4.416   2.700  0.00  0.00     0.078 C 
ENDROOT
BRANCH   1   8
ATOM      8  C1  UNL d   1       0.803  -2.728   5.003  0.00  0.00     0.053 C 
ATOM      9  C   UNL d   1       1.964  -2.675   5.984  0.00  0.00     0.018 C 
ENDBRANCH   1   8
TORSDOF 1
ENDMDL
