MODEL 1
REMARK minimizedAffinity 7.82323694
REMARK minimizedRMSD -1
REMARK  1 active torsions:
REMARK  status: ('A' for Active; 'I' for Inactive)
REMARK    1  A    between atoms: C1_2  and  C2_3 
ROOT
ATOM      1  C2  UNL d   1       2.051  -3.297   3.335  0.00  0.00    -0.076 A 
ATOM      2  C3  UNL d   1       2.308  -4.000   4.525  0.00  0.00     0.004 A 
ATOM      3  C4  UNL d   1       1.906  -3.493   5.759  0.00  0.00    -0.003 A 
ATOM      4  C5  UNL d   1       1.240  -2.274   5.824  0.00  0.00     0.000 A 
ATOM      5  C6  UNL d   1       0.962  -1.571   4.653  0.00  0.00     0.000 A 
ATOM      6  C7  UNL d   1       1.345  -2.076   3.399  0.00  0.00    -0.073 A 
ATOM      7  C8  UNL d   1       1.025  -1.273   2.168  0.00  0.00     0.078 C 
ENDROOT
BRANCH   1   8
ATOM      8  C1  UNL d   1       2.535  -3.883   2.028  0.00  0.00     0.053 C 
ATOM      9  C   UNL d   1       2.110  -5.332   1.847  0.00  0.00     0.018 C 
ENDBRANCH   1   8
TORSDOF 1
ENDMDL
