MODEL 1
REMARK minimizedAffinity 16.773428
REMARK minimizedRMSD -1
REMARK  1 active torsions:
REMARK  status: ('A' for Active; 'I' for Inactive)
REMARK    1  A    between atoms: C1_2  and  C2_3 
ROOT
ATOM      1  C2  UNL d   1       1.276  -2.293   3.607  0.00  0.00    -0.076 A 
ATOM      2  C3  UNL d   1       1.837  -3.567   3.414  0.00  0.00     0.004 A 
ATOM      3  C4  UNL d   1       2.272  -4.332   4.495  0.00  0.00    -0.003 A 
ATOM      4  C5  UNL d   1       2.152  -3.834   5.788  0.00  0.00     0.000 A 
ATOM      5  C6  UNL d   1       1.582  -2.579   6.000  0.00  0.00     0.000 A 
ATOM      6  C7  UNL d   1       1.124  -1.803   4.922  0.00  0.00    -0.073 A 
ATOM      7  C8  UNL d   1       0.523  -0.454   5.208  0.00  0.00     0.078 C 
ENDROOT
BRANCH   1   8
ATOM      8  C1  UNL d   1       0.848  -1.499   2.394  0.00  0.00     0.053 C 
ATOM      9  C   UNL d   1       1.896  -1.506   1.292  0.00  0.00     0.018 C 
ENDBRANCH   1   8
TORSDOF 1
ENDMDL
