MODEL 1
REMARK minimizedAffinity -6.42166424
REMARK minimizedRMSD -1
REMARK  3 active torsions:
REMARK  status: ('A' for Active; 'I' for Inactive)
REMARK    1  A    between atoms: C3'_2  and  C2'_3 
REMARK    2  A    between atoms: C2'_3  and  C1'_4 
REMARK    3  A    between atoms: C1'_4  and  C1_5 
ROOT
ATOM      1  C1  N4B d   1       0.503  -0.136   0.320  0.00  0.00    -0.075 A 
ATOM      2  C2  N4B d   1       1.907  -0.174   0.475  0.00  0.00     0.002 A 
ATOM      3  C3  N4B d   1       2.561  -1.381   0.510  0.00  0.00     0.002 A 
ATOM      4  C4  N4B d   1       1.835  -2.558   0.410  0.00  0.00    -0.004 A 
ATOM      5  C5  N4B d   1       0.482  -2.512   0.235  0.00  0.00     0.002 A 
ATOM      6  C6  N4B d   1      -0.188  -1.306   0.195  0.00  0.00     0.002 A 
ENDROOT
BRANCH   1   7
ATOM      7  C1' N4B d   1      -0.265   1.156   0.363  0.00  0.00     0.057 C 
BRANCH   7   8
ATOM      8  C2' N4B d   1       0.717   2.322   0.411  0.00  0.00     0.009 C 
BRANCH   8   9
ATOM      9  C3' N4B d   1       0.041   3.649   0.111  0.00  0.00     0.004 C 
ATOM     10  C4' N4B d   1      -0.286   4.428   1.349  0.00  0.00     0.003 C 
ENDBRANCH   8   9
ENDBRANCH   7   8
ENDBRANCH   1   7
TORSDOF 3
ENDMDL
