MODEL 1
REMARK minimizedAffinity -2.44527364
REMARK minimizedRMSD -1
REMARK  3 active torsions:
REMARK  status: ('A' for Active; 'I' for Inactive)
REMARK    1  A    between atoms: C3'_2  and  C2'_3 
REMARK    2  A    between atoms: C2'_3  and  C1'_4 
REMARK    3  A    between atoms: C1'_4  and  C1_5 
ROOT
ATOM      1  C1  N4B d   1       0.770   2.349  -0.323  0.00  0.00    -0.075 A 
ATOM      2  C2  N4B d   1       0.195   3.496   0.268  0.00  0.00     0.002 A 
ATOM      3  C3  N4B d   1       1.002   4.474   0.796  0.00  0.00     0.002 A 
ATOM      4  C4  N4B d   1       2.380   4.319   0.762  0.00  0.00    -0.004 A 
ATOM      5  C5  N4B d   1       2.928   3.220   0.167  0.00  0.00     0.002 A 
ATOM      6  C6  N4B d   1       2.129   2.231  -0.372  0.00  0.00     0.002 A 
ENDROOT
BRANCH   1   7
ATOM      7  C1' N4B d   1      -0.072   1.213  -0.836  0.00  0.00     0.057 C 
BRANCH   7   8
ATOM      8  C2' N4B d   1      -0.209   0.158   0.257  0.00  0.00     0.009 C 
BRANCH   8   9
ATOM      9  C3' N4B d   1      -1.593   0.165   0.883  0.00  0.00     0.004 C 
ATOM     10  C4' N4B d   1      -1.659  -0.623   2.157  0.00  0.00     0.003 C 
ENDBRANCH   8   9
ENDBRANCH   7   8
ENDBRANCH   1   7
TORSDOF 3
ENDMDL
