MODEL 1
REMARK minimizedAffinity -2.70257378
REMARK minimizedRMSD -1
REMARK  3 active torsions:
REMARK  status: ('A' for Active; 'I' for Inactive)
REMARK    1  A    between atoms: C3'_2  and  C2'_3 
REMARK    2  A    between atoms: C2'_3  and  C1'_4 
REMARK    3  A    between atoms: C1'_4  and  C1_5 
ROOT
ATOM      1  C1  N4B d   1      -0.962   0.582  -0.055  0.00  0.00    -0.075 A 
ATOM      2  C2  N4B d   1      -1.774   0.620   1.100  0.00  0.00     0.002 A 
ATOM      3  C3  N4B d   1      -1.635  -0.344   2.069  0.00  0.00     0.002 A 
ATOM      4  C4  N4B d   1      -0.709  -1.361   1.896  0.00  0.00    -0.004 A 
ATOM      5  C5  N4B d   1       0.089  -1.376   0.790  0.00  0.00     0.002 A 
ATOM      6  C6  N4B d   1      -0.037  -0.412  -0.190  0.00  0.00     0.002 A 
ENDROOT
BRANCH   1   7
ATOM      7  C1' N4B d   1      -1.137   1.564  -1.181  0.00  0.00     0.057 C 
BRANCH   7   8
ATOM      8  C2' N4B d   1      -2.426   1.242  -1.931  0.00  0.00     0.009 C 
BRANCH   8   9
ATOM      9  C3' N4B d   1      -2.723   2.264  -3.015  0.00  0.00     0.004 C 
ATOM     10  C4' N4B d   1      -1.601   3.239  -3.218  0.00  0.00     0.003 C 
ENDBRANCH   8   9
ENDBRANCH   7   8
ENDBRANCH   1   7
TORSDOF 3
ENDMDL
