MODEL 1
REMARK minimizedAffinity -4.55609083
REMARK minimizedRMSD -1
REMARK  3 active torsions:
REMARK  status: ('A' for Active; 'I' for Inactive)
REMARK    1  A    between atoms: C3'_2  and  C2'_3 
REMARK    2  A    between atoms: C2'_3  and  C1'_4 
REMARK    3  A    between atoms: C1'_4  and  C1_5 
ROOT
ATOM      1  C1  N4B d   1      -0.032   1.347  -0.280  0.00  0.00    -0.075 A 
ATOM      2  C2  N4B d   1      -0.170   2.738  -0.083  0.00  0.00     0.002 A 
ATOM      3  C3  N4B d   1       0.946   3.538  -0.035  0.00  0.00     0.002 A 
ATOM      4  C4  N4B d   1       2.204   2.969  -0.163  0.00  0.00    -0.004 A 
ATOM      5  C5  N4B d   1       2.326   1.627  -0.378  0.00  0.00     0.002 A 
ATOM      6  C6  N4B d   1       1.214   0.812  -0.432  0.00  0.00     0.002 A 
ENDROOT
BRANCH   1   7
ATOM      7  C1' N4B d   1      -1.217   0.420  -0.253  0.00  0.00     0.057 C 
BRANCH   7   8
ATOM      8  C2' N4B d   1      -2.389   1.085  -0.970  0.00  0.00     0.009 C 
BRANCH   8   9
ATOM      9  C3' N4B d   1      -2.267   0.974  -2.480  0.00  0.00     0.004 C 
ATOM     10  C4' N4B d   1      -2.578   2.261  -3.184  0.00  0.00     0.003 C 
ENDBRANCH   8   9
ENDBRANCH   7   8
ENDBRANCH   1   7
TORSDOF 3
ENDMDL
