MODEL 1
REMARK minimizedAffinity 1.50260484
REMARK minimizedRMSD -1
REMARK  3 active torsions:
REMARK  status: ('A' for Active; 'I' for Inactive)
REMARK    1  A    between atoms: C3'_2  and  C2'_3 
REMARK    2  A    between atoms: C2'_3  and  C1'_4 
REMARK    3  A    between atoms: C1'_4  and  C1_5 
ROOT
ATOM      1  C1  N4B d   1       0.551   1.750  -0.047  0.00  0.00    -0.075 A 
ATOM      2  C2  N4B d   1       0.240   3.127   0.001  0.00  0.00     0.002 A 
ATOM      3  C3  N4B d   1       1.247   4.056   0.097  0.00  0.00     0.002 A 
ATOM      4  C4  N4B d   1       2.566   3.632   0.166  0.00  0.00    -0.004 A 
ATOM      5  C5  N4B d   1       2.859   2.302   0.094  0.00  0.00     0.002 A 
ATOM      6  C6  N4B d   1       1.857   1.358  -0.007  0.00  0.00     0.002 A 
ENDROOT
BRANCH   1   7
ATOM      7  C1' N4B d   1      -0.520   0.694  -0.065  0.00  0.00     0.057 C 
BRANCH   7   8
ATOM      8  C2' N4B d   1      -0.792   0.282  -1.509  0.00  0.00     0.009 C 
BRANCH   8   9
ATOM      9  C3' N4B d   1      -2.131   0.799  -2.006  0.00  0.00     0.004 C 
ATOM     10  C4' N4B d   1      -2.220   0.837  -3.502  0.00  0.00     0.003 C 
ENDBRANCH   8   9
ENDBRANCH   7   8
ENDBRANCH   1   7
TORSDOF 3
ENDMDL
