MODEL 1
REMARK minimizedAffinity -4.76314878
REMARK minimizedRMSD -1
REMARK  3 active torsions:
REMARK  status: ('A' for Active; 'I' for Inactive)
REMARK    1  A    between atoms: C3'_2  and  C2'_3 
REMARK    2  A    between atoms: C2'_3  and  C1'_4 
REMARK    3  A    between atoms: C1'_4  and  C1_5 
ROOT
ATOM      1  C1  N4B d   1       0.405   2.193  -0.415  0.00  0.00    -0.075 A 
ATOM      2  C2  N4B d   1       1.482   1.283  -0.486  0.00  0.00     0.002 A 
ATOM      3  C3  N4B d   1       2.765   1.718  -0.264  0.00  0.00     0.002 A 
ATOM      4  C4  N4B d   1       2.997   3.058   0.011  0.00  0.00    -0.004 A 
ATOM      5  C5  N4B d   1       1.948   3.926   0.104  0.00  0.00     0.002 A 
ATOM      6  C6  N4B d   1       0.653   3.501  -0.113  0.00  0.00     0.002 A 
ENDROOT
BRANCH   1   7
ATOM      7  C1' N4B d   1      -1.006   1.781  -0.734  0.00  0.00     0.057 C 
BRANCH   7   8
ATOM      8  C2' N4B d   1      -1.509   2.596  -1.922  0.00  0.00     0.009 C 
BRANCH   8   9
ATOM      9  C3' N4B d   1      -2.137   1.717  -2.990  0.00  0.00     0.004 C 
ATOM     10  C4' N4B d   1      -3.226   0.838  -2.452  0.00  0.00     0.003 C 
ENDBRANCH   8   9
ENDBRANCH   7   8
ENDBRANCH   1   7
TORSDOF 3
ENDMDL
