MODEL 1
REMARK minimizedAffinity -3.79476261
REMARK minimizedRMSD -1
REMARK  3 active torsions:
REMARK  status: ('A' for Active; 'I' for Inactive)
REMARK    1  A    between atoms: C3'_2  and  C2'_3 
REMARK    2  A    between atoms: C2'_3  and  C1'_4 
REMARK    3  A    between atoms: C1'_4  and  C1_5 
ROOT
ATOM      1  C1  N4B d   1       1.330  -0.107  -0.180  0.00  0.00    -0.075 A 
ATOM      2  C2  N4B d   1       1.498  -1.421   0.310  0.00  0.00     0.002 A 
ATOM      3  C3  N4B d   1       0.440  -2.079   0.888  0.00  0.00     0.002 A 
ATOM      4  C4  N4B d   1      -0.785  -1.439   1.004  0.00  0.00    -0.004 A 
ATOM      5  C5  N4B d   1      -0.946  -0.179   0.505  0.00  0.00     0.002 A 
ATOM      6  C6  N4B d   1       0.107   0.492  -0.083  0.00  0.00     0.002 A 
ENDROOT
BRANCH   1   7
ATOM      7  C1' N4B d   1       2.479   0.684  -0.743  0.00  0.00     0.057 C 
BRANCH   7   8
ATOM      8  C2' N4B d   1       2.969   1.673   0.310  0.00  0.00     0.009 C 
BRANCH   8   9
ATOM      9  C3' N4B d   1       3.026   3.093  -0.227  0.00  0.00     0.004 C 
ATOM     10  C4' N4B d   1       1.886   3.942   0.254  0.00  0.00     0.003 C 
ENDBRANCH   8   9
ENDBRANCH   7   8
ENDBRANCH   1   7
TORSDOF 3
ENDMDL
