MODEL 1
REMARK minimizedAffinity -5.12766123
REMARK minimizedRMSD -1
REMARK  1 active torsions:
REMARK  status: ('A' for Active; 'I' for Inactive)
REMARK    1  A    between atoms: C1_2  and  C2_3 
ROOT
ATOM      1  C2  UNL d   1       0.524   0.185  -0.174  0.00  0.00    -0.073 A 
ATOM      2  C3  UNL d   1       0.900   1.471   0.231  0.00  0.00    -0.002 A 
ATOM      3  C4  UNL d   1       1.721   2.254  -0.582  0.00  0.00     0.004 A 
ATOM      4  C5  UNL d   1       2.167   1.763  -1.809  0.00  0.00    -0.004 A 
ATOM      5  C6  UNL d   1       1.793   0.485  -2.236  0.00  0.00    -0.075 A 
ATOM      6  C7  UNL d   1       2.267  -0.058  -3.552  0.00  0.00     0.076 C 
ATOM      7  C8  UNL d   1       0.970  -0.296  -1.413  0.00  0.00     0.001 A 
ENDROOT
BRANCH   1   8
ATOM      8  C1  UNL d   1      -0.368  -0.662   0.697  0.00  0.00     0.053 C 
ATOM      9  C   UNL d   1      -1.454   0.161   1.371  0.00  0.00     0.018 C 
ENDBRANCH   1   8
TORSDOF 1
ENDMDL
