MODEL 1
REMARK minimizedAffinity -6.21860838
REMARK minimizedRMSD -1
REMARK  1 active torsions:
REMARK  status: ('A' for Active; 'I' for Inactive)
REMARK    1  A    between atoms: C1_2  and  C2_3 
ROOT
ATOM      1  C2  UNL d   1       1.719  -0.471  -1.616  0.00  0.00    -0.073 A 
ATOM      2  C3  UNL d   1       2.251   0.771  -1.982  0.00  0.00    -0.002 A 
ATOM      3  C4  UNL d   1       1.814   1.938  -1.355  0.00  0.00     0.004 A 
ATOM      4  C5  UNL d   1       0.847   1.876  -0.351  0.00  0.00    -0.004 A 
ATOM      5  C6  UNL d   1       0.312   0.643   0.037  0.00  0.00    -0.075 A 
ATOM      6  C7  UNL d   1      -0.730   0.559   1.114  0.00  0.00     0.076 C 
ATOM      7  C8  UNL d   1       0.754  -0.524  -0.599  0.00  0.00     0.001 A 
ENDROOT
BRANCH   1   8
ATOM      8  C1  UNL d   1       2.193  -1.735  -2.286  0.00  0.00     0.053 C 
ATOM      9  C   UNL d   1       1.768  -2.979  -1.522  0.00  0.00     0.018 C 
ENDBRANCH   1   8
TORSDOF 1
ENDMDL
