MODEL 1
REMARK minimizedAffinity -3.31715608
REMARK minimizedRMSD -1
REMARK  1 active torsions:
REMARK  status: ('A' for Active; 'I' for Inactive)
REMARK    1  A    between atoms: C1_2  and  C2_3 
ROOT
ATOM      1  C2  UNL d   1      -0.744   0.013   1.070  0.00  0.00    -0.073 A 
ATOM      2  C3  UNL d   1      -0.361  -1.300   1.365  0.00  0.00    -0.002 A 
ATOM      3  C4  UNL d   1       0.479  -2.001   0.499  0.00  0.00     0.004 A 
ATOM      4  C5  UNL d   1       0.951  -1.394  -0.665  0.00  0.00    -0.004 A 
ATOM      5  C6  UNL d   1       0.590  -0.078  -0.971  0.00  0.00    -0.075 A 
ATOM      6  C7  UNL d   1       1.087   0.588  -2.220  0.00  0.00     0.076 C 
ATOM      7  C8  UNL d   1      -0.257   0.618  -0.098  0.00  0.00     0.001 A 
ENDROOT
BRANCH   1   8
ATOM      8  C1  UNL d   1      -1.646   0.776   2.005  0.00  0.00     0.053 C 
ATOM      9  C   UNL d   1      -3.116   0.515   1.718  0.00  0.00     0.018 C 
ENDBRANCH   1   8
TORSDOF 1
ENDMDL
