MODEL 1
REMARK minimizedAffinity -5.43373823
REMARK minimizedRMSD -1
REMARK  1 active torsions:
REMARK  status: ('A' for Active; 'I' for Inactive)
REMARK    1  A    between atoms: C1_2  and  C2_3 
ROOT
ATOM      1  C2  UNL d   1      -0.057   0.262   0.212  0.00  0.00    -0.073 A 
ATOM      2  C3  UNL d   1       0.479   1.517   0.522  0.00  0.00    -0.002 A 
ATOM      3  C4  UNL d   1       1.407   2.117  -0.330  0.00  0.00     0.004 A 
ATOM      4  C5  UNL d   1       1.803   1.473  -1.502  0.00  0.00    -0.004 A 
ATOM      5  C6  UNL d   1       1.269   0.223  -1.835  0.00  0.00    -0.075 A 
ATOM      6  C7  UNL d   1       1.686  -0.484  -3.092  0.00  0.00     0.076 C 
ATOM      7  C8  UNL d   1       0.340  -0.374  -0.973  0.00  0.00     0.001 A 
ENDROOT
BRANCH   1   8
ATOM      8  C1  UNL d   1      -1.064  -0.387   1.126  0.00  0.00     0.053 C 
ATOM      9  C   UNL d   1      -2.167   0.577   1.535  0.00  0.00     0.018 C 
ENDBRANCH   1   8
TORSDOF 1
ENDMDL
