MODEL 1
REMARK minimizedAffinity -3.69624662
REMARK minimizedRMSD -1
REMARK  1 active torsions:
REMARK  status: ('A' for Active; 'I' for Inactive)
REMARK    1  A    between atoms: C1_2  and  C2_3 
ROOT
ATOM      1  C2  UNL d   1      -0.358  -0.175   0.731  0.00  0.00    -0.073 A 
ATOM      2  C3  UNL d   1       0.158  -0.826  -0.396  0.00  0.00    -0.002 A 
ATOM      3  C4  UNL d   1       1.130  -0.208  -1.183  0.00  0.00     0.004 A 
ATOM      4  C5  UNL d   1       1.602   1.061  -0.849  0.00  0.00    -0.004 A 
ATOM      5  C6  UNL d   1       1.108   1.723   0.279  0.00  0.00    -0.075 A 
ATOM      6  C7  UNL d   1       1.603   3.090   0.651  0.00  0.00     0.076 C 
ATOM      7  C8  UNL d   1       0.129   1.098   1.064  0.00  0.00     0.001 A 
ENDROOT
BRANCH   1   8
ATOM      8  C1  UNL d   1      -1.403  -0.840   1.588  0.00  0.00     0.053 C 
ATOM      9  C   UNL d   1      -2.616   0.052   1.803  0.00  0.00     0.018 C 
ENDBRANCH   1   8
TORSDOF 1
ENDMDL
