MODEL 1
REMARK minimizedAffinity -4.5005517
REMARK minimizedRMSD -1
REMARK  1 active torsions:
REMARK  status: ('A' for Active; 'I' for Inactive)
REMARK    1  A    between atoms: C1_2  and  C2_3 
ROOT
ATOM      1  C2  UNL d   1       0.106   0.349  -0.467  0.00  0.00    -0.073 A 
ATOM      2  C3  UNL d   1       1.025   1.184   0.179  0.00  0.00    -0.002 A 
ATOM      3  C4  UNL d   1       2.226   1.524  -0.444  0.00  0.00     0.004 A 
ATOM      4  C5  UNL d   1       2.518   1.041  -1.719  0.00  0.00    -0.004 A 
ATOM      5  C6  UNL d   1       1.607   0.215  -2.385  0.00  0.00    -0.075 A 
ATOM      6  C7  UNL d   1       1.906  -0.315  -3.757  0.00  0.00     0.076 C 
ATOM      7  C8  UNL d   1       0.404  -0.125  -1.752  0.00  0.00     0.001 A 
ENDROOT
BRANCH   1   8
ATOM      8  C1  UNL d   1      -1.196  -0.016   0.199  0.00  0.00     0.053 C 
ATOM      9  C   UNL d   1      -1.075  -0.034   1.715  0.00  0.00     0.018 C 
ENDBRANCH   1   8
TORSDOF 1
ENDMDL
