MODEL 1
REMARK minimizedAffinity -3.66586471
REMARK minimizedRMSD -1
REMARK  1 active torsions:
REMARK  status: ('A' for Active; 'I' for Inactive)
REMARK    1  A    between atoms: C1_2  and  C2_3 
ROOT
ATOM      1  C2  UNL d   1       0.486   0.429  -0.499  0.00  0.00    -0.073 A 
ATOM      2  C3  UNL d   1       0.042  -0.225  -1.654  0.00  0.00    -0.002 A 
ATOM      3  C4  UNL d   1       0.901  -0.396  -2.741  0.00  0.00     0.004 A 
ATOM      4  C5  UNL d   1       2.211   0.078  -2.682  0.00  0.00    -0.004 A 
ATOM      5  C6  UNL d   1       2.677   0.724  -1.532  0.00  0.00    -0.075 A 
ATOM      6  C7  UNL d   1       4.083   1.243  -1.454  0.00  0.00     0.076 C 
ATOM      7  C8  UNL d   1       1.808   0.895  -0.446  0.00  0.00     0.001 A 
ENDROOT
BRANCH   1   8
ATOM      8  C1  UNL d   1      -0.435   0.611   0.680  0.00  0.00     0.053 C 
ATOM      9  C   UNL d   1      -1.309  -0.611   0.913  0.00  0.00     0.018 C 
ENDBRANCH   1   8
TORSDOF 1
ENDMDL
