MODEL 1
REMARK minimizedAffinity -3.61502957
REMARK minimizedRMSD -1
REMARK  1 active torsions:
REMARK  status: ('A' for Active; 'I' for Inactive)
REMARK    1  A    between atoms: C1_2  and  C2_3 
ROOT
ATOM      1  C2  UNL d   1       0.787   0.236  -1.069  0.00  0.00    -0.073 A 
ATOM      2  C3  UNL d   1       0.196   0.627   0.137  0.00  0.00    -0.002 A 
ATOM      3  C4  UNL d   1      -0.217  -0.332   1.063  0.00  0.00     0.004 A 
ATOM      4  C5  UNL d   1      -0.037  -1.689   0.796  0.00  0.00    -0.004 A 
ATOM      5  C6  UNL d   1       0.563  -2.099  -0.399  0.00  0.00    -0.075 A 
ATOM      6  C7  UNL d   1       0.762  -3.555  -0.702  0.00  0.00     0.076 C 
ATOM      7  C8  UNL d   1       0.972  -1.130  -1.325  0.00  0.00     0.001 A 
ENDROOT
BRANCH   1   8
ATOM      8  C1  UNL d   1       1.241   1.268  -2.069  0.00  0.00     0.053 C 
ATOM      9  C   UNL d   1       1.691   0.636  -3.377  0.00  0.00     0.018 C 
ENDBRANCH   1   8
TORSDOF 1
ENDMDL
