MODEL 1
REMARK minimizedAffinity -4.82196236
REMARK minimizedRMSD -1
REMARK  1 active torsions:
REMARK  status: ('A' for Active; 'I' for Inactive)
REMARK    1  A    between atoms: C1_2  and  C2_3 
ROOT
ATOM      1  C2  UNL d   1       0.289  -0.486  -0.074  0.00  0.00    -0.073 A 
ATOM      2  C3  UNL d   1       0.827  -0.984  -1.266  0.00  0.00    -0.002 A 
ATOM      3  C4  UNL d   1       1.709  -0.208  -2.019  0.00  0.00     0.004 A 
ATOM      4  C5  UNL d   1       2.067   1.069  -1.586  0.00  0.00    -0.004 A 
ATOM      5  C6  UNL d   1       1.548   1.579  -0.391  0.00  0.00    -0.075 A 
ATOM      6  C7  UNL d   1       1.921   2.952   0.088  0.00  0.00     0.076 C 
ATOM      7  C8  UNL d   1       0.661   0.795   0.358  0.00  0.00     0.001 A 
ENDROOT
BRANCH   1   8
ATOM      8  C1  UNL d   1      -0.659  -1.323   0.746  0.00  0.00     0.053 C 
ATOM      9  C   UNL d   1      -0.131  -2.732   0.966  0.00  0.00     0.018 C 
ENDBRANCH   1   8
TORSDOF 1
ENDMDL
