MODEL 1
REMARK minimizedAffinity -3.14527082
REMARK minimizedRMSD -1
REMARK  1 active torsions:
REMARK  status: ('A' for Active; 'I' for Inactive)
REMARK    1  A    between atoms: C1_2  and  C2_3 
ROOT
ATOM      1  C2  UNL d   1       0.340  -0.130   0.147  0.00  0.00    -0.073 A 
ATOM      2  C3  UNL d   1       0.727   1.180   0.450  0.00  0.00    -0.002 A 
ATOM      3  C4  UNL d   1       1.493   1.916  -0.455  0.00  0.00     0.004 A 
ATOM      4  C5  UNL d   1       1.873   1.353  -1.673  0.00  0.00    -0.004 A 
ATOM      5  C6  UNL d   1       1.485   0.049  -1.999  0.00  0.00    -0.075 A 
ATOM      6  C7  UNL d   1       1.887  -0.571  -3.305  0.00  0.00     0.076 C 
ATOM      7  C8  UNL d   1       0.718  -0.684  -1.084  0.00  0.00     0.001 A 
ENDROOT
BRANCH   1   8
ATOM      8  C1  UNL d   1      -0.493  -0.926   1.119  0.00  0.00     0.053 C 
ATOM      9  C   UNL d   1      -1.569  -0.077   1.777  0.00  0.00     0.018 C 
ENDBRANCH   1   8
TORSDOF 1
ENDMDL
