MODEL 1
REMARK minimizedAffinity -4.92819214
REMARK minimizedRMSD -1
REMARK  1 active torsions:
REMARK  status: ('A' for Active; 'I' for Inactive)
REMARK    1  A    between atoms: C1_2  and  C2_3 
ROOT
ATOM      1  C2  UNL d   1       0.572  -0.393  -1.246  0.00  0.00    -0.073 A 
ATOM      2  C3  UNL d   1      -0.245  -1.150  -0.400  0.00  0.00    -0.002 A 
ATOM      3  C4  UNL d   1      -0.617  -0.654   0.850  0.00  0.00     0.004 A 
ATOM      4  C5  UNL d   1      -0.183   0.605   1.264  0.00  0.00    -0.004 A 
ATOM      5  C6  UNL d   1       0.625   1.382   0.427  0.00  0.00    -0.075 A 
ATOM      6  C7  UNL d   1       1.102   2.738   0.858  0.00  0.00     0.076 C 
ATOM      7  C8  UNL d   1       0.997   0.876  -0.826  0.00  0.00     0.001 A 
ENDROOT
BRANCH   1   8
ATOM      8  C1  UNL d   1       0.971  -0.921  -2.600  0.00  0.00     0.053 C 
ATOM      9  C   UNL d   1       2.211  -0.226  -3.140  0.00  0.00     0.018 C 
ENDBRANCH   1   8
TORSDOF 1
ENDMDL
