MODEL 1
REMARK minimizedAffinity -4.72414207
REMARK minimizedRMSD -1
REMARK  1 active torsions:
REMARK  status: ('A' for Active; 'I' for Inactive)
REMARK    1  A    between atoms: C1_2  and  C2_3 
ROOT
ATOM      1  C2  UNL d   1       1.762  -0.483  -1.443  0.00  0.00    -0.073 A 
ATOM      2  C3  UNL d   1       2.171   0.822  -1.741  0.00  0.00    -0.002 A 
ATOM      3  C4  UNL d   1       1.657   1.903  -1.023  0.00  0.00     0.004 A 
ATOM      4  C5  UNL d   1       0.737   1.690   0.003  0.00  0.00    -0.004 A 
ATOM      5  C6  UNL d   1       0.325   0.393   0.324  0.00  0.00    -0.075 A 
ATOM      6  C7  UNL d   1      -0.666   0.147   1.424  0.00  0.00     0.076 C 
ATOM      7  C8  UNL d   1       0.843  -0.687  -0.403  0.00  0.00     0.001 A 
ENDROOT
BRANCH   1   8
ATOM      8  C1  UNL d   1       2.319  -1.654  -2.211  0.00  0.00     0.053 C 
ATOM      9  C   UNL d   1       1.845  -2.983  -1.645  0.00  0.00     0.018 C 
ENDBRANCH   1   8
TORSDOF 1
ENDMDL
