MODEL 1
REMARK minimizedAffinity -3.91114497
REMARK minimizedRMSD -1
REMARK  1 active torsions:
REMARK  status: ('A' for Active; 'I' for Inactive)
REMARK    1  A    between atoms: C1_2  and  C2_3 
ROOT
ATOM      1  C2  UNL d   1      -0.176   0.988  -0.581  0.00  0.00    -0.081 A 
ATOM      2  C3  UNL d   1       1.171   0.755  -0.884  0.00  0.00     0.006 A 
ATOM      3  C4  UNL d   1       1.837  -0.349  -0.346  0.00  0.00     0.002 A 
ATOM      4  C5  UNL d   1       1.165  -1.242   0.496  0.00  0.00    -0.080 A 
ATOM      5  C6  UNL d   1       1.859  -2.448   1.056  0.00  0.00     0.076 C 
ATOM      6  C7  UNL d   1      -0.176  -0.999   0.812  0.00  0.00     0.002 A 
ATOM      7  C8  UNL d   1      -0.842   0.105   0.275  0.00  0.00     0.006 A 
ENDROOT
BRANCH   1   8
ATOM      8  C1  UNL d   1      -0.914   2.142  -1.211  0.00  0.00     0.054 C 
ATOM      9  C   UNL d   1      -1.852   1.665  -2.310  0.00  0.00     0.018 C 
ENDBRANCH   1   8
TORSDOF 1
ENDMDL
