MODEL 1
REMARK minimizedAffinity -3.32471085
REMARK minimizedRMSD -1
REMARK  1 active torsions:
REMARK  status: ('A' for Active; 'I' for Inactive)
REMARK    1  A    between atoms: C1_2  and  C2_3 
ROOT
ATOM      1  C2  UNL d   1      -0.351   0.993  -0.742  0.00  0.00    -0.081 A 
ATOM      2  C3  UNL d   1       0.994   0.796  -1.078  0.00  0.00     0.006 A 
ATOM      3  C4  UNL d   1       1.717  -0.257  -0.513  0.00  0.00     0.002 A 
ATOM      4  C5  UNL d   1       1.107  -1.134   0.390  0.00  0.00    -0.080 A 
ATOM      5  C6  UNL d   1       1.864  -2.286   0.981  0.00  0.00     0.076 C 
ATOM      6  C7  UNL d   1      -0.232  -0.926   0.739  0.00  0.00     0.002 A 
ATOM      7  C8  UNL d   1      -0.956   0.127   0.175  0.00  0.00     0.006 A 
ENDROOT
BRANCH   1   8
ATOM      8  C1  UNL d   1      -1.152   2.089  -1.399  0.00  0.00     0.054 C 
ATOM      9  C   UNL d   1      -2.038   1.538  -2.507  0.00  0.00     0.018 C 
ENDBRANCH   1   8
TORSDOF 1
ENDMDL
