MODEL 1
REMARK minimizedAffinity -2.48516893
REMARK minimizedRMSD -1
REMARK  1 active torsions:
REMARK  status: ('A' for Active; 'I' for Inactive)
REMARK    1  A    between atoms: C1_2  and  C2_3 
ROOT
ATOM      1  C2  UNL d   1      -0.216   1.325  -0.567  0.00  0.00    -0.081 A 
ATOM      2  C3  UNL d   1       1.081   0.919  -0.901  0.00  0.00     0.006 A 
ATOM      3  C4  UNL d   1       1.699  -0.122  -0.204  0.00  0.00     0.002 A 
ATOM      4  C5  UNL d   1       1.027  -0.779   0.832  0.00  0.00    -0.080 A 
ATOM      5  C6  UNL d   1       1.667  -1.919   1.568  0.00  0.00     0.076 C 
ATOM      6  C7  UNL d   1      -0.263  -0.362   1.177  0.00  0.00     0.002 A 
ATOM      7  C8  UNL d   1      -0.880   0.680   0.482  0.00  0.00     0.006 A 
ENDROOT
BRANCH   1   8
ATOM      8  C1  UNL d   1      -0.909   2.405  -1.359  0.00  0.00     0.054 C 
ATOM      9  C   UNL d   1      -2.097   1.848  -2.131  0.00  0.00     0.018 C 
ENDBRANCH   1   8
TORSDOF 1
ENDMDL
