MODEL 1
REMARK minimizedAffinity -1.59014928
REMARK minimizedRMSD -1
REMARK  1 active torsions:
REMARK  status: ('A' for Active; 'I' for Inactive)
REMARK    1  A    between atoms: C1_2  and  C2_3 
ROOT
ATOM      1  C2  UNL d   1      -0.262   1.136  -0.957  0.00  0.00    -0.081 A 
ATOM      2  C3  UNL d   1      -0.857   0.340   0.029  0.00  0.00     0.006 A 
ATOM      3  C4  UNL d   1      -0.082  -0.527   0.803  0.00  0.00     0.002 A 
ATOM      4  C5  UNL d   1       1.301  -0.607   0.609  0.00  0.00    -0.080 A 
ATOM      5  C6  UNL d   1       2.149  -1.511   1.454  0.00  0.00     0.076 C 
ATOM      6  C7  UNL d   1       1.894   0.176  -0.388  0.00  0.00     0.002 A 
ATOM      7  C8  UNL d   1       1.119   1.042  -1.162  0.00  0.00     0.006 A 
ENDROOT
BRANCH   1   8
ATOM      8  C1  UNL d   1      -1.085   2.119  -1.749  0.00  0.00     0.054 C 
ATOM      9  C   UNL d   1      -1.771   1.443  -2.928  0.00  0.00     0.018 C 
ENDBRANCH   1   8
TORSDOF 1
ENDMDL
