MODEL 1
REMARK minimizedAffinity -3.11581945
REMARK minimizedRMSD -1
REMARK  1 active torsions:
REMARK  status: ('A' for Active; 'I' for Inactive)
REMARK    1  A    between atoms: C1_2  and  C2_3 
ROOT
ATOM      1  C2  UNL d   1       0.526  -0.181   0.033  0.00  0.00    -0.081 A 
ATOM      2  C3  UNL d   1       0.083  -1.104  -0.923  0.00  0.00     0.006 A 
ATOM      3  C4  UNL d   1      -1.035  -0.823  -1.712  0.00  0.00     0.002 A 
ATOM      4  C5  UNL d   1      -1.723   0.386  -1.565  0.00  0.00    -0.080 A 
ATOM      5  C6  UNL d   1      -2.906   0.712  -2.428  0.00  0.00     0.076 C 
ATOM      6  C7  UNL d   1      -1.291   1.300  -0.598  0.00  0.00     0.002 A 
ATOM      7  C8  UNL d   1      -0.174   1.020   0.192  0.00  0.00     0.006 A 
ENDROOT
BRANCH   1   8
ATOM      8  C1  UNL d   1       1.769  -0.452   0.841  0.00  0.00     0.054 C 
ATOM      9  C   UNL d   1       1.756  -1.860   1.421  0.00  0.00     0.018 C 
ENDBRANCH   1   8
TORSDOF 1
ENDMDL
