MODEL 1
REMARK minimizedAffinity -4.55742979
REMARK minimizedRMSD -1
REMARK  1 active torsions:
REMARK  status: ('A' for Active; 'I' for Inactive)
REMARK    1  A    between atoms: C1_2  and  C2_3 
ROOT
ATOM      1  C2  UNL d   1      -0.845   0.431  -1.068  0.00  0.00    -0.081 A 
ATOM      2  C3  UNL d   1      -0.680   0.115   0.286  0.00  0.00     0.006 A 
ATOM      3  C4  UNL d   1       0.473  -0.540   0.725  0.00  0.00     0.002 A 
ATOM      4  C5  UNL d   1       1.483  -0.883  -0.181  0.00  0.00    -0.080 A 
ATOM      5  C6  UNL d   1       2.739  -1.560   0.281  0.00  0.00     0.076 C 
ATOM      6  C7  UNL d   1       1.310  -0.583  -1.537  0.00  0.00     0.002 A 
ATOM      7  C8  UNL d   1       0.157   0.072  -1.976  0.00  0.00     0.006 A 
ENDROOT
BRANCH   1   8
ATOM      8  C1  UNL d   1      -2.058   1.196  -1.534  0.00  0.00     0.054 C 
ATOM      9  C   UNL d   1      -2.156   1.205  -3.053  0.00  0.00     0.018 C 
ENDBRANCH   1   8
TORSDOF 1
ENDMDL
