MODEL 1
REMARK minimizedAffinity -2.19823694
REMARK minimizedRMSD -1
REMARK  1 active torsions:
REMARK  status: ('A' for Active; 'I' for Inactive)
REMARK    1  A    between atoms: C1_2  and  C2_3 
ROOT
ATOM      1  C2  UNL d   1      -0.669   0.368  -0.501  0.00  0.00    -0.081 A 
ATOM      2  C3  UNL d   1      -0.797  -0.377   0.678  0.00  0.00     0.006 A 
ATOM      3  C4  UNL d   1       0.333  -0.898   1.313  0.00  0.00     0.002 A 
ATOM      4  C5  UNL d   1       1.610  -0.676   0.786  0.00  0.00    -0.080 A 
ATOM      5  C6  UNL d   1       2.833  -1.203   1.474  0.00  0.00     0.076 C 
ATOM      6  C7  UNL d   1       1.736   0.054  -0.401  0.00  0.00     0.002 A 
ATOM      7  C8  UNL d   1       0.607   0.574  -1.037  0.00  0.00     0.006 A 
ENDROOT
BRANCH   1   8
ATOM      8  C1  UNL d   1      -1.879   0.985  -1.153  0.00  0.00     0.054 C 
ATOM      9  C   UNL d   1      -1.687   1.125  -2.656  0.00  0.00     0.018 C 
ENDBRANCH   1   8
TORSDOF 1
ENDMDL
