MODEL 1
REMARK minimizedAffinity -3.10639048
REMARK minimizedRMSD -1
REMARK  1 active torsions:
REMARK  status: ('A' for Active; 'I' for Inactive)
REMARK    1  A    between atoms: C1_2  and  C2_3 
ROOT
ATOM      1  C2  UNL d   1       2.896   0.422  -0.298  0.00  0.00    -0.081 A 
ATOM      2  C3  UNL d   1       1.673   1.096  -0.402  0.00  0.00     0.006 A 
ATOM      3  C4  UNL d   1       0.525   0.578   0.200  0.00  0.00     0.002 A 
ATOM      4  C5  UNL d   1       0.581  -0.619   0.924  0.00  0.00    -0.080 A 
ATOM      5  C6  UNL d   1      -0.638  -1.171   1.601  0.00  0.00     0.076 C 
ATOM      6  C7  UNL d   1       1.799  -1.301   1.014  0.00  0.00     0.002 A 
ATOM      7  C8  UNL d   1       2.948  -0.783   0.411  0.00  0.00     0.006 A 
ENDROOT
BRANCH   1   8
ATOM      8  C1  UNL d   1       4.150   1.012  -0.892  0.00  0.00     0.054 C 
ATOM      9  C   UNL d   1       4.920  -0.024  -1.699  0.00  0.00     0.018 C 
ENDBRANCH   1   8
TORSDOF 1
ENDMDL
