MODEL 1
REMARK minimizedAffinity 10.0605984
REMARK minimizedRMSD -1
REMARK  1 active torsions:
REMARK  status: ('A' for Active; 'I' for Inactive)
REMARK    1  A    between atoms: C1_2  and  C2_3 
ROOT
ATOM      1  C2  UNL d   1       1.502  -4.817  -5.239  0.00  0.00    -0.081 A 
ATOM      2  C3  UNL d   1       0.890  -5.863  -5.941  0.00  0.00     0.006 A 
ATOM      3  C4  UNL d   1      -0.502  -5.962  -5.992  0.00  0.00     0.002 A 
ATOM      4  C5  UNL d   1      -1.305  -5.014  -5.350  0.00  0.00    -0.080 A 
ATOM      5  C6  UNL d   1      -2.801  -5.092  -5.422  0.00  0.00     0.076 C 
ATOM      6  C7  UNL d   1      -0.694  -3.979  -4.634  0.00  0.00     0.002 A 
ATOM      7  C8  UNL d   1       0.698  -3.880  -4.582  0.00  0.00     0.006 A 
ENDROOT
BRANCH   1   8
ATOM      8  C1  UNL d   1       3.002  -4.671  -5.236  0.00  0.00     0.054 C 
ATOM      9  C   UNL d   1       3.684  -5.972  -4.837  0.00  0.00     0.018 C 
ENDBRANCH   1   8
TORSDOF 1
ENDMDL
