MODEL 1
REMARK minimizedAffinity -2.69368148
REMARK minimizedRMSD -1
REMARK  1 active torsions:
REMARK  status: ('A' for Active; 'I' for Inactive)
REMARK    1  A    between atoms: C1_2  and  C2_3 
ROOT
ATOM      1  C2  UNL d   1      -2.282   1.204  -1.645  0.00  0.00    -0.081 A 
ATOM      2  C3  UNL d   1      -3.399   0.396  -1.402  0.00  0.00     0.006 A 
ATOM      3  C4  UNL d   1      -3.585  -0.198  -0.151  0.00  0.00     0.002 A 
ATOM      4  C5  UNL d   1      -2.661   0.012   0.879  0.00  0.00    -0.080 A 
ATOM      5  C6  UNL d   1      -2.864  -0.595   2.235  0.00  0.00     0.076 C 
ATOM      6  C7  UNL d   1      -1.536   0.805   0.630  0.00  0.00     0.002 A 
ATOM      7  C8  UNL d   1      -1.349   1.399  -0.620  0.00  0.00     0.006 A 
ENDROOT
BRANCH   1   8
ATOM      8  C1  UNL d   1      -2.113   1.898  -2.972  0.00  0.00     0.054 C 
ATOM      9  C   UNL d   1      -0.864   2.768  -2.987  0.00  0.00     0.018 C 
ENDBRANCH   1   8
TORSDOF 1
ENDMDL
