MODEL 1
REMARK minimizedAffinity -5.47673273
REMARK minimizedRMSD -1
REMARK  0 active torsions:
REMARK  status: ('A' for Active; 'I' for Inactive)
ROOT
ATOM      1  N1  IND d   1       1.206   0.437  -1.571  0.00  0.00    -0.196 N 
ATOM      2  C2  IND d   1       1.122   0.780  -0.251  0.00  0.00     0.054 A 
ATOM      3  C3  IND d   1      -0.146   0.630   0.194  0.00  0.00    -0.031 A 
ATOM      4  C4  IND d   1      -2.220  -0.261  -1.044  0.00  0.00     0.051 A 
ATOM      5  C5  IND d   1      -2.646  -0.666  -2.277  0.00  0.00    -0.031 A 
ATOM      6  C6  IND d   1      -1.793  -0.728  -3.360  0.00  0.00     0.015 A 
ATOM      7  C7  IND d   1      -0.472  -0.396  -3.246  0.00  0.00    -0.016 A 
ATOM      8  C8  IND d   1      -0.037   0.022  -1.996  0.00  0.00    -0.047 A 
ATOM      9  C9  IND d   1      -0.908   0.128  -0.904  0.00  0.00    -0.096 A 
ATOM     10  HN1 IND d   1       1.915   0.475  -2.055  0.00  0.00     0.298 HD
ENDROOT
TORSDOF 0
ENDMDL
