MODEL 1
REMARK minimizedAffinity -4.97383261
REMARK minimizedRMSD -1
REMARK  0 active torsions:
REMARK  status: ('A' for Active; 'I' for Inactive)
ROOT
ATOM      1  N1  IND d   1       2.860   0.850   0.710  0.00  0.00    -0.196 N 
ATOM      2  C2  IND d   1       3.257  -0.448   0.874  0.00  0.00     0.054 A 
ATOM      3  C3  IND d   1       2.213  -1.286   0.684  0.00  0.00    -0.031 A 
ATOM      4  C4  IND d   1      -0.209  -0.752  -0.004  0.00  0.00     0.051 A 
ATOM      5  C5  IND d   1      -1.058   0.294  -0.235  0.00  0.00    -0.031 A 
ATOM      6  C6  IND d   1      -0.634   1.605  -0.164  0.00  0.00     0.015 A 
ATOM      7  C7  IND d   1       0.662   1.920   0.131  0.00  0.00    -0.016 A 
ATOM      8  C8  IND d   1       1.525   0.861   0.373  0.00  0.00    -0.047 A 
ATOM      9  C9  IND d   1       1.091  -0.471   0.344  0.00  0.00    -0.096 A 
ATOM     10  HN1 IND d   1       3.361   1.543   0.802  0.00  0.00     0.298 HD
ENDROOT
TORSDOF 0
ENDMDL
