MODEL 1
REMARK minimizedAffinity -2.94416142
REMARK minimizedRMSD -1
REMARK  0 active torsions:
REMARK  status: ('A' for Active; 'I' for Inactive)
ROOT
ATOM      1  N1  IND d   1      -0.200  -1.586   1.283  0.00  0.00    -0.196 N 
ATOM      2  C2  IND d   1      -1.228  -0.876   0.730  0.00  0.00     0.054 A 
ATOM      3  C3  IND d   1      -0.777   0.300   0.239  0.00  0.00    -0.031 A 
ATOM      4  C4  IND d   1       1.626   1.219   0.146  0.00  0.00     0.051 A 
ATOM      5  C5  IND d   1       2.900   0.946   0.558  0.00  0.00    -0.031 A 
ATOM      6  C6  IND d   1       3.213  -0.210   1.244  0.00  0.00     0.015 A 
ATOM      7  C7  IND d   1       2.261  -1.145   1.535  0.00  0.00    -0.016 A 
ATOM      8  C8  IND d   1       0.965  -0.868   1.125  0.00  0.00    -0.047 A 
ATOM      9  C9  IND d   1       0.633   0.323   0.465  0.00  0.00    -0.096 A 
ATOM     10  HN1 IND d   1      -0.269  -2.353   1.666  0.00  0.00     0.298 HD
ENDROOT
TORSDOF 0
ENDMDL
