MODEL 1
REMARK minimizedAffinity -3.46958113
REMARK minimizedRMSD -1
REMARK  0 active torsions:
REMARK  status: ('A' for Active; 'I' for Inactive)
ROOT
ATOM      1  N1  IND d   1       1.482  -1.478   0.596  0.00  0.00    -0.196 N 
ATOM      2  C2  IND d   1       2.703  -0.871   0.698  0.00  0.00     0.054 A 
ATOM      3  C3  IND d   1       2.630   0.406   0.261  0.00  0.00    -0.031 A 
ATOM      4  C4  IND d   1       0.589   1.738  -0.568  0.00  0.00     0.051 A 
ATOM      5  C5  IND d   1      -0.736   1.599  -0.873  0.00  0.00    -0.031 A 
ATOM      6  C6  IND d   1      -1.404   0.404  -0.698  0.00  0.00     0.015 A 
ATOM      7  C7  IND d   1      -0.771  -0.698  -0.198  0.00  0.00    -0.016 A 
ATOM      8  C8  IND d   1       0.576  -0.563   0.106  0.00  0.00    -0.047 A 
ATOM      9  C9  IND d   1       1.269   0.635  -0.110  0.00  0.00    -0.096 A 
ATOM     10  HN1 IND d   1       1.309  -2.295   0.803  0.00  0.00     0.298 HD
ENDROOT
TORSDOF 0
ENDMDL
