MODEL 1
REMARK minimizedAffinity -5.09117603
REMARK minimizedRMSD -1
REMARK  0 active torsions:
REMARK  status: ('A' for Active; 'I' for Inactive)
ROOT
ATOM      1  N1  IND d   1       1.765   0.952   0.351  0.00  0.00    -0.196 N 
ATOM      2  C2  IND d   1       2.897   0.359   0.838  0.00  0.00     0.054 A 
ATOM      3  C3  IND d   1       2.591  -0.805   1.453  0.00  0.00    -0.031 A 
ATOM      4  C4  IND d   1       0.312  -1.981   1.688  0.00  0.00     0.051 A 
ATOM      5  C5  IND d   1      -1.020  -1.808   1.437  0.00  0.00    -0.031 A 
ATOM      6  C6  IND d   1      -1.501  -0.686   0.795  0.00  0.00     0.015 A 
ATOM      7  C7  IND d   1      -0.663   0.306   0.369  0.00  0.00    -0.016 A 
ATOM      8  C8  IND d   1       0.689   0.137   0.629  0.00  0.00    -0.047 A 
ATOM      9  C9  IND d   1       1.179  -0.980   1.318  0.00  0.00    -0.096 A 
ATOM     10  HN1 IND d   1       1.731   1.706  -0.059  0.00  0.00     0.298 HD
ENDROOT
TORSDOF 0
ENDMDL
