MODEL 1
REMARK minimizedAffinity -4.52449226
REMARK minimizedRMSD -1
REMARK  0 active torsions:
REMARK  status: ('A' for Active; 'I' for Inactive)
ROOT
ATOM      1  N1  IND d   1      -0.741  -0.365   0.028  0.00  0.00    -0.196 N 
ATOM      2  C2  IND d   1      -0.772   0.927  -0.419  0.00  0.00     0.054 A 
ATOM      3  C3  IND d   1       0.433   1.514  -0.244  0.00  0.00    -0.031 A 
ATOM      4  C4  IND d   1       2.624   0.512   0.663  0.00  0.00     0.051 A 
ATOM      5  C5  IND d   1       3.137  -0.620   1.230  0.00  0.00    -0.031 A 
ATOM      6  C6  IND d   1       2.368  -1.749   1.427  0.00  0.00     0.015 A 
ATOM      7  C7  IND d   1       1.056  -1.792   1.052  0.00  0.00    -0.016 A 
ATOM      8  C8  IND d   1       0.529  -0.641   0.482  0.00  0.00    -0.047 A 
ATOM      9  C9  IND d   1       1.293   0.522   0.319  0.00  0.00    -0.096 A 
ATOM     10  HN1 IND d   1      -1.404  -0.912   0.025  0.00  0.00     0.298 HD
ENDROOT
TORSDOF 0
ENDMDL
