MODEL 1
REMARK minimizedAffinity -2.60751414
REMARK minimizedRMSD -1
REMARK  0 active torsions:
REMARK  status: ('A' for Active; 'I' for Inactive)
ROOT
ATOM      1  N1  IND d   1       2.671  -1.279   1.166  0.00  0.00    -0.196 N 
ATOM      2  C2  IND d   1       3.520  -0.218   1.313  0.00  0.00     0.054 A 
ATOM      3  C3  IND d   1       2.929   0.920   0.885  0.00  0.00    -0.031 A 
ATOM      4  C4  IND d   1       0.538   1.290   0.003  0.00  0.00     0.051 A 
ATOM      5  C5  IND d   1      -0.598   0.614  -0.345  0.00  0.00    -0.031 A 
ATOM      6  C6  IND d   1      -0.705  -0.754  -0.202  0.00  0.00     0.015 A 
ATOM      7  C7  IND d   1       0.320  -1.500   0.307  0.00  0.00    -0.016 A 
ATOM      8  C8  IND d   1       1.477  -0.818   0.656  0.00  0.00    -0.047 A 
ATOM      9  C9  IND d   1       1.608   0.565   0.473  0.00  0.00    -0.096 A 
ATOM     10  HN1 IND d   1       2.852  -2.097   1.361  0.00  0.00     0.298 HD
ENDROOT
TORSDOF 0
ENDMDL
