MODEL 1
REMARK minimizedAffinity -3.7384007
REMARK minimizedRMSD -1
REMARK  0 active torsions:
REMARK  status: ('A' for Active; 'I' for Inactive)
ROOT
ATOM      1  N1  IND d   1       0.947  -1.815   1.489  0.00  0.00    -0.196 N 
ATOM      2  C2  IND d   1       2.206  -2.140   1.909  0.00  0.00     0.054 A 
ATOM      3  C3  IND d   1       3.080  -1.163   1.576  0.00  0.00    -0.031 A 
ATOM      4  C4  IND d   1       2.643   1.101   0.432  0.00  0.00     0.051 A 
ATOM      5  C5  IND d   1       1.657   1.832  -0.169  0.00  0.00    -0.031 A 
ATOM      6  C6  IND d   1       0.357   1.376  -0.247  0.00  0.00     0.015 A 
ATOM      7  C7  IND d   1      -0.010   0.173   0.286  0.00  0.00    -0.016 A 
ATOM      8  C8  IND d   1       0.991  -0.575   0.890  0.00  0.00    -0.047 A 
ATOM      9  C9  IND d   1       2.320  -0.137   0.935  0.00  0.00    -0.096 A 
ATOM     10  HN1 IND d   1       0.245  -2.303   1.584  0.00  0.00     0.298 HD
ENDROOT
TORSDOF 0
ENDMDL
