MODEL 1
REMARK minimizedAffinity -5.40798187
REMARK minimizedRMSD -1
REMARK  0 active torsions:
REMARK  status: ('A' for Active; 'I' for Inactive)
ROOT
ATOM      1  N1  IND d   1      -0.802  -0.942   0.293  0.00  0.00    -0.196 N 
ATOM      2  C2  IND d   1      -0.899   0.286  -0.299  0.00  0.00     0.054 A 
ATOM      3  C3  IND d   1       0.249   0.981  -0.130  0.00  0.00    -0.031 A 
ATOM      4  C4  IND d   1       2.448   0.258   0.995  0.00  0.00     0.051 A 
ATOM      5  C5  IND d   1       3.007  -0.762   1.713  0.00  0.00    -0.031 A 
ATOM      6  C6  IND d   1       2.311  -1.919   1.997  0.00  0.00     0.015 A 
ATOM      7  C7  IND d   1       1.029  -2.104   1.563  0.00  0.00    -0.016 A 
ATOM      8  C8  IND d   1       0.456  -1.067   0.840  0.00  0.00    -0.047 A 
ATOM      9  C9  IND d   1       1.143   0.127   0.585  0.00  0.00    -0.096 A 
ATOM     10  HN1 IND d   1      -1.423  -1.536   0.320  0.00  0.00     0.298 HD
ENDROOT
TORSDOF 0
ENDMDL
