MODEL 1
REMARK minimizedAffinity -3.13851833
REMARK minimizedRMSD -1
REMARK  0 active torsions:
REMARK  status: ('A' for Active; 'I' for Inactive)
ROOT
ATOM      1  C   UNL d   1       2.331   0.761   3.193  0.00  0.00    -0.002 A 
ATOM      2  C1  UNL d   1       1.177   1.046   3.909  0.00  0.00     0.010 A 
ATOM      3  C2  UNL d   1      -0.081   0.829   3.344  0.00  0.00     0.041 A 
ATOM      4  C3  UNL d   1      -0.161   0.315   2.035  0.00  0.00    -0.075 A 
ATOM      5  S   UNL d   1      -1.593  -0.031   1.139  0.00  0.00     0.015 SA
ATOM      6  C4  UNL d   1      -0.707  -0.565  -0.215  0.00  0.00     0.022 A 
ATOM      7  C5  UNL d   1       0.650  -0.488  -0.006  0.00  0.00     0.026 A 
ATOM      8  C6  UNL d   1       0.987   0.020   1.294  0.00  0.00    -0.082 A 
ATOM      9  C7  UNL d   1       2.248   0.252   1.894  0.00  0.00     0.045 A 
ENDROOT
TORSDOF 0
ENDMDL
