MODEL 1
REMARK minimizedAffinity 9.91273117
REMARK minimizedRMSD -1
REMARK  0 active torsions:
REMARK  status: ('A' for Active; 'I' for Inactive)
ROOT
ATOM      1  C   UNL d   1       0.508   0.185  -2.105  0.00  0.00    -0.002 A 
ATOM      2  C1  UNL d   1      -0.828  -0.168  -2.238  0.00  0.00     0.010 A 
ATOM      3  C2  UNL d   1      -1.626   0.428  -3.216  0.00  0.00     0.041 A 
ATOM      4  C3  UNL d   1      -1.054   1.394  -4.067  0.00  0.00    -0.075 A 
ATOM      5  S   UNL d   1      -1.840   2.256  -5.337  0.00  0.00     0.015 SA
ATOM      6  C4  UNL d   1      -0.421   3.113  -5.734  0.00  0.00     0.022 A 
ATOM      7  C5  UNL d   1       0.636   2.763  -4.927  0.00  0.00     0.026 A 
ATOM      8  C6  UNL d   1       0.288   1.766  -3.953  0.00  0.00    -0.082 A 
ATOM      9  C7  UNL d   1       1.071   1.144  -2.951  0.00  0.00     0.045 A 
ENDROOT
TORSDOF 0
ENDMDL
