MODEL 1
REMARK minimizedAffinity 9.91752911
REMARK minimizedRMSD -1
REMARK  0 active torsions:
REMARK  status: ('A' for Active; 'I' for Inactive)
ROOT
ATOM      1  C   UNL d   1      -2.933  -2.646   5.743  0.00  0.00    -0.002 A 
ATOM      2  C1  UNL d   1      -3.157  -3.932   5.273  0.00  0.00     0.010 A 
ATOM      3  C2  UNL d   1      -2.679  -4.324   4.022  0.00  0.00     0.041 A 
ATOM      4  C3  UNL d   1      -1.962  -3.394   3.244  0.00  0.00    -0.075 A 
ATOM      5  S   UNL d   1      -1.281  -3.651   1.681  0.00  0.00     0.015 SA
ATOM      6  C4  UNL d   1      -0.675  -2.060   1.601  0.00  0.00     0.022 A 
ATOM      7  C5  UNL d   1      -0.976  -1.336   2.730  0.00  0.00     0.026 A 
ATOM      8  C6  UNL d   1      -1.723  -2.093   3.696  0.00  0.00    -0.082 A 
ATOM      9  C7  UNL d   1      -2.221  -1.725   4.969  0.00  0.00     0.045 A 
ENDROOT
TORSDOF 0
ENDMDL
