MODEL 1
REMARK minimizedAffinity 26.3690128
REMARK minimizedRMSD -1
REMARK  0 active torsions:
REMARK  status: ('A' for Active; 'I' for Inactive)
ROOT
ATOM      1  C   UNL d   1      -2.680  -1.130   1.107  0.00  0.00    -0.002 A 
ATOM      2  C1  UNL d   1      -3.056   0.122   0.642  0.00  0.00     0.010 A 
ATOM      3  C2  UNL d   1      -2.844   1.262   1.420  0.00  0.00     0.041 A 
ATOM      4  C3  UNL d   1      -2.240   1.120   2.685  0.00  0.00    -0.075 A 
ATOM      5  S   UNL d   1      -1.881   2.375   3.811  0.00  0.00     0.015 SA
ATOM      6  C4  UNL d   1      -1.219   1.279   4.935  0.00  0.00     0.022 A 
ATOM      7  C5  UNL d   1      -1.263  -0.017   4.479  0.00  0.00     0.026 A 
ATOM      8  C6  UNL d   1      -1.852  -0.130   3.174  0.00  0.00    -0.082 A 
ATOM      9  C7  UNL d   1      -2.081  -1.266   2.362  0.00  0.00     0.045 A 
ENDROOT
TORSDOF 0
ENDMDL
