MODEL 1
REMARK minimizedAffinity 15.4476891
REMARK minimizedRMSD -1
REMARK  0 active torsions:
REMARK  status: ('A' for Active; 'I' for Inactive)
ROOT
ATOM      1  C   UNL d   1       2.827   4.614   0.583  0.00  0.00    -0.002 A 
ATOM      2  C1  UNL d   1       3.481   3.762   1.462  0.00  0.00     0.010 A 
ATOM      3  C2  UNL d   1       4.473   2.893   1.003  0.00  0.00     0.041 A 
ATOM      4  C3  UNL d   1       4.801   2.896  -0.367  0.00  0.00    -0.075 A 
ATOM      5  S   UNL d   1       5.984   1.920  -1.154  0.00  0.00     0.015 SA
ATOM      6  C4  UNL d   1       5.650   2.611  -2.676  0.00  0.00     0.022 A 
ATOM      7  C5  UNL d   1       4.663   3.565  -2.603  0.00  0.00     0.026 A 
ATOM      8  C6  UNL d   1       4.158   3.746  -1.271  0.00  0.00    -0.082 A 
ATOM      9  C7  UNL d   1       3.156   4.614  -0.776  0.00  0.00     0.045 A 
ENDROOT
TORSDOF 0
ENDMDL
