MODEL 1
REMARK minimizedAffinity 12.5896845
REMARK minimizedRMSD -1
REMARK  0 active torsions:
REMARK  status: ('A' for Active; 'I' for Inactive)
ROOT
ATOM      1  C   UNL d   1       4.571   4.179   5.999  0.00  0.00    -0.002 A 
ATOM      2  C1  UNL d   1       5.523   5.189   6.000  0.00  0.00     0.010 A 
ATOM      3  C2  UNL d   1       6.000   5.716   4.798  0.00  0.00     0.041 A 
ATOM      4  C3  UNL d   1       5.497   5.208   3.584  0.00  0.00    -0.075 A 
ATOM      5  S   UNL d   1       5.934   5.701   1.991  0.00  0.00     0.015 SA
ATOM      6  C4  UNL d   1       4.866   4.584   1.272  0.00  0.00     0.022 A 
ATOM      7  C5  UNL d   1       4.185   3.844   2.210  0.00  0.00     0.026 A 
ATOM      8  C6  UNL d   1       4.537   4.192   3.558  0.00  0.00    -0.082 A 
ATOM      9  C7  UNL d   1       4.074   3.678   4.793  0.00  0.00     0.045 A 
ENDROOT
TORSDOF 0
ENDMDL
