MODEL 1
REMARK minimizedAffinity 20.4204788
REMARK minimizedRMSD -1
REMARK  0 active torsions:
REMARK  status: ('A' for Active; 'I' for Inactive)
ROOT
ATOM      1  C   UNL d   1      -0.742  -1.711   2.164  0.00  0.00    -0.002 A 
ATOM      2  C1  UNL d   1      -1.056  -3.014   1.804  0.00  0.00     0.010 A 
ATOM      3  C2  UNL d   1      -1.302  -3.342   0.469  0.00  0.00     0.041 A 
ATOM      4  C3  UNL d   1      -1.224  -2.329  -0.507  0.00  0.00    -0.075 A 
ATOM      5  S   UNL d   1      -1.485  -2.498  -2.203  0.00  0.00     0.015 SA
ATOM      6  C4  UNL d   1      -1.185  -0.845  -2.489  0.00  0.00     0.022 A 
ATOM      7  C5  UNL d   1      -0.891  -0.166  -1.330  0.00  0.00     0.026 A 
ATOM      8  C6  UNL d   1      -0.909  -1.010  -0.169  0.00  0.00    -0.082 A 
ATOM      9  C7  UNL d   1      -0.666  -0.709   1.193  0.00  0.00     0.045 A 
ENDROOT
TORSDOF 0
ENDMDL
