MODEL 1
REMARK minimizedAffinity 13.8431311
REMARK minimizedRMSD -1
REMARK  0 active torsions:
REMARK  status: ('A' for Active; 'I' for Inactive)
ROOT
ATOM      1  C   UNL d   1      -1.949   0.064   0.120  0.00  0.00    -0.002 A 
ATOM      2  C1  UNL d   1      -1.088  -0.788  -0.558  0.00  0.00     0.010 A 
ATOM      3  C2  UNL d   1      -0.901  -2.101  -0.124  0.00  0.00     0.041 A 
ATOM      4  C3  UNL d   1      -1.601  -2.550   1.013  0.00  0.00    -0.075 A 
ATOM      5  S   UNL d   1      -1.529  -4.118   1.727  0.00  0.00     0.015 SA
ATOM      6  C4  UNL d   1      -2.640  -3.694   2.948  0.00  0.00     0.022 A 
ATOM      7  C5  UNL d   1      -3.065  -2.392   2.830  0.00  0.00     0.026 A 
ATOM      8  C6  UNL d   1      -2.474  -1.711   1.712  0.00  0.00    -0.082 A 
ATOM      9  C7  UNL d   1      -2.642  -0.384   1.248  0.00  0.00     0.045 A 
ENDROOT
TORSDOF 0
ENDMDL
