MODEL 1
REMARK minimizedAffinity 13.3693466
REMARK minimizedRMSD -1
REMARK  0 active torsions:
REMARK  status: ('A' for Active; 'I' for Inactive)
ROOT
ATOM      1  C   UNL d   1      -5.059   4.894   1.602  0.00  0.00    -0.002 A 
ATOM      2  C1  UNL d   1      -5.667   5.998   2.182  0.00  0.00     0.010 A 
ATOM      3  C2  UNL d   1      -5.993   5.998   3.540  0.00  0.00     0.041 A 
ATOM      4  C3  UNL d   1      -5.692   4.860   4.313  0.00  0.00    -0.075 A 
ATOM      5  S   UNL d   1      -5.998   4.635   5.995  0.00  0.00     0.015 SA
ATOM      6  C4  UNL d   1      -5.328   3.068   5.983  0.00  0.00     0.022 A 
ATOM      7  C5  UNL d   1      -4.876   2.709   4.735  0.00  0.00     0.026 A 
ATOM      8  C6  UNL d   1      -5.079   3.736   3.752  0.00  0.00    -0.082 A 
ATOM      9  C7  UNL d   1      -4.762   3.766   2.372  0.00  0.00     0.045 A 
ENDROOT
TORSDOF 0
ENDMDL
