MODEL 1
REMARK minimizedAffinity 6.35341072
REMARK minimizedRMSD -1
REMARK  0 active torsions:
REMARK  status: ('A' for Active; 'I' for Inactive)
ROOT
ATOM      1  C   UNL d   1      -2.797   1.517   5.803  0.00  0.00    -0.002 A 
ATOM      2  C1  UNL d   1      -1.757   2.399   5.545  0.00  0.00     0.010 A 
ATOM      3  C2  UNL d   1      -1.997   3.770   5.443  0.00  0.00     0.041 A 
ATOM      4  C3  UNL d   1      -3.313   4.246   5.609  0.00  0.00    -0.075 A 
ATOM      5  S   UNL d   1      -3.844   5.884   5.528  0.00  0.00     0.015 SA
ATOM      6  C4  UNL d   1      -5.464   5.453   5.835  0.00  0.00     0.022 A 
ATOM      7  C5  UNL d   1      -5.614   4.096   5.997  0.00  0.00     0.026 A 
ATOM      8  C6  UNL d   1      -4.377   3.378   5.870  0.00  0.00    -0.082 A 
ATOM      9  C7  UNL d   1      -4.101   1.993   5.966  0.00  0.00     0.045 A 
ENDROOT
TORSDOF 0
ENDMDL
