MODEL 1
REMARK minimizedAffinity 17.6457176
REMARK minimizedRMSD -1
REMARK  0 active torsions:
REMARK  status: ('A' for Active; 'I' for Inactive)
ROOT
ATOM      1  C   UNL d   1      -1.840  -0.927   1.734  0.00  0.00    -0.002 A 
ATOM      2  C1  UNL d   1      -0.835  -1.883   1.700  0.00  0.00     0.010 A 
ATOM      3  C2  UNL d   1       0.028  -1.968   0.605  0.00  0.00     0.041 A 
ATOM      4  C3  UNL d   1      -0.136  -1.066  -0.464  0.00  0.00    -0.075 A 
ATOM      5  S   UNL d   1       0.803  -0.982  -1.907  0.00  0.00     0.015 SA
ATOM      6  C4  UNL d   1      -0.106   0.326  -2.512  0.00  0.00     0.022 A 
ATOM      7  C5  UNL d   1      -1.107   0.702  -1.647  0.00  0.00     0.026 A 
ATOM      8  C6  UNL d   1      -1.140  -0.093  -0.452  0.00  0.00    -0.082 A 
ATOM      9  C7  UNL d   1      -2.000  -0.033   0.671  0.00  0.00     0.045 A 
ENDROOT
TORSDOF 0
ENDMDL
