MODEL 1
REMARK minimizedAffinity 3.44039583
REMARK minimizedRMSD -1
REMARK  0 active torsions:
REMARK  status: ('A' for Active; 'I' for Inactive)
ROOT
ATOM      1  C   UNL d   1       4.170   1.457   4.087  0.00  0.00    -0.002 A 
ATOM      2  C1  UNL d   1       4.779   1.282   5.322  0.00  0.00     0.010 A 
ATOM      3  C2  UNL d   1       5.372   2.361   5.981  0.00  0.00     0.041 A 
ATOM      4  C3  UNL d   1       5.339   3.632   5.374  0.00  0.00    -0.075 A 
ATOM      5  S   UNL d   1       5.999   5.098   5.996  0.00  0.00     0.015 SA
ATOM      6  C4  UNL d   1       5.486   5.992   4.638  0.00  0.00     0.022 A 
ATOM      7  C5  UNL d   1       4.827   5.207   3.723  0.00  0.00     0.026 A 
ATOM      8  C6  UNL d   1       4.731   3.834   4.132  0.00  0.00    -0.082 A 
ATOM      9  C7  UNL d   1       4.140   2.720   3.488  0.00  0.00     0.045 A 
ENDROOT
TORSDOF 0
ENDMDL
