MODEL 1
REMARK minimizedAffinity 7.82332993
REMARK minimizedRMSD -1
REMARK  0 active torsions:
REMARK  status: ('A' for Active; 'I' for Inactive)
ROOT
ATOM      1  C   UNL d   1      -3.262   2.140   3.217  0.00  0.00    -0.002 A 
ATOM      2  C1  UNL d   1      -3.622   1.897   4.535  0.00  0.00     0.010 A 
ATOM      3  C2  UNL d   1      -4.468   2.777   5.214  0.00  0.00     0.041 A 
ATOM      4  C3  UNL d   1      -4.951   3.915   4.539  0.00  0.00    -0.075 A 
ATOM      5  S   UNL d   1      -5.999   5.130   5.169  0.00  0.00     0.015 SA
ATOM      6  C4  UNL d   1      -5.995   6.000   3.703  0.00  0.00     0.022 A 
ATOM      7  C5  UNL d   1      -5.217   5.392   2.746  0.00  0.00     0.026 A 
ATOM      8  C6  UNL d   1      -4.604   4.180   3.211  0.00  0.00    -0.082 A 
ATOM      9  C7  UNL d   1      -3.744   3.270   2.551  0.00  0.00     0.045 A 
ENDROOT
TORSDOF 0
ENDMDL
