MODEL 1
REMARK minimizedAffinity 14.666687
REMARK minimizedRMSD -1
REMARK  0 active torsions:
REMARK  status: ('A' for Active; 'I' for Inactive)
ROOT
ATOM      1  C   UNL d   1      -0.925  -1.183   1.993  0.00  0.00    -0.002 A 
ATOM      2  C1  UNL d   1      -0.623  -2.535   1.910  0.00  0.00     0.010 A 
ATOM      3  C2  UNL d   1      -0.555  -3.173   0.670  0.00  0.00     0.041 A 
ATOM      4  C3  UNL d   1      -0.795  -2.422  -0.497  0.00  0.00    -0.075 A 
ATOM      5  S   UNL d   1      -0.765  -2.991  -2.124  0.00  0.00     0.015 SA
ATOM      6  C4  UNL d   1      -1.150  -1.452  -2.748  0.00  0.00     0.022 A 
ATOM      7  C5  UNL d   1      -1.303  -0.516  -1.753  0.00  0.00     0.026 A 
ATOM      8  C6  UNL d   1      -1.100  -1.059  -0.439  0.00  0.00    -0.082 A 
ATOM      9  C7  UNL d   1      -1.163  -0.441   0.833  0.00  0.00     0.045 A 
ENDROOT
TORSDOF 0
ENDMDL
