MODEL 1
REMARK minimizedAffinity -1.51621699
REMARK minimizedRMSD -1
REMARK  0 active torsions:
REMARK  status: ('A' for Active; 'I' for Inactive)
ROOT
ATOM      1  C   UNL d   1      -3.416   3.050  -5.954  0.00  0.00    -0.002 A 
ATOM      2  C1  UNL d   1      -2.294   3.452  -5.242  0.00  0.00     0.010 A 
ATOM      3  C2  UNL d   1      -2.409   4.364  -4.191  0.00  0.00     0.041 A 
ATOM      4  C3  UNL d   1      -3.683   4.868  -3.862  0.00  0.00    -0.075 A 
ATOM      5  S   UNL d   1      -4.065   5.994  -2.614  0.00  0.00     0.015 SA
ATOM      6  C4  UNL d   1      -5.726   5.966  -2.994  0.00  0.00     0.022 A 
ATOM      7  C5  UNL d   1      -6.000   5.125  -4.046  0.00  0.00     0.026 A 
ATOM      8  C6  UNL d   1      -4.827   4.477  -4.564  0.00  0.00    -0.082 A 
ATOM      9  C7  UNL d   1      -4.678   3.552  -5.625  0.00  0.00     0.045 A 
ENDROOT
TORSDOF 0
ENDMDL
