MODEL 1
REMARK minimizedAffinity 3.29274321
REMARK minimizedRMSD -1
REMARK  0 active torsions:
REMARK  status: ('A' for Active; 'I' for Inactive)
ROOT
ATOM      1  C   UNL d   1      -1.113  -2.327  -1.177  0.00  0.00    -0.002 A 
ATOM      2  C1  UNL d   1      -1.165  -1.251  -2.052  0.00  0.00     0.010 A 
ATOM      3  C2  UNL d   1      -0.806   0.029  -1.626  0.00  0.00     0.041 A 
ATOM      4  C3  UNL d   1      -0.387   0.211  -0.293  0.00  0.00    -0.075 A 
ATOM      5  S   UNL d   1       0.102   1.688   0.450  0.00  0.00     0.015 SA
ATOM      6  C4  UNL d   1       0.392   0.925   1.946  0.00  0.00     0.022 A 
ATOM      7  C5  UNL d   1       0.128  -0.423   1.898  0.00  0.00     0.026 A 
ATOM      8  C6  UNL d   1      -0.325  -0.857   0.606  0.00  0.00    -0.082 A 
ATOM      9  C7  UNL d   1      -0.697  -2.143   0.144  0.00  0.00     0.045 A 
ENDROOT
TORSDOF 0
ENDMDL
