MODEL 1
REMARK minimizedAffinity -4.20668936
REMARK minimizedRMSD -1
REMARK  1 active torsions:
REMARK  status: ('A' for Active; 'I' for Inactive)
REMARK    1  A    between atoms: C1_2  and  C2_3 
ROOT
ATOM      1  C2  UNL d   1      -0.248   1.069   1.361  0.00  0.00    -0.077 A 
ATOM      2  C3  UNL d   1       0.582  -0.031   1.621  0.00  0.00     0.002 A 
ATOM      3  C4  UNL d   1       0.908  -0.927   0.602  0.00  0.00     0.002 A 
ATOM      4  C5  UNL d   1       0.411  -0.731  -0.685  0.00  0.00    -0.004 A 
ATOM      5  C6  UNL d   1      -0.417   0.358  -0.954  0.00  0.00     0.002 A 
ATOM      6  C7  UNL d   1      -0.744   1.254   0.064  0.00  0.00     0.002 A 
ENDROOT
BRANCH   1   7
ATOM      7  C1  UNL d   1      -0.560   2.064   2.448  0.00  0.00     0.055 C 
ATOM      8  C   UNL d   1      -1.757   2.928   2.079  0.00  0.00     0.019 C 
ENDBRANCH   1   7
TORSDOF 1
ENDMDL
