MODEL 1
REMARK minimizedAffinity 2.10140777
REMARK minimizedRMSD -1
REMARK  1 active torsions:
REMARK  status: ('A' for Active; 'I' for Inactive)
REMARK    1  A    between atoms: C1_2  and  C2_3 
ROOT
ATOM      1  C2  UNL d   1       0.115   1.028   1.340  0.00  0.00    -0.077 A 
ATOM      2  C3  UNL d   1       1.084   0.153   1.851  0.00  0.00     0.002 A 
ATOM      3  C4  UNL d   1       1.345  -1.062   1.214  0.00  0.00     0.002 A 
ATOM      4  C5  UNL d   1       0.645  -1.410   0.061  0.00  0.00    -0.004 A 
ATOM      5  C6  UNL d   1      -0.322  -0.548  -0.454  0.00  0.00     0.002 A 
ATOM      6  C7  UNL d   1      -0.586   0.666   0.182  0.00  0.00     0.002 A 
ENDROOT
BRANCH   1   7
ATOM      7  C1  UNL d   1      -0.133   2.360   1.997  0.00  0.00     0.055 C 
ATOM      8  C   UNL d   1       1.165   3.129   2.198  0.00  0.00     0.019 C 
ENDBRANCH   1   7
TORSDOF 1
ENDMDL
