MODEL 1
REMARK minimizedAffinity -4.02315187
REMARK minimizedRMSD -1
REMARK  1 active torsions:
REMARK  status: ('A' for Active; 'I' for Inactive)
REMARK    1  A    between atoms: C1_2  and  C2_3 
ROOT
ATOM      1  C2  UNL d   1       0.040  -0.565   0.081  0.00  0.00    -0.077 A 
ATOM      2  C3  UNL d   1       0.090   0.830  -0.041  0.00  0.00     0.002 A 
ATOM      3  C4  UNL d   1      -0.170   1.645   1.063  0.00  0.00     0.002 A 
ATOM      4  C5  UNL d   1      -0.476   1.074   2.296  0.00  0.00    -0.004 A 
ATOM      5  C6  UNL d   1      -0.529  -0.313   2.427  0.00  0.00     0.002 A 
ATOM      6  C7  UNL d   1      -0.272  -1.129   1.325  0.00  0.00     0.002 A 
ENDROOT
BRANCH   1   7
ATOM      7  C1  UNL d   1       0.368  -1.447  -1.096  0.00  0.00     0.055 C 
ATOM      8  C   UNL d   1      -0.685  -2.529  -1.288  0.00  0.00     0.019 C 
ENDBRANCH   1   7
TORSDOF 1
ENDMDL
