MODEL 1
REMARK minimizedAffinity 0.427396894
REMARK minimizedRMSD -1
REMARK  1 active torsions:
REMARK  status: ('A' for Active; 'I' for Inactive)
REMARK    1  A    between atoms: C1_2  and  C2_3 
ROOT
ATOM      1  C2  UNL d   1      -0.386  -2.032  -0.161  0.00  0.00    -0.077 A 
ATOM      2  C3  UNL d   1       0.762  -1.362  -0.606  0.00  0.00     0.002 A 
ATOM      3  C4  UNL d   1       1.002  -0.041  -0.225  0.00  0.00     0.002 A 
ATOM      4  C5  UNL d   1       0.101   0.621   0.606  0.00  0.00    -0.004 A 
ATOM      5  C6  UNL d   1      -1.045  -0.036   1.053  0.00  0.00     0.002 A 
ATOM      6  C7  UNL d   1      -1.287  -1.356   0.672  0.00  0.00     0.002 A 
ENDROOT
BRANCH   1   7
ATOM      7  C1  UNL d   1      -0.622  -3.473  -0.531  0.00  0.00     0.055 C 
ATOM      8  C   UNL d   1       0.683  -4.177  -0.873  0.00  0.00     0.019 C 
ENDBRANCH   1   7
TORSDOF 1
ENDMDL
