MODEL 1
REMARK minimizedAffinity -3.90746379
REMARK minimizedRMSD -1
REMARK  1 active torsions:
REMARK  status: ('A' for Active; 'I' for Inactive)
REMARK    1  A    between atoms: C1_2  and  C2_3 
ROOT
ATOM      1  C2  UNL d   1      -0.304  -1.683  -1.113  0.00  0.00    -0.077 A 
ATOM      2  C3  UNL d   1      -1.228  -1.987  -2.123  0.00  0.00     0.002 A 
ATOM      3  C4  UNL d   1      -1.613  -3.309  -2.352  0.00  0.00     0.002 A 
ATOM      4  C5  UNL d   1      -1.084  -4.336  -1.573  0.00  0.00    -0.004 A 
ATOM      5  C6  UNL d   1      -0.164  -4.044  -0.568  0.00  0.00     0.002 A 
ATOM      6  C7  UNL d   1       0.224  -2.723  -0.338  0.00  0.00     0.002 A 
ENDROOT
BRANCH   1   7
ATOM      7  C1  UNL d   1       0.076  -0.252  -0.831  0.00  0.00     0.055 C 
ATOM      8  C   UNL d   1       0.295  -0.020   0.657  0.00  0.00     0.019 C 
ENDBRANCH   1   7
TORSDOF 1
ENDMDL
