MODEL 1
REMARK minimizedAffinity 3.07420492
REMARK minimizedRMSD -1
REMARK  1 active torsions:
REMARK  status: ('A' for Active; 'I' for Inactive)
REMARK    1  A    between atoms: C1_2  and  C2_3 
ROOT
ATOM      1  C2  UNL d   1       0.161   0.611   0.283  0.00  0.00    -0.077 A 
ATOM      2  C3  UNL d   1       0.720  -0.666   0.434  0.00  0.00     0.002 A 
ATOM      3  C4  UNL d   1       1.092  -1.129   1.697  0.00  0.00     0.002 A 
ATOM      4  C5  UNL d   1       0.905  -0.324   2.819  0.00  0.00    -0.004 A 
ATOM      5  C6  UNL d   1       0.352   0.948   2.679  0.00  0.00     0.002 A 
ATOM      6  C7  UNL d   1      -0.020   1.413   1.417  0.00  0.00     0.002 A 
ENDROOT
BRANCH   1   7
ATOM      7  C1  UNL d   1      -0.286   1.093  -1.072  0.00  0.00     0.055 C 
ATOM      8  C   UNL d   1      -1.618   0.472  -1.469  0.00  0.00     0.019 C 
ENDBRANCH   1   7
TORSDOF 1
ENDMDL
