MODEL 1
REMARK minimizedAffinity 5.66348028
REMARK minimizedRMSD -1
REMARK  1 active torsions:
REMARK  status: ('A' for Active; 'I' for Inactive)
REMARK    1  A    between atoms: C1_2  and  C2_3 
ROOT
ATOM      1  C2  UNL d   1       0.451   3.183   2.081  0.00  0.00    -0.077 A 
ATOM      2  C3  UNL d   1       0.845   1.961   1.518  0.00  0.00     0.002 A 
ATOM      3  C4  UNL d   1      -0.112   1.047   1.073  0.00  0.00     0.002 A 
ATOM      4  C5  UNL d   1      -1.468   1.347   1.183  0.00  0.00    -0.004 A 
ATOM      5  C6  UNL d   1      -1.870   2.558   1.743  0.00  0.00     0.002 A 
ATOM      6  C7  UNL d   1      -0.915   3.473   2.189  0.00  0.00     0.002 A 
ENDROOT
BRANCH   1   7
ATOM      7  C1  UNL d   1       1.482   4.191   2.516  0.00  0.00     0.055 C 
ATOM      8  C   UNL d   1       1.806   5.170   1.397  0.00  0.00     0.019 C 
ENDBRANCH   1   7
TORSDOF 1
ENDMDL
