MODEL 1
REMARK minimizedAffinity 1.39179575
REMARK minimizedRMSD -1
REMARK  0 active torsions:
REMARK  status: ('A' for Active; 'I' for Inactive)
ROOT
ATOM      1  C   UNL d   1      -5.642   4.054  -1.868  0.00  0.00     0.023 A 
ATOM      2  C1  UNL d   1      -5.882   3.233  -0.766  0.00  0.00     0.003 A 
ATOM      3  C2  UNL d   1      -5.983   3.788   0.511  0.00  0.00     0.048 A 
ATOM      4  C3  UNL d   1      -5.846   5.165   0.679  0.00  0.00     0.023 A 
ATOM      5  C4  UNL d   1      -5.607   5.991  -0.421  0.00  0.00     0.048 A 
ATOM      6  C5  UNL d   1      -5.504   5.431  -1.696  0.00  0.00     0.003 A 
ATOM      7  I   UNL d   1      -5.997   5.995   2.579  0.00  0.00    -0.146 I 
ENDROOT
TORSDOF 0
ENDMDL
