MODEL 1
REMARK minimizedAffinity 8.14492321
REMARK minimizedRMSD -1
REMARK  0 active torsions:
REMARK  status: ('A' for Active; 'I' for Inactive)
ROOT
ATOM      1  C   UNL d   1      -2.242   1.414   2.380  0.00  0.00     0.023 A 
ATOM      2  C1  UNL d   1      -1.425   0.424   2.925  0.00  0.00     0.003 A 
ATOM      3  C2  UNL d   1      -0.936  -0.604   2.116  0.00  0.00     0.048 A 
ATOM      4  C3  UNL d   1      -1.268  -0.634   0.762  0.00  0.00     0.023 A 
ATOM      5  C4  UNL d   1      -2.084   0.355   0.212  0.00  0.00     0.048 A 
ATOM      6  C5  UNL d   1      -2.571   1.380   1.025  0.00  0.00     0.003 A 
ATOM      7  I   UNL d   1      -0.541  -2.162  -0.445  0.00  0.00    -0.146 I 
ENDROOT
TORSDOF 0
ENDMDL
