MODEL 1
REMARK minimizedAffinity 3.32413864
REMARK minimizedRMSD -1
REMARK  0 active torsions:
REMARK  status: ('A' for Active; 'I' for Inactive)
ROOT
ATOM      1  C   UNL d   1      -5.928   6.000   0.347  0.00  0.00     0.023 A 
ATOM      2  C1  UNL d   1      -6.000   4.870   1.162  0.00  0.00     0.003 A 
ATOM      3  C2  UNL d   1      -5.854   3.597   0.607  0.00  0.00     0.048 A 
ATOM      4  C3  UNL d   1      -5.636   3.461  -0.764  0.00  0.00     0.023 A 
ATOM      5  C4  UNL d   1      -5.563   4.589  -1.583  0.00  0.00     0.048 A 
ATOM      6  C5  UNL d   1      -5.710   5.860  -1.023  0.00  0.00     0.003 A 
ATOM      7  I   UNL d   1      -5.419   1.568  -1.592  0.00  0.00    -0.146 I 
ENDROOT
TORSDOF 0
ENDMDL
