MODEL 1
REMARK minimizedAffinity 6.11410809
REMARK minimizedRMSD -1
REMARK  0 active torsions:
REMARK  status: ('A' for Active; 'I' for Inactive)
ROOT
ATOM      1  C   UNL d   1      -0.427   0.741   3.040  0.00  0.00     0.023 A 
ATOM      2  C1  UNL d   1      -0.311  -0.095   1.930  0.00  0.00     0.003 A 
ATOM      3  C2  UNL d   1      -1.257  -0.031   0.905  0.00  0.00     0.048 A 
ATOM      4  C3  UNL d   1      -2.316   0.872   0.996  0.00  0.00     0.023 A 
ATOM      5  C4  UNL d   1      -2.435   1.711   2.105  0.00  0.00     0.048 A 
ATOM      6  C5  UNL d   1      -1.487   1.643   3.128  0.00  0.00     0.003 A 
ATOM      7  I   UNL d   1      -3.725   0.969  -0.529  0.00  0.00    -0.146 I 
ENDROOT
TORSDOF 0
ENDMDL
