MODEL 1
REMARK minimizedAffinity 5.27628088
REMARK minimizedRMSD -1
REMARK  0 active torsions:
REMARK  status: ('A' for Active; 'I' for Inactive)
ROOT
ATOM      1  C   UNL d   1      -2.732  -0.450   3.001  0.00  0.00     0.023 A 
ATOM      2  C1  UNL d   1      -3.160  -1.703   2.561  0.00  0.00     0.003 A 
ATOM      3  C2  UNL d   1      -2.711  -2.206   1.338  0.00  0.00     0.048 A 
ATOM      4  C3  UNL d   1      -1.833  -1.452   0.561  0.00  0.00     0.023 A 
ATOM      5  C4  UNL d   1      -1.402  -0.198   0.997  0.00  0.00     0.048 A 
ATOM      6  C5  UNL d   1      -1.854   0.301   2.220  0.00  0.00     0.003 A 
ATOM      7  I   UNL d   1      -1.164  -2.199  -1.260  0.00  0.00    -0.146 I 
ENDROOT
TORSDOF 0
ENDMDL
