MODEL 1
REMARK minimizedAffinity 3.93840933
REMARK minimizedRMSD -1
REMARK  0 active torsions:
REMARK  status: ('A' for Active; 'I' for Inactive)
ROOT
ATOM      1  C   UNL d   1      -2.346   0.301   2.432  0.00  0.00     0.023 A 
ATOM      2  C1  UNL d   1      -1.723   0.581   1.216  0.00  0.00     0.003 A 
ATOM      3  C2  UNL d   1      -0.345   0.404   1.079  0.00  0.00     0.048 A 
ATOM      4  C3  UNL d   1       0.405  -0.054   2.162  0.00  0.00     0.023 A 
ATOM      5  C4  UNL d   1      -0.214  -0.335   3.381  0.00  0.00     0.048 A 
ATOM      6  C5  UNL d   1      -1.592  -0.156   3.514  0.00  0.00     0.003 A 
ATOM      7  I   UNL d   1       2.456  -0.318   1.960  0.00  0.00    -0.146 I 
ENDROOT
TORSDOF 0
ENDMDL
