MODEL 1
REMARK minimizedAffinity 3.10742331
REMARK minimizedRMSD -1
REMARK  0 active torsions:
REMARK  status: ('A' for Active; 'I' for Inactive)
ROOT
ATOM      1  C   UNL d   1      -1.039   0.784   2.503  0.00  0.00     0.023 A 
ATOM      2  C1  UNL d   1      -1.735   1.932   2.123  0.00  0.00     0.003 A 
ATOM      3  C2  UNL d   1      -2.680   1.869   1.097  0.00  0.00     0.048 A 
ATOM      4  C3  UNL d   1      -2.926   0.655   0.457  0.00  0.00     0.023 A 
ATOM      5  C4  UNL d   1      -2.233  -0.496   0.835  0.00  0.00     0.048 A 
ATOM      6  C5  UNL d   1      -1.288  -0.428   1.860  0.00  0.00     0.003 A 
ATOM      7  I   UNL d   1      -4.333   0.559  -1.070  0.00  0.00    -0.146 I 
ENDROOT
TORSDOF 0
ENDMDL
