MODEL 1
REMARK minimizedAffinity 13.2115412
REMARK minimizedRMSD -1
REMARK  0 active torsions:
REMARK  status: ('A' for Active; 'I' for Inactive)
ROOT
ATOM      1  C   UNL d   1       3.846  -0.104   0.382  0.00  0.00     0.023 A 
ATOM      2  C1  UNL d   1       2.911   0.834  -0.057  0.00  0.00     0.003 A 
ATOM      3  C2  UNL d   1       1.595   0.781   0.409  0.00  0.00     0.048 A 
ATOM      4  C3  UNL d   1       1.222  -0.211   1.314  0.00  0.00     0.023 A 
ATOM      5  C4  UNL d   1       2.154  -1.151   1.757  0.00  0.00     0.048 A 
ATOM      6  C5  UNL d   1       3.468  -1.095   1.287  0.00  0.00     0.003 A 
ATOM      7  I   UNL d   1      -0.735  -0.292   2.010  0.00  0.00    -0.146 I 
ENDROOT
TORSDOF 0
ENDMDL
