MODEL 1
REMARK minimizedAffinity 1.22723889
REMARK minimizedRMSD -1
REMARK  0 active torsions:
REMARK  status: ('A' for Active; 'I' for Inactive)
ROOT
ATOM      1  C   UNL d   1       2.274  -0.672   2.790  0.00  0.00     0.023 A 
ATOM      2  C1  UNL d   1       1.282  -0.464   3.749  0.00  0.00     0.003 A 
ATOM      3  C2  UNL d   1       0.011  -0.037   3.360  0.00  0.00     0.048 A 
ATOM      4  C3  UNL d   1      -0.262   0.180   2.010  0.00  0.00     0.023 A 
ATOM      5  C4  UNL d   1       0.727  -0.028   1.047  0.00  0.00     0.048 A 
ATOM      6  C5  UNL d   1       1.996  -0.455   1.441  0.00  0.00     0.003 A 
ATOM      7  I   UNL d   1      -2.153   0.816   1.428  0.00  0.00    -0.146 I 
ENDROOT
TORSDOF 0
ENDMDL
