MODEL 1
REMARK minimizedAffinity 16.0465927
REMARK minimizedRMSD -1
REMARK  1 active torsions:
REMARK  status: ('A' for Active; 'I' for Inactive)
REMARK    1  A    between atoms: C1_2  and  C2_3 
ROOT
ATOM      1  C2  UNL d   1      -4.741   2.781  -1.173  0.00  0.00    -0.073 A 
ATOM      2  C3  UNL d   1      -4.509   1.887  -2.225  0.00  0.00    -0.002 A 
ATOM      3  C4  UNL d   1      -3.345   1.117  -2.252  0.00  0.00     0.004 A 
ATOM      4  C5  UNL d   1      -2.406   1.229  -1.227  0.00  0.00    -0.004 A 
ATOM      5  C6  UNL d   1      -2.625   2.108  -0.161  0.00  0.00    -0.075 A 
ATOM      6  C7  UNL d   1      -1.624   2.241   0.948  0.00  0.00     0.076 C 
ATOM      7  C8  UNL d   1      -3.795   2.879  -0.143  0.00  0.00     0.001 A 
ENDROOT
BRANCH   1   8
ATOM      8  C1  UNL d   1      -6.000   3.609  -1.136  0.00  0.00     0.053 C 
ATOM      9  C   UNL d   1      -5.994   4.602   0.015  0.00  0.00     0.018 C 
ENDBRANCH   1   8
TORSDOF 1
ENDMDL
