MODEL 1
REMARK minimizedAffinity 15.7936525
REMARK minimizedRMSD -1
REMARK  1 active torsions:
REMARK  status: ('A' for Active; 'I' for Inactive)
REMARK    1  A    between atoms: C1_2  and  C2_3 
ROOT
ATOM      1  C2  UNL d   1      -3.101   0.824  -2.369  0.00  0.00    -0.073 A 
ATOM      2  C3  UNL d   1      -3.167   2.222  -2.344  0.00  0.00    -0.002 A 
ATOM      3  C4  UNL d   1      -2.687   2.930  -1.241  0.00  0.00     0.004 A 
ATOM      4  C5  UNL d   1      -2.132   2.250  -0.157  0.00  0.00    -0.004 A 
ATOM      5  C6  UNL d   1      -2.047   0.854  -0.169  0.00  0.00    -0.075 A 
ATOM      6  C7  UNL d   1      -1.454   0.107   0.989  0.00  0.00     0.076 C 
ATOM      7  C8  UNL d   1      -2.533   0.150  -1.279  0.00  0.00     0.001 A 
ENDROOT
BRANCH   1   8
ATOM      8  C1  UNL d   1      -3.612   0.056  -3.561  0.00  0.00     0.053 C 
ATOM      9  C   UNL d   1      -4.411  -1.170  -3.148  0.00  0.00     0.018 C 
ENDBRANCH   1   8
TORSDOF 1
ENDMDL
