MODEL 1
REMARK minimizedAffinity 8.05736256
REMARK minimizedRMSD -1
REMARK  1 active torsions:
REMARK  status: ('A' for Active; 'I' for Inactive)
REMARK    1  A    between atoms: C1_2  and  C2_3 
ROOT
ATOM      1  C2  UNL d   1       1.882  -2.328   2.480  0.00  0.00    -0.073 A 
ATOM      2  C3  UNL d   1       0.695  -1.727   2.911  0.00  0.00    -0.002 A 
ATOM      3  C4  UNL d   1       0.434  -0.389   2.613  0.00  0.00     0.004 A 
ATOM      4  C5  UNL d   1       1.352   0.358   1.874  0.00  0.00    -0.004 A 
ATOM      5  C6  UNL d   1       2.538  -0.229   1.424  0.00  0.00    -0.075 A 
ATOM      6  C7  UNL d   1       3.537   0.562   0.631  0.00  0.00     0.076 C 
ATOM      7  C8  UNL d   1       2.795  -1.572   1.730  0.00  0.00     0.001 A 
ENDROOT
BRANCH   1   8
ATOM      8  C1  UNL d   1       2.166  -3.774   2.794  0.00  0.00     0.053 C 
ATOM      9  C   UNL d   1       1.678  -4.703   1.694  0.00  0.00     0.018 C 
ENDBRANCH   1   8
TORSDOF 1
ENDMDL
