MODEL 1
REMARK minimizedAffinity 12.5754251
REMARK minimizedRMSD -1
REMARK  1 active torsions:
REMARK  status: ('A' for Active; 'I' for Inactive)
REMARK    1  A    between atoms: C1_2  and  C2_3 
ROOT
ATOM      1  C2  UNL d   1      -3.072   1.221  -1.130  0.00  0.00    -0.073 A 
ATOM      2  C3  UNL d   1      -3.090  -0.160  -1.358  0.00  0.00    -0.002 A 
ATOM      3  C4  UNL d   1      -3.800  -0.686  -2.438  0.00  0.00     0.004 A 
ATOM      4  C5  UNL d   1      -4.492   0.161  -3.303  0.00  0.00    -0.004 A 
ATOM      5  C6  UNL d   1      -4.476   1.544  -3.099  0.00  0.00    -0.075 A 
ATOM      6  C7  UNL d   1      -5.218   2.469  -4.019  0.00  0.00     0.076 C 
ATOM      7  C8  UNL d   1      -3.763   2.065  -2.010  0.00  0.00     0.001 A 
ENDROOT
BRANCH   1   8
ATOM      8  C1  UNL d   1      -2.301   1.794   0.031  0.00  0.00     0.053 C 
ATOM      9  C   UNL d   1      -3.172   2.671   0.916  0.00  0.00     0.018 C 
ENDBRANCH   1   8
TORSDOF 1
ENDMDL
