MODEL 1
REMARK minimizedAffinity 13.3143864
REMARK minimizedRMSD -1
REMARK  1 active torsions:
REMARK  status: ('A' for Active; 'I' for Inactive)
REMARK    1  A    between atoms: C1_2  and  C2_3 
ROOT
ATOM      1  C2  UNL d   1       1.747  -1.891   0.091  0.00  0.00    -0.073 A 
ATOM      2  C3  UNL d   1       1.175  -2.414   1.256  0.00  0.00    -0.002 A 
ATOM      3  C4  UNL d   1       1.263  -1.714   2.460  0.00  0.00     0.004 A 
ATOM      4  C5  UNL d   1       1.917  -0.483   2.510  0.00  0.00    -0.004 A 
ATOM      5  C6  UNL d   1       2.484   0.062   1.354  0.00  0.00    -0.075 A 
ATOM      6  C7  UNL d   1       3.193   1.384   1.391  0.00  0.00     0.076 C 
ATOM      7  C8  UNL d   1       2.394  -0.648   0.149  0.00  0.00     0.001 A 
ENDROOT
BRANCH   1   8
ATOM      8  C1  UNL d   1       1.648  -2.640  -1.213  0.00  0.00     0.053 C 
ATOM      9  C   UNL d   1       0.938  -3.975  -1.051  0.00  0.00     0.018 C 
ENDBRANCH   1   8
TORSDOF 1
ENDMDL
