MODEL 1
REMARK minimizedAffinity 8.64941597
REMARK minimizedRMSD -1
REMARK  1 active torsions:
REMARK  status: ('A' for Active; 'I' for Inactive)
REMARK    1  A    between atoms: C1_2  and  C2_3 
ROOT
ATOM      1  C2  UNL d   1       3.346  -1.649   1.510  0.00  0.00    -0.073 A 
ATOM      2  C3  UNL d   1       2.490  -0.896   0.699  0.00  0.00    -0.002 A 
ATOM      3  C4  UNL d   1       1.161  -0.694   1.074  0.00  0.00     0.004 A 
ATOM      4  C5  UNL d   1       0.677  -1.237   2.264  0.00  0.00    -0.004 A 
ATOM      5  C6  UNL d   1       1.520  -1.983   3.094  0.00  0.00    -0.075 A 
ATOM      6  C7  UNL d   1       1.014  -2.575   4.376  0.00  0.00     0.076 C 
ATOM      7  C8  UNL d   1       2.853  -2.183   2.709  0.00  0.00     0.001 A 
ENDROOT
BRANCH   1   8
ATOM      8  C1  UNL d   1       4.784  -1.864   1.113  0.00  0.00     0.053 C 
ATOM      9  C   UNL d   1       5.633  -2.340   2.282  0.00  0.00     0.018 C 
ENDBRANCH   1   8
TORSDOF 1
ENDMDL
