MODEL 1
REMARK minimizedAffinity 7.86533546
REMARK minimizedRMSD -1
REMARK  1 active torsions:
REMARK  status: ('A' for Active; 'I' for Inactive)
REMARK    1  A    between atoms: C1_2  and  C2_3 
ROOT
ATOM      1  C2  UNL d   1       0.941  -2.730   3.996  0.00  0.00    -0.073 A 
ATOM      2  C3  UNL d   1       0.613  -1.524   4.626  0.00  0.00    -0.002 A 
ATOM      3  C4  UNL d   1       0.811  -0.309   3.969  0.00  0.00     0.004 A 
ATOM      4  C5  UNL d   1       1.332  -0.288   2.675  0.00  0.00    -0.004 A 
ATOM      5  C6  UNL d   1       1.655  -1.483   2.025  0.00  0.00    -0.075 A 
ATOM      6  C7  UNL d   1       2.218  -1.477   0.634  0.00  0.00     0.076 C 
ATOM      7  C8  UNL d   1       1.455  -2.699   2.692  0.00  0.00     0.001 A 
ENDROOT
BRANCH   1   8
ATOM      8  C1  UNL d   1       0.722  -4.045   4.699  0.00  0.00     0.053 C 
ATOM      9  C   UNL d   1       1.717  -4.260   5.829  0.00  0.00     0.018 C 
ENDBRANCH   1   8
TORSDOF 1
ENDMDL
