MODEL 1
REMARK minimizedAffinity 1.28448176
REMARK minimizedRMSD -1
REMARK  0 active torsions:
REMARK  status: ('A' for Active; 'I' for Inactive)
ROOT
ATOM      1  C   UNL d   1       0.166   0.277  -1.521  0.00  0.00     0.078 C 
ATOM      2  C1  UNL d   1       0.434   0.399  -0.051  0.00  0.00    -0.077 A 
ATOM      3  C2  UNL d   1       0.682   1.646   0.536  0.00  0.00    -0.001 A 
ATOM      4  C3  UNL d   1       0.940   1.743   1.904  0.00  0.00     0.003 A 
ATOM      5  C4  UNL d   1       0.954   0.597   2.697  0.00  0.00    -0.005 A 
ATOM      6  C5  UNL d   1       0.711  -0.648   2.121  0.00  0.00     0.003 A 
ATOM      7  C6  UNL d   1       0.453  -0.748   0.753  0.00  0.00    -0.001 A 
ENDROOT
TORSDOF 0
ENDMDL
