MODEL 1
REMARK minimizedAffinity 2.28555107
REMARK minimizedRMSD -1
REMARK  0 active torsions:
REMARK  status: ('A' for Active; 'I' for Inactive)
ROOT
ATOM      1  C   UNL d   1      -5.906   0.919  -0.814  0.00  0.00     0.078 C 
ATOM      2  C1  UNL d   1      -5.259   2.169  -1.333  0.00  0.00    -0.077 A 
ATOM      3  C2  UNL d   1      -6.000   3.124  -2.039  0.00  0.00    -0.001 A 
ATOM      4  C3  UNL d   1      -5.383   4.278  -2.525  0.00  0.00     0.003 A 
ATOM      5  C4  UNL d   1      -4.022   4.487  -2.310  0.00  0.00    -0.005 A 
ATOM      6  C5  UNL d   1      -3.276   3.541  -1.610  0.00  0.00     0.003 A 
ATOM      7  C6  UNL d   1      -3.891   2.386  -1.124  0.00  0.00    -0.001 A 
ENDROOT
TORSDOF 0
ENDMDL
