MODEL 1
REMARK minimizedAffinity 2.16369629
REMARK minimizedRMSD -1
REMARK  0 active torsions:
REMARK  status: ('A' for Active; 'I' for Inactive)
ROOT
ATOM      1  C   UNL d   1       1.864   4.116   2.641  0.00  0.00     0.078 C 
ATOM      2  C1  UNL d   1       1.049   2.945   2.179  0.00  0.00    -0.077 A 
ATOM      3  C2  UNL d   1       0.869   1.824   2.998  0.00  0.00    -0.001 A 
ATOM      4  C3  UNL d   1       0.116   0.737   2.551  0.00  0.00     0.003 A 
ATOM      5  C4  UNL d   1      -0.462   0.760   1.283  0.00  0.00    -0.005 A 
ATOM      6  C5  UNL d   1      -0.287   1.871   0.460  0.00  0.00     0.003 A 
ATOM      7  C6  UNL d   1       0.466   2.958   0.906  0.00  0.00    -0.001 A 
ENDROOT
TORSDOF 0
ENDMDL
