MODEL 1
REMARK minimizedAffinity 1.83027172
REMARK minimizedRMSD -1
REMARK  0 active torsions:
REMARK  status: ('A' for Active; 'I' for Inactive)
ROOT
ATOM      1  C   UNL d   1       3.584  -0.929   2.614  0.00  0.00     0.078 C 
ATOM      2  C1  UNL d   1       2.221  -0.808   2.001  0.00  0.00    -0.077 A 
ATOM      3  C2  UNL d   1       2.063  -0.659   0.617  0.00  0.00    -0.001 A 
ATOM      4  C3  UNL d   1       0.789  -0.537   0.061  0.00  0.00     0.003 A 
ATOM      5  C4  UNL d   1      -0.338  -0.562   0.881  0.00  0.00    -0.005 A 
ATOM      6  C5  UNL d   1      -0.191  -0.708   2.259  0.00  0.00     0.003 A 
ATOM      7  C6  UNL d   1       1.083  -0.829   2.817  0.00  0.00    -0.001 A 
ENDROOT
TORSDOF 0
ENDMDL
