MODEL 1
REMARK minimizedAffinity 2.67537689
REMARK minimizedRMSD -1
REMARK  0 active torsions:
REMARK  status: ('A' for Active; 'I' for Inactive)
ROOT
ATOM      1  C   UNL d   1      -5.999  -0.351   1.518  0.00  0.00     0.078 C 
ATOM      2  C1  UNL d   1      -5.989  -1.229   2.734  0.00  0.00    -0.077 A 
ATOM      3  C2  UNL d   1      -5.998  -2.625   2.616  0.00  0.00    -0.001 A 
ATOM      4  C3  UNL d   1      -5.999  -3.430   3.756  0.00  0.00     0.003 A 
ATOM      5  C4  UNL d   1      -5.992  -2.849   5.023  0.00  0.00    -0.005 A 
ATOM      6  C5  UNL d   1      -5.985  -1.461   5.150  0.00  0.00     0.003 A 
ATOM      7  C6  UNL d   1      -5.984  -0.655   4.011  0.00  0.00    -0.001 A 
ENDROOT
TORSDOF 0
ENDMDL
