MODEL 1
REMARK minimizedAffinity 3.61416936
REMARK minimizedRMSD -1
REMARK  0 active torsions:
REMARK  status: ('A' for Active; 'I' for Inactive)
ROOT
ATOM      1  C   UNL d   1      -5.972  -2.671   1.824  0.00  0.00     0.078 C 
ATOM      2  C1  UNL d   1      -5.932  -2.301   3.277  0.00  0.00    -0.077 A 
ATOM      3  C2  UNL d   1      -5.813  -0.965   3.678  0.00  0.00    -0.001 A 
ATOM      4  C3  UNL d   1      -5.767  -0.636   5.034  0.00  0.00     0.003 A 
ATOM      5  C4  UNL d   1      -5.837  -1.638   5.999  0.00  0.00    -0.005 A 
ATOM      6  C5  UNL d   1      -5.953  -2.971   5.610  0.00  0.00     0.003 A 
ATOM      7  C6  UNL d   1      -5.999  -3.302   4.254  0.00  0.00    -0.001 A 
ENDROOT
TORSDOF 0
ENDMDL
