MODEL 1
REMARK minimizedAffinity 4.71039248
REMARK minimizedRMSD -1
REMARK  0 active torsions:
REMARK  status: ('A' for Active; 'I' for Inactive)
ROOT
ATOM      1  C   UNL d   1      -0.213   0.690   2.641  0.00  0.00     0.078 C 
ATOM      2  C1  UNL d   1       0.509   1.987   2.426  0.00  0.00    -0.077 A 
ATOM      3  C2  UNL d   1       0.105   2.880   1.427  0.00  0.00    -0.001 A 
ATOM      4  C3  UNL d   1       0.792   4.079   1.231  0.00  0.00     0.003 A 
ATOM      5  C4  UNL d   1       1.889   4.395   2.031  0.00  0.00    -0.005 A 
ATOM      6  C5  UNL d   1       2.300   3.511   3.027  0.00  0.00     0.003 A 
ATOM      7  C6  UNL d   1       1.614   2.312   3.223  0.00  0.00    -0.001 A 
ENDROOT
TORSDOF 0
ENDMDL
