MODEL 1
REMARK minimizedAffinity 5.04445314
REMARK minimizedRMSD -1
REMARK  0 active torsions:
REMARK  status: ('A' for Active; 'I' for Inactive)
ROOT
ATOM      1  C   UNL d   1       0.323   0.776   3.342  0.00  0.00     0.078 C 
ATOM      2  C1  UNL d   1       0.882   2.105   2.929  0.00  0.00    -0.077 A 
ATOM      3  C2  UNL d   1       0.456   2.733   1.753  0.00  0.00    -0.001 A 
ATOM      4  C3  UNL d   1       0.992   3.965   1.375  0.00  0.00     0.003 A 
ATOM      5  C4  UNL d   1       1.959   4.579   2.169  0.00  0.00    -0.005 A 
ATOM      6  C5  UNL d   1       2.391   3.961   3.340  0.00  0.00     0.003 A 
ATOM      7  C6  UNL d   1       1.856   2.729   3.719  0.00  0.00    -0.001 A 
ENDROOT
TORSDOF 0
ENDMDL
