MODEL 1
REMARK minimizedAffinity 5.03540897
REMARK minimizedRMSD -1
REMARK  0 active torsions:
REMARK  status: ('A' for Active; 'I' for Inactive)
ROOT
ATOM      1  C   UNL d   1      -0.531   0.453  -1.592  0.00  0.00     0.078 C 
ATOM      2  C1  UNL d   1       0.081   0.171  -0.252  0.00  0.00    -0.077 A 
ATOM      3  C2  UNL d   1       0.728  -1.044   0.003  0.00  0.00    -0.001 A 
ATOM      4  C3  UNL d   1       1.284  -1.298   1.258  0.00  0.00     0.003 A 
ATOM      5  C4  UNL d   1       1.198  -0.341   2.267  0.00  0.00    -0.005 A 
ATOM      6  C5  UNL d   1       0.554   0.870   2.023  0.00  0.00     0.003 A 
ATOM      7  C6  UNL d   1      -0.003   1.125   0.769  0.00  0.00    -0.001 A 
ENDROOT
TORSDOF 0
ENDMDL
