MODEL 1
REMARK minimizedAffinity -6.33888912
REMARK minimizedRMSD -1
REMARK  0 active torsions:
REMARK  status: ('A' for Active; 'I' for Inactive)
ROOT
ATOM      1  C1  DEN d   1      -1.293   0.070   0.996  0.00  0.00     0.130 A 
ATOM      2  C2  DEN d   1      -1.131   0.322  -0.433  0.00  0.00    -0.031 A 
ATOM      3  C3  DEN d   1       0.254  -0.032  -0.805  0.00  0.00     0.027 A 
ATOM      4  C4  DEN d   1       2.151  -0.945   0.685  0.00  0.00     0.027 A 
ATOM      5  C5  DEN d   1       2.493  -1.312   1.968  0.00  0.00    -0.003 A 
ATOM      6  C6  DEN d   1       1.615  -1.213   3.015  0.00  0.00     0.001 A 
ATOM      7  C7  DEN d   1       0.335  -0.777   2.789  0.00  0.00     0.017 A 
ATOM      8  C8  DEN d   1      -0.014  -0.399   1.499  0.00  0.00    -0.094 A 
ATOM      9  C9  DEN d   1       0.884  -0.518   0.452  0.00  0.00    -0.072 A 
ENDROOT
TORSDOF 0
ENDMDL
