MODEL 1
REMARK minimizedAffinity -6.72130442
REMARK minimizedRMSD -1
REMARK  0 active torsions:
REMARK  status: ('A' for Active; 'I' for Inactive)
ROOT
ATOM      1  C1  DEN d   1      -0.711  -0.006   0.226  0.00  0.00     0.130 A 
ATOM      2  C2  DEN d   1      -0.256   0.090  -1.158  0.00  0.00    -0.031 A 
ATOM      3  C3  DEN d   1       1.152  -0.353  -1.208  0.00  0.00     0.027 A 
ATOM      4  C4  DEN d   1       2.662  -1.176   0.714  0.00  0.00     0.027 A 
ATOM      5  C5  DEN d   1       2.723  -1.420   2.068  0.00  0.00    -0.003 A 
ATOM      6  C6  DEN d   1       1.664  -1.179   2.902  0.00  0.00     0.001 A 
ATOM      7  C7  DEN d   1       0.481  -0.722   2.382  0.00  0.00     0.017 A 
ATOM      8  C8  DEN d   1       0.415  -0.467   1.019  0.00  0.00    -0.094 A 
ATOM      9  C9  DEN d   1       1.493  -0.728   0.191  0.00  0.00    -0.072 A 
ENDROOT
TORSDOF 0
ENDMDL
