MODEL 1
REMARK minimizedAffinity -5.1961484
REMARK minimizedRMSD -1
REMARK  0 active torsions:
REMARK  status: ('A' for Active; 'I' for Inactive)
ROOT
ATOM      1  C1  DEN d   1      -0.448   0.550   0.003  0.00  0.00     0.130 A 
ATOM      2  C2  DEN d   1      -0.197   0.203  -1.393  0.00  0.00    -0.031 A 
ATOM      3  C3  DEN d   1       0.850  -0.838  -1.424  0.00  0.00     0.027 A 
ATOM      4  C4  DEN d   1       2.099  -1.942   0.544  0.00  0.00     0.027 A 
ATOM      5  C5  DEN d   1       2.236  -1.966   1.915  0.00  0.00    -0.003 A 
ATOM      6  C6  DEN d   1       1.519  -1.136   2.735  0.00  0.00     0.001 A 
ATOM      7  C7  DEN d   1       0.599  -0.277   2.195  0.00  0.00     0.017 A 
ATOM      8  C8  DEN d   1       0.460  -0.242   0.814  0.00  0.00    -0.094 A 
ATOM      9  C9  DEN d   1       1.185  -1.098   0.002  0.00  0.00    -0.072 A 
ENDROOT
TORSDOF 0
ENDMDL
