MODEL 1
REMARK minimizedAffinity -6.13878155
REMARK minimizedRMSD -1
REMARK  0 active torsions:
REMARK  status: ('A' for Active; 'I' for Inactive)
ROOT
ATOM      1  C1  DEN d   1       0.155  -0.071  -0.834  0.00  0.00     0.130 A 
ATOM      2  C2  DEN d   1      -1.119   0.469  -0.367  0.00  0.00    -0.031 A 
ATOM      3  C3  DEN d   1      -1.226   0.198   1.081  0.00  0.00     0.027 A 
ATOM      4  C4  DEN d   1       0.449  -0.995   2.637  0.00  0.00     0.027 A 
ATOM      5  C5  DEN d   1       1.667  -1.636   2.694  0.00  0.00    -0.003 A 
ATOM      6  C6  DEN d   1       2.443  -1.830   1.583  0.00  0.00     0.001 A 
ATOM      7  C7  DEN d   1       2.032  -1.337   0.373  0.00  0.00     0.017 A 
ATOM      8  C8  DEN d   1       0.802  -0.695   0.306  0.00  0.00    -0.094 A 
ATOM      9  C9  DEN d   1       0.037  -0.498   1.443  0.00  0.00    -0.072 A 
ENDROOT
TORSDOF 0
ENDMDL
