MODEL 1
REMARK minimizedAffinity -5.58451128
REMARK minimizedRMSD -1
REMARK  0 active torsions:
REMARK  status: ('A' for Active; 'I' for Inactive)
ROOT
ATOM      1  C1  DEN d   1       0.610  -0.475  -0.948  0.00  0.00     0.130 A 
ATOM      2  C2  DEN d   1      -0.499   0.394  -0.564  0.00  0.00    -0.031 A 
ATOM      3  C3  DEN d   1      -0.535   0.465   0.910  0.00  0.00     0.027 A 
ATOM      4  C4  DEN d   1       1.016  -0.675   2.627  0.00  0.00     0.027 A 
ATOM      5  C5  DEN d   1       2.095  -1.517   2.780  0.00  0.00    -0.003 A 
ATOM      6  C6  DEN d   1       2.728  -2.093   1.711  0.00  0.00     0.001 A 
ATOM      7  C7  DEN d   1       2.316  -1.799   0.438  0.00  0.00     0.017 A 
ATOM      8  C8  DEN d   1       1.224  -0.956   0.277  0.00  0.00    -0.094 A 
ATOM      9  C9  DEN d   1       0.605  -0.374   1.370  0.00  0.00    -0.072 A 
ENDROOT
TORSDOF 0
ENDMDL
