MODEL 1
REMARK minimizedAffinity -4.71724844
REMARK minimizedRMSD -1
REMARK  0 active torsions:
REMARK  status: ('A' for Active; 'I' for Inactive)
ROOT
ATOM      1  C1  DEN d   1       0.578   0.181  -1.289  0.00  0.00     0.130 A 
ATOM      2  C2  DEN d   1      -0.864   0.408  -1.227  0.00  0.00    -0.031 A 
ATOM      3  C3  DEN d   1      -1.312   0.123   0.151  0.00  0.00     0.027 A 
ATOM      4  C4  DEN d   1       0.079  -0.640   2.184  0.00  0.00     0.027 A 
ATOM      5  C5  DEN d   1       1.342  -0.979   2.617  0.00  0.00    -0.003 A 
ATOM      6  C6  DEN d   1       2.424  -0.988   1.777  0.00  0.00     0.001 A 
ATOM      7  C7  DEN d   1       2.271  -0.607   0.470  0.00  0.00     0.017 A 
ATOM      8  C8  DEN d   1       0.999  -0.272   0.024  0.00  0.00    -0.094 A 
ATOM      9  C9  DEN d   1      -0.079  -0.257   0.892  0.00  0.00    -0.072 A 
ENDROOT
TORSDOF 0
ENDMDL
