MODEL 1
REMARK minimizedAffinity -4.52186871
REMARK minimizedRMSD -1
REMARK  0 active torsions:
REMARK  status: ('A' for Active; 'I' for Inactive)
ROOT
ATOM      1  C1  DEN d   1       0.065  -1.263   3.067  0.00  0.00     0.130 A 
ATOM      2  C2  DEN d   1       1.489  -1.209   3.383  0.00  0.00    -0.031 A 
ATOM      3  C3  DEN d   1       2.199  -0.674   2.203  0.00  0.00     0.027 A 
ATOM      4  C4  DEN d   1       1.234   0.075  -0.068  0.00  0.00     0.027 A 
ATOM      5  C5  DEN d   1       0.081   0.204  -0.811  0.00  0.00    -0.003 A 
ATOM      6  C6  DEN d   1      -1.144  -0.176  -0.329  0.00  0.00     0.001 A 
ATOM      7  C7  DEN d   1      -1.250  -0.662   0.947  0.00  0.00     0.017 A 
ATOM      8  C8  DEN d   1      -0.091  -0.801   1.699  0.00  0.00    -0.094 A 
ATOM      9  C9  DEN d   1       1.136  -0.400   1.199  0.00  0.00    -0.072 A 
ENDROOT
TORSDOF 0
ENDMDL
