MODEL 1
REMARK minimizedAffinity -6.01947975
REMARK minimizedRMSD -1
REMARK  0 active torsions:
REMARK  status: ('A' for Active; 'I' for Inactive)
ROOT
ATOM      1  C1  DEN d   1       2.187  -1.810   2.082  0.00  0.00     0.130 A 
ATOM      2  C2  DEN d   1       2.825  -2.243   0.842  0.00  0.00    -0.031 A 
ATOM      3  C3  DEN d   1       2.014  -1.744  -0.287  0.00  0.00     0.027 A 
ATOM      4  C4  DEN d   1      -0.153  -0.348  -0.236  0.00  0.00     0.027 A 
ATOM      5  C5  DEN d   1      -1.084   0.251   0.585  0.00  0.00    -0.003 A 
ATOM      6  C6  DEN d   1      -1.008   0.177   1.951  0.00  0.00     0.001 A 
ATOM      7  C7  DEN d   1       0.045  -0.474   2.538  0.00  0.00     0.017 A 
ATOM      8  C8  DEN d   1       0.983  -1.086   1.717  0.00  0.00    -0.094 A 
ATOM      9  C9  DEN d   1       0.895  -0.989   0.339  0.00  0.00    -0.072 A 
ENDROOT
TORSDOF 0
ENDMDL
