MODEL 1
REMARK minimizedAffinity -3.75326824
REMARK minimizedRMSD -1
REMARK  0 active torsions:
REMARK  status: ('A' for Active; 'I' for Inactive)
ROOT
ATOM      1  C   UNL d   1      -2.243  -0.687   2.552  0.00  0.00     0.077 C 
ATOM      2  C1  UNL d   1      -1.287   0.217   1.832  0.00  0.00    -0.074 A 
ATOM      3  C2  UNL d   1      -0.751   1.344   2.462  0.00  0.00    -0.005 A 
ATOM      4  C3  UNL d   1       0.144   2.171   1.784  0.00  0.00     0.006 A 
ATOM      5  C4  UNL d   1       0.513   1.878   0.470  0.00  0.00    -0.005 A 
ATOM      6  C5  UNL d   1      -0.012   0.754  -0.176  0.00  0.00    -0.074 A 
ATOM      7  C6  UNL d   1       0.381   0.420  -1.585  0.00  0.00     0.077 C 
ATOM      8  C7  UNL d   1      -0.906  -0.075   0.515  0.00  0.00    -0.001 A 
ENDROOT
TORSDOF 0
ENDMDL
