MODEL 1
REMARK minimizedAffinity -3.73224688
REMARK minimizedRMSD -1
REMARK  0 active torsions:
REMARK  status: ('A' for Active; 'I' for Inactive)
ROOT
ATOM      1  C   UNL d   1      -1.573   0.387  -4.822  0.00  0.00     0.077 C 
ATOM      2  C1  UNL d   1      -0.342   0.336  -3.967  0.00  0.00    -0.074 A 
ATOM      3  C2  UNL d   1       0.792   1.086  -4.294  0.00  0.00    -0.005 A 
ATOM      4  C3  UNL d   1       1.926   1.036  -3.484  0.00  0.00     0.006 A 
ATOM      5  C4  UNL d   1       1.938   0.237  -2.340  0.00  0.00    -0.005 A 
ATOM      6  C5  UNL d   1       0.813  -0.520  -1.997  0.00  0.00    -0.074 A 
ATOM      7  C6  UNL d   1       0.806  -1.377  -0.765  0.00  0.00     0.077 C 
ATOM      8  C7  UNL d   1      -0.325  -0.459  -2.812  0.00  0.00    -0.001 A 
ENDROOT
TORSDOF 0
ENDMDL
