MODEL 1
REMARK minimizedAffinity -2.23514652
REMARK minimizedRMSD -1
REMARK  0 active torsions:
REMARK  status: ('A' for Active; 'I' for Inactive)
ROOT
ATOM      1  C   UNL d   1      -1.305  -0.616  -5.667  0.00  0.00     0.077 C 
ATOM      2  C1  UNL d   1      -0.190  -0.137  -4.785  0.00  0.00    -0.074 A 
ATOM      3  C2  UNL d   1       0.806   0.710  -5.282  0.00  0.00    -0.005 A 
ATOM      4  C3  UNL d   1       1.831   1.156  -4.447  0.00  0.00     0.006 A 
ATOM      5  C4  UNL d   1       1.870   0.759  -3.110  0.00  0.00    -0.005 A 
ATOM      6  C5  UNL d   1       0.883  -0.087  -2.596  0.00  0.00    -0.074 A 
ATOM      7  C6  UNL d   1       0.905  -0.515  -1.158  0.00  0.00     0.077 C 
ATOM      8  C7  UNL d   1      -0.148  -0.525  -3.439  0.00  0.00    -0.001 A 
ENDROOT
TORSDOF 0
ENDMDL
