MODEL 1
REMARK minimizedAffinity -0.640193284
REMARK minimizedRMSD -1
REMARK  0 active torsions:
REMARK  status: ('A' for Active; 'I' for Inactive)
ROOT
ATOM      1  C   UNL d   1       2.422  -0.001   2.499  0.00  0.00     0.077 C 
ATOM      2  C1  UNL d   1       1.088   0.274   1.870  0.00  0.00    -0.074 A 
ATOM      3  C2  UNL d   1       0.094   0.967   2.568  0.00  0.00    -0.005 A 
ATOM      4  C3  UNL d   1      -1.138   1.225   1.966  0.00  0.00     0.006 A 
ATOM      5  C4  UNL d   1      -1.388   0.792   0.663  0.00  0.00    -0.005 A 
ATOM      6  C5  UNL d   1      -0.405   0.099  -0.051  0.00  0.00    -0.074 A 
ATOM      7  C6  UNL d   1      -0.653  -0.364  -1.455  0.00  0.00     0.077 C 
ATOM      8  C7  UNL d   1       0.833  -0.150   0.558  0.00  0.00    -0.001 A 
ENDROOT
TORSDOF 0
ENDMDL
