MODEL 1
REMARK minimizedAffinity -2.38167739
REMARK minimizedRMSD -1
REMARK  0 active torsions:
REMARK  status: ('A' for Active; 'I' for Inactive)
ROOT
ATOM      1  C   UNL d   1      -1.001   0.203  -4.936  0.00  0.00     0.077 C 
ATOM      2  C1  UNL d   1       0.141   0.439  -3.993  0.00  0.00    -0.074 A 
ATOM      3  C2  UNL d   1       1.308   1.079  -4.422  0.00  0.00    -0.005 A 
ATOM      4  C3  UNL d   1       2.358   1.300  -3.531  0.00  0.00     0.006 A 
ATOM      5  C4  UNL d   1       2.252   0.883  -2.204  0.00  0.00    -0.005 A 
ATOM      6  C5  UNL d   1       1.093   0.242  -1.756  0.00  0.00    -0.074 A 
ATOM      7  C6  UNL d   1       0.959  -0.204  -0.330  0.00  0.00     0.077 C 
ATOM      8  C7  UNL d   1       0.039   0.030  -2.656  0.00  0.00    -0.001 A 
ENDROOT
TORSDOF 0
ENDMDL
