MODEL 1
REMARK minimizedAffinity -3.48005724
REMARK minimizedRMSD -1
REMARK  0 active torsions:
REMARK  status: ('A' for Active; 'I' for Inactive)
ROOT
ATOM      1  C   UNL d   1      -0.558   1.639   2.033  0.00  0.00     0.077 C 
ATOM      2  C1  UNL d   1       0.237   0.793   1.085  0.00  0.00    -0.074 A 
ATOM      3  C2  UNL d   1       1.152  -0.152   1.559  0.00  0.00    -0.005 A 
ATOM      4  C3  UNL d   1       1.878  -0.939   0.665  0.00  0.00     0.006 A 
ATOM      5  C4  UNL d   1       1.697  -0.789  -0.711  0.00  0.00    -0.005 A 
ATOM      6  C5  UNL d   1       0.785   0.150  -1.204  0.00  0.00    -0.074 A 
ATOM      7  C6  UNL d   1       0.571   0.317  -2.679  0.00  0.00     0.077 C 
ATOM      8  C7  UNL d   1       0.055   0.932  -0.299  0.00  0.00    -0.001 A 
ENDROOT
TORSDOF 0
ENDMDL
