MODEL 1
REMARK minimizedAffinity -3.70820618
REMARK minimizedRMSD -1
REMARK  0 active torsions:
REMARK  status: ('A' for Active; 'I' for Inactive)
ROOT
ATOM      1  C   UNL d   1       0.580  -0.750  -1.053  0.00  0.00     0.077 C 
ATOM      2  C1  UNL d   1       0.634  -0.347  -2.497  0.00  0.00    -0.074 A 
ATOM      3  C2  UNL d   1       1.720   0.375  -3.002  0.00  0.00    -0.005 A 
ATOM      4  C3  UNL d   1       1.761   0.734  -4.349  0.00  0.00     0.006 A 
ATOM      5  C4  UNL d   1       0.718   0.375  -5.204  0.00  0.00    -0.005 A 
ATOM      6  C5  UNL d   1      -0.375  -0.348  -4.717  0.00  0.00    -0.074 A 
ATOM      7  C6  UNL d   1      -1.500  -0.750  -5.625  0.00  0.00     0.077 C 
ATOM      8  C7  UNL d   1      -0.406  -0.711  -3.364  0.00  0.00    -0.001 A 
ENDROOT
TORSDOF 0
ENDMDL
