MODEL 1
REMARK minimizedAffinity -4.0648427
REMARK minimizedRMSD -1
REMARK  0 active torsions:
REMARK  status: ('A' for Active; 'I' for Inactive)
ROOT
ATOM      1  C   UNL d   1      -2.362  -0.776   3.034  0.00  0.00     0.077 C 
ATOM      2  C1  UNL d   1      -1.351  -0.014   2.231  0.00  0.00    -0.074 A 
ATOM      3  C2  UNL d   1      -0.690   1.093   2.772  0.00  0.00    -0.005 A 
ATOM      4  C3  UNL d   1       0.256   1.787   2.016  0.00  0.00     0.006 A 
ATOM      5  C4  UNL d   1       0.549   1.381   0.714  0.00  0.00    -0.005 A 
ATOM      6  C5  UNL d   1      -0.101   0.275   0.156  0.00  0.00    -0.074 A 
ATOM      7  C6  UNL d   1       0.210  -0.181  -1.238  0.00  0.00     0.077 C 
ATOM      8  C7  UNL d   1      -1.044  -0.421   0.924  0.00  0.00    -0.001 A 
ENDROOT
TORSDOF 0
ENDMDL
