MODEL 1
REMARK minimizedAffinity -3.93574333
REMARK minimizedRMSD -1
REMARK  2 active torsions:
REMARK  status: ('A' for Active; 'I' for Inactive)
REMARK    1  A    between atoms: C2'_3  and  C1'_4 
REMARK    2  A    between atoms: C1'_4  and  C1_5 
ROOT
ATOM      1  C1  I4B d   1      -0.001  -0.046   0.055  0.00  0.00    -0.075 A 
ATOM      2  C2  I4B d   1       0.538  -0.330   1.285  0.00  0.00     0.003 A 
ATOM      3  C3  I4B d   1       0.320   0.543   2.378  0.00  0.00     0.002 A 
ATOM      4  C4  I4B d   1      -0.395   1.708   2.186  0.00  0.00    -0.004 A 
ATOM      5  C5  I4B d   1      -0.960   1.983   0.944  0.00  0.00     0.002 A 
ATOM      6  C6  I4B d   1      -0.773   1.095  -0.125  0.00  0.00     0.003 A 
ENDROOT
BRANCH   1   7
ATOM      7  C1' I4B d   1       0.276  -0.973  -1.085  0.00  0.00     0.060 C 
BRANCH   7   8
ATOM      8  C2' I4B d   1      -0.412  -2.291  -0.793  0.00  0.00    -0.013 C 
ATOM      9  C4' I4B d   1      -1.560  -2.528  -1.738  0.00  0.00     0.013 C 
ATOM     10  C3' I4B d   1       0.611  -3.382  -0.900  0.00  0.00     0.013 C 
ENDBRANCH   7   8
ENDBRANCH   1   7
TORSDOF 2
ENDMDL
