MODEL 1
REMARK minimizedAffinity -2.66546535
REMARK minimizedRMSD -1
REMARK  2 active torsions:
REMARK  status: ('A' for Active; 'I' for Inactive)
REMARK    1  A    between atoms: C2'_3  and  C1'_4 
REMARK    2  A    between atoms: C1'_4  and  C1_5 
ROOT
ATOM      1  C1  I4B d   1       0.004   0.232   0.814  0.00  0.00    -0.075 A 
ATOM      2  C2  I4B d   1      -0.598   1.451   1.002  0.00  0.00     0.003 A 
ATOM      3  C3  I4B d   1      -0.025   2.401   1.882  0.00  0.00     0.002 A 
ATOM      4  C4  I4B d   1       1.114   2.072   2.588  0.00  0.00    -0.004 A 
ATOM      5  C5  I4B d   1       1.735   0.844   2.379  0.00  0.00     0.002 A 
ATOM      6  C6  I4B d   1       1.184  -0.078   1.477  0.00  0.00     0.003 A 
ENDROOT
BRANCH   1   7
ATOM      7  C1' I4B d   1      -0.646  -0.759  -0.099  0.00  0.00     0.060 C 
BRANCH   7   8
ATOM      8  C2' I4B d   1       0.431  -1.362  -0.977  0.00  0.00    -0.013 C 
ATOM      9  C4' I4B d   1      -0.030  -2.656  -1.595  0.00  0.00     0.013 C 
ATOM     10  C3' I4B d   1       0.788  -0.356  -2.030  0.00  0.00     0.013 C 
ENDBRANCH   7   8
ENDBRANCH   1   7
TORSDOF 2
ENDMDL
