MODEL 1
REMARK minimizedAffinity -5.78760433
REMARK minimizedRMSD -1
REMARK  2 active torsions:
REMARK  status: ('A' for Active; 'I' for Inactive)
REMARK    1  A    between atoms: C2'_3  and  C1'_4 
REMARK    2  A    between atoms: C1'_4  and  C1_5 
ROOT
ATOM      1  C1  I4B d   1      -0.843   1.365   0.599  0.00  0.00    -0.075 A 
ATOM      2  C2  I4B d   1      -0.977   2.072   1.767  0.00  0.00     0.003 A 
ATOM      3  C3  I4B d   1      -1.023   3.487   1.742  0.00  0.00     0.002 A 
ATOM      4  C4  I4B d   1      -0.881   4.151   0.541  0.00  0.00    -0.004 A 
ATOM      5  C5  I4B d   1      -0.769   3.431  -0.645  0.00  0.00     0.002 A 
ATOM      6  C6  I4B d   1      -0.761   2.029  -0.618  0.00  0.00     0.003 A 
ENDROOT
BRANCH   1   7
ATOM      7  C1' I4B d   1      -0.764  -0.128   0.665  0.00  0.00     0.060 C 
BRANCH   7   8
ATOM      8  C2' I4B d   1       0.644  -0.538   0.284  0.00  0.00    -0.013 C 
ATOM      9  C4' I4B d   1       1.497  -0.756   1.506  0.00  0.00     0.013 C 
ATOM     10  C3' I4B d   1       0.554  -1.786  -0.544  0.00  0.00     0.013 C 
ENDBRANCH   7   8
ENDBRANCH   1   7
TORSDOF 2
ENDMDL
