MODEL 1
REMARK minimizedAffinity -2.96291327
REMARK minimizedRMSD -1
REMARK  2 active torsions:
REMARK  status: ('A' for Active; 'I' for Inactive)
REMARK    1  A    between atoms: C2'_3  and  C1'_4 
REMARK    2  A    between atoms: C1'_4  and  C1_5 
ROOT
ATOM      1  C1  I4B d   1      -0.007  -0.026  -0.647  0.00  0.00    -0.075 A 
ATOM      2  C2  I4B d   1      -0.904   0.849  -1.208  0.00  0.00     0.003 A 
ATOM      3  C3  I4B d   1      -1.469   1.887  -0.429  0.00  0.00     0.002 A 
ATOM      4  C4  I4B d   1      -1.151   1.982   0.910  0.00  0.00    -0.004 A 
ATOM      5  C5  I4B d   1      -0.225   1.108   1.472  0.00  0.00     0.002 A 
ATOM      6  C6  I4B d   1       0.361   0.106   0.685  0.00  0.00     0.003 A 
ENDROOT
BRANCH   1   7
ATOM      7  C1' I4B d   1       0.546  -1.130  -1.491  0.00  0.00     0.060 C 
BRANCH   7   8
ATOM      8  C2' I4B d   1      -0.385  -2.320  -1.371  0.00  0.00    -0.013 C 
ATOM      9  C4' I4B d   1      -1.306  -2.413  -2.558  0.00  0.00     0.013 C 
ATOM     10  C3' I4B d   1       0.457  -3.555  -1.240  0.00  0.00     0.013 C 
ENDBRANCH   7   8
ENDBRANCH   1   7
TORSDOF 2
ENDMDL
