MODEL 1
REMARK minimizedAffinity -3.99271297
REMARK minimizedRMSD -1
REMARK  2 active torsions:
REMARK  status: ('A' for Active; 'I' for Inactive)
REMARK    1  A    between atoms: C2'_3  and  C1'_4 
REMARK    2  A    between atoms: C1'_4  and  C1_5 
ROOT
ATOM      1  C1  I4B d   1      -0.507   0.686   0.446  0.00  0.00    -0.075 A 
ATOM      2  C2  I4B d   1       0.475   0.786   1.400  0.00  0.00     0.003 A 
ATOM      3  C3  I4B d   1       0.486   1.879   2.300  0.00  0.00     0.002 A 
ATOM      4  C4  I4B d   1      -0.467   2.869   2.178  0.00  0.00    -0.004 A 
ATOM      5  C5  I4B d   1      -1.475   2.755   1.225  0.00  0.00     0.002 A 
ATOM      6  C6  I4B d   1      -1.503   1.650   0.361  0.00  0.00     0.003 A 
ENDROOT
BRANCH   1   7
ATOM      7  C1' I4B d   1      -0.470  -0.465  -0.509  0.00  0.00     0.060 C 
BRANCH   7   8
ATOM      8  C2' I4B d   1       0.631  -0.201  -1.516  0.00  0.00    -0.013 C 
ATOM      9  C4' I4B d   1       0.438   1.127  -2.199  0.00  0.00     0.013 C 
ATOM     10  C3' I4B d   1       1.943  -0.251  -0.790  0.00  0.00     0.013 C 
ENDBRANCH   7   8
ENDBRANCH   1   7
TORSDOF 2
ENDMDL
