MODEL 1
REMARK minimizedAffinity -3.82858992
REMARK minimizedRMSD -1
REMARK  0 active torsions:
REMARK  status: ('A' for Active; 'I' for Inactive)
ROOT
ATOM      1  O1  BZF d   1      -0.815  -1.006  -0.066  0.00  0.00    -0.204 OA
ATOM      2  C2  BZF d   1       0.367  -1.110  -0.773  0.00  0.00     0.174 A 
ATOM      3  C3  BZF d   1       1.032   0.063  -0.767  0.00  0.00    -0.012 A 
ATOM      4  C3A BZF d   1       0.259   0.930   0.069  0.00  0.00    -0.107 A 
ATOM      5  C4  BZF d   1       0.413   2.224   0.476  0.00  0.00     0.055 A 
ATOM      6  C5  BZF d   1      -0.559   2.799   1.232  0.00  0.00    -0.016 A 
ATOM      7  C6  BZF d   1      -1.698   2.111   1.595  0.00  0.00     0.022 A 
ATOM      8  C7  BZF d   1      -1.893   0.823   1.219  0.00  0.00     0.029 A 
ATOM      9  C7A BZF d   1      -0.897   0.229   0.483  0.00  0.00     0.058 A 
ENDROOT
TORSDOF 0
ENDMDL
