MODEL 1
REMARK minimizedAffinity -1.67914188
REMARK minimizedRMSD -1
REMARK  0 active torsions:
REMARK  status: ('A' for Active; 'I' for Inactive)
ROOT
ATOM      1  O1  BZF d   1       0.605  -1.893   0.354  0.00  0.00    -0.204 OA
ATOM      2  C2  BZF d   1       0.485  -1.632  -0.997  0.00  0.00     0.174 A 
ATOM      3  C3  BZF d   1       0.213  -0.329  -1.211  0.00  0.00    -0.012 A 
ATOM      4  C3A BZF d   1       0.251   0.281   0.083  0.00  0.00    -0.107 A 
ATOM      5  C4  BZF d   1       0.076   1.562   0.523  0.00  0.00     0.055 A 
ATOM      6  C5  BZF d   1       0.106   1.811   1.858  0.00  0.00    -0.016 A 
ATOM      7  C6  BZF d   1       0.302   0.804   2.781  0.00  0.00     0.022 A 
ATOM      8  C7  BZF d   1       0.486  -0.481   2.392  0.00  0.00     0.029 A 
ATOM      9  C7A BZF d   1       0.489  -0.731   1.042  0.00  0.00     0.058 A 
ENDROOT
TORSDOF 0
ENDMDL
