MODEL 1
REMARK minimizedAffinity -5.03880739
REMARK minimizedRMSD -1
REMARK  0 active torsions:
REMARK  status: ('A' for Active; 'I' for Inactive)
ROOT
ATOM      1  O1  BZF d   1      -0.386  -0.121  -1.063  0.00  0.00    -0.204 OA
ATOM      2  C2  BZF d   1       0.352  -0.974  -0.266  0.00  0.00     0.174 A 
ATOM      3  C3  BZF d   1       0.539  -0.441   0.959  0.00  0.00    -0.012 A 
ATOM      4  C3A BZF d   1      -0.202   0.782   0.955  0.00  0.00    -0.107 A 
ATOM      5  C4  BZF d   1      -0.418   1.753   1.891  0.00  0.00     0.055 A 
ATOM      6  C5  BZF d   1      -1.130   2.857   1.546  0.00  0.00    -0.016 A 
ATOM      7  C6  BZF d   1      -1.636   3.027   0.273  0.00  0.00     0.022 A 
ATOM      8  C7  BZF d   1      -1.452   2.089  -0.688  0.00  0.00     0.029 A 
ATOM      9  C7A BZF d   1      -0.761   0.957  -0.333  0.00  0.00     0.058 A 
ENDROOT
TORSDOF 0
ENDMDL
