MODEL 1
REMARK minimizedAffinity -4.50182438
REMARK minimizedRMSD -1
REMARK  0 active torsions:
REMARK  status: ('A' for Active; 'I' for Inactive)
ROOT
ATOM      1  O1  BZF d   1      -0.380  -0.488  -1.327  0.00  0.00    -0.204 OA
ATOM      2  C2  BZF d   1       0.255  -1.635  -0.891  0.00  0.00     0.174 A 
ATOM      3  C3  BZF d   1       0.657  -1.502   0.390  0.00  0.00    -0.012 A 
ATOM      4  C3A BZF d   1       0.165  -0.225   0.808  0.00  0.00    -0.107 A 
ATOM      5  C4  BZF d   1       0.229   0.467   1.983  0.00  0.00     0.055 A 
ATOM      6  C5  BZF d   1      -0.290   1.722   2.040  0.00  0.00    -0.016 A 
ATOM      7  C6  BZF d   1      -0.874   2.317   0.941  0.00  0.00     0.022 A 
ATOM      8  C7  BZF d   1      -0.965   1.668  -0.246  0.00  0.00     0.029 A 
ATOM      9  C7A BZF d   1      -0.471   0.387  -0.297  0.00  0.00     0.058 A 
ENDROOT
TORSDOF 0
ENDMDL
