MODEL 1
REMARK minimizedAffinity -3.82736063
REMARK minimizedRMSD -1
REMARK  0 active torsions:
REMARK  status: ('A' for Active; 'I' for Inactive)
ROOT
ATOM      1  O1  BZF d   1      -0.382   1.914   2.320  0.00  0.00    -0.204 OA
ATOM      2  C2  BZF d   1      -1.231   2.923   1.909  0.00  0.00     0.174 A 
ATOM      3  C3  BZF d   1      -1.371   2.913   0.568  0.00  0.00    -0.012 A 
ATOM      4  C3A BZF d   1      -0.632   1.773   0.120  0.00  0.00    -0.107 A 
ATOM      5  C4  BZF d   1      -0.406   1.224  -1.110  0.00  0.00     0.055 A 
ATOM      6  C5  BZF d   1       0.421   0.151  -1.212  0.00  0.00    -0.016 A 
ATOM      7  C6  BZF d   1       1.042  -0.395  -0.108  0.00  0.00     0.022 A 
ATOM      8  C7  BZF d   1       0.845   0.112   1.134  0.00  0.00     0.029 A 
ATOM      9  C7A BZF d   1      -0.017   1.176   1.245  0.00  0.00     0.058 A 
ENDROOT
TORSDOF 0
ENDMDL
