MODEL 1
REMARK minimizedAffinity -4.88505602
REMARK minimizedRMSD -1
REMARK  0 active torsions:
REMARK  status: ('A' for Active; 'I' for Inactive)
ROOT
ATOM      1  O1  BZF d   1       0.338   0.123  -0.955  0.00  0.00    -0.204 OA
ATOM      2  C2  BZF d   1       0.460  -0.822   0.046  0.00  0.00     0.174 A 
ATOM      3  C3  BZF d   1       0.363  -0.246   1.261  0.00  0.00    -0.012 A 
ATOM      4  C3A BZF d   1       0.076   1.131   1.004  0.00  0.00    -0.107 A 
ATOM      5  C4  BZF d   1      -0.147   2.211   1.810  0.00  0.00     0.055 A 
ATOM      6  C5  BZF d   1      -0.326   3.433   1.243  0.00  0.00    -0.016 A 
ATOM      7  C6  BZF d   1      -0.284   3.612  -0.124  0.00  0.00     0.022 A 
ATOM      8  C7  BZF d   1      -0.071   2.571  -0.965  0.00  0.00     0.029 A 
ATOM      9  C7A BZF d   1       0.077   1.329  -0.397  0.00  0.00     0.058 A 
ENDROOT
TORSDOF 0
ENDMDL
