MODEL 1
REMARK minimizedAffinity -4.64138842
REMARK minimizedRMSD -1
REMARK  0 active torsions:
REMARK  status: ('A' for Active; 'I' for Inactive)
ROOT
ATOM      1  O1  BZF d   1      -0.138   0.845   2.163  0.00  0.00    -0.204 OA
ATOM      2  C2  BZF d   1       0.502  -0.159   1.463  0.00  0.00     0.174 A 
ATOM      3  C3  BZF d   1       0.298  -0.022   0.137  0.00  0.00    -0.012 A 
ATOM      4  C3A BZF d   1      -0.444   1.193  -0.007  0.00  0.00    -0.107 A 
ATOM      5  C4  BZF d   1      -0.933   1.872  -1.085  0.00  0.00     0.055 A 
ATOM      6  C5  BZF d   1      -1.678   2.990  -0.879  0.00  0.00    -0.016 A 
ATOM      7  C6  BZF d   1      -1.957   3.453   0.390  0.00  0.00     0.022 A 
ATOM      8  C7  BZF d   1      -1.489   2.815   1.491  0.00  0.00     0.029 A 
ATOM      9  C7A BZF d   1      -0.709   1.704   1.285  0.00  0.00     0.058 A 
ENDROOT
TORSDOF 0
ENDMDL
