MODEL 1
REMARK minimizedAffinity 0.553005457
REMARK minimizedRMSD -1
REMARK  0 active torsions:
REMARK  status: ('A' for Active; 'I' for Inactive)
ROOT
ATOM      1  O1  BZF d   1      -0.785  -3.696   0.679  0.00  0.00    -0.204 OA
ATOM      2  C2  BZF d   1      -1.017  -4.111  -0.618  0.00  0.00     0.174 A 
ATOM      3  C3  BZF d   1      -0.771  -3.112  -1.490  0.00  0.00    -0.012 A 
ATOM      4  C3A BZF d   1      -0.270  -2.033  -0.696  0.00  0.00    -0.107 A 
ATOM      5  C4  BZF d   1       0.165  -0.773  -0.991  0.00  0.00     0.055 A 
ATOM      6  C5  BZF d   1       0.520   0.059   0.024  0.00  0.00    -0.016 A 
ATOM      7  C6  BZF d   1       0.446  -0.335   1.344  0.00  0.00     0.022 A 
ATOM      8  C7  BZF d   1       0.025  -1.577   1.686  0.00  0.00     0.029 A 
ATOM      9  C7A BZF d   1      -0.302  -2.430   0.661  0.00  0.00     0.058 A 
ENDROOT
TORSDOF 0
ENDMDL
