MODEL 1
REMARK minimizedAffinity -4.32719278
REMARK minimizedRMSD -1
REMARK  0 active torsions:
REMARK  status: ('A' for Active; 'I' for Inactive)
ROOT
ATOM      1  O1  BZF d   1       1.335   0.548  -2.288  0.00  0.00    -0.204 OA
ATOM      2  C2  BZF d   1       0.589   1.629  -2.715  0.00  0.00     0.174 A 
ATOM      3  C3  BZF d   1      -0.228   2.064  -1.734  0.00  0.00    -0.012 A 
ATOM      4  C3A BZF d   1       0.089   1.258  -0.595  0.00  0.00    -0.107 A 
ATOM      5  C4  BZF d   1      -0.375   1.222   0.689  0.00  0.00     0.055 A 
ATOM      6  C5  BZF d   1       0.092   0.265   1.533  0.00  0.00    -0.016 A 
ATOM      7  C6  BZF d   1       1.018  -0.673   1.127  0.00  0.00     0.022 A 
ATOM      8  C7  BZF d   1       1.511  -0.675  -0.135  0.00  0.00     0.029 A 
ATOM      9  C7A BZF d   1       1.066   0.311  -0.982  0.00  0.00     0.058 A 
ENDROOT
TORSDOF 0
ENDMDL
