MODEL 1
REMARK minimizedAffinity -3.79295754
REMARK minimizedRMSD -1
REMARK  0 active torsions:
REMARK  status: ('A' for Active; 'I' for Inactive)
ROOT
ATOM      1  C   UNL d   1       1.650   0.196   1.587  0.00  0.00     0.020 A 
ATOM      2  C1  UNL d   1       0.814  -0.197   2.631  0.00  0.00     0.020 A 
ATOM      3  C2  UNL d   1      -0.569  -0.240   2.440  0.00  0.00     0.034 A 
ATOM      4  C3  UNL d   1      -1.120   0.112   1.202  0.00  0.00     0.017 A 
ATOM      5  C4  UNL d   1      -0.279   0.507   0.155  0.00  0.00     0.017 A 
ATOM      6  C5  UNL d   1       1.104   0.548   0.352  0.00  0.00     0.034 A 
ATOM      7 Cl   UNL d   1      -0.885   0.956  -1.401  0.00  0.00    -0.070 Cl
ATOM      8 Cl1  UNL d   1      -2.838   0.036   1.036  0.00  0.00    -0.070 Cl
ENDROOT
TORSDOF 0
ENDMDL
