MODEL 1
REMARK minimizedAffinity -5.36818027
REMARK minimizedRMSD -1
REMARK  0 active torsions:
REMARK  status: ('A' for Active; 'I' for Inactive)
ROOT
ATOM      1  C   UNL d   1      -1.126  -0.825   3.530  0.00  0.00     0.020 A 
ATOM      2  C1  UNL d   1       0.142  -0.912   2.957  0.00  0.00     0.020 A 
ATOM      3  C2  UNL d   1       0.328  -0.564   1.617  0.00  0.00     0.034 A 
ATOM      4  C3  UNL d   1      -0.756  -0.127   0.847  0.00  0.00     0.017 A 
ATOM      5  C4  UNL d   1      -2.028  -0.040   1.424  0.00  0.00     0.017 A 
ATOM      6  C5  UNL d   1      -2.208  -0.390   2.766  0.00  0.00     0.034 A 
ATOM      7 Cl   UNL d   1      -3.414   0.491   0.537  0.00  0.00    -0.070 Cl
ATOM      8 Cl1  UNL d   1      -0.454   0.288  -0.803  0.00  0.00    -0.070 Cl
ENDROOT
TORSDOF 0
ENDMDL
