MODEL 1
REMARK minimizedAffinity -4.84159136
REMARK minimizedRMSD -1
REMARK  0 active torsions:
REMARK  status: ('A' for Active; 'I' for Inactive)
ROOT
ATOM      1  C   UNL d   1      -1.555  -0.500   1.788  0.00  0.00     0.020 A 
ATOM      2  C1  UNL d   1      -0.673  -0.405   2.864  0.00  0.00     0.020 A 
ATOM      3  C2  UNL d   1       0.644   0.010   2.652  0.00  0.00     0.034 A 
ATOM      4  C3  UNL d   1       1.082   0.331   1.362  0.00  0.00     0.017 A 
ATOM      5  C4  UNL d   1       0.195   0.235   0.283  0.00  0.00     0.017 A 
ATOM      6  C5  UNL d   1      -1.122  -0.180   0.501  0.00  0.00     0.034 A 
ATOM      7 Cl   UNL d   1       0.662   0.615  -1.337  0.00  0.00    -0.070 Cl
ATOM      8 Cl1  UNL d   1       2.723   0.838   1.173  0.00  0.00    -0.070 Cl
ENDROOT
TORSDOF 0
ENDMDL
