MODEL 1
REMARK minimizedAffinity -3.48067832
REMARK minimizedRMSD -1
REMARK  0 active torsions:
REMARK  status: ('A' for Active; 'I' for Inactive)
ROOT
ATOM      1  C   UNL d   1       3.206  -1.190  -3.151  0.00  0.00     0.020 A 
ATOM      2  C1  UNL d   1       3.294  -0.137  -2.241  0.00  0.00     0.020 A 
ATOM      3  C2  UNL d   1       2.132   0.413  -1.697  0.00  0.00     0.034 A 
ATOM      4  C3  UNL d   1       0.877  -0.088  -2.062  0.00  0.00     0.017 A 
ATOM      5  C4  UNL d   1       0.790  -1.145  -2.976  0.00  0.00     0.017 A 
ATOM      6  C5  UNL d   1       1.957  -1.693  -3.518  0.00  0.00     0.034 A 
ATOM      7 Cl   UNL d   1      -0.722  -1.817  -3.475  0.00  0.00    -0.070 Cl
ATOM      8 Cl1  UNL d   1      -0.518   0.640  -1.350  0.00  0.00    -0.070 Cl
ENDROOT
TORSDOF 0
ENDMDL
