MODEL 1
REMARK minimizedAffinity -2.7841742
REMARK minimizedRMSD -1
REMARK  0 active torsions:
REMARK  status: ('A' for Active; 'I' for Inactive)
ROOT
ATOM      1  C   UNL d   1       1.659  -0.205  -0.396  0.00  0.00     0.020 A 
ATOM      2  C1  UNL d   1       0.723   0.000  -1.409  0.00  0.00     0.020 A 
ATOM      3  C2  UNL d   1      -0.631   0.125  -1.092  0.00  0.00     0.034 A 
ATOM      4  C3  UNL d   1      -1.053   0.044   0.240  0.00  0.00     0.017 A 
ATOM      5  C4  UNL d   1      -0.113  -0.162   1.255  0.00  0.00     0.017 A 
ATOM      6  C5  UNL d   1       1.242  -0.286   0.933  0.00  0.00     0.034 A 
ATOM      7 Cl   UNL d   1      -0.557  -0.273   2.922  0.00  0.00    -0.070 Cl
ATOM      8 Cl1  UNL d   1      -2.744   0.208   0.558  0.00  0.00    -0.070 Cl
ENDROOT
TORSDOF 0
ENDMDL
