MODEL 1
REMARK minimizedAffinity -3.84343123
REMARK minimizedRMSD -1
REMARK  0 active torsions:
REMARK  status: ('A' for Active; 'I' for Inactive)
ROOT
ATOM      1  C   UNL d   1       0.160  -0.239  -1.277  0.00  0.00     0.020 A 
ATOM      2  C1  UNL d   1      -0.952  -0.437  -0.459  0.00  0.00     0.020 A 
ATOM      3  C2  UNL d   1      -0.856  -0.214   0.916  0.00  0.00     0.034 A 
ATOM      4  C3  UNL d   1       0.354   0.208   1.478  0.00  0.00     0.017 A 
ATOM      5  C4  UNL d   1       1.470   0.407   0.656  0.00  0.00     0.017 A 
ATOM      6  C5  UNL d   1       1.368   0.182  -0.720  0.00  0.00     0.034 A 
ATOM      7 Cl   UNL d   1       2.997   0.927   1.276  0.00  0.00    -0.070 Cl
ATOM      8 Cl1  UNL d   1       0.401   0.465   3.186  0.00  0.00    -0.070 Cl
ENDROOT
TORSDOF 0
ENDMDL
