MODEL 1
REMARK minimizedAffinity -4.76051807
REMARK minimizedRMSD -1
REMARK  0 active torsions:
REMARK  status: ('A' for Active; 'I' for Inactive)
ROOT
ATOM      1  C   UNL d   1       0.055   0.437  -1.339  0.00  0.00     0.020 A 
ATOM      2  C1  UNL d   1       1.083   0.220  -0.422  0.00  0.00     0.020 A 
ATOM      3  C2  UNL d   1       0.784   0.026   0.928  0.00  0.00     0.034 A 
ATOM      4  C3  UNL d   1      -0.545   0.049   1.365  0.00  0.00     0.017 A 
ATOM      5  C4  UNL d   1      -1.576   0.267   0.444  0.00  0.00     0.017 A 
ATOM      6  C5  UNL d   1      -1.271   0.461  -0.907  0.00  0.00     0.034 A 
ATOM      7 Cl   UNL d   1      -3.240   0.309   0.908  0.00  0.00    -0.070 Cl
ATOM      8 Cl1  UNL d   1      -0.842  -0.199   3.049  0.00  0.00    -0.070 Cl
ENDROOT
TORSDOF 0
ENDMDL
