MODEL 1
REMARK minimizedAffinity -5.8714509
REMARK minimizedRMSD -1
REMARK  0 active torsions:
REMARK  status: ('A' for Active; 'I' for Inactive)
ROOT
ATOM      1  C   UNL d   1      -1.814  -0.310   2.209  0.00  0.00     0.020 A 
ATOM      2  C1  UNL d   1      -0.794  -0.327   3.160  0.00  0.00     0.020 A 
ATOM      3  C2  UNL d   1       0.526  -0.087   2.772  0.00  0.00     0.034 A 
ATOM      4  C3  UNL d   1       0.830   0.171   1.430  0.00  0.00     0.017 A 
ATOM      5  C4  UNL d   1      -0.194   0.188   0.477  0.00  0.00     0.017 A 
ATOM      6  C5  UNL d   1      -1.514  -0.053   0.870  0.00  0.00     0.034 A 
ATOM      7 Cl   UNL d   1       0.103   0.499  -1.197  0.00  0.00    -0.070 Cl
ATOM      8 Cl1  UNL d   1       2.484   0.459   1.022  0.00  0.00    -0.070 Cl
ENDROOT
TORSDOF 0
ENDMDL
