MODEL 1
REMARK minimizedAffinity -4.33303881
REMARK minimizedRMSD -1
REMARK  0 active torsions:
REMARK  status: ('A' for Active; 'I' for Inactive)
ROOT
ATOM      1  C   UNL d   1       0.050  -0.683   2.971  0.00  0.00     0.020 A 
ATOM      2  C1  UNL d   1       1.085  -0.307   2.116  0.00  0.00     0.020 A 
ATOM      3  C2  UNL d   1       0.797   0.127   0.820  0.00  0.00     0.034 A 
ATOM      4  C3  UNL d   1      -0.528   0.185   0.375  0.00  0.00     0.017 A 
ATOM      5  C4  UNL d   1      -1.567  -0.193   1.234  0.00  0.00     0.017 A 
ATOM      6  C5  UNL d   1      -1.273  -0.627   2.531  0.00  0.00     0.034 A 
ATOM      7 Cl   UNL d   1      -3.227  -0.149   0.757  0.00  0.00    -0.070 Cl
ATOM      8 Cl1  UNL d   1      -0.811   0.731  -1.240  0.00  0.00    -0.070 Cl
ENDROOT
TORSDOF 0
ENDMDL
