MODEL 1
REMARK minimizedAffinity -5.01339388
REMARK minimizedRMSD -1
REMARK  0 active torsions:
REMARK  status: ('A' for Active; 'I' for Inactive)
ROOT
ATOM      1  C   UNL d   1      -0.934  -0.705   3.773  0.00  0.00     0.020 A 
ATOM      2  C1  UNL d   1       0.322  -0.771   3.171  0.00  0.00     0.020 A 
ATOM      3  C2  UNL d   1       0.458  -0.503   1.807  0.00  0.00     0.034 A 
ATOM      4  C3  UNL d   1      -0.664  -0.167   1.041  0.00  0.00     0.017 A 
ATOM      5  C4  UNL d   1      -1.925  -0.101   1.646  0.00  0.00     0.017 A 
ATOM      6  C5  UNL d   1      -2.055  -0.371   3.012  0.00  0.00     0.034 A 
ATOM      7 Cl   UNL d   1      -3.355   0.306   0.766  0.00  0.00    -0.070 Cl
ATOM      8 Cl1  UNL d   1      -0.423   0.153  -0.640  0.00  0.00    -0.070 Cl
ENDROOT
TORSDOF 0
ENDMDL
