MODEL 1
REMARK minimizedAffinity -1.93997526
REMARK minimizedRMSD -1
REMARK  0 active torsions:
REMARK  status: ('A' for Active; 'I' for Inactive)
ROOT
ATOM      1  C   UNL d   1       0.434  -0.259   3.069  0.00  0.00     0.020 A 
ATOM      2  C1  UNL d   1       1.439  -0.240   2.104  0.00  0.00     0.020 A 
ATOM      3  C2  UNL d   1       1.113  -0.040   0.760  0.00  0.00     0.034 A 
ATOM      4  C3  UNL d   1      -0.221   0.140   0.379  0.00  0.00     0.017 A 
ATOM      5  C4  UNL d   1      -1.230   0.120   1.349  0.00  0.00     0.017 A 
ATOM      6  C5  UNL d   1      -0.898  -0.079   2.693  0.00  0.00     0.034 A 
ATOM      7 Cl   UNL d   1      -2.899   0.336   0.955  0.00  0.00    -0.070 Cl
ATOM      8 Cl1  UNL d   1      -0.551   0.382  -1.300  0.00  0.00    -0.070 Cl
ENDROOT
TORSDOF 0
ENDMDL
