MODEL 1
REMARK minimizedAffinity -5.65117645
REMARK minimizedRMSD -1
REMARK  0 active torsions:
REMARK  status: ('A' for Active; 'I' for Inactive)
ROOT
ATOM      1  C   UNL d   1       0.402  -0.484   2.631  0.00  0.00     0.020 A 
ATOM      2  C1  UNL d   1      -0.935  -0.433   3.024  0.00  0.00     0.020 A 
ATOM      3  C2  UNL d   1      -1.922  -0.090   2.098  0.00  0.00     0.034 A 
ATOM      4  C3  UNL d   1      -1.574   0.205   0.774  0.00  0.00     0.017 A 
ATOM      5  C4  UNL d   1      -0.231   0.154   0.381  0.00  0.00     0.017 A 
ATOM      6  C5  UNL d   1       0.753  -0.191   1.313  0.00  0.00     0.034 A 
ATOM      7 Cl   UNL d   1       0.275   0.504  -1.234  0.00  0.00    -0.070 Cl
ATOM      8 Cl1  UNL d   1      -2.846   0.621  -0.318  0.00  0.00    -0.070 Cl
ENDROOT
TORSDOF 0
ENDMDL
