MODEL 1
REMARK minimizedAffinity -4.13784027
REMARK minimizedRMSD -1
REMARK  0 active torsions:
REMARK  status: ('A' for Active; 'I' for Inactive)
ROOT
ATOM      1  C   UNL d   1       1.103   0.273   1.106  0.00  0.00     0.020 A 
ATOM      2  C1  UNL d   1       0.398   0.403  -0.090  0.00  0.00     0.020 A 
ATOM      3  C2  UNL d   1      -0.989   0.243  -0.103  0.00  0.00     0.034 A 
ATOM      4  C3  UNL d   1      -1.675  -0.048   1.081  0.00  0.00     0.017 A 
ATOM      5  C4  UNL d   1      -0.967  -0.178   2.281  0.00  0.00     0.017 A 
ATOM      6  C5  UNL d   1       0.422  -0.017   2.289  0.00  0.00     0.034 A 
ATOM      7 Cl   UNL d   1      -1.744  -0.536   3.783  0.00  0.00    -0.070 Cl
ATOM      8 Cl1  UNL d   1      -3.391  -0.233   0.991  0.00  0.00    -0.070 Cl
ENDROOT
TORSDOF 0
ENDMDL
