MODEL 1
REMARK minimizedAffinity -2.85369396
REMARK minimizedRMSD -1
REMARK  0 active torsions:
REMARK  status: ('A' for Active; 'I' for Inactive)
ROOT
ATOM      1  C   UNL d   1       0.028  -0.726  -0.968  0.00  0.00     0.020 A 
ATOM      2  C1  UNL d   1       0.651   0.204  -1.799  0.00  0.00     0.020 A 
ATOM      3  C2  UNL d   1       1.466   1.196  -1.249  0.00  0.00     0.034 A 
ATOM      4  C3  UNL d   1       1.660   1.260   0.136  0.00  0.00     0.017 A 
ATOM      5  C4  UNL d   1       1.034   0.326   0.969  0.00  0.00     0.017 A 
ATOM      6  C5  UNL d   1       0.219  -0.666   0.413  0.00  0.00     0.034 A 
ATOM      7 Cl   UNL d   1       1.225   0.341   2.687  0.00  0.00    -0.070 Cl
ATOM      8 Cl1  UNL d   1       2.680   2.513   0.747  0.00  0.00    -0.070 Cl
ENDROOT
TORSDOF 0
ENDMDL
