MODEL 1
REMARK minimizedAffinity -3.668329
REMARK minimizedRMSD -1
REMARK  0 active torsions:
REMARK  status: ('A' for Active; 'I' for Inactive)
ROOT
ATOM      1  C   UNL d   1       1.577  -0.132   2.291  0.00  0.00     0.020 A 
ATOM      2  C1  UNL d   1       0.650  -0.765   3.117  0.00  0.00     0.020 A 
ATOM      3  C2  UNL d   1      -0.644  -1.012   2.654  0.00  0.00     0.034 A 
ATOM      4  C3  UNL d   1      -1.015  -0.625   1.361  0.00  0.00     0.017 A 
ATOM      5  C4  UNL d   1      -0.084   0.011   0.532  0.00  0.00     0.017 A 
ATOM      6  C5  UNL d   1       1.211   0.256   1.001  0.00  0.00     0.034 A 
ATOM      7 Cl   UNL d   1      -0.468   0.518  -1.075  0.00  0.00    -0.070 Cl
ATOM      8 Cl1  UNL d   1      -2.632  -0.962   0.855  0.00  0.00    -0.070 Cl
ENDROOT
TORSDOF 0
ENDMDL
