MODEL 1
REMARK minimizedAffinity -0.574501634
REMARK minimizedRMSD -1
REMARK  0 active torsions:
REMARK  status: ('A' for Active; 'I' for Inactive)
ROOT
ATOM      1  C   UNL d   1       0.645   0.039   0.538  0.00  0.00     0.020 A 
ATOM      2  C1  UNL d   1       1.779   0.813   0.780  0.00  0.00     0.020 A 
ATOM      3  C2  UNL d   1       1.876   1.559   1.957  0.00  0.00     0.034 A 
ATOM      4  C3  UNL d   1       0.838   1.532   2.895  0.00  0.00     0.017 A 
ATOM      5  C4  UNL d   1      -0.300   0.755   2.651  0.00  0.00     0.017 A 
ATOM      6  C5  UNL d   1      -0.392   0.010   1.471  0.00  0.00     0.034 A 
ATOM      7 Cl   UNL d   1      -1.621   0.671   3.761  0.00  0.00    -0.070 Cl
ATOM      8 Cl1  UNL d   1       1.026   2.479   4.328  0.00  0.00    -0.070 Cl
ENDROOT
TORSDOF 0
ENDMDL
