MODEL 1
REMARK minimizedAffinity -4.0887084
REMARK minimizedRMSD -1
REMARK  0 active torsions:
REMARK  status: ('A' for Active; 'I' for Inactive)
ROOT
ATOM      1  C   UNL d   1      -3.058   0.226   2.790  0.00  0.00     0.020 A 
ATOM      2  C1  UNL d   1      -3.316   0.378   1.428  0.00  0.00     0.020 A 
ATOM      3  C2  UNL d   1      -2.270   0.300   0.506  0.00  0.00     0.034 A 
ATOM      4  C3  UNL d   1      -0.961   0.069   0.945  0.00  0.00     0.017 A 
ATOM      5  C4  UNL d   1      -0.703  -0.083   2.312  0.00  0.00     0.017 A 
ATOM      6  C5  UNL d   1      -1.754  -0.004   3.231  0.00  0.00     0.034 A 
ATOM      7 Cl   UNL d   1       0.886  -0.369   2.930  0.00  0.00    -0.070 Cl
ATOM      8 Cl1  UNL d   1       0.284  -0.015  -0.250  0.00  0.00    -0.070 Cl
ENDROOT
TORSDOF 0
ENDMDL
