MODEL 1
REMARK minimizedAffinity 5.26963186
REMARK minimizedRMSD -1
REMARK  0 active torsions:
REMARK  status: ('A' for Active; 'I' for Inactive)
ROOT
ATOM      1  C   UNL d   1       1.277  -0.998   2.509  0.00  0.00     0.020 A 
ATOM      2  C1  UNL d   1       0.217  -1.834   2.857  0.00  0.00     0.020 A 
ATOM      3  C2  UNL d   1       0.463  -3.026   3.542  0.00  0.00     0.034 A 
ATOM      4  C3  UNL d   1       1.773  -3.385   3.881  0.00  0.00     0.017 A 
ATOM      5  C4  UNL d   1       2.836  -2.545   3.531  0.00  0.00     0.017 A 
ATOM      6  C5  UNL d   1       2.584  -1.353   2.845  0.00  0.00     0.034 A 
ATOM      7 Cl   UNL d   1       4.479  -2.921   3.914  0.00  0.00    -0.070 Cl
ATOM      8 Cl1  UNL d   1       2.004  -4.873   4.728  0.00  0.00    -0.070 Cl
ENDROOT
TORSDOF 0
ENDMDL
