MODEL 1
REMARK minimizedAffinity 4.61028051
REMARK minimizedRMSD -1
REMARK  0 active torsions:
REMARK  status: ('A' for Active; 'I' for Inactive)
ROOT
ATOM      1  C   UNL d   1      -4.611   2.259   1.884  0.00  0.00     0.020 A 
ATOM      2  C1  UNL d   1      -5.616   1.475   1.319  0.00  0.00     0.020 A 
ATOM      3  C2  UNL d   1      -5.758   1.417  -0.069  0.00  0.00     0.034 A 
ATOM      4  C3  UNL d   1      -4.894   2.144  -0.896  0.00  0.00     0.017 A 
ATOM      5  C4  UNL d   1      -3.886   2.931  -0.328  0.00  0.00     0.017 A 
ATOM      6  C5  UNL d   1      -3.748   2.985   1.063  0.00  0.00     0.034 A 
ATOM      7 Cl   UNL d   1      -2.782   3.856  -1.283  0.00  0.00    -0.070 Cl
ATOM      8 Cl1  UNL d   1      -5.128   2.026  -2.604  0.00  0.00    -0.070 Cl
ENDROOT
TORSDOF 0
ENDMDL
