MODEL 1
REMARK minimizedAffinity 0.689128578
REMARK minimizedRMSD -1
REMARK  0 active torsions:
REMARK  status: ('A' for Active; 'I' for Inactive)
ROOT
ATOM      1  C   UNL d   1      -5.084   1.439   1.546  0.00  0.00     0.020 A 
ATOM      2  C1  UNL d   1      -6.000   0.791   0.718  0.00  0.00     0.020 A 
ATOM      3  C2  UNL d   1      -5.846   0.844  -0.669  0.00  0.00     0.034 A 
ATOM      4  C3  UNL d   1      -4.774   1.546  -1.233  0.00  0.00     0.017 A 
ATOM      5  C4  UNL d   1      -3.855   2.196  -0.401  0.00  0.00     0.017 A 
ATOM      6  C5  UNL d   1      -4.014   2.140   0.987  0.00  0.00     0.034 A 
ATOM      7 Cl   UNL d   1      -2.507   3.081  -1.022  0.00  0.00    -0.070 Cl
ATOM      8 Cl1  UNL d   1      -4.645   1.568  -2.955  0.00  0.00    -0.070 Cl
ENDROOT
TORSDOF 0
ENDMDL
