MODEL 1
REMARK minimizedAffinity 7.49979734
REMARK minimizedRMSD -1
REMARK  0 active torsions:
REMARK  status: ('A' for Active; 'I' for Inactive)
ROOT
ATOM      1  C   UNL d   1       1.429  -1.956   3.050  0.00  0.00     0.020 A 
ATOM      2  C1  UNL d   1       0.806  -1.288   1.996  0.00  0.00     0.020 A 
ATOM      3  C2  UNL d   1       0.629  -1.932   0.769  0.00  0.00     0.034 A 
ATOM      4  C3  UNL d   1       1.075  -3.247   0.593  0.00  0.00     0.017 A 
ATOM      5  C4  UNL d   1       1.700  -3.916   1.652  0.00  0.00     0.017 A 
ATOM      6  C5  UNL d   1       1.875  -3.267   2.878  0.00  0.00     0.034 A 
ATOM      7 Cl   UNL d   1       2.278  -5.539   1.511  0.00  0.00    -0.070 Cl
ATOM      8 Cl1  UNL d   1       0.823  -3.981  -0.950  0.00  0.00    -0.070 Cl
ENDROOT
TORSDOF 0
ENDMDL
