MODEL 1
REMARK minimizedAffinity 7.08867216
REMARK minimizedRMSD -1
REMARK  0 active torsions:
REMARK  status: ('A' for Active; 'I' for Inactive)
ROOT
ATOM      1  C   UNL d   1      -5.966   1.282  -1.192  0.00  0.00     0.020 A 
ATOM      2  C1  UNL d   1      -5.990   2.662  -1.390  0.00  0.00     0.020 A 
ATOM      3  C2  UNL d   1      -6.000   3.525  -0.291  0.00  0.00     0.034 A 
ATOM      4  C3  UNL d   1      -5.985   3.008   1.009  0.00  0.00     0.017 A 
ATOM      5  C4  UNL d   1      -5.961   1.623   1.207  0.00  0.00     0.017 A 
ATOM      6  C5  UNL d   1      -5.951   0.764   0.103  0.00  0.00     0.034 A 
ATOM      7 Cl   UNL d   1      -5.942   0.911   2.781  0.00  0.00    -0.070 Cl
ATOM      8 Cl1  UNL d   1      -5.998   4.133   2.321  0.00  0.00    -0.070 Cl
ENDROOT
TORSDOF 0
ENDMDL
