MODEL 1
REMARK minimizedAffinity 0.971206069
REMARK minimizedRMSD -1
REMARK  0 active torsions:
REMARK  status: ('A' for Active; 'I' for Inactive)
ROOT
ATOM      1  C   UNL d   1      -5.989   2.153   1.687  0.00  0.00     0.020 A 
ATOM      2  C1  UNL d   1      -5.993   1.110   0.762  0.00  0.00     0.020 A 
ATOM      3  C2  UNL d   1      -5.997   1.391  -0.606  0.00  0.00     0.034 A 
ATOM      4  C3  UNL d   1      -5.996   2.717  -1.053  0.00  0.00     0.017 A 
ATOM      5  C4  UNL d   1      -5.991   3.763  -0.123  0.00  0.00     0.017 A 
ATOM      6  C5  UNL d   1      -5.987   3.477   1.245  0.00  0.00     0.034 A 
ATOM      7 Cl   UNL d   1      -5.989   5.425  -0.598  0.00  0.00    -0.070 Cl
ATOM      8 Cl1  UNL d   1      -6.000   2.990  -2.759  0.00  0.00    -0.070 Cl
ENDROOT
TORSDOF 0
ENDMDL
