MODEL 1
REMARK minimizedAffinity 1.8797822
REMARK minimizedRMSD -1
REMARK  0 active torsions:
REMARK  status: ('A' for Active; 'I' for Inactive)
ROOT
ATOM      1  C   UNL d   1      -5.591   2.469   1.506  0.00  0.00     0.020 A 
ATOM      2  C1  UNL d   1      -5.593   3.687   0.827  0.00  0.00     0.020 A 
ATOM      3  C2  UNL d   1      -5.720   3.710  -0.564  0.00  0.00     0.034 A 
ATOM      4  C3  UNL d   1      -5.846   2.514  -1.279  0.00  0.00     0.017 A 
ATOM      5  C4  UNL d   1      -5.843   1.292  -0.596  0.00  0.00     0.017 A 
ATOM      6  C5  UNL d   1      -5.716   1.275   0.796  0.00  0.00     0.034 A 
ATOM      7 Cl   UNL d   1      -5.994  -0.225  -1.410  0.00  0.00    -0.070 Cl
ATOM      8 Cl1  UNL d   1      -5.999   2.617  -2.997  0.00  0.00    -0.070 Cl
ENDROOT
TORSDOF 0
ENDMDL
