MODEL 1
REMARK minimizedAffinity 0.0414233916
REMARK minimizedRMSD -1
REMARK  0 active torsions:
REMARK  status: ('A' for Active; 'I' for Inactive)
ROOT
ATOM      1  C   UNL d   1      -5.999   3.826  -0.024  0.00  0.00     0.020 A 
ATOM      2  C1  UNL d   1      -5.550   3.584   1.274  0.00  0.00     0.020 A 
ATOM      3  C2  UNL d   1      -4.299   2.999   1.482  0.00  0.00     0.034 A 
ATOM      4  C3  UNL d   1      -3.493   2.654   0.391  0.00  0.00     0.017 A 
ATOM      5  C4  UNL d   1      -3.945   2.898  -0.911  0.00  0.00     0.017 A 
ATOM      6  C5  UNL d   1      -5.198   3.484  -1.114  0.00  0.00     0.034 A 
ATOM      7 Cl   UNL d   1      -3.007   2.500  -2.307  0.00  0.00    -0.070 Cl
ATOM      8 Cl1  UNL d   1      -1.958   1.935   0.722  0.00  0.00    -0.070 Cl
ENDROOT
TORSDOF 0
ENDMDL
