MODEL 1
REMARK minimizedAffinity 3.53345466
REMARK minimizedRMSD -1
REMARK  0 active torsions:
REMARK  status: ('A' for Active; 'I' for Inactive)
ROOT
ATOM      1  C   UNL d   1      -5.277   1.219  -0.279  0.00  0.00     0.020 A 
ATOM      2  C1  UNL d   1      -5.784   1.840  -1.419  0.00  0.00     0.020 A 
ATOM      3  C2  UNL d   1      -6.000   3.220  -1.425  0.00  0.00     0.034 A 
ATOM      4  C3  UNL d   1      -5.709   3.983  -0.288  0.00  0.00     0.017 A 
ATOM      5  C4  UNL d   1      -5.200   3.358   0.857  0.00  0.00     0.017 A 
ATOM      6  C5  UNL d   1      -4.986   1.976   0.857  0.00  0.00     0.034 A 
ATOM      7 Cl   UNL d   1      -4.817   4.232   2.298  0.00  0.00    -0.070 Cl
ATOM      8 Cl1  UNL d   1      -6.000   5.684  -0.365  0.00  0.00    -0.070 Cl
ENDROOT
TORSDOF 0
ENDMDL
