MODEL 1
REMARK minimizedAffinity 2.24233031
REMARK minimizedRMSD -1
REMARK  0 active torsions:
REMARK  status: ('A' for Active; 'I' for Inactive)
ROOT
ATOM      1  C   UNL d   1       1.576  -0.870   4.040  0.00  0.00     0.020 A 
ATOM      2  C1  UNL d   1       1.724  -1.475   2.793  0.00  0.00     0.020 A 
ATOM      3  C2  UNL d   1       2.171  -0.726   1.703  0.00  0.00     0.034 A 
ATOM      4  C3  UNL d   1       2.473   0.632   1.857  0.00  0.00     0.017 A 
ATOM      5  C4  UNL d   1       2.324   1.239   3.110  0.00  0.00     0.017 A 
ATOM      6  C5  UNL d   1       1.875   0.484   4.198  0.00  0.00     0.034 A 
ATOM      7 Cl   UNL d   1       2.676   2.909   3.379  0.00  0.00    -0.070 Cl
ATOM      8 Cl1  UNL d   1       3.022   1.497   0.466  0.00  0.00    -0.070 Cl
ENDROOT
TORSDOF 0
ENDMDL
