MODEL 1
REMARK minimizedAffinity -1.05221176
REMARK minimizedRMSD -1
REMARK  0 active torsions:
REMARK  status: ('A' for Active; 'I' for Inactive)
ROOT
ATOM      1  C   UNL d   1      -1.107   0.958  -5.649  0.00  0.00     0.172 C 
ATOM      2  N   UNL d   1      -0.854  -0.075  -4.672  0.00  0.00    -0.070 N 
ATOM      3  C1  UNL d   1      -0.444  -1.352  -4.949  0.00  0.00    -0.004 A 
ATOM      4  C2  UNL d   1      -0.316  -2.023  -3.752  0.00  0.00    -0.047 A 
ATOM      5  C3  UNL d   1      -0.660  -1.118  -2.720  0.00  0.00    -0.047 A 
ATOM      6  C4  UNL d   1      -0.989   0.080  -3.318  0.00  0.00    -0.004 A 
ENDROOT
TORSDOF 0
ENDMDL
