MODEL 1
REMARK minimizedAffinity 0.615998507
REMARK minimizedRMSD -1
REMARK  0 active torsions:
REMARK  status: ('A' for Active; 'I' for Inactive)
ROOT
ATOM      1  C   UNL d   1      -1.126   0.720  -4.850  0.00  0.00     0.172 C 
ATOM      2  N   UNL d   1      -0.634  -0.483  -4.220  0.00  0.00    -0.070 N 
ATOM      3  C1  UNL d   1      -0.667  -0.753  -2.878  0.00  0.00    -0.004 A 
ATOM      4  C2  UNL d   1      -0.105  -1.996  -2.684  0.00  0.00    -0.047 A 
ATOM      5  C3  UNL d   1       0.278  -2.491  -3.953  0.00  0.00    -0.047 A 
ATOM      6  C4  UNL d   1      -0.061  -1.534  -4.886  0.00  0.00    -0.004 A 
ENDROOT
TORSDOF 0
ENDMDL
