MODEL 1
REMARK minimizedAffinity -0.979038239
REMARK minimizedRMSD -1
REMARK  0 active torsions:
REMARK  status: ('A' for Active; 'I' for Inactive)
ROOT
ATOM      1  C   UNL d   1      -5.776   0.793  -0.043  0.00  0.00     0.172 C 
ATOM      2  N   UNL d   1      -4.418   0.443   0.299  0.00  0.00    -0.070 N 
ATOM      3  C1  UNL d   1      -3.601   1.144   1.145  0.00  0.00    -0.004 A 
ATOM      4  C2  UNL d   1      -2.392   0.485   1.207  0.00  0.00    -0.047 A 
ATOM      5  C3  UNL d   1      -2.485  -0.650   0.367  0.00  0.00    -0.047 A 
ATOM      6  C4  UNL d   1      -3.749  -0.652  -0.182  0.00  0.00    -0.004 A 
ENDROOT
TORSDOF 0
ENDMDL
