MODEL 1
REMARK minimizedAffinity 3.12025309
REMARK minimizedRMSD -1
REMARK  0 active torsions:
REMARK  status: ('A' for Active; 'I' for Inactive)
ROOT
ATOM      1  C   UNL d   1      -3.812   0.023  -5.257  0.00  0.00     0.172 C 
ATOM      2  N   UNL d   1      -2.408   0.299  -5.067  0.00  0.00    -0.070 N 
ATOM      3  C1  UNL d   1      -1.423   0.106  -5.999  0.00  0.00    -0.004 A 
ATOM      4  C2  UNL d   1      -0.226   0.488  -5.434  0.00  0.00    -0.047 A 
ATOM      5  C3  UNL d   1      -0.500   0.926  -4.116  0.00  0.00    -0.047 A 
ATOM      6  C4  UNL d   1      -1.858   0.798  -3.916  0.00  0.00    -0.004 A 
ENDROOT
TORSDOF 0
ENDMDL
