MODEL 1
REMARK minimizedAffinity -3.1190927
REMARK minimizedRMSD -1
REMARK  0 active torsions:
REMARK  status: ('A' for Active; 'I' for Inactive)
ROOT
ATOM      1  C   UNL d   1      -2.254   0.499  -4.871  0.00  0.00     0.172 C 
ATOM      2  N   UNL d   1      -0.817   0.365  -4.909  0.00  0.00    -0.070 N 
ATOM      3  C1  UNL d   1      -0.079  -0.010  -6.000  0.00  0.00    -0.004 A 
ATOM      4  C2  UNL d   1       1.249  -0.016  -5.629  0.00  0.00    -0.047 A 
ATOM      5  C3  UNL d   1       1.311   0.367  -4.269  0.00  0.00    -0.047 A 
ATOM      6  C4  UNL d   1       0.018   0.597  -3.848  0.00  0.00    -0.004 A 
ENDROOT
TORSDOF 0
ENDMDL
