MODEL 1
REMARK minimizedAffinity -2.90049624
REMARK minimizedRMSD -1
REMARK  0 active torsions:
REMARK  status: ('A' for Active; 'I' for Inactive)
ROOT
ATOM      1  C   UNL d   1       2.179   0.376  -5.625  0.00  0.00     0.172 C 
ATOM      2  N   UNL d   1       0.791   0.417  -5.229  0.00  0.00    -0.070 N 
ATOM      3  C1  UNL d   1      -0.246   0.869  -6.000  0.00  0.00    -0.004 A 
ATOM      4  C2  UNL d   1      -1.405   0.743  -5.265  0.00  0.00    -0.047 A 
ATOM      5  C3  UNL d   1      -1.052   0.197  -4.008  0.00  0.00    -0.047 A 
ATOM      6  C4  UNL d   1       0.314   0.005  -4.013  0.00  0.00    -0.004 A 
ENDROOT
TORSDOF 0
ENDMDL
