MODEL 1
REMARK minimizedAffinity 0.700367749
REMARK minimizedRMSD -1
REMARK  0 active torsions:
REMARK  status: ('A' for Active; 'I' for Inactive)
ROOT
ATOM      1  C   UNL d   1      -4.247   1.120   1.479  0.00  0.00     0.172 C 
ATOM      2  N   UNL d   1      -2.952   0.628   1.888  0.00  0.00    -0.070 N 
ATOM      3  C1  UNL d   1      -2.186   1.142   2.900  0.00  0.00    -0.004 A 
ATOM      4  C2  UNL d   1      -1.030   0.397   2.974  0.00  0.00    -0.047 A 
ATOM      5  C3  UNL d   1      -1.102  -0.599   1.971  0.00  0.00    -0.047 A 
ATOM      6  C4  UNL d   1      -2.303  -0.432   1.314  0.00  0.00    -0.004 A 
ENDROOT
TORSDOF 0
ENDMDL
