MODEL 1
REMARK minimizedAffinity -1.32571483
REMARK minimizedRMSD -1
REMARK  0 active torsions:
REMARK  status: ('A' for Active; 'I' for Inactive)
ROOT
ATOM      1  C   UNL d   1       0.372  -2.136  -3.836  0.00  0.00     0.172 C 
ATOM      2  N   UNL d   1       0.664  -1.019  -4.704  0.00  0.00    -0.070 N 
ATOM      3  C1  UNL d   1       1.908  -0.655  -5.146  0.00  0.00    -0.004 A 
ATOM      4  C2  UNL d   1       1.763   0.456  -5.948  0.00  0.00    -0.047 A 
ATOM      5  C3  UNL d   1       0.384   0.771  -5.990  0.00  0.00    -0.047 A 
ATOM      6  C4  UNL d   1      -0.273  -0.158  -5.210  0.00  0.00    -0.004 A 
ENDROOT
TORSDOF 0
ENDMDL
