MODEL 1
REMARK minimizedAffinity -4.87487459
REMARK minimizedRMSD -1
REMARK  2 active torsions:
REMARK  status: ('A' for Active; 'I' for Inactive)
REMARK    1  A    between atoms: C2'_3  and  C1'_4 
REMARK    2  A    between atoms: C1'_4  and  C1_5 
ROOT
ATOM      1  C1  I4B d   1      -0.251  -0.254   0.283  0.00  0.00    -0.075 A 
ATOM      2  C2  I4B d   1      -0.573  -1.343   1.054  0.00  0.00     0.003 A 
ATOM      3  C3  I4B d   1       0.354  -2.400   1.218  0.00  0.00     0.002 A 
ATOM      4  C4  I4B d   1       1.565  -2.350   0.556  0.00  0.00    -0.004 A 
ATOM      5  C5  I4B d   1       1.899  -1.235  -0.206  0.00  0.00     0.002 A 
ATOM      6  C6  I4B d   1       0.991  -0.174  -0.334  0.00  0.00     0.003 A 
ENDROOT
BRANCH   1   7
ATOM      7  C1' I4B d   1      -1.267   0.830   0.105  0.00  0.00     0.060 C 
BRANCH   7   8
ATOM      8  C2' I4B d   1      -1.551   0.964  -1.378  0.00  0.00    -0.013 C 
ATOM      9  C4' I4B d   1      -2.983   0.621  -1.692  0.00  0.00     0.013 C 
ATOM     10  C3' I4B d   1      -1.230   2.371  -1.785  0.00  0.00     0.013 C 
ENDBRANCH   7   8
ENDBRANCH   1   7
TORSDOF 2
ENDMDL
