MODEL 1
REMARK minimizedAffinity -6.00658464
REMARK minimizedRMSD -1
REMARK  2 active torsions:
REMARK  status: ('A' for Active; 'I' for Inactive)
REMARK    1  A    between atoms: C2'_3  and  C1'_4 
REMARK    2  A    between atoms: C1'_4  and  C1_5 
ROOT
ATOM      1  C1  I4B d   1      -0.265   0.106   0.465  0.00  0.00    -0.075 A 
ATOM      2  C2  I4B d   1       0.994  -0.060  -0.055  0.00  0.00     0.003 A 
ATOM      3  C3  I4B d   1       1.785  -1.169   0.331  0.00  0.00     0.002 A 
ATOM      4  C4  I4B d   1       1.300  -2.054   1.272  0.00  0.00    -0.004 A 
ATOM      5  C5  I4B d   1       0.014  -1.897   1.782  0.00  0.00     0.002 A 
ATOM      6  C6  I4B d   1      -0.778  -0.817   1.367  0.00  0.00     0.003 A 
ENDROOT
BRANCH   1   7
ATOM      7  C1' I4B d   1      -1.059   1.307   0.060  0.00  0.00     0.060 C 
BRANCH   7   8
ATOM      8  C2' I4B d   1      -1.234   1.265  -1.444  0.00  0.00    -0.013 C 
ATOM      9  C4' I4B d   1      -2.664   0.973  -1.819  0.00  0.00     0.013 C 
ATOM     10  C3' I4B d   1      -0.788   2.585  -1.999  0.00  0.00     0.013 C 
ENDBRANCH   7   8
ENDBRANCH   1   7
TORSDOF 2
ENDMDL
