MODEL 1
REMARK minimizedAffinity -5.52616644
REMARK minimizedRMSD -1
REMARK  2 active torsions:
REMARK  status: ('A' for Active; 'I' for Inactive)
REMARK    1  A    between atoms: C2'_3  and  C1'_4 
REMARK    2  A    between atoms: C1'_4  and  C1_5 
ROOT
ATOM      1  C1  I4B d   1       0.029   0.214  -0.058  0.00  0.00    -0.075 A 
ATOM      2  C2  I4B d   1       1.318   0.267  -0.526  0.00  0.00     0.003 A 
ATOM      3  C3  I4B d   1       2.209  -0.806  -0.283  0.00  0.00     0.002 A 
ATOM      4  C4  I4B d   1       1.787  -1.882   0.471  0.00  0.00    -0.004 A 
ATOM      5  C5  I4B d   1       0.473  -1.944   0.925  0.00  0.00     0.002 A 
ATOM      6  C6  I4B d   1      -0.416  -0.895   0.649  0.00  0.00     0.003 A 
ENDROOT
BRANCH   1   7
ATOM      7  C1' I4B d   1      -0.875   1.380  -0.305  0.00  0.00     0.060 C 
BRANCH   7   8
ATOM      8  C2' I4B d   1      -1.160   1.443  -1.792  0.00  0.00    -0.013 C 
ATOM      9  C4' I4B d   1      -2.487   0.810  -2.121  0.00  0.00     0.013 C 
ATOM     10  C3' I4B d   1      -1.129   2.883  -2.209  0.00  0.00     0.013 C 
ENDBRANCH   7   8
ENDBRANCH   1   7
TORSDOF 2
ENDMDL
