MODEL 1
REMARK minimizedAffinity -2.67386484
REMARK minimizedRMSD -1
REMARK  2 active torsions:
REMARK  status: ('A' for Active; 'I' for Inactive)
REMARK    1  A    between atoms: C2'_3  and  C1'_4 
REMARK    2  A    between atoms: C1'_4  and  C1_5 
ROOT
ATOM      1  C1  I4B d   1      -1.300   1.149  -1.493  0.00  0.00    -0.075 A 
ATOM      2  C2  I4B d   1      -0.533   1.676  -2.502  0.00  0.00     0.003 A 
ATOM      3  C3  I4B d   1      -1.047   1.760  -3.818  0.00  0.00     0.002 A 
ATOM      4  C4  I4B d   1      -2.305   1.263  -4.090  0.00  0.00    -0.004 A 
ATOM      5  C5  I4B d   1      -3.090   0.750  -3.062  0.00  0.00     0.002 A 
ATOM      6  C6  I4B d   1      -2.590   0.704  -1.752  0.00  0.00     0.003 A 
ENDROOT
BRANCH   1   7
ATOM      7  C1' I4B d   1      -0.714   1.045  -0.121  0.00  0.00     0.060 C 
BRANCH   7   8
ATOM      8  C2' I4B d   1       0.168  -0.186  -0.082  0.00  0.00    -0.013 C 
ATOM      9  C4' I4B d   1       1.597   0.176   0.224  0.00  0.00     0.013 C 
ATOM     10  C3' I4B d   1      -0.386  -1.121   0.952  0.00  0.00     0.013 C 
ENDBRANCH   7   8
ENDBRANCH   1   7
TORSDOF 2
ENDMDL
