MODEL 1
REMARK minimizedAffinity -5.25148058
REMARK minimizedRMSD -1
REMARK  2 active torsions:
REMARK  status: ('A' for Active; 'I' for Inactive)
REMARK    1  A    between atoms: C2'_3  and  C1'_4 
REMARK    2  A    between atoms: C1'_4  and  C1_5 
ROOT
ATOM      1  C1  I4B d   1      -0.149   0.520  -0.093  0.00  0.00    -0.075 A 
ATOM      2  C2  I4B d   1      -0.504  -0.573   0.657  0.00  0.00     0.003 A 
ATOM      3  C3  I4B d   1       0.416  -1.630   0.857  0.00  0.00     0.002 A 
ATOM      4  C4  I4B d   1       1.655  -1.576   0.252  0.00  0.00    -0.004 A 
ATOM      5  C5  I4B d   1       2.022  -0.456  -0.489  0.00  0.00     0.002 A 
ATOM      6  C6  I4B d   1       1.119   0.604  -0.652  0.00  0.00     0.003 A 
ENDROOT
BRANCH   1   7
ATOM      7  C1' I4B d   1      -1.158   1.603  -0.311  0.00  0.00     0.060 C 
BRANCH   7   8
ATOM      8  C2' I4B d   1      -1.400   1.721  -1.802  0.00  0.00    -0.013 C 
ATOM      9  C4' I4B d   1      -2.796   1.287  -2.164  0.00  0.00     0.013 C 
ATOM     10  C3' I4B d   1      -1.156   3.146  -2.200  0.00  0.00     0.013 C 
ENDBRANCH   7   8
ENDBRANCH   1   7
TORSDOF 2
ENDMDL
