MODEL 1
REMARK minimizedAffinity -3.95543337
REMARK minimizedRMSD -1
REMARK  2 active torsions:
REMARK  status: ('A' for Active; 'I' for Inactive)
REMARK    1  A    between atoms: C2'_3  and  C1'_4 
REMARK    2  A    between atoms: C1'_4  and  C1_5 
ROOT
ATOM      1  C1  I4B d   1       0.417  -1.457   0.445  0.00  0.00    -0.075 A 
ATOM      2  C2  I4B d   1       1.426  -2.286   0.868  0.00  0.00     0.003 A 
ATOM      3  C3  I4B d   1       1.349  -2.913   2.135  0.00  0.00     0.002 A 
ATOM      4  C4  I4B d   1       0.277  -2.646   2.962  0.00  0.00    -0.004 A 
ATOM      5  C5  I4B d   1      -0.756  -1.824   2.522  0.00  0.00     0.002 A 
ATOM      6  C6  I4B d   1      -0.693  -1.235   1.251  0.00  0.00     0.003 A 
ENDROOT
BRANCH   1   7
ATOM      7  C1' I4B d   1       0.546  -0.785  -0.885  0.00  0.00     0.060 C 
BRANCH   7   8
ATOM      8  C2' I4B d   1       0.801   0.688  -0.640  0.00  0.00    -0.013 C 
ATOM      9  C4' I4B d   1       2.165   1.095  -1.133  0.00  0.00     0.013 C 
ATOM     10  C3' I4B d   1      -0.279   1.466  -1.332  0.00  0.00     0.013 C 
ENDBRANCH   7   8
ENDBRANCH   1   7
TORSDOF 2
ENDMDL
