MODEL 1
REMARK minimizedAffinity -3.84784031
REMARK minimizedRMSD -1
REMARK  2 active torsions:
REMARK  status: ('A' for Active; 'I' for Inactive)
REMARK    1  A    between atoms: C2'_3  and  C1'_4 
REMARK    2  A    between atoms: C1'_4  and  C1_5 
ROOT
ATOM      1  C1  I4B d   1      -0.486   0.305   0.331  0.00  0.00    -0.075 A 
ATOM      2  C2  I4B d   1      -0.779  -0.663   1.259  0.00  0.00     0.003 A 
ATOM      3  C3  I4B d   1       0.176  -1.661   1.574  0.00  0.00     0.002 A 
ATOM      4  C4  I4B d   1       1.383  -1.682   0.905  0.00  0.00    -0.004 A 
ATOM      5  C5  I4B d   1       1.687  -0.686  -0.019  0.00  0.00     0.002 A 
ATOM      6  C6  I4B d   1       0.752   0.322  -0.299  0.00  0.00     0.003 A 
ENDROOT
BRANCH   1   7
ATOM      7  C1' I4B d   1      -1.529   1.324  -0.001  0.00  0.00     0.060 C 
BRANCH   7   8
ATOM      8  C2' I4B d   1      -1.706   1.338  -1.505  0.00  0.00    -0.013 C 
ATOM      9  C4' I4B d   1      -3.148   1.127  -1.887  0.00  0.00     0.013 C 
ATOM     10  C3' I4B d   1      -1.196   2.651  -2.020  0.00  0.00     0.013 C 
ENDBRANCH   7   8
ENDBRANCH   1   7
TORSDOF 2
ENDMDL
