MODEL 1
REMARK minimizedAffinity -4.77392435
REMARK minimizedRMSD -1
REMARK  2 active torsions:
REMARK  status: ('A' for Active; 'I' for Inactive)
REMARK    1  A    between atoms: C2'_3  and  C1'_4 
REMARK    2  A    between atoms: C1'_4  and  C1_5 
ROOT
ATOM      1  C1  I4B d   1       0.726  -1.929   0.849  0.00  0.00    -0.075 A 
ATOM      2  C2  I4B d   1       0.002  -0.814   0.506  0.00  0.00     0.003 A 
ATOM      3  C3  I4B d   1       0.427   0.012  -0.563  0.00  0.00     0.002 A 
ATOM      4  C4  I4B d   1       1.601  -0.284  -1.224  0.00  0.00    -0.004 A 
ATOM      5  C5  I4B d   1       2.322  -1.427  -0.891  0.00  0.00     0.002 A 
ATOM      6  C6  I4B d   1       1.876  -2.262   0.144  0.00  0.00     0.003 A 
ENDROOT
BRANCH   1   7
ATOM      7  C1' I4B d   1       0.267  -2.760   2.004  0.00  0.00     0.060 C 
BRANCH   7   8
ATOM      8  C2' I4B d   1      -0.788  -1.973   2.755  0.00  0.00    -0.013 C 
ATOM      9  C4' I4B d   1      -1.912  -2.865   3.212  0.00  0.00     0.013 C 
ATOM     10  C3' I4B d   1      -0.122  -1.302   3.919  0.00  0.00     0.013 C 
ENDBRANCH   7   8
ENDBRANCH   1   7
TORSDOF 2
ENDMDL
