MODEL 1
REMARK minimizedAffinity -4.91012621
REMARK minimizedRMSD -1
REMARK  2 active torsions:
REMARK  status: ('A' for Active; 'I' for Inactive)
REMARK    1  A    between atoms: C2'_3  and  C1'_4 
REMARK    2  A    between atoms: C1'_4  and  C1_5 
ROOT
ATOM      1  C1  I4B d   1      -0.105   0.036   0.319  0.00  0.00    -0.075 A 
ATOM      2  C2  I4B d   1      -0.472  -0.896   1.257  0.00  0.00     0.003 A 
ATOM      3  C3  I4B d   1       0.402  -1.961   1.584  0.00  0.00     0.002 A 
ATOM      4  C4  I4B d   1       1.604  -2.083   0.917  0.00  0.00    -0.004 A 
ATOM      5  C5  I4B d   1       1.984  -1.125  -0.017  0.00  0.00     0.002 A 
ATOM      6  C6  I4B d   1       1.131  -0.051  -0.310  0.00  0.00     0.003 A 
ENDROOT
BRANCH   1   7
ATOM      7  C1' I4B d   1      -1.066   1.129  -0.027  0.00  0.00     0.060 C 
BRANCH   7   8
ATOM      8  C2' I4B d   1      -1.178   1.192  -1.536  0.00  0.00    -0.013 C 
ATOM      9  C4' I4B d   1      -2.514   0.679  -2.005  0.00  0.00     0.013 C 
ATOM     10  C3' I4B d   1      -0.967   2.616  -1.957  0.00  0.00     0.013 C 
ENDBRANCH   7   8
ENDBRANCH   1   7
TORSDOF 2
ENDMDL
