MODEL 1
REMARK minimizedAffinity -2.39754272
REMARK minimizedRMSD -1
REMARK  2 active torsions:
REMARK  status: ('A' for Active; 'I' for Inactive)
REMARK    1  A    between atoms: C2'_3  and  C1'_4 
REMARK    2  A    between atoms: C1'_4  and  C1_5 
ROOT
ATOM      1  C1  I4B d   1      -0.323   0.577  -0.253  0.00  0.00    -0.075 A 
ATOM      2  C2  I4B d   1       0.876   0.546  -0.922  0.00  0.00     0.003 A 
ATOM      3  C3  I4B d   1       1.864  -0.404  -0.569  0.00  0.00     0.002 A 
ATOM      4  C4  I4B d   1       1.634  -1.266   0.484  0.00  0.00    -0.004 A 
ATOM      5  C5  I4B d   1       0.409  -1.248   1.146  0.00  0.00     0.002 A 
ATOM      6  C6  I4B d   1      -0.580  -0.329   0.767  0.00  0.00     0.003 A 
ENDROOT
BRANCH   1   7
ATOM      7  C1' I4B d   1      -1.331   1.616  -0.630  0.00  0.00     0.060 C 
BRANCH   7   8
ATOM      8  C2' I4B d   1      -1.697   1.405  -2.085  0.00  0.00    -0.013 C 
ATOM      9  C4' I4B d   1      -3.145   1.019  -2.233  0.00  0.00     0.013 C 
ATOM     10  C3' I4B d   1      -1.397   2.674  -2.826  0.00  0.00     0.013 C 
ENDBRANCH   7   8
ENDBRANCH   1   7
TORSDOF 2
ENDMDL
