MODEL 1
REMARK minimizedAffinity -5.24983692
REMARK minimizedRMSD -1
REMARK  2 active torsions:
REMARK  status: ('A' for Active; 'I' for Inactive)
REMARK    1  A    between atoms: C2'_3  and  C1'_4 
REMARK    2  A    between atoms: C1'_4  and  C1_5 
ROOT
ATOM      1  C1  I4B d   1      -0.213  -1.155   0.826  0.00  0.00    -0.075 A 
ATOM      2  C2  I4B d   1       0.777  -1.991   0.374  0.00  0.00     0.003 A 
ATOM      3  C3  I4B d   1       1.384  -2.918   1.255  0.00  0.00     0.002 A 
ATOM      4  C4  I4B d   1       1.009  -2.940   2.583  0.00  0.00    -0.004 A 
ATOM      5  C5  I4B d   1      -0.010  -2.107   3.034  0.00  0.00     0.002 A 
ATOM      6  C6  I4B d   1      -0.634  -1.217   2.148  0.00  0.00     0.003 A 
ENDROOT
BRANCH   1   7
ATOM      7  C1' I4B d   1      -0.810  -0.165  -0.124  0.00  0.00     0.060 C 
BRANCH   7   8
ATOM      8  C2' I4B d   1      -0.320   1.214   0.270  0.00  0.00    -0.013 C 
ATOM      9  C4' I4B d   1       1.182   1.249   0.374  0.00  0.00     0.013 C 
ATOM     10  C3' I4B d   1      -0.816   2.191  -0.755  0.00  0.00     0.013 C 
ENDBRANCH   7   8
ENDBRANCH   1   7
TORSDOF 2
ENDMDL
