MODEL 1
REMARK minimizedAffinity -4.1182332
REMARK minimizedRMSD -1
REMARK  2 active torsions:
REMARK  status: ('A' for Active; 'I' for Inactive)
REMARK    1  A    between atoms: C2'_3  and  C1'_4 
REMARK    2  A    between atoms: C1'_4  and  C1_5 
ROOT
ATOM      1  C1  I4B d   1      -0.011   0.339  -0.305  0.00  0.00    -0.075 A 
ATOM      2  C2  I4B d   1       1.239   0.617  -0.798  0.00  0.00     0.003 A 
ATOM      3  C3  I4B d   1       2.316  -0.269  -0.554  0.00  0.00     0.002 A 
ATOM      4  C4  I4B d   1       2.111  -1.390   0.225  0.00  0.00    -0.004 A 
ATOM      5  C5  I4B d   1       0.837  -1.683   0.705  0.00  0.00     0.002 A 
ATOM      6  C6  I4B d   1      -0.233  -0.820   0.428  0.00  0.00     0.003 A 
ENDROOT
BRANCH   1   7
ATOM      7  C1' I4B d   1      -1.118   1.313  -0.554  0.00  0.00     0.060 C 
BRANCH   7   8
ATOM      8  C2' I4B d   1      -1.423   1.304  -2.038  0.00  0.00    -0.013 C 
ATOM      9  C4' I4B d   1      -2.721   0.594  -2.323  0.00  0.00     0.013 C 
ATOM     10  C3' I4B d   1      -1.469   2.726  -2.511  0.00  0.00     0.013 C 
ENDBRANCH   7   8
ENDBRANCH   1   7
TORSDOF 2
ENDMDL
