MODEL 1
REMARK minimizedAffinity -2.4845593
REMARK minimizedRMSD -1
REMARK  2 active torsions:
REMARK  status: ('A' for Active; 'I' for Inactive)
REMARK    1  A    between atoms: C2'_3  and  C1'_4 
REMARK    2  A    between atoms: C1'_4  and  C1_5 
ROOT
ATOM      1  C1  I4B d   1      -0.118   0.894  -0.164  0.00  0.00    -0.075 A 
ATOM      2  C2  I4B d   1      -0.440  -0.237   0.542  0.00  0.00     0.003 A 
ATOM      3  C3  I4B d   1       0.559  -1.191   0.855  0.00  0.00     0.002 A 
ATOM      4  C4  I4B d   1       1.848  -0.999   0.400  0.00  0.00    -0.004 A 
ATOM      5  C5  I4B d   1       2.177   0.160  -0.296  0.00  0.00     0.002 A 
ATOM      6  C6  I4B d   1       1.191   1.119  -0.570  0.00  0.00     0.003 A 
ENDROOT
BRANCH   1   7
ATOM      7  C1' I4B d   1      -1.204   1.865  -0.505  0.00  0.00     0.060 C 
BRANCH   7   8
ATOM      8  C2' I4B d   1      -1.779   1.469  -1.850  0.00  0.00    -0.013 C 
ATOM      9  C4' I4B d   1      -3.158   0.883  -1.702  0.00  0.00     0.013 C 
ATOM     10  C3' I4B d   1      -1.799   2.689  -2.721  0.00  0.00     0.013 C 
ENDBRANCH   7   8
ENDBRANCH   1   7
TORSDOF 2
ENDMDL
