MODEL 1
REMARK minimizedAffinity 2.15982556
REMARK minimizedRMSD -1
REMARK  3 active torsions:
REMARK  status: ('A' for Active; 'I' for Inactive)
REMARK    1  A    between atoms: C3'_2  and  C2'_3 
REMARK    2  A    between atoms: C2'_3  and  C1'_4 
REMARK    3  A    between atoms: C1'_4  and  C1_5 
ROOT
ATOM      1  C1  N4B d   1       3.185   5.115   5.171  0.00  0.00    -0.075 A 
ATOM      2  C2  N4B d   1       3.421   3.965   5.957  0.00  0.00     0.002 A 
ATOM      3  C3  N4B d   1       4.521   3.180   5.713  0.00  0.00     0.002 A 
ATOM      4  C4  N4B d   1       5.385   3.513   4.680  0.00  0.00    -0.004 A 
ATOM      5  C5  N4B d   1       5.165   4.639   3.942  0.00  0.00     0.002 A 
ATOM      6  C6  N4B d   1       4.065   5.439   4.179  0.00  0.00     0.002 A 
ENDROOT
BRANCH   1   7
ATOM      7  C1' N4B d   1       1.951   5.956   5.345  0.00  0.00     0.057 C 
BRANCH   7   8
ATOM      8  C2' N4B d   1       0.854   5.110   5.984  0.00  0.00     0.009 C 
BRANCH   8   9
ATOM      9  C3' N4B d   1      -0.534   5.618   5.633  0.00  0.00     0.004 C 
ATOM     10  C4' N4B d   1      -0.671   5.976   4.183  0.00  0.00     0.003 C 
ENDBRANCH   8   9
ENDBRANCH   7   8
ENDBRANCH   1   7
TORSDOF 3
ENDMDL
