MODEL 1
REMARK minimizedAffinity 4.83887339
REMARK minimizedRMSD -1
REMARK  3 active torsions:
REMARK  status: ('A' for Active; 'I' for Inactive)
REMARK    1  A    between atoms: C3'_2  and  C2'_3 
REMARK    2  A    between atoms: C2'_3  and  C1'_4 
REMARK    3  A    between atoms: C1'_4  and  C1_5 
ROOT
ATOM      1  C1  N4B d   1       4.011  -0.190  -1.565  0.00  0.00    -0.075 A 
ATOM      2  C2  N4B d   1       3.404  -0.840  -0.468  0.00  0.00     0.002 A 
ATOM      3  C3  N4B d   1       2.702  -2.004  -0.662  0.00  0.00     0.002 A 
ATOM      4  C4  N4B d   1       2.577  -2.525  -1.941  0.00  0.00    -0.004 A 
ATOM      5  C5  N4B d   1       3.188  -1.905  -2.992  0.00  0.00     0.002 A 
ATOM      6  C6  N4B d   1       3.900  -0.736  -2.811  0.00  0.00     0.002 A 
ENDROOT
BRANCH   1   7
ATOM      7  C1' N4B d   1       4.717   1.130  -1.416  0.00  0.00     0.057 C 
BRANCH   7   8
ATOM      8  C2' N4B d   1       3.946   2.000  -0.427  0.00  0.00     0.009 C 
BRANCH   8   9
ATOM      9  C3' N4B d   1       4.865   2.654   0.590  0.00  0.00     0.004 C 
ATOM     10  C4' N4B d   1       5.998   3.403  -0.047  0.00  0.00     0.003 C 
ENDBRANCH   8   9
ENDBRANCH   7   8
ENDBRANCH   1   7
TORSDOF 3
ENDMDL
