MODEL 1
REMARK minimizedAffinity 6.72370577
REMARK minimizedRMSD -1
REMARK  3 active torsions:
REMARK  status: ('A' for Active; 'I' for Inactive)
REMARK    1  A    between atoms: C3'_2  and  C2'_3 
REMARK    2  A    between atoms: C2'_3  and  C1'_4 
REMARK    3  A    between atoms: C1'_4  and  C1_5 
ROOT
ATOM      1  C1  N4B d   1      -4.176   2.014   2.320  0.00  0.00    -0.075 A 
ATOM      2  C2  N4B d   1      -3.366   3.166   2.213  0.00  0.00     0.002 A 
ATOM      3  C3  N4B d   1      -3.517   4.197   3.107  0.00  0.00     0.002 A 
ATOM      4  C4  N4B d   1      -4.481   4.108   4.100  0.00  0.00    -0.004 A 
ATOM      5  C5  N4B d   1      -5.243   2.982   4.212  0.00  0.00     0.002 A 
ATOM      6  C6  N4B d   1      -5.099   1.936   3.323  0.00  0.00     0.002 A 
ENDROOT
BRANCH   1   7
ATOM      7  C1' N4B d   1      -4.106   0.898   1.314  0.00  0.00     0.057 C 
BRANCH   7   8
ATOM      8  C2' N4B d   1      -5.522   0.463   0.949  0.00  0.00     0.009 C 
BRANCH   8   9
ATOM      9  C3' N4B d   1      -5.553  -0.357  -0.330  0.00  0.00     0.004 C 
ATOM     10  C4' N4B d   1      -4.212  -0.449  -0.993  0.00  0.00     0.003 C 
ENDBRANCH   8   9
ENDBRANCH   7   8
ENDBRANCH   1   7
TORSDOF 3
ENDMDL
