MODEL 1
REMARK minimizedAffinity 6.81142426
REMARK minimizedRMSD -1
REMARK  3 active torsions:
REMARK  status: ('A' for Active; 'I' for Inactive)
REMARK    1  A    between atoms: C3'_2  and  C2'_3 
REMARK    2  A    between atoms: C2'_3  and  C1'_4 
REMARK    3  A    between atoms: C1'_4  and  C1_5 
ROOT
ATOM      1  C1  N4B d   1       3.121   3.677   5.997  0.00  0.00    -0.075 A 
ATOM      2  C2  N4B d   1       1.885   2.993   6.000  0.00  0.00     0.002 A 
ATOM      3  C3  N4B d   1       1.859   1.622   5.932  0.00  0.00     0.002 A 
ATOM      4  C4  N4B d   1       3.050   0.917   5.844  0.00  0.00    -0.004 A 
ATOM      5  C5  N4B d   1       4.240   1.583   5.868  0.00  0.00     0.002 A 
ATOM      6  C6  N4B d   1       4.282   2.961   5.939  0.00  0.00     0.002 A 
ENDROOT
BRANCH   1   7
ATOM      7  C1' N4B d   1       3.198   5.179   5.983  0.00  0.00     0.057 C 
BRANCH   7   8
ATOM      8  C2' N4B d   1       2.177   5.723   4.988  0.00  0.00     0.009 C 
BRANCH   8   9
ATOM      9  C3' N4B d   1       0.834   5.995   5.644  0.00  0.00     0.004 C 
ATOM     10  C4' N4B d   1      -0.325   5.559   4.797  0.00  0.00     0.003 C 
ENDBRANCH   8   9
ENDBRANCH   7   8
ENDBRANCH   1   7
TORSDOF 3
ENDMDL
