MODEL 1
REMARK minimizedAffinity 8.35348225
REMARK minimizedRMSD -1
REMARK  1 active torsions:
REMARK  status: ('A' for Active; 'I' for Inactive)
REMARK    1  A    between atoms: N_2  and  C1_3 
ROOT
ATOM      1  C1  UNL d   1      -0.342  -1.272   1.721  0.00  0.00     0.143 A 
ATOM      2  C2  UNL d   1      -0.985  -0.668   0.636  0.00  0.00    -0.057 A 
ATOM      3  C3  UNL d   1      -0.297  -0.385  -0.550  0.00  0.00     0.033 A 
ATOM      4  C4  UNL d   1       1.059  -0.676  -0.661  0.00  0.00    -0.042 A 
ATOM      5  C5  UNL d   1       1.724  -1.253   0.414  0.00  0.00     0.033 A 
ATOM      6  C6  UNL d   1       1.030  -1.540   1.593  0.00  0.00    -0.057 A 
ENDROOT
BRANCH   1   7
ATOM      7  N   UNL d   1      -0.947  -1.489   2.962  0.00  0.00    -0.732 N 
ATOM      8  C   UNL d   1      -1.834  -2.614   3.163  0.00  0.00     0.284 C 
ATOM      9  H3  UNL d   1      -0.313  -1.314   3.739  0.00  0.00     0.395 HD
ENDBRANCH   1   7
TORSDOF 1
ENDMDL
