MODEL 1
REMARK minimizedAffinity 0.867855966
REMARK minimizedRMSD -1
REMARK  1 active torsions:
REMARK  status: ('A' for Active; 'I' for Inactive)
REMARK    1  A    between atoms: N_2  and  C1_3 
ROOT
ATOM      1  C1  UNL d   1       0.661  -1.140   0.970  0.00  0.00     0.143 A 
ATOM      2  C2  UNL d   1       0.170  -1.073   2.278  0.00  0.00    -0.057 A 
ATOM      3  C3  UNL d   1      -1.152  -0.691   2.539  0.00  0.00     0.033 A 
ATOM      4  C4  UNL d   1      -2.000  -0.340   1.494  0.00  0.00    -0.042 A 
ATOM      5  C5  UNL d   1      -1.526  -0.375   0.187  0.00  0.00     0.033 A 
ATOM      6  C6  UNL d   1      -0.207  -0.764  -0.067  0.00  0.00    -0.057 A 
ENDROOT
BRANCH   1   7
ATOM      7  N   UNL d   1       1.993  -1.418   0.652  0.00  0.00    -0.732 N 
ATOM      8  C   UNL d   1       2.470  -2.783   0.603  0.00  0.00     0.284 C 
ATOM      9  H3  UNL d   1       2.344  -0.827  -0.098  0.00  0.00     0.395 HD
ENDBRANCH   1   7
TORSDOF 1
ENDMDL
