MODEL 1
REMARK minimizedAffinity 3.0113523
REMARK minimizedRMSD -1
REMARK  1 active torsions:
REMARK  status: ('A' for Active; 'I' for Inactive)
REMARK    1  A    between atoms: N_2  and  C1_3 
ROOT
ATOM      1  C1  UNL d   1       3.530   5.961   3.548  0.00  0.00     0.143 A 
ATOM      2  C2  UNL d   1       2.170   5.876   3.230  0.00  0.00    -0.057 A 
ATOM      3  C3  UNL d   1       1.189   5.877   4.229  0.00  0.00     0.033 A 
ATOM      4  C4  UNL d   1       1.553   5.933   5.570  0.00  0.00    -0.042 A 
ATOM      5  C5  UNL d   1       2.900   5.993   5.911  0.00  0.00     0.033 A 
ATOM      6  C6  UNL d   1       3.875   5.998   4.909  0.00  0.00    -0.057 A 
ENDROOT
BRANCH   1   7
ATOM      7  N   UNL d   1       4.557   5.865   2.606  0.00  0.00    -0.732 N 
ATOM      8  C   UNL d   1       4.259   5.855   1.190  0.00  0.00     0.284 C 
ATOM      9  H3  UNL d   1       5.367   6.427   2.856  0.00  0.00     0.395 HD
ENDBRANCH   1   7
TORSDOF 1
ENDMDL
