MODEL 1
REMARK minimizedAffinity 5.67093277
REMARK minimizedRMSD -1
REMARK  1 active torsions:
REMARK  status: ('A' for Active; 'I' for Inactive)
REMARK    1  A    between atoms: N_2  and  C1_3 
ROOT
ATOM      1  C1  UNL d   1      -0.617  -0.118   0.823  0.00  0.00     0.143 A 
ATOM      2  C2  UNL d   1      -0.053  -0.594  -0.366  0.00  0.00    -0.057 A 
ATOM      3  C3  UNL d   1       1.197  -1.224  -0.376  0.00  0.00     0.033 A 
ATOM      4  C4  UNL d   1       1.921  -1.364   0.804  0.00  0.00    -0.042 A 
ATOM      5  C5  UNL d   1       1.392  -0.877   1.993  0.00  0.00     0.033 A 
ATOM      6  C6  UNL d   1       0.140  -0.254   1.998  0.00  0.00    -0.057 A 
ENDROOT
BRANCH   1   7
ATOM      7  N   UNL d   1      -1.811   0.604   0.884  0.00  0.00    -0.732 N 
ATOM      8  C   UNL d   1      -1.881   1.852   1.613  0.00  0.00     0.284 C 
ATOM      9  H3  UNL d   1      -2.304   0.614  -0.006  0.00  0.00     0.395 HD
ENDBRANCH   1   7
TORSDOF 1
ENDMDL
