MODEL 1
REMARK minimizedAffinity 3.67171574
REMARK minimizedRMSD -1
REMARK  1 active torsions:
REMARK  status: ('A' for Active; 'I' for Inactive)
REMARK    1  A    between atoms: N_2  and  C1_3 
ROOT
ATOM      1  C1  UNL d   1       2.962   5.999   3.369  0.00  0.00     0.143 A 
ATOM      2  C2  UNL d   1       1.568   5.968   3.483  0.00  0.00    -0.057 A 
ATOM      3  C3  UNL d   1       0.942   5.979   4.736  0.00  0.00     0.033 A 
ATOM      4  C4  UNL d   1       1.702   5.992   5.900  0.00  0.00    -0.042 A 
ATOM      5  C5  UNL d   1       3.089   5.998   5.811  0.00  0.00     0.033 A 
ATOM      6  C6  UNL d   1       3.709   5.994   4.557  0.00  0.00    -0.057 A 
ENDROOT
BRANCH   1   7
ATOM      7  N   UNL d   1       3.645   5.890   2.156  0.00  0.00    -0.732 N 
ATOM      8  C   UNL d   1       5.090   5.801   2.128  0.00  0.00     0.284 C 
ATOM      9  H3  UNL d   1       3.178   5.267   1.501  0.00  0.00     0.395 HD
ENDBRANCH   1   7
TORSDOF 1
ENDMDL
