MODEL 1
REMARK minimizedAffinity 1.95581913
REMARK minimizedRMSD -1
REMARK  0 active torsions:
REMARK  status: ('A' for Active; 'I' for Inactive)
ROOT
ATOM      1  C   UNL d   1      -0.623   2.203   2.494  0.00  0.00     0.020 A 
ATOM      2  C1  UNL d   1       0.639   1.889   1.992  0.00  0.00     0.020 A 
ATOM      3  C2  UNL d   1       1.303   2.790   1.157  0.00  0.00     0.034 A 
ATOM      4  C3  UNL d   1       0.705   4.010   0.822  0.00  0.00     0.017 A 
ATOM      5  C4  UNL d   1      -0.562   4.325   1.327  0.00  0.00     0.017 A 
ATOM      6  C5  UNL d   1      -1.222   3.419   2.162  0.00  0.00     0.034 A 
ATOM      7 Cl   UNL d   1      -1.364   5.812   0.958  0.00  0.00    -0.070 Cl
ATOM      8 Cl1  UNL d   1       1.583   5.078  -0.215  0.00  0.00    -0.070 Cl
ENDROOT
TORSDOF 0
ENDMDL
