MODEL 1
REMARK minimizedAffinity 8.71687603
REMARK minimizedRMSD -1
REMARK  0 active torsions:
REMARK  status: ('A' for Active; 'I' for Inactive)
ROOT
ATOM      1  C   UNL d   1      -0.489   2.867   2.971  0.00  0.00     0.020 A 
ATOM      2  C1  UNL d   1       0.839   2.457   2.858  0.00  0.00     0.020 A 
ATOM      3  C2  UNL d   1       1.321   1.981   1.636  0.00  0.00     0.034 A 
ATOM      4  C3  UNL d   1       0.475   1.914   0.524  0.00  0.00     0.017 A 
ATOM      5  C4  UNL d   1      -0.858   2.326   0.639  0.00  0.00     0.017 A 
ATOM      6  C5  UNL d   1      -1.335   2.801   1.864  0.00  0.00     0.034 A 
ATOM      7 Cl   UNL d   1      -1.962   2.273  -0.690  0.00  0.00    -0.070 Cl
ATOM      8 Cl1  UNL d   1       1.138   1.316  -0.955  0.00  0.00    -0.070 Cl
ENDROOT
TORSDOF 0
ENDMDL
