MODEL 1
REMARK minimizedAffinity 4.51878405
REMARK minimizedRMSD -1
REMARK  0 active torsions:
REMARK  status: ('A' for Active; 'I' for Inactive)
ROOT
ATOM      1  C   UNL d   1      -0.231   5.995  -2.022  0.00  0.00     0.020 A 
ATOM      2  C1  UNL d   1       0.847   5.471  -1.310  0.00  0.00     0.020 A 
ATOM      3  C2  UNL d   1       0.741   4.216  -0.706  0.00  0.00     0.034 A 
ATOM      4  C3  UNL d   1      -0.446   3.482  -0.812  0.00  0.00     0.017 A 
ATOM      5  C4  UNL d   1      -1.527   4.009  -1.527  0.00  0.00     0.017 A 
ATOM      6  C5  UNL d   1      -1.416   5.266  -2.130  0.00  0.00     0.034 A 
ATOM      7 Cl   UNL d   1      -3.024   3.162  -1.702  0.00  0.00    -0.070 Cl
ATOM      8 Cl1  UNL d   1      -0.506   1.937  -0.040  0.00  0.00    -0.070 Cl
ENDROOT
TORSDOF 0
ENDMDL
