MODEL 1
REMARK minimizedAffinity 5.81723833
REMARK minimizedRMSD -1
REMARK  0 active torsions:
REMARK  status: ('A' for Active; 'I' for Inactive)
ROOT
ATOM      1  C   UNL d   1      -3.764   4.124  -4.474  0.00  0.00     0.020 A 
ATOM      2  C1  UNL d   1      -3.764   2.735  -4.595  0.00  0.00     0.020 A 
ATOM      3  C2  UNL d   1      -4.461   1.954  -3.670  0.00  0.00     0.034 A 
ATOM      4  C3  UNL d   1      -5.160   2.561  -2.621  0.00  0.00     0.017 A 
ATOM      5  C4  UNL d   1      -5.160   3.955  -2.500  0.00  0.00     0.017 A 
ATOM      6  C5  UNL d   1      -4.461   4.733  -3.429  0.00  0.00     0.034 A 
ATOM      7 Cl   UNL d   1      -6.000   4.776  -1.232  0.00  0.00    -0.070 Cl
ATOM      8 Cl1  UNL d   1      -6.000   1.533  -1.514  0.00  0.00    -0.070 Cl
ENDROOT
TORSDOF 0
ENDMDL
