MODEL 1
REMARK minimizedAffinity 1.25051177
REMARK minimizedRMSD -1
REMARK  0 active torsions:
REMARK  status: ('A' for Active; 'I' for Inactive)
ROOT
ATOM      1  C   UNL d   1       0.647   3.150   0.085  0.00  0.00     0.020 A 
ATOM      2  C1  UNL d   1      -0.739   2.993   0.100  0.00  0.00     0.020 A 
ATOM      3  C2  UNL d   1      -1.538   3.770  -0.741  0.00  0.00     0.034 A 
ATOM      4  C3  UNL d   1      -0.954   4.706  -1.601  0.00  0.00     0.017 A 
ATOM      5  C4  UNL d   1       0.437   4.863  -1.616  0.00  0.00     0.017 A 
ATOM      6  C5  UNL d   1       1.233   4.083  -0.771  0.00  0.00     0.034 A 
ATOM      7 Cl   UNL d   1       1.232   5.998  -2.649  0.00  0.00    -0.070 Cl
ATOM      8 Cl1  UNL d   1      -2.003   5.632  -2.615  0.00  0.00    -0.070 Cl
ENDROOT
TORSDOF 0
ENDMDL
