MODEL 1
REMARK minimizedAffinity 0.407788068
REMARK minimizedRMSD -1
REMARK  0 active torsions:
REMARK  status: ('A' for Active; 'I' for Inactive)
ROOT
ATOM      1  C   UNL d   1      -4.030   3.794  -6.000  0.00  0.00     0.020 A 
ATOM      2  C1  UNL d   1      -5.397   3.518  -5.985  0.00  0.00     0.020 A 
ATOM      3  C2  UNL d   1      -5.984   2.959  -4.848  0.00  0.00     0.034 A 
ATOM      4  C3  UNL d   1      -5.205   2.673  -3.721  0.00  0.00     0.017 A 
ATOM      5  C4  UNL d   1      -3.833   2.950  -3.737  0.00  0.00     0.017 A 
ATOM      6  C5  UNL d   1      -3.250   3.510  -4.878  0.00  0.00     0.034 A 
ATOM      7 Cl   UNL d   1      -2.807   2.626  -2.385  0.00  0.00    -0.070 Cl
ATOM      8 Cl1  UNL d   1      -5.998   1.982  -2.350  0.00  0.00    -0.070 Cl
ENDROOT
TORSDOF 0
ENDMDL
