MODEL 1
REMARK minimizedAffinity 0.590604901
REMARK minimizedRMSD -1
REMARK  0 active torsions:
REMARK  status: ('A' for Active; 'I' for Inactive)
ROOT
ATOM      1  C   UNL d   1      -0.687   5.929   0.641  0.00  0.00     0.020 A 
ATOM      2  C1  UNL d   1      -0.579   5.606  -0.711  0.00  0.00     0.020 A 
ATOM      3  C2  UNL d   1      -0.270   4.299  -1.095  0.00  0.00     0.034 A 
ATOM      4  C3  UNL d   1      -0.067   3.310  -0.125  0.00  0.00     0.017 A 
ATOM      5  C4  UNL d   1      -0.176   3.635   1.232  0.00  0.00     0.017 A 
ATOM      6  C5  UNL d   1      -0.486   4.945   1.610  0.00  0.00     0.034 A 
ATOM      7 Cl   UNL d   1       0.060   2.469   2.486  0.00  0.00    -0.070 Cl
ATOM      8 Cl1  UNL d   1       0.312   1.716  -0.671  0.00  0.00    -0.070 Cl
ENDROOT
TORSDOF 0
ENDMDL
