MODEL 1
REMARK minimizedAffinity -2.16769743
REMARK minimizedRMSD -1
REMARK  0 active torsions:
REMARK  status: ('A' for Active; 'I' for Inactive)
ROOT
ATOM      1  O1  BZF d   1      -0.733   0.241  -1.297  0.00  0.00    -0.204 OA
ATOM      2  C2  BZF d   1      -0.318   0.279   0.020  0.00  0.00     0.174 A 
ATOM      3  C3  BZF d   1       0.852   0.940   0.133  0.00  0.00    -0.012 A 
ATOM      4  C3A BZF d   1       1.143   1.420  -1.183  0.00  0.00    -0.107 A 
ATOM      5  C4  BZF d   1       2.163   2.161  -1.708  0.00  0.00     0.055 A 
ATOM      6  C5  BZF d   1       2.187   2.395  -3.047  0.00  0.00    -0.016 A 
ATOM      7  C6  BZF d   1       1.212   1.901  -3.888  0.00  0.00     0.022 A 
ATOM      8  C7  BZF d   1       0.178   1.166  -3.413  0.00  0.00     0.029 A 
ATOM      9  C7A BZF d   1       0.133   0.955  -2.056  0.00  0.00     0.058 A 
ENDROOT
TORSDOF 0
ENDMDL
