MODEL 1
REMARK minimizedAffinity -5.08473539
REMARK minimizedRMSD -1
REMARK  0 active torsions:
REMARK  status: ('A' for Active; 'I' for Inactive)
ROOT
ATOM      1  O1  BZF d   1       0.140   0.627   0.053  0.00  0.00    -0.204 OA
ATOM      2  C2  BZF d   1       1.316  -0.081  -0.099  0.00  0.00     0.174 A 
ATOM      3  C3  BZF d   1       1.150  -1.369   0.265  0.00  0.00    -0.012 A 
ATOM      4  C3A BZF d   1      -0.240  -1.494   0.582  0.00  0.00    -0.107 A 
ATOM      5  C4  BZF d   1      -1.019  -2.537   0.993  0.00  0.00     0.055 A 
ATOM      6  C5  BZF d   1      -2.327  -2.309   1.287  0.00  0.00    -0.016 A 
ATOM      7  C6  BZF d   1      -2.885  -1.052   1.185  0.00  0.00     0.022 A 
ATOM      8  C7  BZF d   1      -2.153   0.013   0.777  0.00  0.00     0.029 A 
ATOM      9  C7A BZF d   1      -0.840  -0.220   0.448  0.00  0.00     0.058 A 
ENDROOT
TORSDOF 0
ENDMDL
