MODEL 1
REMARK minimizedAffinity -5.94730377
REMARK minimizedRMSD -1
REMARK  0 active torsions:
REMARK  status: ('A' for Active; 'I' for Inactive)
ROOT
ATOM      1  O1  BZF d   1      -0.673   0.924   0.830  0.00  0.00    -0.204 OA
ATOM      2  C2  BZF d   1       0.335   0.752  -0.098  0.00  0.00     0.174 A 
ATOM      3  C3  BZF d   1       0.469  -0.550  -0.424  0.00  0.00    -0.012 A 
ATOM      4  C3A BZF d   1      -0.579  -1.224   0.280  0.00  0.00    -0.107 A 
ATOM      5  C4  BZF d   1      -0.976  -2.528   0.350  0.00  0.00     0.055 A 
ATOM      6  C5  BZF d   1      -1.991  -2.866   1.187  0.00  0.00    -0.016 A 
ATOM      7  C6  BZF d   1      -2.628  -1.928   1.972  0.00  0.00     0.022 A 
ATOM      8  C7  BZF d   1      -2.273  -0.620   1.934  0.00  0.00     0.029 A 
ATOM      9  C7A BZF d   1      -1.269  -0.270   1.064  0.00  0.00     0.058 A 
ENDROOT
TORSDOF 0
ENDMDL
