MODEL 1
REMARK minimizedAffinity -4.98234701
REMARK minimizedRMSD -1
REMARK  0 active torsions:
REMARK  status: ('A' for Active; 'I' for Inactive)
ROOT
ATOM      1  O1  BZF d   1      -0.462   1.005   0.006  0.00  0.00    -0.204 OA
ATOM      2  C2  BZF d   1       0.830   0.681  -0.361  0.00  0.00     0.174 A 
ATOM      3  C3  BZF d   1       1.128  -0.583   0.003  0.00  0.00    -0.012 A 
ATOM      4  C3A BZF d   1      -0.083  -1.111   0.554  0.00  0.00    -0.107 A 
ATOM      5  C4  BZF d   1      -0.426  -2.326   1.074  0.00  0.00     0.055 A 
ATOM      6  C5  BZF d   1      -1.670  -2.494   1.594  0.00  0.00    -0.016 A 
ATOM      7  C6  BZF d   1      -2.593  -1.469   1.615  0.00  0.00     0.022 A 
ATOM      8  C7  BZF d   1      -2.301  -0.248   1.105  0.00  0.00     0.029 A 
ATOM      9  C7A BZF d   1      -1.055  -0.085   0.549  0.00  0.00     0.058 A 
ENDROOT
TORSDOF 0
ENDMDL
