MODEL 1
REMARK minimizedAffinity -6.24945641
REMARK minimizedRMSD -1
REMARK  0 active torsions:
REMARK  status: ('A' for Active; 'I' for Inactive)
ROOT
ATOM      1  O1  BZF d   1      -0.352  -2.416   0.889  0.00  0.00    -0.204 OA
ATOM      2  C2  BZF d   1      -1.560  -2.814   1.427  0.00  0.00     0.174 A 
ATOM      3  C3  BZF d   1      -2.341  -1.747   1.692  0.00  0.00    -0.012 A 
ATOM      4  C3A BZF d   1      -1.610  -0.616   1.208  0.00  0.00    -0.107 A 
ATOM      5  C4  BZF d   1      -1.870   0.724   1.170  0.00  0.00     0.055 A 
ATOM      6  C5  BZF d   1      -0.916   1.569   0.698  0.00  0.00    -0.016 A 
ATOM      7  C6  BZF d   1       0.309   1.109   0.262  0.00  0.00     0.022 A 
ATOM      8  C7  BZF d   1       0.611  -0.212   0.275  0.00  0.00     0.029 A 
ATOM      9  C7A BZF d   1      -0.363  -1.072   0.720  0.00  0.00     0.058 A 
ENDROOT
TORSDOF 0
ENDMDL
