MODEL 1
REMARK minimizedAffinity -4.0909605
REMARK minimizedRMSD -1
REMARK  0 active torsions:
REMARK  status: ('A' for Active; 'I' for Inactive)
ROOT
ATOM      1  O1  BZF d   1       1.556   0.076   0.751  0.00  0.00    -0.204 OA
ATOM      2  C2  BZF d   1       1.248   1.183  -0.016  0.00  0.00     0.174 A 
ATOM      3  C3  BZF d   1       0.028   1.054  -0.574  0.00  0.00    -0.012 A 
ATOM      4  C3A BZF d   1      -0.497  -0.171  -0.054  0.00  0.00    -0.107 A 
ATOM      5  C4  BZF d   1      -1.678  -0.835  -0.226  0.00  0.00     0.055 A 
ATOM      6  C5  BZF d   1      -1.847  -2.046   0.367  0.00  0.00    -0.016 A 
ATOM      7  C6  BZF d   1      -0.856  -2.624   1.133  0.00  0.00     0.022 A 
ATOM      8  C7  BZF d   1       0.330  -2.002   1.336  0.00  0.00     0.029 A 
ATOM      9  C7A BZF d   1       0.492  -0.763   0.765  0.00  0.00     0.058 A 
ENDROOT
TORSDOF 0
ENDMDL
