MODEL 1
REMARK minimizedAffinity -6.1398468
REMARK minimizedRMSD -1
REMARK  0 active torsions:
REMARK  status: ('A' for Active; 'I' for Inactive)
ROOT
ATOM      1  O1  BZF d   1      -0.516   1.123   0.428  0.00  0.00    -0.204 OA
ATOM      2  C2  BZF d   1       0.729   0.738  -0.031  0.00  0.00     0.174 A 
ATOM      3  C3  BZF d   1       0.887  -0.597   0.078  0.00  0.00    -0.012 A 
ATOM      4  C3A BZF d   1      -0.369  -1.088   0.555  0.00  0.00    -0.107 A 
ATOM      5  C4  BZF d   1      -0.841  -2.336   0.847  0.00  0.00     0.055 A 
ATOM      6  C5  BZF d   1      -2.091  -2.465   1.363  0.00  0.00    -0.016 A 
ATOM      7  C6  BZF d   1      -2.895  -1.370   1.603  0.00  0.00     0.022 A 
ATOM      8  C7  BZF d   1      -2.473  -0.113   1.325  0.00  0.00     0.029 A 
ATOM      9  C7A BZF d   1      -1.222   0.019   0.773  0.00  0.00     0.058 A 
ENDROOT
TORSDOF 0
ENDMDL
