MODEL 1
REMARK minimizedAffinity -6.72031069
REMARK minimizedRMSD -1
REMARK  0 active torsions:
REMARK  status: ('A' for Active; 'I' for Inactive)
ROOT
ATOM      1  O1  BZF d   1       0.363  -0.820  -0.198  0.00  0.00    -0.204 OA
ATOM      2  C2  BZF d   1       0.825  -2.117  -0.079  0.00  0.00     0.174 A 
ATOM      3  C3  BZF d   1       0.015  -2.843   0.718  0.00  0.00    -0.012 A 
ATOM      4  C3A BZF d   1      -1.069  -1.969   1.048  0.00  0.00    -0.107 A 
ATOM      5  C4  BZF d   1      -2.201  -2.119   1.797  0.00  0.00     0.055 A 
ATOM      6  C5  BZF d   1      -3.018  -1.049   1.981  0.00  0.00    -0.016 A 
ATOM      7  C6  BZF d   1      -2.732   0.185   1.435  0.00  0.00     0.022 A 
ATOM      8  C7  BZF d   1      -1.624   0.381   0.680  0.00  0.00     0.029 A 
ATOM      9  C7A BZF d   1      -0.813  -0.706   0.465  0.00  0.00     0.058 A 
ENDROOT
TORSDOF 0
ENDMDL
