MODEL 1
REMARK minimizedAffinity -6.6586318
REMARK minimizedRMSD -1
REMARK  0 active torsions:
REMARK  status: ('A' for Active; 'I' for Inactive)
ROOT
ATOM      1  O1  BZF d   1      -0.465   1.313   0.484  0.00  0.00    -0.204 OA
ATOM      2  C2  BZF d   1       0.664   0.848  -0.162  0.00  0.00     0.174 A 
ATOM      3  C3  BZF d   1       0.779  -0.488  -0.023  0.00  0.00    -0.012 A 
ATOM      4  C3A BZF d   1      -0.398  -0.896   0.680  0.00  0.00    -0.107 A 
ATOM      5  C4  BZF d   1      -0.868  -2.107   1.101  0.00  0.00     0.055 A 
ATOM      6  C5  BZF d   1      -2.017  -2.155   1.825  0.00  0.00    -0.016 A 
ATOM      7  C6  BZF d   1      -2.718  -1.012   2.150  0.00  0.00     0.022 A 
ATOM      8  C7  BZF d   1      -2.294   0.212   1.750  0.00  0.00     0.029 A 
ATOM      9  C7A BZF d   1      -1.151   0.260   0.990  0.00  0.00     0.058 A 
ENDROOT
TORSDOF 0
ENDMDL
