MODEL 1
REMARK minimizedAffinity -6.1050663
REMARK minimizedRMSD -1
REMARK  0 active torsions:
REMARK  status: ('A' for Active; 'I' for Inactive)
ROOT
ATOM      1  O1  BZF d   1      -0.686   1.159   0.584  0.00  0.00    -0.204 OA
ATOM      2  C2  BZF d   1       0.533   0.923  -0.020  0.00  0.00     0.174 A 
ATOM      3  C3  BZF d   1       0.812  -0.397  -0.035  0.00  0.00    -0.012 A 
ATOM      4  C3A BZF d   1      -0.345  -1.032   0.517  0.00  0.00    -0.107 A 
ATOM      5  C4  BZF d   1      -0.678  -2.336   0.751  0.00  0.00     0.055 A 
ATOM      6  C5  BZF d   1      -1.856  -2.615   1.369  0.00  0.00    -0.016 A 
ATOM      7  C6  BZF d   1      -2.719  -1.618   1.772  0.00  0.00     0.022 A 
ATOM      8  C7  BZF d   1      -2.434  -0.310   1.558  0.00  0.00     0.029 A 
ATOM      9  C7A BZF d   1      -1.260  -0.026   0.903  0.00  0.00     0.058 A 
ENDROOT
TORSDOF 0
ENDMDL
