MODEL 1
REMARK minimizedAffinity 0.591612577
REMARK minimizedRMSD -1
REMARK  0 active torsions:
REMARK  status: ('A' for Active; 'I' for Inactive)
ROOT
ATOM      1  O1  BZF d   1      -0.747  -2.258   1.915  0.00  0.00    -0.204 OA
ATOM      2  C2  BZF d   1       0.415  -2.685   1.301  0.00  0.00     0.174 A 
ATOM      3  C3  BZF d   1       0.909  -1.726   0.492  0.00  0.00    -0.012 A 
ATOM      4  C3A BZF d   1       0.050  -0.597   0.678  0.00  0.00    -0.107 A 
ATOM      5  C4  BZF d   1       0.034   0.666   0.160  0.00  0.00     0.055 A 
ATOM      6  C5  BZF d   1      -0.983   1.504   0.492  0.00  0.00    -0.016 A 
ATOM      7  C6  BZF d   1      -2.003   1.110   1.334  0.00  0.00     0.022 A 
ATOM      8  C7  BZF d   1      -2.027  -0.132   1.877  0.00  0.00     0.029 A 
ATOM      9  C7A BZF d   1      -0.983  -0.969   1.569  0.00  0.00     0.058 A 
ENDROOT
TORSDOF 0
ENDMDL
