MODEL 1
REMARK minimizedAffinity -5.49442101
REMARK minimizedRMSD -1
REMARK  0 active torsions:
REMARK  status: ('A' for Active; 'I' for Inactive)
ROOT
ATOM      1  O1  BZF d   1      -1.076   1.122   0.476  0.00  0.00    -0.204 OA
ATOM      2  C2  BZF d   1       0.025   0.918  -0.333  0.00  0.00     0.174 A 
ATOM      3  C3  BZF d   1       0.384  -0.382  -0.333  0.00  0.00    -0.012 A 
ATOM      4  C3A BZF d   1      -0.606  -1.046   0.458  0.00  0.00    -0.107 A 
ATOM      5  C4  BZF d   1      -0.803  -2.349   0.816  0.00  0.00     0.055 A 
ATOM      6  C5  BZF d   1      -1.824  -2.656   1.658  0.00  0.00    -0.016 A 
ATOM      7  C6  BZF d   1      -2.664  -1.686   2.165  0.00  0.00     0.022 A 
ATOM      8  C7  BZF d   1      -2.511  -0.380   1.834  0.00  0.00     0.029 A 
ATOM      9  C7A BZF d   1      -1.500  -0.071   0.958  0.00  0.00     0.058 A 
ENDROOT
TORSDOF 0
ENDMDL
