MODEL 1
REMARK minimizedAffinity -5.84910345
REMARK minimizedRMSD -1
REMARK  0 active torsions:
REMARK  status: ('A' for Active; 'I' for Inactive)
ROOT
ATOM      1  O1  BZF d   1      -0.354   0.857   0.451  0.00  0.00    -0.204 OA
ATOM      2  C2  BZF d   1       0.871   0.418  -0.013  0.00  0.00     0.174 A 
ATOM      3  C3  BZF d   1       1.005  -0.911   0.173  0.00  0.00    -0.012 A 
ATOM      4  C3A BZF d   1      -0.250  -1.344   0.707  0.00  0.00    -0.107 A 
ATOM      5  C4  BZF d   1      -0.739  -2.562   1.084  0.00  0.00     0.055 A 
ATOM      6  C5  BZF d   1      -1.979  -2.633   1.635  0.00  0.00    -0.016 A 
ATOM      7  C6  BZF d   1      -2.754  -1.509   1.828  0.00  0.00     0.022 A 
ATOM      8  C7  BZF d   1      -2.314  -0.279   1.465  0.00  0.00     0.029 A 
ATOM      9  C7A BZF d   1      -1.074  -0.208   0.877  0.00  0.00     0.058 A 
ENDROOT
TORSDOF 0
ENDMDL
