MODEL 1
REMARK minimizedAffinity -5.70126009
REMARK minimizedRMSD -1
REMARK  0 active torsions:
REMARK  status: ('A' for Active; 'I' for Inactive)
ROOT
ATOM      1  O1  BZF d   1      -0.457   1.132   0.171  0.00  0.00    -0.204 OA
ATOM      2  C2  BZF d   1       0.719   0.614  -0.334  0.00  0.00     0.174 A 
ATOM      3  C3  BZF d   1       0.841  -0.692  -0.020  0.00  0.00    -0.012 A 
ATOM      4  C3A BZF d   1      -0.376  -1.033   0.650  0.00  0.00    -0.107 A 
ATOM      5  C4  BZF d   1      -0.858  -2.192   1.189  0.00  0.00     0.055 A 
ATOM      6  C5  BZF d   1      -2.053  -2.172   1.836  0.00  0.00    -0.016 A 
ATOM      7  C6  BZF d   1      -2.789  -1.012   1.967  0.00  0.00     0.022 A 
ATOM      8  C7  BZF d   1      -2.354   0.160   1.444  0.00  0.00     0.029 A 
ATOM      9  C7A BZF d   1      -1.163   0.137   0.761  0.00  0.00     0.058 A 
ENDROOT
TORSDOF 0
ENDMDL
