MODEL 1
REMARK minimizedAffinity 0.0907237008
REMARK minimizedRMSD -1
REMARK  0 active torsions:
REMARK  status: ('A' for Active; 'I' for Inactive)
ROOT
ATOM      1  O1  BZF d   1      -0.508   2.310  -1.751  0.00  0.00    -0.204 OA
ATOM      2  C2  BZF d   1      -0.088   2.121  -0.448  0.00  0.00     0.174 A 
ATOM      3  C3  BZF d   1       1.223   1.809  -0.408  0.00  0.00    -0.012 A 
ATOM      4  C3A BZF d   1       1.671   1.893  -1.764  0.00  0.00    -0.107 A 
ATOM      5  C4  BZF d   1       2.883   1.708  -2.366  0.00  0.00     0.055 A 
ATOM      6  C5  BZF d   1       2.968   1.794  -3.720  0.00  0.00    -0.016 A 
ATOM      7  C6  BZF d   1       1.863   2.056  -4.502  0.00  0.00     0.022 A 
ATOM      8  C7  BZF d   1       0.640   2.252  -3.950  0.00  0.00     0.029 A 
ATOM      9  C7A BZF d   1       0.557   2.199  -2.580  0.00  0.00     0.058 A 
ENDROOT
TORSDOF 0
ENDMDL
