MODEL 1
REMARK minimizedAffinity -4.20277071
REMARK minimizedRMSD -1
REMARK  0 active torsions:
REMARK  status: ('A' for Active; 'I' for Inactive)
ROOT
ATOM      1  O1  BZF d   1      -0.266   0.755   0.108  0.00  0.00    -0.204 OA
ATOM      2  C2  BZF d   1       0.840   0.126  -0.430  0.00  0.00     0.174 A 
ATOM      3  C3  BZF d   1       0.914  -1.154  -0.011  0.00  0.00    -0.012 A 
ATOM      4  C3A BZF d   1      -0.266  -1.363   0.770  0.00  0.00    -0.107 A 
ATOM      5  C4  BZF d   1      -0.769  -2.440   1.442  0.00  0.00     0.055 A 
ATOM      6  C5  BZF d   1      -1.909  -2.294   2.167  0.00  0.00    -0.016 A 
ATOM      7  C6  BZF d   1      -2.569  -1.085   2.245  0.00  0.00     0.022 A 
ATOM      8  C7  BZF d   1      -2.112   0.011   1.591  0.00  0.00     0.029 A 
ATOM      9  C7A BZF d   1      -0.978  -0.143   0.832  0.00  0.00     0.058 A 
ENDROOT
TORSDOF 0
ENDMDL
