MODEL 1
REMARK minimizedAffinity -4.76888609
REMARK minimizedRMSD -1
REMARK  0 active torsions:
REMARK  status: ('A' for Active; 'I' for Inactive)
ROOT
ATOM      1  O1  BZF d   1      -0.504   1.349   0.368  0.00  0.00    -0.204 OA
ATOM      2  C2  BZF d   1       0.616   0.780  -0.206  0.00  0.00     0.174 A 
ATOM      3  C3  BZF d   1       0.605  -0.560  -0.053  0.00  0.00    -0.012 A 
ATOM      4  C3A BZF d   1      -0.644  -0.855   0.581  0.00  0.00    -0.107 A 
ATOM      5  C4  BZF d   1      -1.242  -2.015   0.981  0.00  0.00     0.055 A 
ATOM      6  C5  BZF d   1      -2.432  -1.954   1.635  0.00  0.00    -0.016 A 
ATOM      7  C6  BZF d   1      -3.047  -0.750   1.911  0.00  0.00     0.022 A 
ATOM      8  C7  BZF d   1      -2.494   0.427   1.530  0.00  0.00     0.029 A 
ATOM      9  C7A BZF d   1      -1.309   0.366   0.839  0.00  0.00     0.058 A 
ENDROOT
TORSDOF 0
ENDMDL
