MODEL 1
REMARK minimizedAffinity 11.2915859
REMARK minimizedRMSD -1
REMARK  1 active torsions:
REMARK  status: ('A' for Active; 'I' for Inactive)
REMARK    1  A    between atoms: C1_2  and  C2_3 
ROOT
ATOM      1  C2  UNL d   1      -1.156   0.055  -1.306  0.00  0.00    -0.077 A 
ATOM      2  C3  UNL d   1      -1.921   0.933  -0.526  0.00  0.00     0.002 A 
ATOM      3  C4  UNL d   1      -1.541   1.226   0.785  0.00  0.00     0.002 A 
ATOM      4  C5  UNL d   1      -0.394   0.649   1.325  0.00  0.00    -0.004 A 
ATOM      5  C6  UNL d   1       0.372  -0.228   0.558  0.00  0.00     0.002 A 
ATOM      6  C7  UNL d   1      -0.007  -0.523  -0.752  0.00  0.00     0.002 A 
ENDROOT
BRANCH   1   7
ATOM      7  C1  UNL d   1      -1.537  -0.224  -2.737  0.00  0.00     0.055 C 
ATOM      8  C   UNL d   1      -2.583  -1.326  -2.826  0.00  0.00     0.019 C 
ENDBRANCH   1   7
TORSDOF 1
ENDMDL
