MODEL 1
REMARK minimizedAffinity 15.5939541
REMARK minimizedRMSD -1
REMARK  1 active torsions:
REMARK  status: ('A' for Active; 'I' for Inactive)
REMARK    1  A    between atoms: C1_2  and  C2_3 
ROOT
ATOM      1  C2  UNL d   1      -5.005   3.267  -2.601  0.00  0.00    -0.077 A 
ATOM      2  C3  UNL d   1      -4.770   4.649  -2.606  0.00  0.00     0.002 A 
ATOM      3  C4  UNL d   1      -5.145   5.426  -3.704  0.00  0.00     0.002 A 
ATOM      4  C5  UNL d   1      -5.761   4.830  -4.803  0.00  0.00    -0.004 A 
ATOM      5  C6  UNL d   1      -5.998   3.456  -4.808  0.00  0.00     0.002 A 
ATOM      6  C7  UNL d   1      -5.622   2.678  -3.712  0.00  0.00     0.002 A 
ENDROOT
BRANCH   1   7
ATOM      7  C1  UNL d   1      -4.646   2.436  -1.397  0.00  0.00     0.055 C 
ATOM      8  C   UNL d   1      -5.425   1.130  -1.374  0.00  0.00     0.019 C 
ENDBRANCH   1   7
TORSDOF 1
ENDMDL
