MODEL 1
REMARK minimizedAffinity -4.79451656
REMARK minimizedRMSD -1
REMARK  1 active torsions:
REMARK  status: ('A' for Active; 'I' for Inactive)
REMARK    1  A    between atoms: C1_2  and  C2_3 
ROOT
ATOM      1  C2  UNL d   1      -0.212   1.291   0.372  0.00  0.00    -0.077 A 
ATOM      2  C3  UNL d   1      -0.615   2.072   1.464  0.00  0.00     0.002 A 
ATOM      3  C4  UNL d   1      -1.346   3.244   1.263  0.00  0.00     0.002 A 
ATOM      4  C5  UNL d   1      -1.684   3.644  -0.028  0.00  0.00    -0.004 A 
ATOM      5  C6  UNL d   1      -1.287   2.875  -1.121  0.00  0.00     0.002 A 
ATOM      6  C7  UNL d   1      -0.555   1.703  -0.922  0.00  0.00     0.002 A 
ENDROOT
BRANCH   1   7
ATOM      7  C1  UNL d   1       0.534   0.000   0.589  0.00  0.00     0.055 C 
ATOM      8  C   UNL d   1       0.445  -0.903  -0.632  0.00  0.00     0.019 C 
ENDBRANCH   1   7
TORSDOF 1
ENDMDL
