MODEL 1
REMARK minimizedAffinity -3.64457107
REMARK minimizedRMSD -1
REMARK  1 active torsions:
REMARK  status: ('A' for Active; 'I' for Inactive)
REMARK    1  A    between atoms: C1_2  and  C2_3 
ROOT
ATOM      1  C2  UNL d   1      -0.407   2.196   1.167  0.00  0.00    -0.077 A 
ATOM      2  C3  UNL d   1       0.531   2.344   2.198  0.00  0.00     0.002 A 
ATOM      3  C4  UNL d   1       1.287   1.252   2.627  0.00  0.00     0.002 A 
ATOM      4  C5  UNL d   1       1.115   0.005   2.029  0.00  0.00    -0.004 A 
ATOM      5  C6  UNL d   1       0.182  -0.153   1.005  0.00  0.00     0.002 A 
ATOM      6  C7  UNL d   1      -0.575   0.938   0.575  0.00  0.00     0.002 A 
ENDROOT
BRANCH   1   7
ATOM      7  C1  UNL d   1      -1.188   3.384   0.669  0.00  0.00     0.055 C 
ATOM      8  C   UNL d   1      -1.077   3.525  -0.842  0.00  0.00     0.019 C 
ENDBRANCH   1   7
TORSDOF 1
ENDMDL
