MODEL 1
REMARK minimizedAffinity 2.64181519
REMARK minimizedRMSD -1
REMARK  1 active torsions:
REMARK  status: ('A' for Active; 'I' for Inactive)
REMARK    1  A    between atoms: C1_2  and  C2_3 
ROOT
ATOM      1  C2  UNL d   1      -0.184   0.290  -0.725  0.00  0.00    -0.077 A 
ATOM      2  C3  UNL d   1       0.822   0.100  -1.683  0.00  0.00     0.002 A 
ATOM      3  C4  UNL d   1       1.998  -0.574  -1.347  0.00  0.00     0.002 A 
ATOM      4  C5  UNL d   1       2.176  -1.066  -0.056  0.00  0.00    -0.004 A 
ATOM      5  C6  UNL d   1       1.182  -0.880   0.904  0.00  0.00     0.002 A 
ATOM      6  C7  UNL d   1       0.007  -0.206   0.571  0.00  0.00     0.002 A 
ENDROOT
BRANCH   1   7
ATOM      7  C1  UNL d   1      -1.474   0.974  -1.099  0.00  0.00     0.055 C 
ATOM      8  C   UNL d   1      -2.582   0.645  -0.109  0.00  0.00     0.019 C 
ENDBRANCH   1   7
TORSDOF 1
ENDMDL
