MODEL 1
REMARK minimizedAffinity 1.37658882
REMARK minimizedRMSD -1
REMARK  1 active torsions:
REMARK  status: ('A' for Active; 'I' for Inactive)
REMARK    1  A    between atoms: C1_2  and  C2_3 
ROOT
ATOM      1  C2  UNL d   1      -0.126  -1.097  -0.603  0.00  0.00    -0.077 A 
ATOM      2  C3  UNL d   1      -1.411  -1.004  -1.156  0.00  0.00     0.002 A 
ATOM      3  C4  UNL d   1      -1.914   0.231  -1.571  0.00  0.00     0.002 A 
ATOM      4  C5  UNL d   1      -1.137   1.380  -1.443  0.00  0.00    -0.004 A 
ATOM      5  C6  UNL d   1       0.142   1.298  -0.893  0.00  0.00     0.002 A 
ATOM      6  C7  UNL d   1       0.646   0.066  -0.476  0.00  0.00     0.002 A 
ENDROOT
BRANCH   1   7
ATOM      7  C1  UNL d   1       0.437  -2.434  -0.200  0.00  0.00     0.055 C 
ATOM      8  C   UNL d   1      -0.394  -3.578  -0.764  0.00  0.00     0.019 C 
ENDBRANCH   1   7
TORSDOF 1
ENDMDL
