MODEL 1
REMARK minimizedAffinity 1.27035987
REMARK minimizedRMSD -1
REMARK  0 active torsions:
REMARK  status: ('A' for Active; 'I' for Inactive)
ROOT
ATOM      1  C   UNL d   1       4.542   0.396   1.921  0.00  0.00     0.077 C 
ATOM      2  C1  UNL d   1       5.056   0.397   3.329  0.00  0.00    -0.074 A 
ATOM      3  C2  UNL d   1       5.305   1.597   4.004  0.00  0.00    -0.005 A 
ATOM      4  C3  UNL d   1       5.775   1.581   5.317  0.00  0.00     0.006 A 
ATOM      5  C4  UNL d   1       6.000   0.368   5.968  0.00  0.00    -0.005 A 
ATOM      6  C5  UNL d   1       5.756  -0.842   5.311  0.00  0.00    -0.074 A 
ATOM      7  C6  UNL d   1       5.983  -2.155   6.000  0.00  0.00     0.077 C 
ATOM      8  C7  UNL d   1       5.277  -0.818   3.993  0.00  0.00    -0.001 A 
ENDROOT
TORSDOF 0
ENDMDL
