MODEL 1
REMARK minimizedAffinity -0.117154583
REMARK minimizedRMSD -1
REMARK  0 active torsions:
REMARK  status: ('A' for Active; 'I' for Inactive)
ROOT
ATOM      1  C   UNL d   1       1.129   3.286   0.535  0.00  0.00     0.077 C 
ATOM      2  C1  UNL d   1       1.292   2.658  -0.817  0.00  0.00    -0.074 A 
ATOM      3  C2  UNL d   1       0.558   1.523  -1.176  0.00  0.00    -0.005 A 
ATOM      4  C3  UNL d   1       0.714   0.955  -2.440  0.00  0.00     0.006 A 
ATOM      5  C4  UNL d   1       1.603   1.516  -3.358  0.00  0.00    -0.005 A 
ATOM      6  C5  UNL d   1       2.345   2.652  -3.018  0.00  0.00    -0.074 A 
ATOM      7  C6  UNL d   1       3.297   3.273  -3.995  0.00  0.00     0.077 C 
ATOM      8  C7  UNL d   1       2.178   3.220  -1.748  0.00  0.00    -0.001 A 
ENDROOT
TORSDOF 0
ENDMDL
