MODEL 1
REMARK minimizedAffinity 8.26349258
REMARK minimizedRMSD -1
REMARK  0 active torsions:
REMARK  status: ('A' for Active; 'I' for Inactive)
ROOT
ATOM      1  C   UNL d   1      -1.680  -0.798   2.312  0.00  0.00     0.077 C 
ATOM      2  C1  UNL d   1      -2.890  -1.216   3.094  0.00  0.00    -0.074 A 
ATOM      3  C2  UNL d   1      -3.702  -0.267   3.723  0.00  0.00    -0.005 A 
ATOM      4  C3  UNL d   1      -4.830  -0.670   4.438  0.00  0.00     0.006 A 
ATOM      5  C4  UNL d   1      -5.156  -2.024   4.532  0.00  0.00    -0.005 A 
ATOM      6  C5  UNL d   1      -4.355  -2.987   3.909  0.00  0.00    -0.074 A 
ATOM      7  C6  UNL d   1      -4.697  -4.445   3.992  0.00  0.00     0.077 C 
ATOM      8  C7  UNL d   1      -3.228  -2.573   3.186  0.00  0.00    -0.001 A 
ENDROOT
TORSDOF 0
ENDMDL
