MODEL 1
REMARK minimizedAffinity 6.0530386
REMARK minimizedRMSD -1
REMARK  0 active torsions:
REMARK  status: ('A' for Active; 'I' for Inactive)
ROOT
ATOM      1  C   UNL d   1       4.592   1.787   2.678  0.00  0.00     0.077 C 
ATOM      2  C1  UNL d   1       3.402   2.277   1.907  0.00  0.00    -0.074 A 
ATOM      3  C2  UNL d   1       2.239   1.507   1.814  0.00  0.00    -0.005 A 
ATOM      4  C3  UNL d   1       1.137   1.980   1.102  0.00  0.00     0.006 A 
ATOM      5  C4  UNL d   1       1.187   3.226   0.476  0.00  0.00    -0.005 A 
ATOM      6  C5  UNL d   1       2.342   4.011   0.559  0.00  0.00    -0.074 A 
ATOM      7  C6  UNL d   1       2.409   5.357  -0.100  0.00  0.00     0.077 C 
ATOM      8  C7  UNL d   1       3.442   3.532   1.282  0.00  0.00    -0.001 A 
ENDROOT
TORSDOF 0
ENDMDL
