MODEL 1
REMARK minimizedAffinity 11.4916925
REMARK minimizedRMSD -1
REMARK  0 active torsions:
REMARK  status: ('A' for Active; 'I' for Inactive)
ROOT
ATOM      1  C   UNL d   1       0.963   2.874   1.779  0.00  0.00     0.077 C 
ATOM      2  C1  UNL d   1       2.220   2.278   2.340  0.00  0.00    -0.074 A 
ATOM      3  C2  UNL d   1       2.208   1.022   2.954  0.00  0.00    -0.005 A 
ATOM      4  C3  UNL d   1       3.387   0.476   3.462  0.00  0.00     0.006 A 
ATOM      5  C4  UNL d   1       4.588   1.180   3.362  0.00  0.00    -0.005 A 
ATOM      6  C5  UNL d   1       4.619   2.438   2.751  0.00  0.00    -0.074 A 
ATOM      7  C6  UNL d   1       5.903   3.204   2.626  0.00  0.00     0.077 C 
ATOM      8  C7  UNL d   1       3.432   2.976   2.236  0.00  0.00    -0.001 A 
ENDROOT
TORSDOF 0
ENDMDL
