MODEL 1
REMARK minimizedAffinity 7.96417427
REMARK minimizedRMSD -1
REMARK  0 active torsions:
REMARK  status: ('A' for Active; 'I' for Inactive)
ROOT
ATOM      1  C   UNL d   1       5.223   1.062  -4.414  0.00  0.00     0.077 C 
ATOM      2  C1  UNL d   1       3.728   1.179  -4.378  0.00  0.00    -0.074 A 
ATOM      3  C2  UNL d   1       3.019   1.671  -5.479  0.00  0.00    -0.005 A 
ATOM      4  C3  UNL d   1       1.628   1.764  -5.434  0.00  0.00     0.006 A 
ATOM      5  C4  UNL d   1       0.933   1.368  -4.291  0.00  0.00    -0.005 A 
ATOM      6  C5  UNL d   1       1.625   0.872  -3.181  0.00  0.00    -0.074 A 
ATOM      7  C6  UNL d   1       0.893   0.433  -1.948  0.00  0.00     0.077 C 
ATOM      8  C7  UNL d   1       3.022   0.775  -3.236  0.00  0.00    -0.001 A 
ENDROOT
TORSDOF 0
ENDMDL
