MODEL 1
REMARK minimizedAffinity 1.39854777
REMARK minimizedRMSD -1
REMARK  0 active torsions:
REMARK  status: ('A' for Active; 'I' for Inactive)
ROOT
ATOM      1  C   UNL d   1       5.764   4.106   5.001  0.00  0.00     0.077 C 
ATOM      2  C1  UNL d   1       5.677   2.611   4.905  0.00  0.00    -0.074 A 
ATOM      3  C2  UNL d   1       6.000   1.802   5.999  0.00  0.00    -0.005 A 
ATOM      4  C3  UNL d   1       5.906   0.414   5.899  0.00  0.00     0.006 A 
ATOM      5  C4  UNL d   1       5.489  -0.178   4.705  0.00  0.00    -0.005 A 
ATOM      6  C5  UNL d   1       5.161   0.616   3.602  0.00  0.00    -0.074 A 
ATOM      7  C6  UNL d   1       4.702  -0.003   2.315  0.00  0.00     0.077 C 
ATOM      8  C7  UNL d   1       5.252   2.010   3.713  0.00  0.00    -0.001 A 
ENDROOT
TORSDOF 0
ENDMDL
