MODEL 1
REMARK minimizedAffinity 3.62622046
REMARK minimizedRMSD -1
REMARK  0 active torsions:
REMARK  status: ('A' for Active; 'I' for Inactive)
ROOT
ATOM      1  C   UNL d   1       1.641   0.667  -4.835  0.00  0.00     0.077 C 
ATOM      2  C1  UNL d   1       1.548  -0.709  -4.245  0.00  0.00    -0.074 A 
ATOM      3  C2  UNL d   1       1.139  -1.797  -5.022  0.00  0.00    -0.005 A 
ATOM      4  C3  UNL d   1       1.067  -3.073  -4.462  0.00  0.00     0.006 A 
ATOM      5  C4  UNL d   1       1.401  -3.272  -3.122  0.00  0.00    -0.005 A 
ATOM      6  C5  UNL d   1       1.813  -2.195  -2.330  0.00  0.00    -0.074 A 
ATOM      7  C6  UNL d   1       2.186  -2.394  -0.891  0.00  0.00     0.077 C 
ATOM      8  C7  UNL d   1       1.891  -0.918  -2.902  0.00  0.00    -0.001 A 
ENDROOT
TORSDOF 0
ENDMDL
