MODEL 1
REMARK minimizedAffinity 7.57347584
REMARK minimizedRMSD -1
REMARK  0 active torsions:
REMARK  status: ('A' for Active; 'I' for Inactive)
ROOT
ATOM      1  C   UNL d   1      -0.999  -3.439   0.401  0.00  0.00     0.077 C 
ATOM      2  C1  UNL d   1      -0.049  -2.523  -0.312  0.00  0.00    -0.074 A 
ATOM      3  C2  UNL d   1       1.053  -3.031  -1.008  0.00  0.00    -0.005 A 
ATOM      4  C3  UNL d   1       1.923  -2.168  -1.674  0.00  0.00     0.006 A 
ATOM      5  C4  UNL d   1       1.700  -0.790  -1.650  0.00  0.00    -0.005 A 
ATOM      6  C5  UNL d   1       0.604  -0.264  -0.960  0.00  0.00    -0.074 A 
ATOM      7  C6  UNL d   1       0.345   1.213  -0.933  0.00  0.00     0.077 C 
ATOM      8  C7  UNL d   1      -0.270  -1.139  -0.299  0.00  0.00    -0.001 A 
ENDROOT
TORSDOF 0
ENDMDL
