MODEL 1
REMARK minimizedAffinity 2.2909112
REMARK minimizedRMSD -1
REMARK  0 active torsions:
REMARK  status: ('A' for Active; 'I' for Inactive)
ROOT
ATOM      1  C   UNL d   1      -0.374   1.635  -0.491  0.00  0.00     0.077 C 
ATOM      2  C1  UNL d   1      -0.358   0.137  -0.418  0.00  0.00    -0.074 A 
ATOM      3  C2  UNL d   1      -1.383  -0.562   0.228  0.00  0.00    -0.005 A 
ATOM      4  C3  UNL d   1      -1.360  -1.956   0.281  0.00  0.00     0.006 A 
ATOM      5  C4  UNL d   1      -0.313  -2.663  -0.311  0.00  0.00    -0.005 A 
ATOM      6  C5  UNL d   1       0.721  -1.982  -0.962  0.00  0.00    -0.074 A 
ATOM      7  C6  UNL d   1       1.848  -2.728  -1.612  0.00  0.00     0.077 C 
ATOM      8  C7  UNL d   1       0.686  -0.582  -1.017  0.00  0.00    -0.001 A 
ENDROOT
TORSDOF 0
ENDMDL
