MODEL 1
REMARK minimizedAffinity 10.4995871
REMARK minimizedRMSD -1
REMARK  0 active torsions:
REMARK  status: ('A' for Active; 'I' for Inactive)
ROOT
ATOM      1  C   UNL d   1      -5.270  -2.283   3.912  0.00  0.00     0.077 C 
ATOM      2  C1  UNL d   1      -4.248  -1.185   3.877  0.00  0.00    -0.074 A 
ATOM      3  C2  UNL d   1      -2.971  -1.407   3.352  0.00  0.00    -0.005 A 
ATOM      4  C3  UNL d   1      -2.035  -0.373   3.318  0.00  0.00     0.006 A 
ATOM      5  C4  UNL d   1      -2.366   0.891   3.808  0.00  0.00    -0.005 A 
ATOM      6  C5  UNL d   1      -3.639   1.132   4.335  0.00  0.00    -0.074 A 
ATOM      7  C6  UNL d   1      -4.014   2.487   4.857  0.00  0.00     0.077 C 
ATOM      8  C7  UNL d   1      -4.576   0.090   4.360  0.00  0.00    -0.001 A 
ENDROOT
TORSDOF 0
ENDMDL
