MODEL 1
REMARK minimizedAffinity 2.11848235
REMARK minimizedRMSD -1
REMARK  0 active torsions:
REMARK  status: ('A' for Active; 'I' for Inactive)
ROOT
ATOM      1  C   UNL d   1       1.002  -2.551   1.603  0.00  0.00     0.077 C 
ATOM      2  C1  UNL d   1       0.992  -1.830   0.288  0.00  0.00    -0.074 A 
ATOM      3  C2  UNL d   1       1.765  -2.283  -0.786  0.00  0.00    -0.005 A 
ATOM      4  C3  UNL d   1       1.739  -1.608  -2.006  0.00  0.00     0.006 A 
ATOM      5  C4  UNL d   1       0.940  -0.474  -2.164  0.00  0.00    -0.005 A 
ATOM      6  C5  UNL d   1       0.160  -0.007  -1.102  0.00  0.00    -0.074 A 
ATOM      7  C6  UNL d   1      -0.711   1.204  -1.258  0.00  0.00     0.077 C 
ATOM      8  C7  UNL d   1       0.187  -0.695   0.119  0.00  0.00    -0.001 A 
ENDROOT
TORSDOF 0
ENDMDL
