MODEL 1
REMARK minimizedAffinity 2.98189688
REMARK minimizedRMSD -1
REMARK  0 active torsions:
REMARK  status: ('A' for Active; 'I' for Inactive)
ROOT
ATOM      1  C   UNL d   1       1.881  -2.887  -2.241  0.00  0.00     0.077 C 
ATOM      2  C1  UNL d   1       1.473  -1.448  -2.349  0.00  0.00    -0.074 A 
ATOM      3  C2  UNL d   1       0.838  -0.799  -1.285  0.00  0.00    -0.005 A 
ATOM      4  C3  UNL d   1       0.474   0.543  -1.397  0.00  0.00     0.006 A 
ATOM      5  C4  UNL d   1       0.740   1.248  -2.571  0.00  0.00    -0.005 A 
ATOM      6  C5  UNL d   1       1.375   0.616  -3.645  0.00  0.00    -0.074 A 
ATOM      7  C6  UNL d   1       1.677   1.362  -4.911  0.00  0.00     0.077 C 
ATOM      8  C7  UNL d   1       1.744  -0.731  -3.523  0.00  0.00    -0.001 A 
ENDROOT
TORSDOF 0
ENDMDL
