MODEL 1
REMARK minimizedAffinity 2.71687961
REMARK minimizedRMSD -1
REMARK  0 active torsions:
REMARK  status: ('A' for Active; 'I' for Inactive)
ROOT
ATOM      1  C   UNL d   1      -0.513   0.979  -0.335  0.00  0.00     0.077 C 
ATOM      2  C1  UNL d   1       0.003  -0.410  -0.563  0.00  0.00    -0.074 A 
ATOM      3  C2  UNL d   1       1.225  -0.626  -1.207  0.00  0.00    -0.005 A 
ATOM      4  C3  UNL d   1       1.697  -1.924  -1.404  0.00  0.00     0.006 A 
ATOM      5  C4  UNL d   1       0.953  -3.017  -0.959  0.00  0.00    -0.005 A 
ATOM      6  C5  UNL d   1      -0.272  -2.821  -0.312  0.00  0.00    -0.074 A 
ATOM      7  C6  UNL d   1      -1.080  -3.984   0.181  0.00  0.00     0.077 C 
ATOM      8  C7  UNL d   1      -0.736  -1.513  -0.112  0.00  0.00    -0.001 A 
ENDROOT
TORSDOF 0
ENDMDL
