MODEL 1
REMARK minimizedAffinity 0.579015553
REMARK minimizedRMSD -1
REMARK  0 active torsions:
REMARK  status: ('A' for Active; 'I' for Inactive)
ROOT
ATOM      1  C   UNL d   1       5.994   3.754   5.177  0.00  0.00     0.077 C 
ATOM      2  C1  UNL d   1       5.830   2.281   4.951  0.00  0.00    -0.074 A 
ATOM      3  C2  UNL d   1       6.000   1.369   5.998  0.00  0.00    -0.005 A 
ATOM      4  C3  UNL d   1       5.834   0.003   5.775  0.00  0.00     0.006 A 
ATOM      5  C4  UNL d   1       5.497  -0.466   4.504  0.00  0.00    -0.005 A 
ATOM      6  C5  UNL d   1       5.322   0.431   3.445  0.00  0.00    -0.074 A 
ATOM      7  C6  UNL d   1       4.951  -0.056   2.076  0.00  0.00     0.077 C 
ATOM      8  C7  UNL d   1       5.484   1.803   3.679  0.00  0.00    -0.001 A 
ENDROOT
TORSDOF 0
ENDMDL
