MODEL 1
REMARK minimizedAffinity 2.36479735
REMARK minimizedRMSD -1
REMARK  0 active torsions:
REMARK  status: ('A' for Active; 'I' for Inactive)
ROOT
ATOM      1  C   UNL d   1       2.066  -0.359  -3.384  0.00  0.00     0.077 C 
ATOM      2  C1  UNL d   1       1.331  -0.638  -2.106  0.00  0.00    -0.074 A 
ATOM      3  C2  UNL d   1       0.483   0.319  -1.541  0.00  0.00    -0.005 A 
ATOM      4  C3  UNL d   1      -0.201   0.041  -0.357  0.00  0.00     0.006 A 
ATOM      5  C4  UNL d   1      -0.044  -1.195   0.272  0.00  0.00    -0.005 A 
ATOM      6  C5  UNL d   1       0.799  -2.165  -0.280  0.00  0.00    -0.074 A 
ATOM      7  C6  UNL d   1       0.972  -3.502   0.378  0.00  0.00     0.077 C 
ATOM      8  C7  UNL d   1       1.478  -1.881  -1.473  0.00  0.00    -0.001 A 
ENDROOT
TORSDOF 0
ENDMDL
