MODEL 1
REMARK minimizedAffinity -0.62465626
REMARK minimizedRMSD -1
REMARK  0 active torsions:
REMARK  status: ('A' for Active; 'I' for Inactive)
ROOT
ATOM      1  C   UNL d   1       1.564   1.137  -4.684  0.00  0.00     0.077 C 
ATOM      2  C1  UNL d   1       1.234   0.695  -3.289  0.00  0.00    -0.074 A 
ATOM      3  C2  UNL d   1       0.548   1.540  -2.411  0.00  0.00    -0.005 A 
ATOM      4  C3  UNL d   1       0.240   1.112  -1.120  0.00  0.00     0.006 A 
ATOM      5  C4  UNL d   1       0.613  -0.164  -0.695  0.00  0.00    -0.005 A 
ATOM      6  C5  UNL d   1       1.299  -1.023  -1.559  0.00  0.00    -0.074 A 
ATOM      7  C6  UNL d   1       1.700  -2.400  -1.121  0.00  0.00     0.077 C 
ATOM      8  C7  UNL d   1       1.599  -0.588  -2.857  0.00  0.00    -0.001 A 
ENDROOT
TORSDOF 0
ENDMDL
