MODEL 1
REMARK minimizedAffinity -1.95743501
REMARK minimizedRMSD -1
REMARK  0 active torsions:
REMARK  status: ('A' for Active; 'I' for Inactive)
ROOT
ATOM      1  C   UNL d   1       5.942   3.542   5.271  0.00  0.00     0.077 C 
ATOM      2  C1  UNL d   1       5.471   2.173   4.878  0.00  0.00    -0.074 A 
ATOM      3  C2  UNL d   1       4.594   1.996   3.803  0.00  0.00    -0.005 A 
ATOM      4  C3  UNL d   1       4.172   0.716   3.443  0.00  0.00     0.006 A 
ATOM      5  C4  UNL d   1       4.622  -0.398   4.154  0.00  0.00    -0.005 A 
ATOM      6  C5  UNL d   1       5.499  -0.240   5.232  0.00  0.00    -0.074 A 
ATOM      7  C6  UNL d   1       6.000  -1.427   6.000  0.00  0.00     0.077 C 
ATOM      8  C7  UNL d   1       5.924   1.049   5.582  0.00  0.00    -0.001 A 
ENDROOT
TORSDOF 0
ENDMDL
