MODEL 1
REMARK minimizedAffinity -3.40920711
REMARK minimizedRMSD -1
REMARK  1 active torsions:
REMARK  status: ('A' for Active; 'I' for Inactive)
REMARK    1  A    between atoms: C1_2  and  C2_3 
ROOT
ATOM      1  C2  UNL d   1       0.368   0.384  -0.045  0.00  0.00    -0.076 A 
ATOM      2  C3  UNL d   1      -0.014  -0.513   0.967  0.00  0.00     0.004 A 
ATOM      3  C4  UNL d   1      -0.698  -0.070   2.098  0.00  0.00    -0.003 A 
ATOM      4  C5  UNL d   1      -1.011   1.278   2.235  0.00  0.00     0.000 A 
ATOM      5  C6  UNL d   1      -0.654   2.179   1.232  0.00  0.00     0.000 A 
ATOM      6  C7  UNL d   1       0.021   1.746   0.078  0.00  0.00    -0.073 A 
ATOM      7  C8  UNL d   1       0.386   2.763  -0.969  0.00  0.00     0.078 C 
ENDROOT
BRANCH   1   8
ATOM      8  C1  UNL d   1       1.132  -0.150  -1.236  0.00  0.00     0.053 C 
ATOM      9  C   UNL d   1       0.896  -1.636  -1.460  0.00  0.00     0.018 C 
ENDBRANCH   1   8
TORSDOF 1
ENDMDL
