MODEL 1
REMARK minimizedAffinity 0.579214036
REMARK minimizedRMSD -1
REMARK  1 active torsions:
REMARK  status: ('A' for Active; 'I' for Inactive)
REMARK    1  A    between atoms: C1_2  and  C2_3 
ROOT
ATOM      1  C2  UNL d   1       0.317  -0.466  -1.435  0.00  0.00    -0.076 A 
ATOM      2  C3  UNL d   1      -0.059  -0.816  -2.743  0.00  0.00     0.004 A 
ATOM      3  C4  UNL d   1       0.070  -2.126  -3.200  0.00  0.00    -0.003 A 
ATOM      4  C5  UNL d   1       0.577  -3.108  -2.356  0.00  0.00     0.000 A 
ATOM      5  C6  UNL d   1       0.938  -2.782  -1.049  0.00  0.00     0.000 A 
ATOM      6  C7  UNL d   1       0.800  -1.469  -0.568  0.00  0.00    -0.073 A 
ATOM      7  C8  UNL d   1       1.211  -1.173   0.849  0.00  0.00     0.078 C 
ENDROOT
BRANCH   1   8
ATOM      8  C1  UNL d   1       0.180   0.977  -1.003  0.00  0.00     0.053 C 
ATOM      9  C   UNL d   1      -0.891   1.168   0.059  0.00  0.00     0.018 C 
ENDBRANCH   1   8
TORSDOF 1
ENDMDL
