MODEL 1
REMARK minimizedAffinity -1.65093887
REMARK minimizedRMSD -1
REMARK  1 active torsions:
REMARK  status: ('A' for Active; 'I' for Inactive)
REMARK    1  A    between atoms: C1_2  and  C2_3 
ROOT
ATOM      1  C2  UNL d   1       0.188   0.206  -0.198  0.00  0.00    -0.076 A 
ATOM      2  C3  UNL d   1      -0.206  -0.599   0.885  0.00  0.00     0.004 A 
ATOM      3  C4  UNL d   1      -0.934  -0.066   1.948  0.00  0.00    -0.003 A 
ATOM      4  C5  UNL d   1      -1.280   1.281   1.944  0.00  0.00     0.000 A 
ATOM      5  C6  UNL d   1      -0.913   2.090   0.869  0.00  0.00     0.000 A 
ATOM      6  C7  UNL d   1      -0.193   1.564  -0.218  0.00  0.00    -0.073 A 
ATOM      7  C8  UNL d   1       0.183   2.484  -1.347  0.00  0.00     0.078 C 
ENDROOT
BRANCH   1   8
ATOM      8  C1  UNL d   1       1.000  -0.422  -1.309  0.00  0.00     0.053 C 
ATOM      9  C   UNL d   1       1.027  -1.940  -1.224  0.00  0.00     0.018 C 
ENDBRANCH   1   8
TORSDOF 1
ENDMDL
