MODEL 1
REMARK minimizedAffinity -1.74824989
REMARK minimizedRMSD -1
REMARK  1 active torsions:
REMARK  status: ('A' for Active; 'I' for Inactive)
REMARK    1  A    between atoms: C1_2  and  C2_3 
ROOT
ATOM      1  C2  UNL d   1       0.345  -0.309  -0.012  0.00  0.00    -0.076 A 
ATOM      2  C3  UNL d   1       0.025  -1.236   0.995  0.00  0.00     0.004 A 
ATOM      3  C4  UNL d   1      -0.764  -0.869   2.083  0.00  0.00    -0.003 A 
ATOM      4  C5  UNL d   1      -1.246   0.431   2.183  0.00  0.00     0.000 A 
ATOM      5  C6  UNL d   1      -0.953   1.360   1.185  0.00  0.00     0.000 A 
ATOM      6  C7  UNL d   1      -0.172   1.002   0.073  0.00  0.00    -0.073 A 
ATOM      7  C8  UNL d   1       0.119   2.045  -0.971  0.00  0.00     0.078 C 
ENDROOT
BRANCH   1   8
ATOM      8  C1  UNL d   1       1.228  -0.756  -1.155  0.00  0.00     0.053 C 
ATOM      9  C   UNL d   1       0.843  -2.130  -1.684  0.00  0.00     0.018 C 
ENDBRANCH   1   8
TORSDOF 1
ENDMDL
