MODEL 1
REMARK minimizedAffinity 5.11086702
REMARK minimizedRMSD -1
REMARK  1 active torsions:
REMARK  status: ('A' for Active; 'I' for Inactive)
REMARK    1  A    between atoms: C1_2  and  C2_3 
ROOT
ATOM      1  C2  UNL d   1       0.181  -0.026   0.088  0.00  0.00    -0.076 A 
ATOM      2  C3  UNL d   1      -1.020   0.686  -0.079  0.00  0.00     0.004 A 
ATOM      3  C4  UNL d   1      -1.070   1.832  -0.871  0.00  0.00    -0.003 A 
ATOM      4  C5  UNL d   1       0.079   2.284  -1.510  0.00  0.00     0.000 A 
ATOM      5  C6  UNL d   1       1.275   1.580  -1.370  0.00  0.00     0.000 A 
ATOM      6  C7  UNL d   1       1.339   0.414  -0.588  0.00  0.00    -0.073 A 
ATOM      7  C8  UNL d   1       2.656  -0.302  -0.467  0.00  0.00     0.078 C 
ENDROOT
BRANCH   1   8
ATOM      8  C1  UNL d   1       0.181  -1.246   0.981  0.00  0.00     0.053 C 
ATOM      9  C   UNL d   1       0.873  -0.994   2.312  0.00  0.00     0.018 C 
ENDBRANCH   1   8
TORSDOF 1
ENDMDL
