MODEL 1
REMARK minimizedAffinity -2.51748204
REMARK minimizedRMSD -1
REMARK  1 active torsions:
REMARK  status: ('A' for Active; 'I' for Inactive)
REMARK    1  A    between atoms: C1_2  and  C2_3 
ROOT
ATOM      1  C2  UNL d   1      -0.011  -0.361  -0.410  0.00  0.00    -0.076 A 
ATOM      2  C3  UNL d   1      -0.208  -1.256   0.656  0.00  0.00     0.004 A 
ATOM      3  C4  UNL d   1      -0.754  -0.824   1.864  0.00  0.00    -0.003 A 
ATOM      4  C5  UNL d   1      -1.112   0.510   2.025  0.00  0.00     0.000 A 
ATOM      5  C6  UNL d   1      -0.940   1.408   0.972  0.00  0.00     0.000 A 
ATOM      6  C7  UNL d   1      -0.407   0.985  -0.258  0.00  0.00    -0.073 A 
ATOM      7  C8  UNL d   1      -0.237   1.997  -1.358  0.00  0.00     0.078 C 
ENDROOT
BRANCH   1   8
ATOM      8  C1  UNL d   1       0.610  -0.881  -1.687  0.00  0.00     0.053 C 
ATOM      9  C   UNL d   1       0.637  -2.401  -1.744  0.00  0.00     0.018 C 
ENDBRANCH   1   8
TORSDOF 1
ENDMDL
