MODEL 1
REMARK minimizedAffinity -1.25582647
REMARK minimizedRMSD -1
REMARK  1 active torsions:
REMARK  status: ('A' for Active; 'I' for Inactive)
REMARK    1  A    between atoms: C1_2  and  C2_3 
ROOT
ATOM      1  C2  UNL d   1      -0.011   0.849  -0.100  0.00  0.00    -0.076 A 
ATOM      2  C3  UNL d   1      -0.552   1.931   0.616  0.00  0.00     0.004 A 
ATOM      3  C4  UNL d   1      -1.062   1.757   1.902  0.00  0.00    -0.003 A 
ATOM      4  C5  UNL d   1      -1.038   0.499   2.492  0.00  0.00     0.000 A 
ATOM      5  C6  UNL d   1      -0.489  -0.582   1.803  0.00  0.00     0.000 A 
ATOM      6  C7  UNL d   1       0.044  -0.421   0.513  0.00  0.00    -0.073 A 
ATOM      7  C8  UNL d   1       0.618  -1.623  -0.186  0.00  0.00     0.078 C 
ENDROOT
BRANCH   1   8
ATOM      8  C1  UNL d   1       0.502   1.092  -1.502  0.00  0.00     0.053 C 
ATOM      9  C   UNL d   1       0.578   2.571  -1.846  0.00  0.00     0.018 C 
ENDBRANCH   1   8
TORSDOF 1
ENDMDL
