MODEL 1
REMARK minimizedAffinity -5.93592167
REMARK minimizedRMSD -1
REMARK  1 active torsions:
REMARK  status: ('A' for Active; 'I' for Inactive)
REMARK    1  A    between atoms: C1_2  and  C2_3 
ROOT
ATOM      1  C2  UNL d   1      -0.636   1.526   0.564  0.00  0.00    -0.076 A 
ATOM      2  C3  UNL d   1      -1.557   1.435   1.622  0.00  0.00     0.004 A 
ATOM      3  C4  UNL d   1      -2.314   2.540   2.011  0.00  0.00    -0.003 A 
ATOM      4  C5  UNL d   1      -2.162   3.752   1.348  0.00  0.00     0.000 A 
ATOM      5  C6  UNL d   1      -1.266   3.855   0.285  0.00  0.00     0.000 A 
ATOM      6  C7  UNL d   1      -0.507   2.747  -0.131  0.00  0.00    -0.073 A 
ATOM      7  C8  UNL d   1       0.448   2.916  -1.280  0.00  0.00     0.078 C 
ENDROOT
BRANCH   1   8
ATOM      8  C1  UNL d   1       0.176   0.302   0.205  0.00  0.00     0.053 C 
ATOM      9  C   UNL d   1      -0.152  -0.894   1.084  0.00  0.00     0.018 C 
ENDBRANCH   1   8
TORSDOF 1
ENDMDL
