MODEL 1
REMARK minimizedAffinity -0.764824569
REMARK minimizedRMSD -1
REMARK  1 active torsions:
REMARK  status: ('A' for Active; 'I' for Inactive)
REMARK    1  A    between atoms: C1_2  and  C2_3 
ROOT
ATOM      1  C2  UNL d   1       0.267  -0.799  -0.155  0.00  0.00    -0.076 A 
ATOM      2  C3  UNL d   1      -0.305  -1.350   1.005  0.00  0.00     0.004 A 
ATOM      3  C4  UNL d   1      -0.900  -0.536   1.968  0.00  0.00    -0.003 A 
ATOM      4  C5  UNL d   1      -0.933   0.842   1.786  0.00  0.00     0.000 A 
ATOM      5  C6  UNL d   1      -0.386   1.405   0.634  0.00  0.00     0.000 A 
ATOM      6  C7  UNL d   1       0.203   0.597  -0.355  0.00  0.00    -0.073 A 
ATOM      7  C8  UNL d   1       0.784   1.258  -1.575  0.00  0.00     0.078 C 
ENDROOT
BRANCH   1   8
ATOM      8  C1  UNL d   1       0.922  -1.728  -1.151  0.00  0.00     0.053 C 
ATOM      9  C   UNL d   1       0.025  -2.894  -1.538  0.00  0.00     0.018 C 
ENDBRANCH   1   8
TORSDOF 1
ENDMDL
