MODEL 1
REMARK minimizedAffinity -2.37243319
REMARK minimizedRMSD -1
REMARK  0 active torsions:
REMARK  status: ('A' for Active; 'I' for Inactive)
ROOT
ATOM      1  C   UNL d   1      -4.929   5.847  -4.999  0.00  0.00     0.078 C 
ATOM      2  C1  UNL d   1      -5.294   5.082  -3.762  0.00  0.00    -0.077 A 
ATOM      3  C2  UNL d   1      -5.300   3.682  -3.754  0.00  0.00    -0.001 A 
ATOM      4  C3  UNL d   1      -5.651   2.984  -2.598  0.00  0.00     0.003 A 
ATOM      5  C4  UNL d   1      -6.000   3.677  -1.441  0.00  0.00    -0.005 A 
ATOM      6  C5  UNL d   1      -5.999   5.071  -1.439  0.00  0.00     0.003 A 
ATOM      7  C6  UNL d   1      -5.648   5.771  -2.595  0.00  0.00    -0.001 A 
ENDROOT
TORSDOF 0
ENDMDL
