MODEL 1
REMARK minimizedAffinity -0.0265795998
REMARK minimizedRMSD -1
REMARK  0 active torsions:
REMARK  status: ('A' for Active; 'I' for Inactive)
ROOT
ATOM      1  C   UNL d   1      -5.450   2.318  -3.330  0.00  0.00     0.078 C 
ATOM      2  C1  UNL d   1      -5.641   3.581  -2.544  0.00  0.00    -0.077 A 
ATOM      3  C2  UNL d   1      -5.620   4.832  -3.173  0.00  0.00    -0.001 A 
ATOM      4  C3  UNL d   1      -5.790   6.000  -2.428  0.00  0.00     0.003 A 
ATOM      5  C4  UNL d   1      -5.980   5.929  -1.049  0.00  0.00    -0.005 A 
ATOM      6  C5  UNL d   1      -6.000   4.689  -0.414  0.00  0.00     0.003 A 
ATOM      7  C6  UNL d   1      -5.830   3.520  -1.158  0.00  0.00    -0.001 A 
ENDROOT
TORSDOF 0
ENDMDL
