MODEL 1
REMARK minimizedAffinity 2.73697972
REMARK minimizedRMSD -1
REMARK  0 active torsions:
REMARK  status: ('A' for Active; 'I' for Inactive)
ROOT
ATOM      1  C   UNL d   1      -3.318  -4.423  -1.356  0.00  0.00     0.078 C 
ATOM      2  C1  UNL d   1      -2.479  -3.593  -0.432  0.00  0.00    -0.077 A 
ATOM      3  C2  UNL d   1      -1.667  -4.191   0.539  0.00  0.00    -0.001 A 
ATOM      4  C3  UNL d   1      -0.898  -3.405   1.399  0.00  0.00     0.003 A 
ATOM      5  C4  UNL d   1      -0.934  -2.016   1.297  0.00  0.00    -0.005 A 
ATOM      6  C5  UNL d   1      -1.740  -1.411   0.335  0.00  0.00     0.003 A 
ATOM      7  C6  UNL d   1      -2.510  -2.196  -0.526  0.00  0.00    -0.001 A 
ENDROOT
TORSDOF 0
ENDMDL
