MODEL 1
REMARK minimizedAffinity -0.585753798
REMARK minimizedRMSD -1
REMARK  0 active torsions:
REMARK  status: ('A' for Active; 'I' for Inactive)
ROOT
ATOM      1  C   UNL d   1       0.070   1.978   1.764  0.00  0.00     0.078 C 
ATOM      2  C1  UNL d   1      -0.034   0.802   0.841  0.00  0.00    -0.077 A 
ATOM      3  C2  UNL d   1      -0.022  -0.508   1.337  0.00  0.00    -0.001 A 
ATOM      4  C3  UNL d   1      -0.109  -1.594   0.465  0.00  0.00     0.003 A 
ATOM      5  C4  UNL d   1      -0.209  -1.382  -0.909  0.00  0.00    -0.005 A 
ATOM      6  C5  UNL d   1      -0.219  -0.083  -1.412  0.00  0.00     0.003 A 
ATOM      7  C6  UNL d   1      -0.132   1.004  -0.541  0.00  0.00    -0.001 A 
ENDROOT
TORSDOF 0
ENDMDL
