MODEL 1
REMARK minimizedAffinity 7.33826828
REMARK minimizedRMSD -1
REMARK  0 active torsions:
REMARK  status: ('A' for Active; 'I' for Inactive)
ROOT
ATOM      1  C   UNL d   1      -3.005  -0.135   1.469  0.00  0.00     0.078 C 
ATOM      2  C1  UNL d   1      -2.625  -1.538   1.098  0.00  0.00    -0.077 A 
ATOM      3  C2  UNL d   1      -2.916  -2.052  -0.171  0.00  0.00    -0.001 A 
ATOM      4  C3  UNL d   1      -2.566  -3.363  -0.499  0.00  0.00     0.003 A 
ATOM      5  C4  UNL d   1      -1.924  -4.171   0.437  0.00  0.00    -0.005 A 
ATOM      6  C5  UNL d   1      -1.632  -3.668   1.704  0.00  0.00     0.003 A 
ATOM      7  C6  UNL d   1      -1.981  -2.358   2.033  0.00  0.00    -0.001 A 
ENDROOT
TORSDOF 0
ENDMDL
