MODEL 1
REMARK minimizedAffinity 0.364789486
REMARK minimizedRMSD -1
REMARK  0 active torsions:
REMARK  status: ('A' for Active; 'I' for Inactive)
ROOT
ATOM      1  C   UNL d   1       1.769   4.868  -5.999  0.00  0.00     0.078 C 
ATOM      2  C1  UNL d   1       3.221   4.494  -5.987  0.00  0.00    -0.077 A 
ATOM      3  C2  UNL d   1       4.219   5.476  -5.995  0.00  0.00    -0.001 A 
ATOM      4  C3  UNL d   1       5.567   5.114  -5.994  0.00  0.00     0.003 A 
ATOM      5  C4  UNL d   1       5.929   3.768  -5.986  0.00  0.00    -0.005 A 
ATOM      6  C5  UNL d   1       4.943   2.784  -5.980  0.00  0.00     0.003 A 
ATOM      7  C6  UNL d   1       3.595   3.144  -5.981  0.00  0.00    -0.001 A 
ENDROOT
TORSDOF 0
ENDMDL
