MODEL 1
REMARK minimizedAffinity 3.11828279
REMARK minimizedRMSD -1
REMARK  0 active torsions:
REMARK  status: ('A' for Active; 'I' for Inactive)
ROOT
ATOM      1  C   UNL d   1      -0.399  -5.554  -3.903  0.00  0.00     0.078 C 
ATOM      2  C1  UNL d   1      -1.630  -5.058  -3.204  0.00  0.00    -0.077 A 
ATOM      3  C2  UNL d   1      -1.829  -3.691  -2.978  0.00  0.00    -0.001 A 
ATOM      4  C3  UNL d   1      -2.975  -3.244  -2.318  0.00  0.00     0.003 A 
ATOM      5  C4  UNL d   1      -3.929  -4.159  -1.876  0.00  0.00    -0.005 A 
ATOM      6  C5  UNL d   1      -3.738  -5.521  -2.095  0.00  0.00     0.003 A 
ATOM      7  C6  UNL d   1      -2.593  -5.970  -2.755  0.00  0.00    -0.001 A 
ENDROOT
TORSDOF 0
ENDMDL
