MODEL 1
REMARK minimizedAffinity 0.948077679
REMARK minimizedRMSD -1
REMARK  0 active torsions:
REMARK  status: ('A' for Active; 'I' for Inactive)
ROOT
ATOM      1  C   UNL d   1       3.387   3.522   2.111  0.00  0.00     0.078 C 
ATOM      2  C1  UNL d   1       2.256   2.611   1.739  0.00  0.00    -0.077 A 
ATOM      3  C2  UNL d   1       0.937   2.914   2.099  0.00  0.00    -0.001 A 
ATOM      4  C3  UNL d   1      -0.105   2.052   1.755  0.00  0.00     0.003 A 
ATOM      5  C4  UNL d   1       0.161   0.879   1.051  0.00  0.00    -0.005 A 
ATOM      6  C5  UNL d   1       1.471   0.568   0.690  0.00  0.00     0.003 A 
ATOM      7  C6  UNL d   1       2.514   1.429   1.033  0.00  0.00    -0.001 A 
ENDROOT
TORSDOF 0
ENDMDL
