MODEL 1
REMARK minimizedAffinity 6.23500252
REMARK minimizedRMSD -1
REMARK  0 active torsions:
REMARK  status: ('A' for Active; 'I' for Inactive)
ROOT
ATOM      1  C   UNL d   1       5.985   3.306  -1.577  0.00  0.00     0.078 C 
ATOM      2  C1  UNL d   1       5.628   3.811  -0.211  0.00  0.00    -0.077 A 
ATOM      3  C2  UNL d   1       4.948   5.024  -0.046  0.00  0.00    -0.001 A 
ATOM      4  C3  UNL d   1       4.631   5.487   1.232  0.00  0.00     0.003 A 
ATOM      5  C4  UNL d   1       4.991   4.745   2.355  0.00  0.00    -0.005 A 
ATOM      6  C5  UNL d   1       5.670   3.538   2.201  0.00  0.00     0.003 A 
ATOM      7  C6  UNL d   1       5.988   3.073   0.924  0.00  0.00    -0.001 A 
ENDROOT
TORSDOF 0
ENDMDL
