MODEL 1
REMARK minimizedAffinity 2.52367067
REMARK minimizedRMSD -1
REMARK  0 active torsions:
REMARK  status: ('A' for Active; 'I' for Inactive)
ROOT
ATOM      1  C   UNL d   1      -2.407  -1.458  -2.603  0.00  0.00     0.078 C 
ATOM      2  C1  UNL d   1      -2.717  -2.733  -1.878  0.00  0.00    -0.077 A 
ATOM      3  C2  UNL d   1      -1.700  -3.495  -1.290  0.00  0.00    -0.001 A 
ATOM      4  C3  UNL d   1      -2.002  -4.685  -0.627  0.00  0.00     0.003 A 
ATOM      5  C4  UNL d   1      -3.322  -5.126  -0.547  0.00  0.00    -0.005 A 
ATOM      6  C5  UNL d   1      -4.341  -4.376  -1.132  0.00  0.00     0.003 A 
ATOM      7  C6  UNL d   1      -4.040  -3.186  -1.795  0.00  0.00    -0.001 A 
ENDROOT
TORSDOF 0
ENDMDL
