MODEL 1
REMARK minimizedAffinity 1.999102
REMARK minimizedRMSD -1
REMARK  0 active torsions:
REMARK  status: ('A' for Active; 'I' for Inactive)
ROOT
ATOM      1  C   UNL d   1      -0.015   3.155   4.457  0.00  0.00     0.078 C 
ATOM      2  C1  UNL d   1      -0.370   2.437   3.189  0.00  0.00    -0.077 A 
ATOM      3  C2  UNL d   1       0.619   1.844   2.395  0.00  0.00    -0.001 A 
ATOM      4  C3  UNL d   1       0.274   1.187   1.212  0.00  0.00     0.003 A 
ATOM      5  C4  UNL d   1      -1.059   1.117   0.813  0.00  0.00    -0.005 A 
ATOM      6  C5  UNL d   1      -2.050   1.706   1.597  0.00  0.00     0.003 A 
ATOM      7  C6  UNL d   1      -1.708   2.363   2.779  0.00  0.00    -0.001 A 
ENDROOT
TORSDOF 0
ENDMDL
