MODEL 1
REMARK minimizedAffinity 1.43934309
REMARK minimizedRMSD -1
REMARK  0 active torsions:
REMARK  status: ('A' for Active; 'I' for Inactive)
ROOT
ATOM      1  C   UNL d   1      -3.664  -0.431   0.783  0.00  0.00     0.078 C 
ATOM      2  C1  UNL d   1      -2.899  -1.664   1.160  0.00  0.00    -0.077 A 
ATOM      3  C2  UNL d   1      -2.841  -2.768   0.299  0.00  0.00    -0.001 A 
ATOM      4  C3  UNL d   1      -2.133  -3.913   0.667  0.00  0.00     0.003 A 
ATOM      5  C4  UNL d   1      -1.480  -3.967   1.897  0.00  0.00    -0.005 A 
ATOM      6  C5  UNL d   1      -1.534  -2.875   2.761  0.00  0.00     0.003 A 
ATOM      7  C6  UNL d   1      -2.241  -1.729   2.394  0.00  0.00    -0.001 A 
ENDROOT
TORSDOF 0
ENDMDL
