MODEL 1
REMARK minimizedAffinity -1.74985409
REMARK minimizedRMSD -1
REMARK  0 active torsions:
REMARK  status: ('A' for Active; 'I' for Inactive)
ROOT
ATOM      1  C   UNL d   1      -2.421  -2.135   0.946  0.00  0.00     0.078 C 
ATOM      2  C1  UNL d   1      -2.659  -3.042  -0.224  0.00  0.00    -0.077 A 
ATOM      3  C2  UNL d   1      -3.066  -4.369  -0.037  0.00  0.00    -0.001 A 
ATOM      4  C3  UNL d   1      -3.274  -5.205  -1.135  0.00  0.00     0.003 A 
ATOM      5  C4  UNL d   1      -3.078  -4.724  -2.428  0.00  0.00    -0.005 A 
ATOM      6  C5  UNL d   1      -2.672  -3.406  -2.624  0.00  0.00     0.003 A 
ATOM      7  C6  UNL d   1      -2.463  -2.568  -1.527  0.00  0.00    -0.001 A 
ENDROOT
TORSDOF 0
ENDMDL
