MODEL 1
REMARK minimizedAffinity -3.17764378
REMARK minimizedRMSD -1
REMARK  0 active torsions:
REMARK  status: ('A' for Active; 'I' for Inactive)
ROOT
ATOM      1  C   UNL d   1      -5.999   5.959  -3.038  0.00  0.00     0.078 C 
ATOM      2  C1  UNL d   1      -5.950   4.610  -3.693  0.00  0.00    -0.077 A 
ATOM      3  C2  UNL d   1      -5.900   4.486  -5.086  0.00  0.00    -0.001 A 
ATOM      4  C3  UNL d   1      -5.865   3.225  -5.682  0.00  0.00     0.003 A 
ATOM      5  C4  UNL d   1      -5.881   2.077  -4.892  0.00  0.00    -0.005 A 
ATOM      6  C5  UNL d   1      -5.933   2.190  -3.504  0.00  0.00     0.003 A 
ATOM      7  C6  UNL d   1      -5.969   3.451  -2.907  0.00  0.00    -0.001 A 
ENDROOT
TORSDOF 0
ENDMDL
