MODEL 1
REMARK minimizedAffinity 9.43745995
REMARK minimizedRMSD -1
REMARK  0 active torsions:
REMARK  status: ('A' for Active; 'I' for Inactive)
ROOT
ATOM      1  C   UNL d   1      -2.109   1.941  -5.913  0.00  0.00     0.078 C 
ATOM      2  C1  UNL d   1      -1.543   3.329  -5.889  0.00  0.00    -0.077 A 
ATOM      3  C2  UNL d   1      -2.379   4.447  -5.775  0.00  0.00    -0.001 A 
ATOM      4  C3  UNL d   1      -1.839   5.734  -5.764  0.00  0.00     0.003 A 
ATOM      5  C4  UNL d   1      -0.461   5.916  -5.868  0.00  0.00    -0.005 A 
ATOM      6  C5  UNL d   1       0.378   4.810  -5.984  0.00  0.00     0.003 A 
ATOM      7  C6  UNL d   1      -0.160   3.522  -5.995  0.00  0.00    -0.001 A 
ENDROOT
TORSDOF 0
ENDMDL
