MODEL 1
REMARK minimizedAffinity 1.85790002
REMARK minimizedRMSD -1
REMARK  0 active torsions:
REMARK  status: ('A' for Active; 'I' for Inactive)
ROOT
ATOM      1  C1  BNZ d   1       3.831  -3.829   2.075  0.00  0.00     0.000 A 
ATOM      2  C2  BNZ d   1       2.556  -3.417   1.790  0.00  0.00     0.000 A 
ATOM      3  C3  BNZ d   1       2.306  -2.597   0.725  0.00  0.00     0.000 A 
ATOM      4  C4  BNZ d   1       3.335  -2.158  -0.028  0.00  0.00     0.000 A 
ATOM      5  C5  BNZ d   1       4.627  -2.556   0.251  0.00  0.00     0.000 A 
ATOM      6  C6  BNZ d   1       4.870  -3.413   1.300  0.00  0.00     0.000 A 
ENDROOT
TORSDOF 0
ENDMDL
