MODEL 1
REMARK minimizedAffinity 4.18173838
REMARK minimizedRMSD -1
REMARK  0 active torsions:
REMARK  status: ('A' for Active; 'I' for Inactive)
ROOT
ATOM      1  C1  BNZ d   1       3.573  -4.050   1.439  0.00  0.00     0.000 A 
ATOM      2  C2  BNZ d   1       2.533  -3.706   0.618  0.00  0.00     0.000 A 
ATOM      3  C3  BNZ d   1       1.762  -2.609   0.887  0.00  0.00     0.000 A 
ATOM      4  C4  BNZ d   1       2.008  -1.882   1.996  0.00  0.00     0.000 A 
ATOM      5  C5  BNZ d   1       3.048  -2.221   2.839  0.00  0.00     0.000 A 
ATOM      6  C6  BNZ d   1       3.846  -3.303   2.544  0.00  0.00     0.000 A 
ENDROOT
TORSDOF 0
ENDMDL
