MODEL 1
REMARK minimizedAffinity -2.17624617
REMARK minimizedRMSD -1
REMARK  0 active torsions:
REMARK  status: ('A' for Active; 'I' for Inactive)
ROOT
ATOM      1  C1  BNZ d   1       3.118   3.405  -5.971  0.00  0.00     0.000 A 
ATOM      2  C2  BNZ d   1       2.237   4.454  -5.966  0.00  0.00     0.000 A 
ATOM      3  C3  BNZ d   1       2.686   5.745  -6.000  0.00  0.00     0.000 A 
ATOM      4  C4  BNZ d   1       4.013   5.986  -5.999  0.00  0.00     0.000 A 
ATOM      5  C5  BNZ d   1       4.913   4.939  -5.995  0.00  0.00     0.000 A 
ATOM      6  C6  BNZ d   1       4.458   3.641  -6.000  0.00  0.00     0.000 A 
ENDROOT
TORSDOF 0
ENDMDL
