MODEL 1
REMARK minimizedAffinity 0.307801455
REMARK minimizedRMSD -1
REMARK  0 active torsions:
REMARK  status: ('A' for Active; 'I' for Inactive)
ROOT
ATOM      1  C1  BNZ d   1       4.531  -2.960   0.283  0.00  0.00     0.000 A 
ATOM      2  C2  BNZ d   1       5.582  -3.405   1.040  0.00  0.00     0.000 A 
ATOM      3  C3  BNZ d   1       5.389  -3.826   2.326  0.00  0.00     0.000 A 
ATOM      4  C4  BNZ d   1       4.154  -3.763   2.866  0.00  0.00     0.000 A 
ATOM      5  C5  BNZ d   1       3.087  -3.308   2.119  0.00  0.00     0.000 A 
ATOM      6  C6  BNZ d   1       3.278  -2.921   0.812  0.00  0.00     0.000 A 
ENDROOT
TORSDOF 0
ENDMDL
