MODEL 1
REMARK minimizedAffinity -2.1399703
REMARK minimizedRMSD -1
REMARK  0 active torsions:
REMARK  status: ('A' for Active; 'I' for Inactive)
ROOT
ATOM      1  C   UNL d   1      -1.040   1.945   0.778  0.00  0.00     0.124 A 
ATOM      2  C1  UNL d   1      -1.011   1.552  -0.553  0.00  0.00     0.062 A 
ATOM      3  C2  UNL d   1      -0.528   0.294  -0.901  0.00  0.00     0.162 A 
ATOM      4  C3  UNL d   1      -0.071  -0.582   0.084  0.00  0.00    -0.034 A 
ATOM      5  C4  UNL d   1      -0.103  -0.179   1.420  0.00  0.00     0.162 A 
ATOM      6  C5  UNL d   1      -0.586   1.079   1.763  0.00  0.00     0.062 A 
ATOM      7  F   UNL d   1      -0.614   1.457   3.049  0.00  0.00    -0.097 F 
ATOM      8  F1  UNL d   1       0.329  -0.996   2.393  0.00  0.00    -0.096 F 
ATOM      9  I   UNL d   1       0.652  -2.464  -0.432  0.00  0.00    -0.060 I 
ATOM     10  F2  UNL d   1      -0.512  -0.060  -2.195  0.00  0.00    -0.096 F 
ATOM     11  F3  UNL d   1      -1.448   2.386  -1.507  0.00  0.00    -0.097 F 
ATOM     12  F4  UNL d   1      -1.505   3.156   1.110  0.00  0.00    -0.092 F 
ENDROOT
TORSDOF 0
ENDMDL
