MODEL 1
REMARK minimizedAffinity 3.37439895
REMARK minimizedRMSD -1
REMARK  0 active torsions:
REMARK  status: ('A' for Active; 'I' for Inactive)
ROOT
ATOM      1  C   UNL d   1       0.248   1.245   0.350  0.00  0.00     0.124 A 
ATOM      2  C1  UNL d   1       0.901   0.022   0.269  0.00  0.00     0.062 A 
ATOM      3  C2  UNL d   1       1.234  -0.672   1.429  0.00  0.00     0.162 A 
ATOM      4  C3  UNL d   1       0.913  -0.146   2.680  0.00  0.00    -0.034 A 
ATOM      5  C4  UNL d   1       0.258   1.085   2.754  0.00  0.00     0.162 A 
ATOM      6  C5  UNL d   1      -0.073   1.774   1.592  0.00  0.00     0.062 A 
ATOM      7  F   UNL d   1      -0.704   2.955   1.673  0.00  0.00    -0.097 F 
ATOM      8  F1  UNL d   1      -0.065   1.619   3.941  0.00  0.00    -0.096 F 
ATOM      9  I   UNL d   1       1.410  -1.180   4.417  0.00  0.00    -0.060 I 
ATOM     10  F2  UNL d   1       1.864  -1.850   1.320  0.00  0.00    -0.096 F 
ATOM     11  F3  UNL d   1       1.213  -0.491  -0.929  0.00  0.00    -0.097 F 
ATOM     12  F4  UNL d   1      -0.070   1.911  -0.767  0.00  0.00    -0.092 F 
ENDROOT
TORSDOF 0
ENDMDL
