MODEL 1
REMARK minimizedAffinity 6.2000041
REMARK minimizedRMSD -1
REMARK  0 active torsions:
REMARK  status: ('A' for Active; 'I' for Inactive)
ROOT
ATOM      1  C   UNL d   1      -0.191   0.242   1.043  0.00  0.00     0.124 A 
ATOM      2  C1  UNL d   1       1.037   0.289   0.396  0.00  0.00     0.062 A 
ATOM      3  C2  UNL d   1       2.192  -0.118   1.057  0.00  0.00     0.162 A 
ATOM      4  C3  UNL d   1       2.126  -0.576   2.373  0.00  0.00    -0.034 A 
ATOM      5  C4  UNL d   1       0.889  -0.619   3.017  0.00  0.00     0.162 A 
ATOM      6  C5  UNL d   1      -0.263  -0.212   2.352  0.00  0.00     0.062 A 
ATOM      7  F   UNL d   1      -1.448  -0.258   2.979  0.00  0.00    -0.097 F 
ATOM      8  F1  UNL d   1       0.790  -1.054   4.282  0.00  0.00    -0.096 F 
ATOM      9  I   UNL d   1       3.852  -1.184   3.364  0.00  0.00    -0.060 I 
ATOM     10  F2  UNL d   1       3.364  -0.062   0.407  0.00  0.00    -0.096 F 
ATOM     11  F3  UNL d   1       1.110   0.727  -0.869  0.00  0.00    -0.097 F 
ATOM     12  F4  UNL d   1      -1.301   0.634   0.405  0.00  0.00    -0.092 F 
ENDROOT
TORSDOF 0
ENDMDL
