MODEL 1
REMARK minimizedAffinity 1.87377942
REMARK minimizedRMSD -1
REMARK  0 active torsions:
REMARK  status: ('A' for Active; 'I' for Inactive)
ROOT
ATOM      1  C   UNL d   1      -1.183   1.848  -0.006  0.00  0.00     0.124 A 
ATOM      2  C1  UNL d   1      -1.153   0.941   1.044  0.00  0.00     0.062 A 
ATOM      3  C2  UNL d   1      -0.558  -0.306   0.875  0.00  0.00     0.162 A 
ATOM      4  C3  UNL d   1       0.013  -0.653  -0.350  0.00  0.00    -0.034 A 
ATOM      5  C4  UNL d   1      -0.022   0.264  -1.402  0.00  0.00     0.162 A 
ATOM      6  C5  UNL d   1      -0.618   1.509  -1.227  0.00  0.00     0.062 A 
ATOM      7  F   UNL d   1      -0.646   2.385  -2.242  0.00  0.00    -0.097 F 
ATOM      8  F1  UNL d   1       0.517  -0.037  -2.592  0.00  0.00    -0.096 F 
ATOM      9  I   UNL d   1       0.903  -2.517  -0.608  0.00  0.00    -0.060 I 
ATOM     10  F2  UNL d   1      -0.543  -1.163   1.906  0.00  0.00    -0.096 F 
ATOM     11  F3  UNL d   1      -1.699   1.265   2.225  0.00  0.00    -0.097 F 
ATOM     12  F4  UNL d   1      -1.757   3.047   0.160  0.00  0.00    -0.092 F 
ENDROOT
TORSDOF 0
ENDMDL
