MODEL 1
REMARK minimizedAffinity -1.43762827
REMARK minimizedRMSD -1
REMARK  0 active torsions:
REMARK  status: ('A' for Active; 'I' for Inactive)
ROOT
ATOM      1  C   UNL d   1      -0.236   2.652   0.497  0.00  0.00     0.124 A 
ATOM      2  C1  UNL d   1      -0.025   2.357  -0.842  0.00  0.00     0.062 A 
ATOM      3  C2  UNL d   1       0.228   1.047  -1.239  0.00  0.00     0.162 A 
ATOM      4  C3  UNL d   1       0.270   0.021  -0.294  0.00  0.00    -0.034 A 
ATOM      5  C4  UNL d   1       0.057   0.326   1.051  0.00  0.00     0.162 A 
ATOM      6  C5  UNL d   1      -0.195   1.637   1.443  0.00  0.00     0.062 A 
ATOM      7  F   UNL d   1      -0.399   1.920   2.737  0.00  0.00    -0.097 F 
ATOM      8  F1  UNL d   1       0.091  -0.636   1.986  0.00  0.00    -0.096 F 
ATOM      9  I   UNL d   1       0.648  -1.939  -0.883  0.00  0.00    -0.060 I 
ATOM     10  F2  UNL d   1       0.429   0.790  -2.540  0.00  0.00    -0.096 F 
ATOM     11  F3  UNL d   1      -0.063   3.336  -1.757  0.00  0.00    -0.097 F 
ATOM     12  F4  UNL d   1      -0.478   3.913   0.876  0.00  0.00    -0.092 F 
ENDROOT
TORSDOF 0
ENDMDL
