MODEL 1
REMARK minimizedAffinity -2.90431166
REMARK minimizedRMSD -1
REMARK  0 active torsions:
REMARK  status: ('A' for Active; 'I' for Inactive)
ROOT
ATOM      1  C   UNL d   1      -0.409   0.285   1.424  0.00  0.00     0.124 A 
ATOM      2  C1  UNL d   1      -1.002   1.533   1.565  0.00  0.00     0.062 A 
ATOM      3  C2  UNL d   1      -1.070   2.402   0.481  0.00  0.00     0.162 A 
ATOM      4  C3  UNL d   1      -0.544   2.027  -0.756  0.00  0.00    -0.034 A 
ATOM      5  C4  UNL d   1       0.051   0.772  -0.890  0.00  0.00     0.162 A 
ATOM      6  C5  UNL d   1       0.117  -0.094   0.197  0.00  0.00     0.062 A 
ATOM      7  F   UNL d   1       0.690  -1.298   0.059  0.00  0.00    -0.097 F 
ATOM      8  F1  UNL d   1       0.567   0.379  -2.064  0.00  0.00    -0.096 F 
ATOM      9  I   UNL d   1      -0.643   3.325  -2.380  0.00  0.00    -0.060 I 
ATOM     10  F2  UNL d   1      -1.648   3.601   0.646  0.00  0.00    -0.096 F 
ATOM     11  F3  UNL d   1      -1.510   1.902   2.750  0.00  0.00    -0.097 F 
ATOM     12  F4  UNL d   1      -0.345  -0.549   2.470  0.00  0.00    -0.092 F 
ENDROOT
TORSDOF 0
ENDMDL
