MODEL 1
REMARK minimizedAffinity 1.86135316
REMARK minimizedRMSD -1
REMARK  0 active torsions:
REMARK  status: ('A' for Active; 'I' for Inactive)
ROOT
ATOM      1  C   UNL d   1      -0.058   1.531   0.348  0.00  0.00     0.124 A 
ATOM      2  C1  UNL d   1      -0.093   1.202  -1.000  0.00  0.00     0.062 A 
ATOM      3  C2  UNL d   1       0.044  -0.123  -1.401  0.00  0.00     0.162 A 
ATOM      4  C3  UNL d   1       0.216  -1.131  -0.453  0.00  0.00    -0.034 A 
ATOM      5  C4  UNL d   1       0.252  -0.793   0.901  0.00  0.00     0.162 A 
ATOM      6  C5  UNL d   1       0.114   0.533   1.297  0.00  0.00     0.062 A 
ATOM      7  F   UNL d   1       0.149   0.849   2.600  0.00  0.00    -0.097 F 
ATOM      8  F1  UNL d   1       0.416  -1.737   1.839  0.00  0.00    -0.096 F 
ATOM      9  I   UNL d   1       0.421  -3.115  -1.049  0.00  0.00    -0.060 I 
ATOM     10  F2  UNL d   1       0.006  -0.412  -2.711  0.00  0.00    -0.096 F 
ATOM     11  F3  UNL d   1      -0.258   2.165  -1.919  0.00  0.00    -0.097 F 
ATOM     12  F4  UNL d   1      -0.189   2.808   0.731  0.00  0.00    -0.092 F 
ENDROOT
TORSDOF 0
ENDMDL
