MODEL 1
REMARK minimizedAffinity 7.14138079
REMARK minimizedRMSD -1
REMARK  0 active torsions:
REMARK  status: ('A' for Active; 'I' for Inactive)
ROOT
ATOM      1  C   UNL d   1      -0.421   0.815   1.987  0.00  0.00     0.124 A 
ATOM      2  C1  UNL d   1      -1.267  -0.254   1.726  0.00  0.00     0.062 A 
ATOM      3  C2  UNL d   1      -0.837  -1.307   0.924  0.00  0.00     0.162 A 
ATOM      4  C3  UNL d   1       0.447  -1.297   0.378  0.00  0.00    -0.034 A 
ATOM      5  C4  UNL d   1       1.291  -0.218   0.643  0.00  0.00     0.162 A 
ATOM      6  C5  UNL d   1       0.857   0.832   1.446  0.00  0.00     0.062 A 
ATOM      7  F   UNL d   1       1.675   1.865   1.696  0.00  0.00    -0.097 F 
ATOM      8  F1  UNL d   1       2.531  -0.176   0.134  0.00  0.00    -0.096 F 
ATOM      9  I   UNL d   1       1.093  -2.870  -0.822  0.00  0.00    -0.060 I 
ATOM     10  F2  UNL d   1      -1.675  -2.327   0.689  0.00  0.00    -0.096 F 
ATOM     11  F3  UNL d   1      -2.502  -0.273   2.247  0.00  0.00    -0.097 F 
ATOM     12  F4  UNL d   1      -0.838   1.828   2.758  0.00  0.00    -0.092 F 
ENDROOT
TORSDOF 0
ENDMDL
