MODEL 1
REMARK minimizedAffinity 2.97379398
REMARK minimizedRMSD -1
REMARK  0 active torsions:
REMARK  status: ('A' for Active; 'I' for Inactive)
ROOT
ATOM      1  C   UNL d   1      -0.586   1.509  -1.116  0.00  0.00     0.124 A 
ATOM      2  C1  UNL d   1      -0.290   0.800  -2.272  0.00  0.00     0.062 A 
ATOM      3  C2  UNL d   1       0.021  -0.555  -2.201  0.00  0.00     0.162 A 
ATOM      4  C3  UNL d   1       0.037  -1.210  -0.969  0.00  0.00    -0.034 A 
ATOM      5  C4  UNL d   1      -0.261  -0.490   0.189  0.00  0.00     0.162 A 
ATOM      6  C5  UNL d   1      -0.571   0.864   0.113  0.00  0.00     0.062 A 
ATOM      7  F   UNL d   1      -0.857   1.548   1.230  0.00  0.00    -0.097 F 
ATOM      8  F1  UNL d   1      -0.255  -1.089   1.389  0.00  0.00    -0.096 F 
ATOM      9  I   UNL d   1       0.501  -3.236  -0.859  0.00  0.00    -0.060 I 
ATOM     10  F2  UNL d   1       0.303  -1.216  -3.334  0.00  0.00    -0.096 F 
ATOM     11  F3  UNL d   1      -0.303   1.421  -3.460  0.00  0.00    -0.097 F 
ATOM     12  F4  UNL d   1      -0.884   2.813  -1.187  0.00  0.00    -0.092 F 
ENDROOT
TORSDOF 0
ENDMDL
