MODEL 1
REMARK minimizedAffinity 5.78674078
REMARK minimizedRMSD -1
REMARK  1 active torsions:
REMARK  status: ('A' for Active; 'I' for Inactive)
REMARK    1  A    between atoms: N_2  and  C1_3 
ROOT
ATOM      1  C1  UNL d   1       1.708  -2.439   0.458  0.00  0.00     0.143 A 
ATOM      2  C2  UNL d   1       2.536  -2.025   1.506  0.00  0.00    -0.057 A 
ATOM      3  C3  UNL d   1       2.024  -1.316   2.600  0.00  0.00     0.033 A 
ATOM      4  C4  UNL d   1       0.675  -0.981   2.649  0.00  0.00    -0.042 A 
ATOM      5  C5  UNL d   1      -0.162  -1.361   1.606  0.00  0.00     0.033 A 
ATOM      6  C6  UNL d   1       0.354  -2.075   0.520  0.00  0.00    -0.057 A 
ENDROOT
BRANCH   1   7
ATOM      7  N   UNL d   1       2.175  -3.061  -0.703  0.00  0.00    -0.732 N 
ATOM      8  C   UNL d   1       1.989  -2.440  -1.997  0.00  0.00     0.284 C 
ATOM      9  H3  UNL d   1       3.089  -3.488  -0.574  0.00  0.00     0.395 HD
ENDBRANCH   1   7
TORSDOF 1
ENDMDL
