MODEL 1
REMARK minimizedAffinity 8.69905567
REMARK minimizedRMSD -1
REMARK  1 active torsions:
REMARK  status: ('A' for Active; 'I' for Inactive)
REMARK    1  A    between atoms: N_2  and  C1_3 
ROOT
ATOM      1  C1  UNL d   1      -3.298   1.134   3.531  0.00  0.00     0.143 A 
ATOM      2  C2  UNL d   1      -3.971   1.002   2.312  0.00  0.00    -0.057 A 
ATOM      3  C3  UNL d   1      -5.305   1.406   2.172  0.00  0.00     0.033 A 
ATOM      4  C4  UNL d   1      -5.999   1.924   3.260  0.00  0.00    -0.042 A 
ATOM      5  C5  UNL d   1      -5.357   2.041   4.488  0.00  0.00     0.033 A 
ATOM      6  C6  UNL d   1      -4.024   1.642   4.620  0.00  0.00    -0.057 A 
ENDROOT
BRANCH   1   7
ATOM      7  N   UNL d   1      -2.004   0.660   3.760  0.00  0.00    -0.732 N 
ATOM      8  C   UNL d   1      -1.560  -0.585   3.171  0.00  0.00     0.284 C 
ATOM      9  H3  UNL d   1      -1.308   1.402   3.736  0.00  0.00     0.395 HD
ENDBRANCH   1   7
TORSDOF 1
ENDMDL
