MODEL 1
REMARK minimizedAffinity 9.31681728
REMARK minimizedRMSD -1
REMARK  1 active torsions:
REMARK  status: ('A' for Active; 'I' for Inactive)
REMARK    1  A    between atoms: N_2  and  C1_3 
ROOT
ATOM      1  C1  UNL d   1      -2.762   2.762  -3.737  0.00  0.00     0.143 A 
ATOM      2  C2  UNL d   1      -1.623   2.772  -4.549  0.00  0.00    -0.057 A 
ATOM      3  C3  UNL d   1      -0.447   2.119  -4.158  0.00  0.00     0.033 A 
ATOM      4  C4  UNL d   1      -0.381   1.468  -2.930  0.00  0.00    -0.042 A 
ATOM      5  C5  UNL d   1      -1.493   1.467  -2.096  0.00  0.00     0.033 A 
ATOM      6  C6  UNL d   1      -2.667   2.114  -2.495  0.00  0.00    -0.057 A 
ENDROOT
BRANCH   1   7
ATOM      7  N   UNL d   1      -3.928   3.475  -4.025  0.00  0.00    -0.732 N 
ATOM      8  C   UNL d   1      -5.032   2.837  -4.711  0.00  0.00     0.284 C 
ATOM      9  H3  UNL d   1      -4.210   4.084  -3.260  0.00  0.00     0.395 HD
ENDBRANCH   1   7
TORSDOF 1
ENDMDL
