MODEL 1
REMARK minimizedAffinity 1.66562176
REMARK minimizedRMSD -1
REMARK  1 active torsions:
REMARK  status: ('A' for Active; 'I' for Inactive)
REMARK    1  A    between atoms: N_2  and  C1_3 
ROOT
ATOM      1  C1  UNL d   1      -1.020   1.805   0.336  0.00  0.00     0.143 A 
ATOM      2  C2  UNL d   1       0.259   1.844   0.900  0.00  0.00    -0.057 A 
ATOM      3  C3  UNL d   1       1.211   0.858   0.613  0.00  0.00     0.033 A 
ATOM      4  C4  UNL d   1       0.888  -0.205  -0.225  0.00  0.00    -0.042 A 
ATOM      5  C5  UNL d   1      -0.386  -0.278  -0.777  0.00  0.00     0.033 A 
ATOM      6  C6  UNL d   1      -1.329   0.714  -0.492  0.00  0.00    -0.057 A 
ENDROOT
BRANCH   1   7
ATOM      7  N   UNL d   1      -2.041   2.701   0.660  0.00  0.00    -0.732 N 
ATOM      8  C   UNL d   1      -3.104   2.314   1.563  0.00  0.00     0.284 C 
ATOM      9  H3  UNL d   1      -1.696   3.647   0.806  0.00  0.00     0.395 HD
ENDBRANCH   1   7
TORSDOF 1
ENDMDL
