MODEL 1
REMARK minimizedAffinity 3.06408405
REMARK minimizedRMSD -1
REMARK  1 active torsions:
REMARK  status: ('A' for Active; 'I' for Inactive)
REMARK    1  A    between atoms: N_2  and  C1_3 
ROOT
ATOM      1  C1  UNL d   1      -4.398   2.097  -3.062  0.00  0.00     0.143 A 
ATOM      2  C2  UNL d   1      -5.415   2.850  -2.466  0.00  0.00    -0.057 A 
ATOM      3  C3  UNL d   1      -5.907   4.013  -3.071  0.00  0.00     0.033 A 
ATOM      4  C4  UNL d   1      -5.368   4.461  -4.272  0.00  0.00    -0.042 A 
ATOM      5  C5  UNL d   1      -4.338   3.743  -4.870  0.00  0.00     0.033 A 
ATOM      6  C6  UNL d   1      -3.856   2.578  -4.265  0.00  0.00    -0.057 A 
ENDROOT
BRANCH   1   7
ATOM      7  N   UNL d   1      -3.799   0.987  -2.463  0.00  0.00    -0.732 N 
ATOM      8  C   UNL d   1      -3.907   0.771  -1.036  0.00  0.00     0.284 C 
ATOM      9  H3  UNL d   1      -3.902   0.141  -3.020  0.00  0.00     0.395 HD
ENDBRANCH   1   7
TORSDOF 1
ENDMDL
