MODEL 1
REMARK minimizedAffinity 5.34583759
REMARK minimizedRMSD -1
REMARK  1 active torsions:
REMARK  status: ('A' for Active; 'I' for Inactive)
REMARK    1  A    between atoms: N_2  and  C1_3 
ROOT
ATOM      1  C1  UNL d   1       2.422   0.693   0.310  0.00  0.00     0.143 A 
ATOM      2  C2  UNL d   1       3.013   0.232   1.491  0.00  0.00    -0.057 A 
ATOM      3  C3  UNL d   1       3.456  -1.090   1.613  0.00  0.00     0.033 A 
ATOM      4  C4  UNL d   1       3.289  -1.986   0.563  0.00  0.00    -0.042 A 
ATOM      5  C5  UNL d   1       2.681  -1.557  -0.612  0.00  0.00     0.033 A 
ATOM      6  C6  UNL d   1       2.247  -0.233  -0.730  0.00  0.00    -0.057 A 
ENDROOT
BRANCH   1   7
ATOM      7  N   UNL d   1       1.873   1.969   0.161  0.00  0.00    -0.732 N 
ATOM      8  C   UNL d   1       0.515   2.136  -0.311  0.00  0.00     0.284 C 
ATOM      9  H3  UNL d   1       2.128   2.593   0.923  0.00  0.00     0.395 HD
ENDBRANCH   1   7
TORSDOF 1
ENDMDL
