MODEL 1
REMARK minimizedAffinity 1.05940926
REMARK minimizedRMSD -1
REMARK  1 active torsions:
REMARK  status: ('A' for Active; 'I' for Inactive)
REMARK    1  A    between atoms: N_2  and  C1_3 
ROOT
ATOM      1  C1  UNL d   1      -3.360   1.682   1.593  0.00  0.00     0.143 A 
ATOM      2  C2  UNL d   1      -4.699   1.291   1.493  0.00  0.00    -0.057 A 
ATOM      3  C3  UNL d   1      -5.134   0.447   0.464  0.00  0.00     0.033 A 
ATOM      4  C4  UNL d   1      -4.240   0.002  -0.504  0.00  0.00    -0.042 A 
ATOM      5  C5  UNL d   1      -2.909   0.398  -0.438  0.00  0.00     0.033 A 
ATOM      6  C6  UNL d   1      -2.479   1.235   0.596  0.00  0.00    -0.057 A 
ENDROOT
BRANCH   1   7
ATOM      7  N   UNL d   1      -2.886   2.597   2.536  0.00  0.00    -0.732 N 
ATOM      8  C   UNL d   1      -3.412   3.944   2.586  0.00  0.00     0.284 C 
ATOM      9  H3  UNL d   1      -2.740   2.174   3.450  0.00  0.00     0.395 HD
ENDBRANCH   1   7
TORSDOF 1
ENDMDL
