MODEL 1
REMARK minimizedAffinity 3.57737207
REMARK minimizedRMSD -1
REMARK  1 active torsions:
REMARK  status: ('A' for Active; 'I' for Inactive)
REMARK    1  A    between atoms: N_2  and  C1_3 
ROOT
ATOM      1  C1  UNL d   1       1.897   0.803  -0.102  0.00  0.00     0.143 A 
ATOM      2  C2  UNL d   1       2.852   1.007   0.900  0.00  0.00    -0.057 A 
ATOM      3  C3  UNL d   1       3.730  -0.013   1.285  0.00  0.00     0.033 A 
ATOM      4  C4  UNL d   1       3.650  -1.268   0.692  0.00  0.00    -0.042 A 
ATOM      5  C5  UNL d   1       2.693  -1.501  -0.289  0.00  0.00     0.033 A 
ATOM      6  C6  UNL d   1       1.823  -0.477  -0.674  0.00  0.00    -0.057 A 
ENDROOT
BRANCH   1   7
ATOM      7  N   UNL d   1       0.931   1.747  -0.460  0.00  0.00    -0.732 N 
ATOM      8  C   UNL d   1      -0.152   1.391  -1.352  0.00  0.00     0.284 C 
ATOM      9  H3  UNL d   1       0.649   2.330   0.325  0.00  0.00     0.395 HD
ENDBRANCH   1   7
TORSDOF 1
ENDMDL
