MODEL 1
REMARK minimizedAffinity 6.21559048
REMARK minimizedRMSD -1
REMARK  1 active torsions:
REMARK  status: ('A' for Active; 'I' for Inactive)
REMARK    1  A    between atoms: N_2  and  C1_3 
ROOT
ATOM      1  C1  UNL d   1      -4.713   0.439  -4.576  0.00  0.00     0.143 A 
ATOM      2  C2  UNL d   1      -4.512   1.409  -5.564  0.00  0.00    -0.057 A 
ATOM      3  C3  UNL d   1      -4.459   2.771  -5.244  0.00  0.00     0.033 A 
ATOM      4  C4  UNL d   1      -4.636   3.190  -3.929  0.00  0.00    -0.042 A 
ATOM      5  C5  UNL d   1      -4.862   2.246  -2.935  0.00  0.00     0.033 A 
ATOM      6  C6  UNL d   1      -4.907   0.886  -3.259  0.00  0.00    -0.057 A 
ENDROOT
BRANCH   1   7
ATOM      7  N   UNL d   1      -4.874  -0.923  -4.844  0.00  0.00    -0.732 N 
ATOM      8  C   UNL d   1      -6.000  -1.393  -5.622  0.00  0.00     0.284 C 
ATOM      9  H3  UNL d   1      -3.994  -1.381  -5.067  0.00  0.00     0.395 HD
ENDBRANCH   1   7
TORSDOF 1
ENDMDL
