MODEL 1
REMARK minimizedAffinity 8.09374046
REMARK minimizedRMSD -1
REMARK  0 active torsions:
REMARK  status: ('A' for Active; 'I' for Inactive)
ROOT
ATOM      1  C4' PXY d   1       0.938  -4.864   0.060  0.00  0.00     0.077 C 
ATOM      2  C1' PXY d   1       1.558   0.477   2.182  0.00  0.00     0.077 C 
ATOM      3  C1  PXY d   1       1.394  -0.928   1.637  0.00  0.00    -0.082 A 
ATOM      4  C2  PXY d   1       1.943  -1.248   0.477  0.00  0.00     0.003 A 
ATOM      5  C3  PXY d   1       1.777  -2.505  -0.045  0.00  0.00     0.003 A 
ATOM      6  C4  PXY d   1       1.087  -3.460   0.653  0.00  0.00    -0.082 A 
ATOM      7  C5  PXY d   1       0.533  -3.144   1.842  0.00  0.00     0.003 A 
ATOM      8  C6  PXY d   1       0.678  -1.851   2.336  0.00  0.00     0.003 A 
ENDROOT
TORSDOF 0
ENDMDL
