MODEL 1
REMARK minimizedAffinity 7.37409401
REMARK minimizedRMSD -1
REMARK  0 active torsions:
REMARK  status: ('A' for Active; 'I' for Inactive)
ROOT
ATOM      1  C4' PXY d   1       1.940  -0.165   2.221  0.00  0.00     0.077 C 
ATOM      2  C1' PXY d   1       0.468  -5.531   0.656  0.00  0.00     0.077 C 
ATOM      3  C1  PXY d   1       0.843  -4.123   1.073  0.00  0.00    -0.082 A 
ATOM      4  C2  PXY d   1       1.698  -3.429   0.339  0.00  0.00     0.003 A 
ATOM      5  C3  PXY d   1       2.073  -2.166   0.719  0.00  0.00     0.003 A 
ATOM      6  C4  PXY d   1       1.525  -1.587   1.833  0.00  0.00    -0.082 A 
ATOM      7  C5  PXY d   1       0.644  -2.284   2.580  0.00  0.00     0.003 A 
ATOM      8  C6  PXY d   1       0.308  -3.580   2.200  0.00  0.00     0.003 A 
ENDROOT
TORSDOF 0
ENDMDL
