MODEL 1
REMARK minimizedAffinity -1.43045056
REMARK minimizedRMSD -1
REMARK  0 active torsions:
REMARK  status: ('A' for Active; 'I' for Inactive)
ROOT
ATOM      1  C4' PXY d   1      -4.903  -3.202  -0.955  0.00  0.00     0.077 C 
ATOM      2  C1' PXY d   1      -5.270  -5.999  -6.000  0.00  0.00     0.077 C 
ATOM      3  C1  PXY d   1      -5.171  -5.255  -4.683  0.00  0.00    -0.082 A 
ATOM      4  C2  PXY d   1      -4.898  -5.922  -3.574  0.00  0.00     0.003 A 
ATOM      5  C3  PXY d   1      -4.836  -5.269  -2.369  0.00  0.00     0.003 A 
ATOM      6  C4  PXY d   1      -5.004  -3.911  -2.308  0.00  0.00    -0.082 A 
ATOM      7  C5  PXY d   1      -5.272  -3.222  -3.437  0.00  0.00     0.003 A 
ATOM      8  C6  PXY d   1      -5.372  -3.910  -4.643  0.00  0.00     0.003 A 
ENDROOT
TORSDOF 0
ENDMDL
