MODEL 1
REMARK minimizedAffinity 6.96801043
REMARK minimizedRMSD -1
REMARK  0 active torsions:
REMARK  status: ('A' for Active; 'I' for Inactive)
ROOT
ATOM      1  C4' PXY d   1       0.963   0.781   2.409  0.00  0.00     0.077 C 
ATOM      2  C1' PXY d   1       1.931  -4.909   2.738  0.00  0.00     0.077 C 
ATOM      3  C1  PXY d   1       1.666  -3.418   2.658  0.00  0.00    -0.082 A 
ATOM      4  C2  PXY d   1       2.245  -2.701   1.709  0.00  0.00     0.003 A 
ATOM      5  C3  PXY d   1       2.041  -1.347   1.641  0.00  0.00     0.003 A 
ATOM      6  C4  PXY d   1       1.194  -0.729   2.522  0.00  0.00    -0.082 A 
ATOM      7  C5  PXY d   1       0.591  -1.455   3.487  0.00  0.00     0.003 A 
ATOM      8  C6  PXY d   1       0.843  -2.822   3.563  0.00  0.00     0.003 A 
ENDROOT
TORSDOF 0
ENDMDL
