MODEL 1
REMARK minimizedAffinity 4.42785406
REMARK minimizedRMSD -1
REMARK  0 active torsions:
REMARK  status: ('A' for Active; 'I' for Inactive)
ROOT
ATOM      1  C4' PXY d   1       1.541  -2.300   2.301  0.00  0.00     0.077 C 
ATOM      2  C1' PXY d   1       5.991  -2.430   5.988  0.00  0.00     0.077 C 
ATOM      3  C1  PXY d   1       4.816  -2.401   5.030  0.00  0.00    -0.082 A 
ATOM      4  C2  PXY d   1       5.035  -2.423   3.726  0.00  0.00     0.003 A 
ATOM      5  C3  PXY d   1       3.986  -2.365   2.845  0.00  0.00     0.003 A 
ATOM      6  C4  PXY d   1       2.696  -2.338   3.305  0.00  0.00    -0.082 A 
ATOM      7  C5  PXY d   1       2.464  -2.326   4.634  0.00  0.00     0.003 A 
ATOM      8  C6  PXY d   1       3.545  -2.343   5.512  0.00  0.00     0.003 A 
ENDROOT
TORSDOF 0
ENDMDL
