MODEL 1
REMARK minimizedAffinity -2.6681633
REMARK minimizedRMSD -1
REMARK  0 active torsions:
REMARK  status: ('A' for Active; 'I' for Inactive)
ROOT
ATOM      1  C4' PXY d   1       1.593  -5.955   5.612  0.00  0.00     0.077 C 
ATOM      2  C1' PXY d   1       1.515  -1.543   1.877  0.00  0.00     0.077 C 
ATOM      3  C1  PXY d   1       1.535  -2.708   2.847  0.00  0.00    -0.082 A 
ATOM      4  C2  PXY d   1       1.141  -2.526   4.097  0.00  0.00     0.003 A 
ATOM      5  C3  PXY d   1       1.183  -3.561   4.995  0.00  0.00     0.003 A 
ATOM      6  C4  PXY d   1       1.581  -4.809   4.596  0.00  0.00    -0.082 A 
ATOM      7  C5  PXY d   1       1.974  -5.006   3.320  0.00  0.00     0.003 A 
ATOM      8  C6  PXY d   1       1.964  -3.932   2.434  0.00  0.00     0.003 A 
ENDROOT
TORSDOF 0
ENDMDL
