MODEL 1
REMARK minimizedAffinity 1.17101586
REMARK minimizedRMSD -1
REMARK  0 active torsions:
REMARK  status: ('A' for Active; 'I' for Inactive)
ROOT
ATOM      1  C4' PXY d   1       2.027  -5.987   5.602  0.00  0.00     0.077 C 
ATOM      2  C1' PXY d   1       1.965  -1.527   1.924  0.00  0.00     0.077 C 
ATOM      3  C1  PXY d   1       1.989  -2.704   2.880  0.00  0.00    -0.082 A 
ATOM      4  C2  PXY d   1       1.028  -2.834   3.781  0.00  0.00     0.003 A 
ATOM      5  C3  PXY d   1       1.051  -3.874   4.674  0.00  0.00     0.003 A 
ATOM      6  C4  PXY d   1       2.038  -4.820   4.610  0.00  0.00    -0.082 A 
ATOM      7  C5  PXY d   1       3.016  -4.700   3.687  0.00  0.00     0.003 A 
ATOM      8  C6  PXY d   1       2.997  -3.614   2.817  0.00  0.00     0.003 A 
ENDROOT
TORSDOF 0
ENDMDL
