MODEL 1
REMARK minimizedAffinity 2.64082217
REMARK minimizedRMSD -1
REMARK  0 active torsions:
REMARK  status: ('A' for Active; 'I' for Inactive)
ROOT
ATOM      1  C4' PXY d   1       5.998  -1.881   1.589  0.00  0.00     0.077 C 
ATOM      2  C1' PXY d   1       0.958  -1.602   4.406  0.00  0.00     0.077 C 
ATOM      3  C1  PXY d   1       2.286  -1.674   3.679  0.00  0.00    -0.082 A 
ATOM      4  C2  PXY d   1       2.362  -1.288   2.415  0.00  0.00     0.003 A 
ATOM      5  C3  PXY d   1       3.548  -1.377   1.733  0.00  0.00     0.003 A 
ATOM      6  C4  PXY d   1       4.680  -1.816   2.366  0.00  0.00    -0.082 A 
ATOM      7  C5  PXY d   1       4.613  -2.202   3.658  0.00  0.00     0.003 A 
ATOM      8  C6  PXY d   1       3.391  -2.142   4.321  0.00  0.00     0.003 A 
ENDROOT
TORSDOF 0
ENDMDL
