MODEL 1
REMARK minimizedAffinity 10.7208757
REMARK minimizedRMSD -1
REMARK  0 active torsions:
REMARK  status: ('A' for Active; 'I' for Inactive)
ROOT
ATOM      1  C4' PXY d   1       4.811  -3.164   4.300  0.00  0.00     0.077 C 
ATOM      2  C1' PXY d   1      -0.230  -5.644   5.661  0.00  0.00     0.077 C 
ATOM      3  C1  PXY d   1       1.088  -4.992   5.292  0.00  0.00    -0.082 A 
ATOM      4  C2  PXY d   1       2.173  -5.265   5.998  0.00  0.00     0.003 A 
ATOM      5  C3  PXY d   1       3.366  -4.659   5.697  0.00  0.00     0.003 A 
ATOM      6  C4  PXY d   1       3.461  -3.806   4.631  0.00  0.00    -0.082 A 
ATOM      7  C5  PXY d   1       2.360  -3.531   3.899  0.00  0.00     0.003 A 
ATOM      8  C6  PXY d   1       1.150  -4.124   4.245  0.00  0.00     0.003 A 
ENDROOT
TORSDOF 0
ENDMDL
