MODEL 1
REMARK minimizedAffinity -1.15124321
REMARK minimizedRMSD -1
REMARK  0 active torsions:
REMARK  status: ('A' for Active; 'I' for Inactive)
ROOT
ATOM      1  C4' PXY d   1      -5.633  -4.283  -5.999  0.00  0.00     0.077 C 
ATOM      2  C1' PXY d   1      -4.142  -5.992  -0.682  0.00  0.00     0.077 C 
ATOM      3  C1  PXY d   1      -4.545  -5.542  -2.072  0.00  0.00    -0.082 A 
ATOM      4  C2  PXY d   1      -3.857  -5.962  -3.121  0.00  0.00     0.003 A 
ATOM      5  C3  PXY d   1      -4.188  -5.539  -4.382  0.00  0.00     0.003 A 
ATOM      6  C4  PXY d   1      -5.268  -4.720  -4.577  0.00  0.00    -0.082 A 
ATOM      7  C5  PXY d   1      -5.982  -4.295  -3.513  0.00  0.00     0.003 A 
ATOM      8  C6  PXY d   1      -5.604  -4.703  -2.237  0.00  0.00     0.003 A 
ENDROOT
TORSDOF 0
ENDMDL
