MODEL 1
REMARK minimizedAffinity 5.8713007
REMARK minimizedRMSD -1
REMARK  0 active torsions:
REMARK  status: ('A' for Active; 'I' for Inactive)
ROOT
ATOM      1  C4' PXY d   1       6.000  -2.991   2.624  0.00  0.00     0.077 C 
ATOM      2  C1' PXY d   1       0.325  -2.415   3.562  0.00  0.00     0.077 C 
ATOM      3  C1  PXY d   1       1.815  -2.567   3.329  0.00  0.00    -0.082 A 
ATOM      4  C2  PXY d   1       2.356  -2.088   2.221  0.00  0.00     0.003 A 
ATOM      5  C3  PXY d   1       3.697  -2.245   1.979  0.00  0.00     0.003 A 
ATOM      6  C4  PXY d   1       4.501  -2.852   2.906  0.00  0.00    -0.082 A 
ATOM      7  C5  PXY d   1       3.959  -3.334   4.044  0.00  0.00     0.003 A 
ATOM      8  C6  PXY d   1       2.589  -3.201   4.251  0.00  0.00     0.003 A 
ENDROOT
TORSDOF 0
ENDMDL
