MODEL 1
REMARK minimizedAffinity 1.61628497
REMARK minimizedRMSD -1
REMARK  0 active torsions:
REMARK  status: ('A' for Active; 'I' for Inactive)
ROOT
ATOM      1  C   UNL d   1       0.332  -3.478   0.157  0.00  0.00    -0.002 A 
ATOM      2  C1  UNL d   1      -1.048  -3.333   0.148  0.00  0.00     0.010 A 
ATOM      3  C2  UNL d   1      -1.628  -2.064   0.120  0.00  0.00     0.041 A 
ATOM      4  C3  UNL d   1      -0.790  -0.931   0.099  0.00  0.00    -0.075 A 
ATOM      5  S   UNL d   1      -1.278   0.722   0.063  0.00  0.00     0.015 SA
ATOM      6  C4  UNL d   1       0.334   1.275   0.058  0.00  0.00     0.022 A 
ATOM      7  C5  UNL d   1       1.235   0.237   0.084  0.00  0.00     0.026 A 
ATOM      8  C6  UNL d   1       0.602  -1.052   0.107  0.00  0.00    -0.082 A 
ATOM      9  C7  UNL d   1       1.160  -2.352   0.137  0.00  0.00     0.045 A 
ENDROOT
TORSDOF 0
ENDMDL
