MODEL 1
REMARK minimizedAffinity -2.11316061
REMARK minimizedRMSD -1
REMARK  0 active torsions:
REMARK  status: ('A' for Active; 'I' for Inactive)
ROOT
ATOM      1  C   UNL d   1       1.056   3.111  -0.091  0.00  0.00    -0.002 A 
ATOM      2  C1  UNL d   1       1.991   2.918   0.915  0.00  0.00     0.010 A 
ATOM      3  C2  UNL d   1       2.080   1.692   1.577  0.00  0.00     0.041 A 
ATOM      4  C3  UNL d   1       1.205   0.653   1.206  0.00  0.00    -0.075 A 
ATOM      5  S   UNL d   1       1.131  -0.934   1.877  0.00  0.00     0.015 SA
ATOM      6  C4  UNL d   1      -0.143  -1.393   0.843  0.00  0.00     0.022 A 
ATOM      7  C5  UNL d   1      -0.517  -0.373   0.000  0.00  0.00     0.026 A 
ATOM      8  C6  UNL d   1       0.254   0.822   0.195  0.00  0.00    -0.082 A 
ATOM      9  C7  UNL d   1       0.189   2.077  -0.457  0.00  0.00     0.045 A 
ENDROOT
TORSDOF 0
ENDMDL
