MODEL 1
REMARK minimizedAffinity -0.686356425
REMARK minimizedRMSD -1
REMARK  0 active torsions:
REMARK  status: ('A' for Active; 'I' for Inactive)
ROOT
ATOM      1  C   UNL d   1      -0.415  -1.820   1.335  0.00  0.00    -0.002 A 
ATOM      2  C1  UNL d   1      -0.611  -2.201   0.015  0.00  0.00     0.010 A 
ATOM      3  C2  UNL d   1      -0.393  -1.296  -1.026  0.00  0.00     0.041 A 
ATOM      4  C3  UNL d   1       0.032   0.011  -0.714  0.00  0.00    -0.075 A 
ATOM      5  S   UNL d   1       0.362   1.289  -1.823  0.00  0.00     0.015 SA
ATOM      6  C4  UNL d   1       0.773   2.370  -0.571  0.00  0.00     0.022 A 
ATOM      7  C5  UNL d   1       0.665   1.787   0.669  0.00  0.00     0.026 A 
ATOM      8  C6  UNL d   1       0.237   0.418   0.607  0.00  0.00    -0.082 A 
ATOM      9  C7  UNL d   1       0.007  -0.523   1.640  0.00  0.00     0.045 A 
ENDROOT
TORSDOF 0
ENDMDL
