MODEL 1
REMARK minimizedAffinity -5.81251097
REMARK minimizedRMSD -1
REMARK  0 active torsions:
REMARK  status: ('A' for Active; 'I' for Inactive)
ROOT
ATOM      1  C   UNL d   1      -0.196  -3.584  -1.886  0.00  0.00    -0.002 A 
ATOM      2  C1  UNL d   1       0.127  -2.547  -2.751  0.00  0.00     0.010 A 
ATOM      3  C2  UNL d   1       0.093  -1.221  -2.314  0.00  0.00     0.041 A 
ATOM      4  C3  UNL d   1      -0.273  -0.952  -0.980  0.00  0.00    -0.075 A 
ATOM      5  S   UNL d   1      -0.383   0.593  -0.224  0.00  0.00     0.015 SA
ATOM      6  C4  UNL d   1      -0.861  -0.086   1.264  0.00  0.00     0.022 A 
ATOM      7  C5  UNL d   1      -0.940  -1.457   1.203  0.00  0.00     0.026 A 
ATOM      8  C6  UNL d   1      -0.602  -1.979  -0.091  0.00  0.00    -0.082 A 
ATOM      9  C7  UNL d   1      -0.559  -3.313  -0.564  0.00  0.00     0.045 A 
ENDROOT
TORSDOF 0
ENDMDL
