MODEL 1
REMARK minimizedAffinity -3.5504396
REMARK minimizedRMSD -1
REMARK  0 active torsions:
REMARK  status: ('A' for Active; 'I' for Inactive)
ROOT
ATOM      1  C   UNL d   1       0.199  -3.764  -1.421  0.00  0.00    -0.002 A 
ATOM      2  C1  UNL d   1       0.317  -2.717  -2.324  0.00  0.00     0.010 A 
ATOM      3  C2  UNL d   1       0.042  -1.405  -1.931  0.00  0.00     0.041 A 
ATOM      4  C3  UNL d   1      -0.355  -1.162  -0.602  0.00  0.00    -0.075 A 
ATOM      5  S   UNL d   1      -0.742   0.363   0.105  0.00  0.00     0.015 SA
ATOM      6  C4  UNL d   1      -1.071  -0.340   1.622  0.00  0.00     0.022 A 
ATOM      7  C5  UNL d   1      -0.896  -1.703   1.608  0.00  0.00     0.026 A 
ATOM      8  C6  UNL d   1      -0.479  -2.199   0.326  0.00  0.00    -0.082 A 
ATOM      9  C7  UNL d   1      -0.195  -3.518  -0.103  0.00  0.00     0.045 A 
ENDROOT
TORSDOF 0
ENDMDL
