MODEL 1
REMARK minimizedAffinity -3.21393681
REMARK minimizedRMSD -1
REMARK  0 active torsions:
REMARK  status: ('A' for Active; 'I' for Inactive)
ROOT
ATOM      1  C   UNL d   1      -1.175  -0.905   0.609  0.00  0.00    -0.002 A 
ATOM      2  C1  UNL d   1      -0.716  -0.937   1.918  0.00  0.00     0.010 A 
ATOM      3  C2  UNL d   1       0.157   0.047   2.389  0.00  0.00     0.041 A 
ATOM      4  C3  UNL d   1       0.563   1.073   1.513  0.00  0.00    -0.075 A 
ATOM      5  S   UNL d   1       1.624   2.384   1.869  0.00  0.00     0.015 SA
ATOM      6  C4  UNL d   1       1.493   3.017   0.292  0.00  0.00     0.022 A 
ATOM      7  C5  UNL d   1       0.663   2.259  -0.500  0.00  0.00     0.026 A 
ATOM      8  C6  UNL d   1       0.113   1.127   0.191  0.00  0.00    -0.082 A 
ATOM      9  C7  UNL d   1      -0.770   0.114  -0.256  0.00  0.00     0.045 A 
ENDROOT
TORSDOF 0
ENDMDL
