MODEL 1
REMARK minimizedAffinity -2.72420955
REMARK minimizedRMSD -1
REMARK  0 active torsions:
REMARK  status: ('A' for Active; 'I' for Inactive)
ROOT
ATOM      1  C   UNL d   1      -0.026  -3.564  -0.348  0.00  0.00    -0.002 A 
ATOM      2  C1  UNL d   1       0.119  -3.396  -1.718  0.00  0.00     0.010 A 
ATOM      3  C2  UNL d   1       0.162  -2.117  -2.276  0.00  0.00     0.041 A 
ATOM      4  C3  UNL d   1       0.056  -0.999  -1.426  0.00  0.00    -0.075 A 
ATOM      5  S   UNL d   1       0.084   0.662  -1.887  0.00  0.00     0.015 SA
ATOM      6  C4  UNL d   1      -0.096   1.189  -0.276  0.00  0.00     0.022 A 
ATOM      7  C5  UNL d   1      -0.177   0.136   0.605  0.00  0.00     0.026 A 
ATOM      8  C6  UNL d   1      -0.090  -1.142  -0.044  0.00  0.00    -0.082 A 
ATOM      9  C7  UNL d   1      -0.130  -2.452   0.492  0.00  0.00     0.045 A 
ENDROOT
TORSDOF 0
ENDMDL
