MODEL 1
REMARK minimizedAffinity -3.97542858
REMARK minimizedRMSD -1
REMARK  0 active torsions:
REMARK  status: ('A' for Active; 'I' for Inactive)
ROOT
ATOM      1  C   UNL d   1      -0.244  -3.543   0.098  0.00  0.00    -0.002 A 
ATOM      2  C1  UNL d   1       0.435  -3.013  -0.990  0.00  0.00     0.010 A 
ATOM      3  C2  UNL d   1       0.588  -1.632  -1.127  0.00  0.00     0.041 A 
ATOM      4  C3  UNL d   1       0.044  -0.784  -0.142  0.00  0.00    -0.075 A 
ATOM      5  S   UNL d   1       0.109   0.938  -0.101  0.00  0.00     0.015 SA
ATOM      6  C4  UNL d   1      -0.762   1.011   1.362  0.00  0.00     0.022 A 
ATOM      7  C5  UNL d   1      -1.103  -0.239   1.822  0.00  0.00     0.026 A 
ATOM      8  C6  UNL d   1      -0.644  -1.295   0.963  0.00  0.00    -0.082 A 
ATOM      9  C7  UNL d   1      -0.783  -2.699   1.073  0.00  0.00     0.045 A 
ENDROOT
TORSDOF 0
ENDMDL
