MODEL 1
REMARK minimizedAffinity -0.571702719
REMARK minimizedRMSD -1
REMARK  0 active torsions:
REMARK  status: ('A' for Active; 'I' for Inactive)
ROOT
ATOM      1  C   UNL d   1      -0.240  -3.016  -1.479  0.00  0.00    -0.002 A 
ATOM      2  C1  UNL d   1      -0.467  -3.536  -0.212  0.00  0.00     0.010 A 
ATOM      3  C2  UNL d   1      -0.277  -2.747   0.924  0.00  0.00     0.041 A 
ATOM      4  C3  UNL d   1       0.147  -1.413   0.765  0.00  0.00    -0.075 A 
ATOM      5  S   UNL d   1       0.444  -0.261   2.012  0.00  0.00     0.015 SA
ATOM      6  C4  UNL d   1       0.879   0.949   0.894  0.00  0.00     0.022 A 
ATOM      7  C5  UNL d   1       0.805   0.502  -0.404  0.00  0.00     0.026 A 
ATOM      8  C6  UNL d   1       0.382  -0.867  -0.500  0.00  0.00    -0.082 A 
ATOM      9  C7  UNL d   1       0.181  -1.692  -1.633  0.00  0.00     0.045 A 
ENDROOT
TORSDOF 0
ENDMDL
