MODEL 1
REMARK minimizedAffinity -4.83123589
REMARK minimizedRMSD -1
REMARK  0 active torsions:
REMARK  status: ('A' for Active; 'I' for Inactive)
ROOT
ATOM      1  C   UNL d   1      -0.304  -2.796  -2.604  0.00  0.00    -0.002 A 
ATOM      2  C1  UNL d   1      -0.891  -3.367  -1.483  0.00  0.00     0.010 A 
ATOM      3  C2  UNL d   1      -1.207  -2.585  -0.371  0.00  0.00     0.041 A 
ATOM      4  C3  UNL d   1      -0.922  -1.206  -0.404  0.00  0.00    -0.075 A 
ATOM      5  S   UNL d   1      -1.222  -0.052   0.842  0.00  0.00     0.015 SA
ATOM      6  C4  UNL d   1      -0.579   1.226  -0.084  0.00  0.00     0.022 A 
ATOM      7  C5  UNL d   1      -0.141   0.801  -1.316  0.00  0.00     0.026 A 
ATOM      8  C6  UNL d   1      -0.332  -0.608  -1.521  0.00  0.00    -0.082 A 
ATOM      9  C7  UNL d   1      -0.023  -1.428  -2.633  0.00  0.00     0.045 A 
ENDROOT
TORSDOF 0
ENDMDL
