MODEL 1
REMARK minimizedAffinity -4.03090668
REMARK minimizedRMSD -1
REMARK  0 active torsions:
REMARK  status: ('A' for Active; 'I' for Inactive)
ROOT
ATOM      1  C   UNL d   1       0.524  -1.908   2.546  0.00  0.00     0.077 C 
ATOM      2  C1  UNL d   1       0.039  -0.974   1.478  0.00  0.00    -0.074 A 
ATOM      3  C2  UNL d   1       0.522  -1.067   0.168  0.00  0.00    -0.005 A 
ATOM      4  C3  UNL d   1       0.054  -0.197  -0.817  0.00  0.00     0.006 A 
ATOM      5  C4  UNL d   1      -0.900   0.772  -0.504  0.00  0.00    -0.005 A 
ATOM      6  C5  UNL d   1      -1.395   0.879   0.800  0.00  0.00    -0.074 A 
ATOM      7  C6  UNL d   1      -2.427   1.908   1.151  0.00  0.00     0.077 C 
ATOM      8  C7  UNL d   1      -0.925  -0.003   1.783  0.00  0.00    -0.001 A 
ENDROOT
TORSDOF 0
ENDMDL
