MODEL 1
REMARK minimizedAffinity -4.86127663
REMARK minimizedRMSD -1
REMARK  0 active torsions:
REMARK  status: ('A' for Active; 'I' for Inactive)
ROOT
ATOM      1  C   UNL d   1      -2.397   2.387   0.851  0.00  0.00     0.077 C 
ATOM      2  C1  UNL d   1      -1.424   1.252   0.976  0.00  0.00    -0.074 A 
ATOM      3  C2  UNL d   1      -1.045   0.764   2.230  0.00  0.00    -0.005 A 
ATOM      4  C3  UNL d   1      -0.146  -0.297   2.330  0.00  0.00     0.006 A 
ATOM      5  C4  UNL d   1       0.383  -0.881   1.178  0.00  0.00    -0.005 A 
ATOM      6  C5  UNL d   1       0.016  -0.406  -0.085  0.00  0.00    -0.074 A 
ATOM      7  C6  UNL d   1       0.568  -1.028  -1.333  0.00  0.00     0.077 C 
ATOM      8  C7  UNL d   1      -0.894   0.656  -0.177  0.00  0.00    -0.001 A 
ENDROOT
TORSDOF 0
ENDMDL
