MODEL 1
REMARK minimizedAffinity -1.35880387
REMARK minimizedRMSD -1
REMARK  0 active torsions:
REMARK  status: ('A' for Active; 'I' for Inactive)
ROOT
ATOM      1  C   UNL d   1       1.065  -4.979  -0.627  0.00  0.00     0.077 C 
ATOM      2  C1  UNL d   1       1.093  -3.506  -0.912  0.00  0.00    -0.074 A 
ATOM      3  C2  UNL d   1       1.372  -3.028  -2.196  0.00  0.00    -0.005 A 
ATOM      4  C3  UNL d   1       1.385  -1.656  -2.448  0.00  0.00     0.006 A 
ATOM      5  C4  UNL d   1       1.119  -0.750  -1.420  0.00  0.00    -0.005 A 
ATOM      6  C5  UNL d   1       0.837  -1.211  -0.130  0.00  0.00    -0.074 A 
ATOM      7  C6  UNL d   1       0.540  -0.251   0.984  0.00  0.00     0.077 C 
ATOM      8  C7  UNL d   1       0.819  -2.591   0.114  0.00  0.00    -0.001 A 
ENDROOT
TORSDOF 0
ENDMDL
