MODEL 1
REMARK minimizedAffinity -2.45763397
REMARK minimizedRMSD -1
REMARK  0 active torsions:
REMARK  status: ('A' for Active; 'I' for Inactive)
ROOT
ATOM      1  C   UNL d   1       1.334   1.454  -1.941  0.00  0.00     0.077 C 
ATOM      2  C1  UNL d   1       0.592   0.857  -0.783  0.00  0.00    -0.074 A 
ATOM      3  C2  UNL d   1       0.811  -0.469  -0.396  0.00  0.00    -0.005 A 
ATOM      4  C3  UNL d   1       0.120  -1.008   0.690  0.00  0.00     0.006 A 
ATOM      5  C4  UNL d   1      -0.794  -0.227   1.399  0.00  0.00    -0.005 A 
ATOM      6  C5  UNL d   1      -1.025   1.101   1.027  0.00  0.00    -0.074 A 
ATOM      7  C6  UNL d   1      -1.996   1.956   1.784  0.00  0.00     0.077 C 
ATOM      8  C7  UNL d   1      -0.322   1.637  -0.061  0.00  0.00    -0.001 A 
ENDROOT
TORSDOF 0
ENDMDL
