MODEL 1
REMARK minimizedAffinity -4.96962166
REMARK minimizedRMSD -1
REMARK  0 active torsions:
REMARK  status: ('A' for Active; 'I' for Inactive)
ROOT
ATOM      1  C   UNL d   1      -2.240   2.949   0.928  0.00  0.00     0.077 C 
ATOM      2  C1  UNL d   1      -1.528   1.629   0.937  0.00  0.00    -0.074 A 
ATOM      3  C2  UNL d   1      -1.767   0.690   1.946  0.00  0.00    -0.005 A 
ATOM      4  C3  UNL d   1      -1.104  -0.537   1.936  0.00  0.00     0.006 A 
ATOM      5  C4  UNL d   1      -0.197  -0.838   0.919  0.00  0.00    -0.005 A 
ATOM      6  C5  UNL d   1       0.055   0.088  -0.098  0.00  0.00    -0.074 A 
ATOM      7  C6  UNL d   1       1.019  -0.223  -1.204  0.00  0.00     0.077 C 
ATOM      8  C7  UNL d   1      -0.621   1.316  -0.085  0.00  0.00    -0.001 A 
ENDROOT
TORSDOF 0
ENDMDL
