MODEL 1
REMARK minimizedAffinity -1.43359339
REMARK minimizedRMSD -1
REMARK  0 active torsions:
REMARK  status: ('A' for Active; 'I' for Inactive)
ROOT
ATOM      1  C   UNL d   1       0.241   2.702  -1.156  0.00  0.00     0.077 C 
ATOM      2  C1  UNL d   1      -0.052   1.431  -0.416  0.00  0.00    -0.074 A 
ATOM      3  C2  UNL d   1      -0.656   1.455   0.846  0.00  0.00    -0.005 A 
ATOM      4  C3  UNL d   1      -0.930   0.264   1.518  0.00  0.00     0.006 A 
ATOM      5  C4  UNL d   1      -0.604  -0.962   0.936  0.00  0.00    -0.005 A 
ATOM      6  C5  UNL d   1      -0.000  -1.006  -0.324  0.00  0.00    -0.074 A 
ATOM      7  C6  UNL d   1       0.348  -2.316  -0.967  0.00  0.00     0.077 C 
ATOM      8  C7  UNL d   1       0.266   0.195  -0.996  0.00  0.00    -0.001 A 
ENDROOT
TORSDOF 0
ENDMDL
