MODEL 1
REMARK minimizedAffinity -5.63313723
REMARK minimizedRMSD -1
REMARK  0 active torsions:
REMARK  status: ('A' for Active; 'I' for Inactive)
ROOT
ATOM      1  C   UNL d   1      -0.963  -0.688   3.108  0.00  0.00     0.077 C 
ATOM      2  C1  UNL d   1      -0.884  -0.010   1.773  0.00  0.00    -0.074 A 
ATOM      3  C2  UNL d   1      -1.934   0.788   1.308  0.00  0.00    -0.005 A 
ATOM      4  C3  UNL d   1      -1.842   1.420   0.068  0.00  0.00     0.006 A 
ATOM      5  C4  UNL d   1      -0.701   1.260  -0.719  0.00  0.00    -0.005 A 
ATOM      6  C5  UNL d   1       0.360   0.467  -0.270  0.00  0.00    -0.074 A 
ATOM      7  C6  UNL d   1       1.598   0.293  -1.099  0.00  0.00     0.077 C 
ATOM      8  C7  UNL d   1       0.263  -0.159   0.980  0.00  0.00    -0.001 A 
ENDROOT
TORSDOF 0
ENDMDL
