MODEL 1
REMARK minimizedAffinity 0.165302381
REMARK minimizedRMSD -1
REMARK  0 active torsions:
REMARK  status: ('A' for Active; 'I' for Inactive)
ROOT
ATOM      1  C   UNL d   1      -0.744   0.531  -0.333  0.00  0.00     0.077 C 
ATOM      2  C1  UNL d   1      -0.028  -0.662  -0.893  0.00  0.00    -0.074 A 
ATOM      3  C2  UNL d   1       1.272  -0.976  -0.486  0.00  0.00    -0.005 A 
ATOM      4  C3  UNL d   1       1.922  -2.095  -1.008  0.00  0.00     0.006 A 
ATOM      5  C4  UNL d   1       1.279  -2.908  -1.942  0.00  0.00    -0.005 A 
ATOM      6  C5  UNL d   1      -0.021  -2.609  -2.361  0.00  0.00    -0.074 A 
ATOM      7  C6  UNL d   1      -0.730  -3.479  -3.357  0.00  0.00     0.077 C 
ATOM      8  C7  UNL d   1      -0.670  -1.488  -1.826  0.00  0.00    -0.001 A 
ENDROOT
TORSDOF 0
ENDMDL
