MODEL 1
REMARK minimizedAffinity -5.28289747
REMARK minimizedRMSD -1
REMARK  0 active torsions:
REMARK  status: ('A' for Active; 'I' for Inactive)
ROOT
ATOM      1  C   UNL d   1      -2.127   2.151   1.742  0.00  0.00     0.077 C 
ATOM      2  C1  UNL d   1      -1.203   1.072   1.260  0.00  0.00    -0.074 A 
ATOM      3  C2  UNL d   1      -0.760   1.045  -0.067  0.00  0.00    -0.005 A 
ATOM      4  C3  UNL d   1       0.107   0.042  -0.498  0.00  0.00     0.006 A 
ATOM      5  C4  UNL d   1       0.539  -0.944   0.390  0.00  0.00    -0.005 A 
ATOM      6  C5  UNL d   1       0.108  -0.932   1.720  0.00  0.00    -0.074 A 
ATOM      7  C6  UNL d   1       0.570  -1.978   2.691  0.00  0.00     0.077 C 
ATOM      8  C7  UNL d   1      -0.758   0.084   2.149  0.00  0.00    -0.001 A 
ENDROOT
TORSDOF 0
ENDMDL
