MODEL 1
REMARK minimizedAffinity -5.12357759
REMARK minimizedRMSD -1
REMARK  0 active torsions:
REMARK  status: ('A' for Active; 'I' for Inactive)
ROOT
ATOM      1  C   UNL d   1      -1.899   3.083   0.709  0.00  0.00     0.077 C 
ATOM      2  C1  UNL d   1      -1.210   1.790   1.025  0.00  0.00    -0.074 A 
ATOM      3  C2  UNL d   1      -1.094   1.341   2.345  0.00  0.00    -0.005 A 
ATOM      4  C3  UNL d   1      -0.458   0.131   2.623  0.00  0.00     0.006 A 
ATOM      5  C4  UNL d   1       0.068  -0.641   1.586  0.00  0.00    -0.005 A 
ATOM      6  C5  UNL d   1      -0.039  -0.209   0.261  0.00  0.00    -0.074 A 
ATOM      7  C6  UNL d   1       0.512  -1.031  -0.866  0.00  0.00     0.077 C 
ATOM      8  C7  UNL d   1      -0.686   1.005  -0.011  0.00  0.00    -0.001 A 
ENDROOT
TORSDOF 0
ENDMDL
