MODEL 1
REMARK minimizedAffinity -5.30450296
REMARK minimizedRMSD -1
REMARK  0 active torsions:
REMARK  status: ('A' for Active; 'I' for Inactive)
ROOT
ATOM      1  C   UNL d   1      -2.473   2.739   1.475  0.00  0.00     0.077 C 
ATOM      2  C1  UNL d   1      -1.421   2.304   0.499  0.00  0.00    -0.074 A 
ATOM      3  C2  UNL d   1      -0.932   3.185  -0.472  0.00  0.00    -0.005 A 
ATOM      4  C3  UNL d   1       0.053   2.768  -1.367  0.00  0.00     0.006 A 
ATOM      5  C4  UNL d   1       0.558   1.469  -1.302  0.00  0.00    -0.005 A 
ATOM      6  C5  UNL d   1       0.082   0.575  -0.338  0.00  0.00    -0.074 A 
ATOM      7  C6  UNL d   1       0.622  -0.822  -0.247  0.00  0.00     0.077 C 
ATOM      8  C7  UNL d   1      -0.903   1.003   0.563  0.00  0.00    -0.001 A 
ENDROOT
TORSDOF 0
ENDMDL
