MODEL 1
REMARK minimizedAffinity -5.32395363
REMARK minimizedRMSD -1
REMARK  0 active torsions:
REMARK  status: ('A' for Active; 'I' for Inactive)
ROOT
ATOM      1  C   UNL d   1       0.242  -1.003   0.062  0.00  0.00     0.077 C 
ATOM      2  C1  UNL d   1      -0.317   0.344   0.410  0.00  0.00    -0.074 A 
ATOM      3  C2  UNL d   1      -1.058   0.535   1.581  0.00  0.00    -0.005 A 
ATOM      4  C3  UNL d   1      -1.563   1.796   1.896  0.00  0.00     0.006 A 
ATOM      5  C4  UNL d   1      -1.333   2.878   1.045  0.00  0.00    -0.005 A 
ATOM      6  C5  UNL d   1      -0.594   2.707  -0.129  0.00  0.00    -0.074 A 
ATOM      7  C6  UNL d   1      -0.329   3.861  -1.049  0.00  0.00     0.077 C 
ATOM      8  C7  UNL d   1      -0.083   1.438  -0.436  0.00  0.00    -0.001 A 
ENDROOT
TORSDOF 0
ENDMDL
