MODEL 1
REMARK minimizedAffinity -3.77402425
REMARK minimizedRMSD -1
REMARK  0 active torsions:
REMARK  status: ('A' for Active; 'I' for Inactive)
ROOT
ATOM      1  C   UNL d   1      -2.397   2.094   0.769  0.00  0.00     0.077 C 
ATOM      2  C1  UNL d   1      -1.309   1.069   0.647  0.00  0.00    -0.074 A 
ATOM      3  C2  UNL d   1      -1.125   0.095   1.634  0.00  0.00    -0.005 A 
ATOM      4  C3  UNL d   1      -0.115  -0.857   1.502  0.00  0.00     0.006 A 
ATOM      5  C4  UNL d   1       0.720  -0.846   0.385  0.00  0.00    -0.005 A 
ATOM      6  C5  UNL d   1       0.551   0.120  -0.613  0.00  0.00    -0.074 A 
ATOM      7  C6  UNL d   1       1.434   0.141  -1.825  0.00  0.00     0.077 C 
ATOM      8  C7  UNL d   1      -0.471   1.069  -0.477  0.00  0.00    -0.001 A 
ENDROOT
TORSDOF 0
ENDMDL
