MODEL 1
REMARK minimizedAffinity -3.35460591
REMARK minimizedRMSD -1
REMARK  0 active torsions:
REMARK  status: ('A' for Active; 'I' for Inactive)
ROOT
ATOM      1  C   UNL d   1      -2.254   2.354   0.731  0.00  0.00     0.077 C 
ATOM      2  C1  UNL d   1      -1.317   1.193   0.886  0.00  0.00    -0.074 A 
ATOM      3  C2  UNL d   1      -1.218   0.507   2.101  0.00  0.00    -0.005 A 
ATOM      4  C3  UNL d   1      -0.349  -0.577   2.227  0.00  0.00     0.006 A 
ATOM      5  C4  UNL d   1       0.428  -0.985   1.142  0.00  0.00    -0.005 A 
ATOM      6  C5  UNL d   1       0.342  -0.311  -0.080  0.00  0.00    -0.074 A 
ATOM      7  C6  UNL d   1       1.163  -0.743  -1.259  0.00  0.00     0.077 C 
ATOM      8  C7  UNL d   1      -0.538   0.772  -0.201  0.00  0.00    -0.001 A 
ENDROOT
TORSDOF 0
ENDMDL
