MODEL 1
REMARK minimizedAffinity -4.28802252
REMARK minimizedRMSD -1
REMARK  0 active torsions:
REMARK  status: ('A' for Active; 'I' for Inactive)
ROOT
ATOM      1  C   UNL d   1       0.419  -1.517   2.680  0.00  0.00     0.077 C 
ATOM      2  C1  UNL d   1      -0.070  -0.596   1.602  0.00  0.00    -0.074 A 
ATOM      3  C2  UNL d   1       0.398  -0.713   0.289  0.00  0.00    -0.005 A 
ATOM      4  C3  UNL d   1      -0.072   0.145  -0.705  0.00  0.00     0.006 A 
ATOM      5  C4  UNL d   1      -1.015   1.126  -0.397  0.00  0.00    -0.005 A 
ATOM      6  C5  UNL d   1      -1.496   1.258   0.910  0.00  0.00    -0.074 A 
ATOM      7  C6  UNL d   1      -2.516   2.302   1.255  0.00  0.00     0.077 C 
ATOM      8  C7  UNL d   1      -1.023   0.388   1.901  0.00  0.00    -0.001 A 
ENDROOT
TORSDOF 0
ENDMDL
