MODEL 1
REMARK minimizedAffinity -3.20417595
REMARK minimizedRMSD -1
REMARK  0 active torsions:
REMARK  status: ('A' for Active; 'I' for Inactive)
ROOT
ATOM      1  C   UNL d   1      -2.230   2.493   0.783  0.00  0.00     0.077 C 
ATOM      2  C1  UNL d   1      -1.225   1.394   0.967  0.00  0.00    -0.074 A 
ATOM      3  C2  UNL d   1      -0.726   1.082   2.236  0.00  0.00    -0.005 A 
ATOM      4  C3  UNL d   1       0.200   0.052   2.393  0.00  0.00     0.006 A 
ATOM      5  C4  UNL d   1       0.636  -0.677   1.286  0.00  0.00    -0.005 A 
ATOM      6  C5  UNL d   1       0.147  -0.380   0.009  0.00  0.00    -0.074 A 
ATOM      7  C6  UNL d   1       0.597  -1.160  -1.190  0.00  0.00     0.077 C 
ATOM      8  C7  UNL d   1      -0.789   0.653  -0.140  0.00  0.00    -0.001 A 
ENDROOT
TORSDOF 0
ENDMDL
