MODEL 1
REMARK minimizedAffinity -4.60425091
REMARK minimizedRMSD -1
REMARK  0 active torsions:
REMARK  status: ('A' for Active; 'I' for Inactive)
ROOT
ATOM      1  C4' PXY d   1       0.739   1.640  -1.407  0.00  0.00     0.077 C 
ATOM      2  C1' PXY d   1       1.068  -2.872   2.190  0.00  0.00     0.077 C 
ATOM      3  C1  PXY d   1       0.969  -1.691   1.246  0.00  0.00    -0.082 A 
ATOM      4  C2  PXY d   1       2.027  -1.326   0.541  0.00  0.00     0.003 A 
ATOM      5  C3  PXY d   1       1.965  -0.240  -0.294  0.00  0.00     0.003 A 
ATOM      6  C4  PXY d   1       0.791   0.448  -0.449  0.00  0.00    -0.082 A 
ATOM      7  C5  PXY d   1      -0.297   0.075   0.259  0.00  0.00     0.003 A 
ATOM      8  C6  PXY d   1      -0.201  -1.004   1.132  0.00  0.00     0.003 A 
ENDROOT
TORSDOF 0
ENDMDL
