MODEL 1
REMARK minimizedAffinity -2.56146121
REMARK minimizedRMSD -1
REMARK  0 active torsions:
REMARK  status: ('A' for Active; 'I' for Inactive)
ROOT
ATOM      1  C4' PXY d   1      -0.149  -2.229   2.054  0.00  0.00     0.077 C 
ATOM      2  C1' PXY d   1       0.431   1.822  -2.028  0.00  0.00     0.077 C 
ATOM      3  C1  PXY d   1       0.266   0.762  -0.957  0.00  0.00    -0.082 A 
ATOM      4  C2  PXY d   1       1.303   0.420  -0.210  0.00  0.00     0.003 A 
ATOM      5  C3  PXY d   1       1.180  -0.560   0.742  0.00  0.00     0.003 A 
ATOM      6  C4  PXY d   1      -0.031  -1.158   0.967  0.00  0.00    -0.082 A 
ATOM      7  C5  PXY d   1      -1.097  -0.807   0.217  0.00  0.00     0.003 A 
ATOM      8  C6  PXY d   1      -0.940   0.161  -0.772  0.00  0.00     0.003 A 
ENDROOT
TORSDOF 0
ENDMDL
