MODEL 1
REMARK minimizedAffinity -4.84283304
REMARK minimizedRMSD -1
REMARK  0 active torsions:
REMARK  status: ('A' for Active; 'I' for Inactive)
ROOT
ATOM      1  C4' PXY d   1      -2.042  -2.253   1.632  0.00  0.00     0.077 C 
ATOM      2  C1' PXY d   1       1.503   1.397  -1.111  0.00  0.00     0.077 C 
ATOM      3  C1  PXY d   1       0.581   0.430  -0.395  0.00  0.00    -0.082 A 
ATOM      4  C2  PXY d   1      -0.675   0.775  -0.161  0.00  0.00     0.003 A 
ATOM      5  C3  PXY d   1      -1.514  -0.074   0.513  0.00  0.00     0.003 A 
ATOM      6  C4  PXY d   1      -1.078  -1.312   0.904  0.00  0.00    -0.082 A 
ATOM      7  C5  PXY d   1       0.199  -1.676   0.660  0.00  0.00     0.003 A 
ATOM      8  C6  PXY d   1       1.046  -0.782   0.011  0.00  0.00     0.003 A 
ENDROOT
TORSDOF 0
ENDMDL
