MODEL 1
REMARK minimizedAffinity -4.98409176
REMARK minimizedRMSD -1
REMARK  0 active torsions:
REMARK  status: ('A' for Active; 'I' for Inactive)
ROOT
ATOM      1  C4' PXY d   1      -1.863   1.095   0.872  0.00  0.00     0.077 C 
ATOM      2  C1' PXY d   1       2.368  -2.843   0.808  0.00  0.00     0.077 C 
ATOM      3  C1  PXY d   1       1.267  -1.801   0.827  0.00  0.00    -0.082 A 
ATOM      4  C2  PXY d   1       0.035  -2.157   1.149  0.00  0.00     0.003 A 
ATOM      5  C3  PXY d   1      -0.979  -1.234   1.140  0.00  0.00     0.003 A 
ATOM      6  C4  PXY d   1      -0.718   0.078   0.849  0.00  0.00    -0.082 A 
ATOM      7  C5  PXY d   1       0.539   0.452   0.530  0.00  0.00     0.003 A 
ATOM      8  C6  PXY d   1       1.546  -0.509   0.505  0.00  0.00     0.003 A 
ENDROOT
TORSDOF 0
ENDMDL
