MODEL 1
REMARK minimizedAffinity -2.7595427
REMARK minimizedRMSD -1
REMARK  0 active torsions:
REMARK  status: ('A' for Active; 'I' for Inactive)
ROOT
ATOM      1  C4' PXY d   1       0.729  -3.168   3.396  0.00  0.00     0.077 C 
ATOM      2  C1' PXY d   1      -0.331   0.226  -1.162  0.00  0.00     0.077 C 
ATOM      3  C1  PXY d   1      -0.065  -0.662   0.038  0.00  0.00    -0.082 A 
ATOM      4  C2  PXY d   1       1.177  -0.837   0.460  0.00  0.00     0.003 A 
ATOM      5  C3  PXY d   1       1.438  -1.662   1.523  0.00  0.00     0.003 A 
ATOM      6  C4  PXY d   1       0.413  -2.272   2.195  0.00  0.00    -0.082 A 
ATOM      7  C5  PXY d   1      -0.858  -2.090   1.778  0.00  0.00     0.003 A 
ATOM      8  C6  PXY d   1      -1.099  -1.281   0.671  0.00  0.00     0.003 A 
ENDROOT
TORSDOF 0
ENDMDL
