MODEL 1
REMARK minimizedAffinity -4.02014971
REMARK minimizedRMSD -1
REMARK  0 active torsions:
REMARK  status: ('A' for Active; 'I' for Inactive)
ROOT
ATOM      1  C4' PXY d   1      -2.648   1.571   1.273  0.00  0.00     0.077 C 
ATOM      2  C1' PXY d   1       1.081  -2.835   0.947  0.00  0.00     0.077 C 
ATOM      3  C1  PXY d   1       0.094  -1.688   1.035  0.00  0.00    -0.082 A 
ATOM      4  C2  PXY d   1       0.323  -0.573   0.361  0.00  0.00     0.003 A 
ATOM      5  C3  PXY d   1      -0.543   0.486   0.455  0.00  0.00     0.003 A 
ATOM      6  C4  PXY d   1      -1.683   0.384   1.205  0.00  0.00    -0.082 A 
ATOM      7  C5  PXY d   1      -1.930  -0.754   1.888  0.00  0.00     0.003 A 
ATOM      8  C6  PXY d   1      -1.018  -1.803   1.812  0.00  0.00     0.003 A 
ENDROOT
TORSDOF 0
ENDMDL
