MODEL 1
REMARK minimizedAffinity -1.77505207
REMARK minimizedRMSD -1
REMARK  0 active torsions:
REMARK  status: ('A' for Active; 'I' for Inactive)
ROOT
ATOM      1  C4' PXY d   1      -3.558  -0.019   1.466  0.00  0.00     0.077 C 
ATOM      2  C1' PXY d   1       1.339   0.964  -1.443  0.00  0.00     0.077 C 
ATOM      3  C1  PXY d   1       0.054   0.694  -0.686  0.00  0.00    -0.082 A 
ATOM      4  C2  PXY d   1      -0.661   1.710  -0.229  0.00  0.00     0.003 A 
ATOM      5  C3  PXY d   1      -1.809   1.483   0.485  0.00  0.00     0.003 A 
ATOM      6  C4  PXY d   1      -2.259   0.206   0.688  0.00  0.00    -0.082 A 
ATOM      7  C5  PXY d   1      -1.541  -0.835   0.215  0.00  0.00     0.003 A 
ATOM      8  C6  PXY d   1      -0.356  -0.585  -0.472  0.00  0.00     0.003 A 
ENDROOT
TORSDOF 0
ENDMDL
