MODEL 1
REMARK minimizedAffinity 1.37020624
REMARK minimizedRMSD -1
REMARK  0 active torsions:
REMARK  status: ('A' for Active; 'I' for Inactive)
ROOT
ATOM      1  C4' PXY d   1      -0.761  -0.836   1.312  0.00  0.00     0.077 C 
ATOM      2  C1' PXY d   1       0.405   1.960  -3.611  0.00  0.00     0.077 C 
ATOM      3  C1  PXY d   1       0.109   1.234  -2.314  0.00  0.00    -0.082 A 
ATOM      4  C2  PXY d   1      -0.480   0.049  -2.348  0.00  0.00     0.003 A 
ATOM      5  C3  PXY d   1      -0.784  -0.607  -1.183  0.00  0.00     0.003 A 
ATOM      6  C4  PXY d   1      -0.434  -0.070   0.027  0.00  0.00    -0.082 A 
ATOM      7  C5  PXY d   1       0.177   1.133   0.069  0.00  0.00     0.003 A 
ATOM      8  C6  PXY d   1       0.440   1.802  -1.123  0.00  0.00     0.003 A 
ENDROOT
TORSDOF 0
ENDMDL
