MODEL 1
REMARK minimizedAffinity -3.05074835
REMARK minimizedRMSD -1
REMARK  0 active torsions:
REMARK  status: ('A' for Active; 'I' for Inactive)
ROOT
ATOM      1  C4' PXY d   1      -2.106   0.268   2.327  0.00  0.00     0.077 C 
ATOM      2  C1' PXY d   1       2.218  -3.010   0.332  0.00  0.00     0.077 C 
ATOM      3  C1  PXY d   1       1.091  -2.140   0.853  0.00  0.00    -0.082 A 
ATOM      4  C2  PXY d   1       0.204  -2.650   1.692  0.00  0.00     0.003 A 
ATOM      5  C3  PXY d   1      -0.839  -1.886   2.147  0.00  0.00     0.003 A 
ATOM      6  C4  PXY d   1      -0.946  -0.571   1.783  0.00  0.00    -0.082 A 
ATOM      7  C5  PXY d   1      -0.039  -0.040   0.936  0.00  0.00     0.003 A 
ATOM      8  C6  PXY d   1       0.989  -0.843   0.452  0.00  0.00     0.003 A 
ENDROOT
TORSDOF 0
ENDMDL
