MODEL 1
REMARK minimizedAffinity -4.79872799
REMARK minimizedRMSD -1
REMARK  0 active torsions:
REMARK  status: ('A' for Active; 'I' for Inactive)
ROOT
ATOM      1  C4' PXY d   1       0.483   1.709  -0.763  0.00  0.00     0.077 C 
ATOM      2  C1' PXY d   1      -1.784  -2.852   1.970  0.00  0.00     0.077 C 
ATOM      3  C1  PXY d   1      -1.202  -1.650   1.254  0.00  0.00    -0.082 A 
ATOM      4  C2  PXY d   1      -0.111  -1.792   0.518  0.00  0.00     0.003 A 
ATOM      5  C3  PXY d   1       0.448  -0.709  -0.111  0.00  0.00     0.003 A 
ATOM      6  C4  PXY d   1      -0.146   0.522  -0.030  0.00  0.00    -0.082 A 
ATOM      7  C5  PXY d   1      -1.265   0.673   0.710  0.00  0.00     0.003 A 
ATOM      8  C6  PXY d   1      -1.793  -0.430   1.374  0.00  0.00     0.003 A 
ENDROOT
TORSDOF 0
ENDMDL
