MODEL 1
REMARK minimizedAffinity -5.05028057
REMARK minimizedRMSD -1
REMARK  0 active torsions:
REMARK  status: ('A' for Active; 'I' for Inactive)
ROOT
ATOM      1  C4' PXY d   1       1.521   1.807  -2.032  0.00  0.00     0.077 C 
ATOM      2  C1' PXY d   1      -0.246  -2.448   1.459  0.00  0.00     0.077 C 
ATOM      3  C1  PXY d   1       0.206  -1.326   0.545  0.00  0.00    -0.082 A 
ATOM      4  C2  PXY d   1       1.139  -1.558  -0.364  0.00  0.00     0.003 A 
ATOM      5  C3  PXY d   1       1.582  -0.547  -1.177  0.00  0.00     0.003 A 
ATOM      6  C4  PXY d   1       1.027   0.702  -1.095  0.00  0.00    -0.082 A 
ATOM      7  C5  PXY d   1       0.067   0.944  -0.177  0.00  0.00     0.003 A 
ATOM      8  C6  PXY d   1      -0.340  -0.085   0.666  0.00  0.00     0.003 A 
ENDROOT
TORSDOF 0
ENDMDL
