MODEL 1
REMARK minimizedAffinity -4.14362764
REMARK minimizedRMSD -1
REMARK  0 active torsions:
REMARK  status: ('A' for Active; 'I' for Inactive)
ROOT
ATOM      1  C4' PXY d   1      -0.440  -1.347   1.074  0.00  0.00     0.077 C 
ATOM      2  C1' PXY d   1       1.249   2.337  -3.047  0.00  0.00     0.077 C 
ATOM      3  C1  PXY d   1       0.815   1.376  -1.958  0.00  0.00    -0.082 A 
ATOM      4  C2  PXY d   1       0.215   0.243  -2.287  0.00  0.00     0.003 A 
ATOM      5  C3  PXY d   1      -0.212  -0.622  -1.313  0.00  0.00     0.003 A 
ATOM      6  C4  PXY d   1       0.024  -0.351   0.008  0.00  0.00    -0.082 A 
ATOM      7  C5  PXY d   1       0.645   0.798   0.350  0.00  0.00     0.003 A 
ATOM      8  C6  PXY d   1       1.034   1.683  -0.651  0.00  0.00     0.003 A 
ENDROOT
TORSDOF 0
ENDMDL
