MODEL 1
REMARK minimizedAffinity -6.0257802
REMARK minimizedRMSD -1
REMARK  0 active torsions:
REMARK  status: ('A' for Active; 'I' for Inactive)
ROOT
ATOM      1  C4' PXY d   1       1.185   1.220  -1.458  0.00  0.00     0.077 C 
ATOM      2  C1' PXY d   1      -2.178  -1.928   2.034  0.00  0.00     0.077 C 
ATOM      3  C1  PXY d   1      -1.285  -1.110   1.121  0.00  0.00    -0.082 A 
ATOM      4  C2  PXY d   1      -1.604   0.144   0.847  0.00  0.00     0.003 A 
ATOM      5  C3  PXY d   1      -0.826   0.888  -0.002  0.00  0.00     0.003 A 
ATOM      6  C4  PXY d   1       0.319   0.359  -0.534  0.00  0.00    -0.082 A 
ATOM      7  C5  PXY d   1       0.657  -0.916  -0.251  0.00  0.00     0.003 A 
ATOM      8  C6  PXY d   1      -0.168  -1.668   0.581  0.00  0.00     0.003 A 
ENDROOT
TORSDOF 0
ENDMDL
