MODEL 1
REMARK minimizedAffinity -3.97475529
REMARK minimizedRMSD -1
REMARK  0 active torsions:
REMARK  status: ('A' for Active; 'I' for Inactive)
ROOT
ATOM      1  C4' PXY d   1       0.534   1.733  -1.052  0.00  0.00     0.077 C 
ATOM      2  C1' PXY d   1      -2.030  -2.834   1.394  0.00  0.00     0.077 C 
ATOM      3  C1  PXY d   1      -1.370  -1.632   0.750  0.00  0.00    -0.082 A 
ATOM      4  C2  PXY d   1      -0.124  -1.726   0.313  0.00  0.00     0.003 A 
ATOM      5  C3  PXY d   1       0.499  -0.639  -0.244  0.00  0.00     0.003 A 
ATOM      6  C4  PXY d   1      -0.177   0.542  -0.403  0.00  0.00    -0.082 A 
ATOM      7  C5  PXY d   1      -1.451   0.642   0.031  0.00  0.00     0.003 A 
ATOM      8  C6  PXY d   1      -2.052  -0.461   0.630  0.00  0.00     0.003 A 
ENDROOT
TORSDOF 0
ENDMDL
