MODEL 1
REMARK minimizedAffinity -3.96624351
REMARK minimizedRMSD -1
REMARK  0 active torsions:
REMARK  status: ('A' for Active; 'I' for Inactive)
ROOT
ATOM      1  C4' PXY d   1       1.285   1.815  -1.732  0.00  0.00     0.077 C 
ATOM      2  C1' PXY d   1      -0.793  -2.352   1.694  0.00  0.00     0.077 C 
ATOM      3  C1  PXY d   1      -0.260  -1.254   0.795  0.00  0.00    -0.082 A 
ATOM      4  C2  PXY d   1       0.840  -1.462   0.090  0.00  0.00     0.003 A 
ATOM      5  C3  PXY d   1       1.354  -0.469  -0.704  0.00  0.00     0.003 A 
ATOM      6  C4  PXY d   1       0.705   0.732  -0.818  0.00  0.00    -0.082 A 
ATOM      7  C5  PXY d   1      -0.424   0.948  -0.110  0.00  0.00     0.003 A 
ATOM      8  C6  PXY d   1      -0.906  -0.059   0.721  0.00  0.00     0.003 A 
ENDROOT
TORSDOF 0
ENDMDL
