MODEL 1
REMARK minimizedAffinity -5.46903181
REMARK minimizedRMSD -1
REMARK  0 active torsions:
REMARK  status: ('A' for Active; 'I' for Inactive)
ROOT
ATOM      1  C4' PXY d   1       0.752   1.911  -0.045  0.00  0.00     0.077 C 
ATOM      2  C1' PXY d   1      -1.935  -3.069   1.135  0.00  0.00     0.077 C 
ATOM      3  C1  PXY d   1      -1.219  -1.768   0.829  0.00  0.00    -0.082 A 
ATOM      4  C2  PXY d   1      -1.898  -0.632   0.830  0.00  0.00     0.003 A 
ATOM      5  C3  PXY d   1      -1.273   0.550   0.524  0.00  0.00     0.003 A 
ATOM      6  C4  PXY d   1       0.072   0.576   0.267  0.00  0.00    -0.082 A 
ATOM      7  C5  PXY d   1       0.773  -0.578   0.274  0.00  0.00     0.003 A 
ATOM      8  C6  PXY d   1       0.112  -1.772   0.547  0.00  0.00     0.003 A 
ENDROOT
TORSDOF 0
ENDMDL
