MODEL 1
REMARK minimizedAffinity -4.66219044
REMARK minimizedRMSD -1
REMARK  0 active torsions:
REMARK  status: ('A' for Active; 'I' for Inactive)
ROOT
ATOM      1  C4' PXY d   1       1.408   1.606  -0.518  0.00  0.00     0.077 C 
ATOM      2  C1' PXY d   1      -1.629  -3.018   1.159  0.00  0.00     0.077 C 
ATOM      3  C1  PXY d   1      -0.843  -1.800   0.714  0.00  0.00    -0.082 A 
ATOM      4  C2  PXY d   1       0.457  -1.906   0.491  0.00  0.00     0.003 A 
ATOM      5  C3  PXY d   1       1.188  -0.807   0.119  0.00  0.00     0.003 A 
ATOM      6  C4  PXY d   1       0.574   0.401  -0.077  0.00  0.00    -0.082 A 
ATOM      7  C5  PXY d   1      -0.754   0.514   0.139  0.00  0.00     0.003 A 
ATOM      8  C6  PXY d   1      -1.471  -0.603   0.555  0.00  0.00     0.003 A 
ENDROOT
TORSDOF 0
ENDMDL
