MODEL 1
REMARK minimizedAffinity -4.9583621
REMARK minimizedRMSD -1
REMARK  0 active torsions:
REMARK  status: ('A' for Active; 'I' for Inactive)
ROOT
ATOM      1  C4' PXY d   1       1.508   1.432  -0.569  0.00  0.00     0.077 C 
ATOM      2  C1' PXY d   1      -1.821  -3.024   1.006  0.00  0.00     0.077 C 
ATOM      3  C1  PXY d   1      -0.938  -1.861   0.599  0.00  0.00    -0.082 A 
ATOM      4  C2  PXY d   1      -1.484  -0.684   0.343  0.00  0.00     0.003 A 
ATOM      5  C3  PXY d   1      -0.703   0.370  -0.058  0.00  0.00     0.003 A 
ATOM      6  C4  PXY d   1       0.656   0.232  -0.146  0.00  0.00    -0.082 A 
ATOM      7  C5  PXY d   1       1.222  -0.964   0.124  0.00  0.00     0.003 A 
ATOM      8  C6  PXY d   1       0.408  -2.032   0.489  0.00  0.00     0.003 A 
ENDROOT
TORSDOF 0
ENDMDL
