MODEL 1
REMARK minimizedAffinity -4.00800991
REMARK minimizedRMSD -1
REMARK  0 active torsions:
REMARK  status: ('A' for Active; 'I' for Inactive)
ROOT
ATOM      1  C4' PXY d   1       0.823   0.454  -0.870  0.00  0.00     0.077 C 
ATOM      2  C1' PXY d   1      -2.948  -2.994   1.831  0.00  0.00     0.077 C 
ATOM      3  C1  PXY d   1      -1.950  -2.099   1.123  0.00  0.00    -0.082 A 
ATOM      4  C2  PXY d   1      -2.112  -0.786   1.154  0.00  0.00     0.003 A 
ATOM      5  C3  PXY d   1      -1.237   0.036   0.493  0.00  0.00     0.003 A 
ATOM      6  C4  PXY d   1      -0.154  -0.487  -0.162  0.00  0.00    -0.082 A 
ATOM      7  C5  PXY d   1       0.024  -1.825  -0.189  0.00  0.00     0.003 A 
ATOM      8  C6  PXY d   1      -0.899  -2.645   0.454  0.00  0.00     0.003 A 
ENDROOT
TORSDOF 0
ENDMDL
