MODEL 1
REMARK minimizedAffinity -5.48206282
REMARK minimizedRMSD -1
REMARK  0 active torsions:
REMARK  status: ('A' for Active; 'I' for Inactive)
ROOT
ATOM      1  C4' PXY d   1       0.490   2.211  -0.241  0.00  0.00     0.077 C 
ATOM      2  C1' PXY d   1      -2.210  -2.701   1.173  0.00  0.00     0.077 C 
ATOM      3  C1  PXY d   1      -1.514  -1.407   0.800  0.00  0.00    -0.082 A 
ATOM      4  C2  PXY d   1      -0.255  -1.436   0.393  0.00  0.00     0.003 A 
ATOM      5  C3  PXY d   1       0.400  -0.272   0.082  0.00  0.00     0.003 A 
ATOM      6  C4  PXY d   1      -0.256   0.928   0.137  0.00  0.00    -0.082 A 
ATOM      7  C5  PXY d   1      -1.544   0.965   0.541  0.00  0.00     0.003 A 
ATOM      8  C6  PXY d   1      -2.178  -0.223   0.891  0.00  0.00     0.003 A 
ENDROOT
TORSDOF 0
ENDMDL
