MODEL 1
REMARK minimizedAffinity -3.58513212
REMARK minimizedRMSD -1
REMARK  0 active torsions:
REMARK  status: ('A' for Active; 'I' for Inactive)
ROOT
ATOM      1  C   UNL d   1      -0.223  -0.080   0.607  0.00  0.00     0.172 C 
ATOM      2  N   UNL d   1       0.567   0.076  -0.591  0.00  0.00    -0.070 N 
ATOM      3  C1  UNL d   1       1.423  -0.858  -1.110  0.00  0.00    -0.004 A 
ATOM      4  C2  UNL d   1       1.982  -0.329  -2.254  0.00  0.00    -0.047 A 
ATOM      5  C3  UNL d   1       1.444   0.969  -2.427  0.00  0.00    -0.047 A 
ATOM      6  C4  UNL d   1       0.571   1.194  -1.383  0.00  0.00    -0.004 A 
ENDROOT
TORSDOF 0
ENDMDL
