MODEL 1
REMARK minimizedAffinity -1.75873637
REMARK minimizedRMSD -1
REMARK  0 active torsions:
REMARK  status: ('A' for Active; 'I' for Inactive)
ROOT
ATOM      1  C   UNL d   1      -1.494  -0.048   0.466  0.00  0.00     0.172 C 
ATOM      2  N   UNL d   1      -2.722   0.161   1.197  0.00  0.00    -0.070 N 
ATOM      3  C1  UNL d   1      -3.829  -0.643   1.146  0.00  0.00    -0.004 A 
ATOM      4  C2  UNL d   1      -4.781  -0.105   1.983  0.00  0.00    -0.047 A 
ATOM      5  C3  UNL d   1      -4.228   1.064   2.557  0.00  0.00    -0.047 A 
ATOM      6  C4  UNL d   1      -2.952   1.205   2.054  0.00  0.00    -0.004 A 
ENDROOT
TORSDOF 0
ENDMDL
