MODEL 1
REMARK minimizedAffinity -1.81942582
REMARK minimizedRMSD -1
REMARK  0 active torsions:
REMARK  status: ('A' for Active; 'I' for Inactive)
ROOT
ATOM      1  C   UNL d   1      -1.251  -0.066   0.661  0.00  0.00     0.172 C 
ATOM      2  N   UNL d   1      -0.015   0.132  -0.060  0.00  0.00    -0.070 N 
ATOM      3  C1  UNL d   1       0.786  -0.860  -0.558  0.00  0.00    -0.004 A 
ATOM      4  C2  UNL d   1       1.864  -0.262  -1.175  0.00  0.00    -0.047 A 
ATOM      5  C3  UNL d   1       1.704   1.138  -1.043  0.00  0.00    -0.047 A 
ATOM      6  C4  UNL d   1       0.532   1.354  -0.348  0.00  0.00    -0.004 A 
ENDROOT
TORSDOF 0
ENDMDL
