MODEL 1
REMARK minimizedAffinity -3.35589027
REMARK minimizedRMSD -1
REMARK  0 active torsions:
REMARK  status: ('A' for Active; 'I' for Inactive)
ROOT
ATOM      1  C   UNL d   1      -3.494   0.147   1.500  0.00  0.00     0.172 C 
ATOM      2  N   UNL d   1      -2.072   0.368   1.378  0.00  0.00    -0.070 N 
ATOM      3  C1  UNL d   1      -1.178   0.400   2.415  0.00  0.00    -0.004 A 
ATOM      4  C2  UNL d   1       0.073   0.634   1.886  0.00  0.00    -0.047 A 
ATOM      5  C3  UNL d   1      -0.075   0.748   0.483  0.00  0.00    -0.047 A 
ATOM      6  C4  UNL d   1      -1.413   0.579   0.196  0.00  0.00    -0.004 A 
ENDROOT
TORSDOF 0
ENDMDL
