MODEL 1
REMARK minimizedAffinity -2.43268657
REMARK minimizedRMSD -1
REMARK  0 active torsions:
REMARK  status: ('A' for Active; 'I' for Inactive)
ROOT
ATOM      1  C   UNL d   1      -1.163   0.465   0.799  0.00  0.00     0.172 C 
ATOM      2  N   UNL d   1      -0.147   0.803  -0.170  0.00  0.00    -0.070 N 
ATOM      3  C1  UNL d   1      -0.224   1.815  -1.089  0.00  0.00    -0.004 A 
ATOM      4  C2  UNL d   1       0.942   1.809  -1.824  0.00  0.00    -0.047 A 
ATOM      5  C3  UNL d   1       1.748   0.756  -1.330  0.00  0.00    -0.047 A 
ATOM      6  C4  UNL d   1       1.050   0.149  -0.307  0.00  0.00    -0.004 A 
ENDROOT
TORSDOF 0
ENDMDL
