MODEL 1
REMARK minimizedAffinity -3.35876608
REMARK minimizedRMSD -1
REMARK  0 active torsions:
REMARK  status: ('A' for Active; 'I' for Inactive)
ROOT
ATOM      1  C   UNL d   1       1.683  -0.361  -3.148  0.00  0.00     0.172 C 
ATOM      2  N   UNL d   1       1.055   0.254  -2.003  0.00  0.00    -0.070 N 
ATOM      3  C1  UNL d   1      -0.252   0.092  -1.626  0.00  0.00    -0.004 A 
ATOM      4  C2  UNL d   1      -0.459   0.840  -0.488  0.00  0.00    -0.047 A 
ATOM      5  C3  UNL d   1       0.765   1.475  -0.170  0.00  0.00    -0.047 A 
ATOM      6  C4  UNL d   1       1.685   1.095  -1.124  0.00  0.00    -0.004 A 
ENDROOT
TORSDOF 0
ENDMDL
