MODEL 1
REMARK minimizedAffinity -3.75175476
REMARK minimizedRMSD -1
REMARK  0 active torsions:
REMARK  status: ('A' for Active; 'I' for Inactive)
ROOT
ATOM      1  C   UNL d   1      -0.862  -0.212   0.736  0.00  0.00     0.172 C 
ATOM      2  N   UNL d   1      -0.020  -0.096  -0.431  0.00  0.00    -0.070 N 
ATOM      3  C1  UNL d   1       0.455   1.075  -0.960  0.00  0.00    -0.004 A 
ATOM      4  C2  UNL d   1       1.216   0.761  -2.065  0.00  0.00    -0.047 A 
ATOM      5  C3  UNL d   1       1.198  -0.647  -2.205  0.00  0.00    -0.047 A 
ATOM      6  C4  UNL d   1       0.425  -1.152  -1.181  0.00  0.00    -0.004 A 
ENDROOT
TORSDOF 0
ENDMDL
