MODEL 1
REMARK minimizedAffinity -3.28756094
REMARK minimizedRMSD -1
REMARK  0 active torsions:
REMARK  status: ('A' for Active; 'I' for Inactive)
ROOT
ATOM      1  C   UNL d   1       2.120  -2.361  -1.419  0.00  0.00     0.172 C 
ATOM      2  N   UNL d   1       1.578  -1.086  -1.012  0.00  0.00    -0.070 N 
ATOM      3  C1  UNL d   1       1.821   0.116  -1.622  0.00  0.00    -0.004 A 
ATOM      4  C2  UNL d   1       1.123   1.086  -0.936  0.00  0.00    -0.047 A 
ATOM      5  C3  UNL d   1       0.438   0.446   0.124  0.00  0.00    -0.047 A 
ATOM      6  C4  UNL d   1       0.737  -0.898   0.053  0.00  0.00    -0.004 A 
ENDROOT
TORSDOF 0
ENDMDL
