MODEL 1
REMARK minimizedAffinity -1.39325929
REMARK minimizedRMSD -1
REMARK  0 active torsions:
REMARK  status: ('A' for Active; 'I' for Inactive)
ROOT
ATOM      1  C   UNL d   1      -2.514   0.273   1.573  0.00  0.00     0.172 C 
ATOM      2  N   UNL d   1      -1.235   0.348   0.906  0.00  0.00    -0.070 N 
ATOM      3  C1  UNL d   1      -0.370  -0.697   0.719  0.00  0.00    -0.004 A 
ATOM      4  C2  UNL d   1       0.732  -0.218   0.045  0.00  0.00    -0.047 A 
ATOM      5  C3  UNL d   1       0.523   1.164  -0.180  0.00  0.00    -0.047 A 
ATOM      6  C4  UNL d   1      -0.703   1.487   0.363  0.00  0.00    -0.004 A 
ENDROOT
TORSDOF 0
ENDMDL
