MODEL 1
REMARK minimizedAffinity -0.423328757
REMARK minimizedRMSD -1
REMARK  0 active torsions:
REMARK  status: ('A' for Active; 'I' for Inactive)
ROOT
ATOM      1  C   UNL d   1       2.398   0.355  -1.971  0.00  0.00     0.172 C 
ATOM      2  N   UNL d   1       1.400   0.308  -0.929  0.00  0.00    -0.070 N 
ATOM      3  C1  UNL d   1       0.492  -0.699  -0.739  0.00  0.00    -0.004 A 
ATOM      4  C2  UNL d   1      -0.281  -0.370   0.354  0.00  0.00    -0.047 A 
ATOM      5  C3  UNL d   1       0.178   0.878   0.837  0.00  0.00    -0.047 A 
ATOM      6  C4  UNL d   1       1.219   1.275   0.024  0.00  0.00    -0.004 A 
ENDROOT
TORSDOF 0
ENDMDL
