MODEL 1
REMARK minimizedAffinity -0.807814479
REMARK minimizedRMSD -1
REMARK  0 active torsions:
REMARK  status: ('A' for Active; 'I' for Inactive)
ROOT
ATOM      1  C   UNL d   1      -0.263  -0.445   0.366  0.00  0.00     0.172 C 
ATOM      2  N   UNL d   1      -1.499   0.104   0.872  0.00  0.00    -0.070 N 
ATOM      3  C1  UNL d   1      -2.675   0.197   0.177  0.00  0.00    -0.004 A 
ATOM      4  C2  UNL d   1      -3.611   0.775   1.007  0.00  0.00    -0.047 A 
ATOM      5  C3  UNL d   1      -2.976   1.039   2.243  0.00  0.00    -0.047 A 
ATOM      6  C4  UNL d   1      -1.669   0.614   2.132  0.00  0.00    -0.004 A 
ENDROOT
TORSDOF 0
ENDMDL
