MODEL 1
REMARK minimizedAffinity -2.74386454
REMARK minimizedRMSD -1
REMARK  0 active torsions:
REMARK  status: ('A' for Active; 'I' for Inactive)
ROOT
ATOM      1  C   UNL d   1      -0.814  -0.490   1.624  0.00  0.00     0.172 C 
ATOM      2  N   UNL d   1      -0.402   0.351   0.525  0.00  0.00    -0.070 N 
ATOM      3  C1  UNL d   1       0.851   0.873   0.345  0.00  0.00    -0.004 A 
ATOM      4  C2  UNL d   1       0.837   1.616  -0.816  0.00  0.00    -0.047 A 
ATOM      5  C3  UNL d   1      -0.470   1.538  -1.352  0.00  0.00    -0.047 A 
ATOM      6  C4  UNL d   1      -1.217   0.749  -0.502  0.00  0.00    -0.004 A 
ENDROOT
TORSDOF 0
ENDMDL
