MODEL 1
REMARK minimizedAffinity -3.52163839
REMARK minimizedRMSD -1
REMARK  0 active torsions:
REMARK  status: ('A' for Active; 'I' for Inactive)
ROOT
ATOM      1  C   UNL d   1      -0.749  -0.164   1.130  0.00  0.00     0.172 C 
ATOM      2  N   UNL d   1       0.119   0.008  -0.012  0.00  0.00    -0.070 N 
ATOM      3  C1  UNL d   1       0.903   1.103  -0.261  0.00  0.00    -0.004 A 
ATOM      4  C2  UNL d   1       1.576   0.880  -1.442  0.00  0.00    -0.047 A 
ATOM      5  C3  UNL d   1       1.183  -0.392  -1.920  0.00  0.00    -0.047 A 
ATOM      6  C4  UNL d   1       0.281  -0.910  -1.015  0.00  0.00    -0.004 A 
ENDROOT
TORSDOF 0
ENDMDL
