MODEL 1
REMARK minimizedAffinity -3.60736632
REMARK minimizedRMSD -1
REMARK  0 active torsions:
REMARK  status: ('A' for Active; 'I' for Inactive)
ROOT
ATOM      1  C   UNL d   1      -0.177   1.099  -0.675  0.00  0.00     0.172 C 
ATOM      2  N   UNL d   1       0.765   0.324  -1.449  0.00  0.00    -0.070 N 
ATOM      3  C1  UNL d   1       1.137  -0.968  -1.192  0.00  0.00    -0.004 A 
ATOM      4  C2  UNL d   1       2.048  -1.344  -2.155  0.00  0.00    -0.047 A 
ATOM      5  C3  UNL d   1       2.230  -0.240  -3.020  0.00  0.00    -0.047 A 
ATOM      6  C4  UNL d   1       1.424   0.780  -2.560  0.00  0.00    -0.004 A 
ENDROOT
TORSDOF 0
ENDMDL
