MODEL 1
REMARK minimizedAffinity -2.37490439
REMARK minimizedRMSD -1
REMARK  0 active torsions:
REMARK  status: ('A' for Active; 'I' for Inactive)
ROOT
ATOM      1  C   UNL d   1      -1.071   0.328   0.767  0.00  0.00     0.172 C 
ATOM      2  N   UNL d   1       0.043   0.744  -0.053  0.00  0.00    -0.070 N 
ATOM      3  C1  UNL d   1       0.880  -0.089  -0.745  0.00  0.00    -0.004 A 
ATOM      4  C2  UNL d   1       1.807   0.692  -1.399  0.00  0.00    -0.047 A 
ATOM      5  C3  UNL d   1       1.518   2.042  -1.089  0.00  0.00    -0.047 A 
ATOM      6  C4  UNL d   1       0.421   2.046  -0.253  0.00  0.00    -0.004 A 
ENDROOT
TORSDOF 0
ENDMDL
