MODEL 1
REMARK minimizedAffinity -3.45659876
REMARK minimizedRMSD -1
REMARK  2 active torsions:
REMARK  status: ('A' for Active; 'I' for Inactive)
REMARK    1  A    between atoms: C1_2  and  C2_3 
REMARK    2  A    between atoms: C2_3  and  C3_4 
ROOT
ATOM      1  C3  UNL d   1      -0.006   0.032   0.159  0.00  0.00    -0.075 A 
ATOM      2  C4  UNL d   1      -0.600   0.497   1.341  0.00  0.00     0.002 A 
ATOM      3  C5  UNL d   1      -0.061   1.590   2.021  0.00  0.00     0.002 A 
ATOM      4  C6  UNL d   1       1.081   2.223   1.535  0.00  0.00    -0.004 A 
ATOM      5  C7  UNL d   1       1.688   1.758   0.371  0.00  0.00     0.002 A 
ATOM      6  C8  UNL d   1       1.149   0.668  -0.314  0.00  0.00     0.002 A 
ENDROOT
BRANCH   1   7
ATOM      7  C2  UNL d   1      -0.602  -1.132  -0.598  0.00  0.00     0.056 C 
BRANCH   7   8
ATOM      8  C1  UNL d   1      -1.765  -0.748  -1.518  0.00  0.00     0.007 C 
ATOM      9  C   UNL d   1      -2.220  -1.888  -2.419  0.00  0.00     0.009 C 
ENDBRANCH   7   8
ENDBRANCH   1   7
TORSDOF 2
ENDMDL
