MODEL 1
REMARK minimizedAffinity -4.97053432
REMARK minimizedRMSD -1
REMARK  2 active torsions:
REMARK  status: ('A' for Active; 'I' for Inactive)
REMARK    1  A    between atoms: C1_2  and  C2_3 
REMARK    2  A    between atoms: C2_3  and  C3_4 
ROOT
ATOM      1  C3  UNL d   1       0.182   1.654   0.428  0.00  0.00    -0.075 A 
ATOM      2  C4  UNL d   1       0.861   0.853  -0.503  0.00  0.00     0.002 A 
ATOM      3  C5  UNL d   1       0.392  -0.423  -0.813  0.00  0.00     0.002 A 
ATOM      4  C6  UNL d   1      -0.752  -0.919  -0.192  0.00  0.00    -0.004 A 
ATOM      5  C7  UNL d   1      -1.425  -0.139   0.746  0.00  0.00     0.002 A 
ATOM      6  C8  UNL d   1      -0.960   1.141   1.056  0.00  0.00     0.002 A 
ENDROOT
BRANCH   1   7
ATOM      7  C2  UNL d   1       0.668   3.048   0.746  0.00  0.00     0.056 C 
BRANCH   7   8
ATOM      8  C1  UNL d   1       1.660   3.112   1.912  0.00  0.00     0.007 C 
ATOM      9  C   UNL d   1       1.447   2.012   2.943  0.00  0.00     0.009 C 
ENDBRANCH   7   8
ENDBRANCH   1   7
TORSDOF 2
ENDMDL
