MODEL 1
REMARK minimizedAffinity -3.78270245
REMARK minimizedRMSD -1
REMARK  2 active torsions:
REMARK  status: ('A' for Active; 'I' for Inactive)
REMARK    1  A    between atoms: C1_2  and  C2_3 
REMARK    2  A    between atoms: C2_3  and  C3_4 
ROOT
ATOM      1  C3  UNL d   1      -0.262   0.329   0.057  0.00  0.00    -0.075 A 
ATOM      2  C4  UNL d   1      -0.652   0.953   1.251  0.00  0.00     0.002 A 
ATOM      3  C5  UNL d   1       0.075   2.030   1.758  0.00  0.00     0.002 A 
ATOM      4  C6  UNL d   1       1.205   2.490   1.086  0.00  0.00    -0.004 A 
ATOM      5  C7  UNL d   1       1.612   1.867  -0.092  0.00  0.00     0.002 A 
ATOM      6  C8  UNL d   1       0.883   0.792  -0.605  0.00  0.00     0.002 A 
ENDROOT
BRANCH   1   7
ATOM      7  C2  UNL d   1      -1.062  -0.817  -0.513  0.00  0.00     0.056 C 
BRANCH   7   8
ATOM      8  C1  UNL d   1      -1.529  -0.596  -1.956  0.00  0.00     0.007 C 
ATOM      9  C   UNL d   1      -2.898  -1.198  -2.243  0.00  0.00     0.009 C 
ENDBRANCH   7   8
ENDBRANCH   1   7
TORSDOF 2
ENDMDL
