MODEL 1
REMARK minimizedAffinity -5.38029623
REMARK minimizedRMSD -1
REMARK  2 active torsions:
REMARK  status: ('A' for Active; 'I' for Inactive)
REMARK    1  A    between atoms: C1_2  and  C2_3 
REMARK    2  A    between atoms: C2_3  and  C3_4 
ROOT
ATOM      1  C3  UNL d   1      -0.028  -0.162  -0.166  0.00  0.00    -0.075 A 
ATOM      2  C4  UNL d   1      -0.876   0.237   0.877  0.00  0.00     0.002 A 
ATOM      3  C5  UNL d   1      -0.541   1.323   1.686  0.00  0.00     0.002 A 
ATOM      4  C6  UNL d   1       0.648   2.017   1.470  0.00  0.00    -0.004 A 
ATOM      5  C7  UNL d   1       1.506   1.619   0.447  0.00  0.00     0.002 A 
ATOM      6  C8  UNL d   1       1.171   0.535  -0.367  0.00  0.00     0.002 A 
ENDROOT
BRANCH   1   7
ATOM      7  C2  UNL d   1      -0.399  -1.318  -1.064  0.00  0.00     0.056 C 
BRANCH   7   8
ATOM      8  C1  UNL d   1      -1.665  -1.081  -1.894  0.00  0.00     0.007 C 
ATOM      9  C   UNL d   1      -2.601  -2.282  -1.916  0.00  0.00     0.009 C 
ENDBRANCH   7   8
ENDBRANCH   1   7
TORSDOF 2
ENDMDL
