MODEL 1
REMARK minimizedAffinity -5.06547642
REMARK minimizedRMSD -1
REMARK  2 active torsions:
REMARK  status: ('A' for Active; 'I' for Inactive)
REMARK    1  A    between atoms: C1_2  and  C2_3 
REMARK    2  A    between atoms: C2_3  and  C3_4 
ROOT
ATOM      1  C3  UNL d   1       0.721   0.832   0.113  0.00  0.00    -0.075 A 
ATOM      2  C4  UNL d   1       1.962   0.492  -0.446  0.00  0.00     0.002 A 
ATOM      3  C5  UNL d   1       3.103   1.235  -0.141  0.00  0.00     0.002 A 
ATOM      4  C6  UNL d   1       3.017   2.330   0.716  0.00  0.00    -0.004 A 
ATOM      5  C7  UNL d   1       1.787   2.687   1.264  0.00  0.00     0.002 A 
ATOM      6  C8  UNL d   1       0.644   1.943   0.964  0.00  0.00     0.002 A 
ENDROOT
BRANCH   1   7
ATOM      7  C2  UNL d   1      -0.512   0.015  -0.189  0.00  0.00     0.056 C 
BRANCH   7   8
ATOM      8  C1  UNL d   1      -0.291  -1.086  -1.231  0.00  0.00     0.007 C 
ATOM      9  C   UNL d   1      -1.329  -1.077  -2.345  0.00  0.00     0.009 C 
ENDBRANCH   7   8
ENDBRANCH   1   7
TORSDOF 2
ENDMDL
