MODEL 1
REMARK minimizedAffinity -3.55498338
REMARK minimizedRMSD -1
REMARK  2 active torsions:
REMARK  status: ('A' for Active; 'I' for Inactive)
REMARK    1  A    between atoms: C1_2  and  C2_3 
REMARK    2  A    between atoms: C2_3  and  C3_4 
ROOT
ATOM      1  C3  UNL d   1      -0.397  -1.580  -1.517  0.00  0.00    -0.075 A 
ATOM      2  C4  UNL d   1      -0.408  -1.214  -2.870  0.00  0.00     0.002 A 
ATOM      3  C5  UNL d   1      -1.520  -1.484  -3.669  0.00  0.00     0.002 A 
ATOM      4  C6  UNL d   1      -2.629  -2.132  -3.128  0.00  0.00    -0.004 A 
ATOM      5  C7  UNL d   1      -2.622  -2.515  -1.788  0.00  0.00     0.002 A 
ATOM      6  C8  UNL d   1      -1.513  -2.242  -0.986  0.00  0.00     0.002 A 
ENDROOT
BRANCH   1   7
ATOM      7  C2  UNL d   1       0.791  -1.264  -0.640  0.00  0.00     0.056 C 
BRANCH   7   8
ATOM      8  C1  UNL d   1       0.877   0.205  -0.211  0.00  0.00     0.007 C 
ATOM      9  C   UNL d   1      -0.168   0.589   0.828  0.00  0.00     0.009 C 
ENDBRANCH   7   8
ENDBRANCH   1   7
TORSDOF 2
ENDMDL
