MODEL 1
REMARK minimizedAffinity -2.87330461
REMARK minimizedRMSD -1
REMARK  2 active torsions:
REMARK  status: ('A' for Active; 'I' for Inactive)
REMARK    1  A    between atoms: C1_2  and  C2_3 
REMARK    2  A    between atoms: C2_3  and  C3_4 
ROOT
ATOM      1  C3  UNL d   1      -0.882  -1.365  -1.589  0.00  0.00    -0.075 A 
ATOM      2  C4  UNL d   1      -0.562  -0.871  -2.862  0.00  0.00     0.002 A 
ATOM      3  C5  UNL d   1      -1.428  -1.070  -3.937  0.00  0.00     0.002 A 
ATOM      4  C6  UNL d   1      -2.617  -1.772  -3.757  0.00  0.00    -0.004 A 
ATOM      5  C7  UNL d   1      -2.938  -2.281  -2.500  0.00  0.00     0.002 A 
ATOM      6  C8  UNL d   1      -2.075  -2.080  -1.421  0.00  0.00     0.002 A 
ENDROOT
BRANCH   1   7
ATOM      7  C2  UNL d   1       0.037  -1.128  -0.414  0.00  0.00     0.056 C 
BRANCH   7   8
ATOM      8  C1  UNL d   1      -0.685  -0.692   0.865  0.00  0.00     0.007 C 
ATOM      9  C   UNL d   1      -0.702   0.818   1.060  0.00  0.00     0.009 C 
ENDBRANCH   7   8
ENDBRANCH   1   7
TORSDOF 2
ENDMDL
