MODEL 1
REMARK minimizedAffinity -5.59083605
REMARK minimizedRMSD -1
REMARK  2 active torsions:
REMARK  status: ('A' for Active; 'I' for Inactive)
REMARK    1  A    between atoms: C1_2  and  C2_3 
REMARK    2  A    between atoms: C2_3  and  C3_4 
ROOT
ATOM      1  C3  UNL d   1       1.415   1.397   0.441  0.00  0.00    -0.075 A 
ATOM      2  C4  UNL d   1       2.701   1.101  -0.035  0.00  0.00     0.002 A 
ATOM      3  C5  UNL d   1       3.813   1.237   0.797  0.00  0.00     0.002 A 
ATOM      4  C6  UNL d   1       3.655   1.680   2.108  0.00  0.00    -0.004 A 
ATOM      5  C7  UNL d   1       2.385   1.993   2.586  0.00  0.00     0.002 A 
ATOM      6  C8  UNL d   1       1.270   1.854   1.757  0.00  0.00     0.002 A 
ENDROOT
BRANCH   1   7
ATOM      7  C2  UNL d   1       0.205   1.224  -0.445  0.00  0.00     0.056 C 
BRANCH   7   8
ATOM      8  C1  UNL d   1      -0.695   0.048  -0.049  0.00  0.00     0.007 C 
ATOM      9  C   UNL d   1      -0.135  -1.304  -0.472  0.00  0.00     0.009 C 
ENDBRANCH   7   8
ENDBRANCH   1   7
TORSDOF 2
ENDMDL
