MODEL 1
REMARK minimizedAffinity 3.89975715
REMARK minimizedRMSD -1
REMARK  2 active torsions:
REMARK  status: ('A' for Active; 'I' for Inactive)
REMARK    1  A    between atoms: C1_2  and  C2_3 
REMARK    2  A    between atoms: C2_3  and  C3_4 
ROOT
ATOM      1  C3  UNL d   1      -0.123   1.121   1.882  0.00  0.00    -0.075 A 
ATOM      2  C4  UNL d   1      -1.469   0.959   1.524  0.00  0.00     0.002 A 
ATOM      3  C5  UNL d   1      -1.822   0.161   0.436  0.00  0.00     0.002 A 
ATOM      4  C6  UNL d   1      -0.835  -0.476  -0.314  0.00  0.00    -0.004 A 
ATOM      5  C7  UNL d   1       0.507  -0.308   0.022  0.00  0.00     0.002 A 
ATOM      6  C8  UNL d   1       0.862   0.486   1.114  0.00  0.00     0.002 A 
ENDROOT
BRANCH   1   7
ATOM      7  C2  UNL d   1       0.264   1.960   3.077  0.00  0.00     0.056 C 
BRANCH   7   8
ATOM      8  C1  UNL d   1       1.490   1.440   3.833  0.00  0.00     0.007 C 
ATOM      9  C   UNL d   1       1.201   1.113   5.292  0.00  0.00     0.009 C 
ENDBRANCH   7   8
ENDBRANCH   1   7
TORSDOF 2
ENDMDL
