MODEL 1
REMARK minimizedAffinity 7.3744998
REMARK minimizedRMSD -1
REMARK  0 active torsions:
REMARK  status: ('A' for Active; 'I' for Inactive)
ROOT
ATOM      1  C1  DEN d   1      -4.045  -1.067  -3.608  0.00  0.00     0.130 A 
ATOM      2  C2  DEN d   1      -2.975  -0.106  -3.863  0.00  0.00    -0.031 A 
ATOM      3  C3  DEN d   1      -1.713  -0.685  -3.361  0.00  0.00     0.027 A 
ATOM      4  C4  DEN d   1      -1.312  -2.966  -2.226  0.00  0.00     0.027 A 
ATOM      5  C5  DEN d   1      -1.918  -4.122  -1.784  0.00  0.00    -0.003 A 
ATOM      6  C6  DEN d   1      -3.268  -4.324  -1.887  0.00  0.00     0.001 A 
ATOM      7  C7  DEN d   1      -4.053  -3.374  -2.487  0.00  0.00     0.017 A 
ATOM      8  C8  DEN d   1      -3.451  -2.204  -2.929  0.00  0.00    -0.094 A 
ATOM      9  C9  DEN d   1      -2.082  -2.023  -2.827  0.00  0.00    -0.072 A 
ENDROOT
TORSDOF 0
ENDMDL
