MODEL 1
REMARK minimizedAffinity 4.71658039
REMARK minimizedRMSD -1
REMARK  0 active torsions:
REMARK  status: ('A' for Active; 'I' for Inactive)
ROOT
ATOM      1  C1  DEN d   1       0.329   1.201  -1.545  0.00  0.00     0.130 A 
ATOM      2  C2  DEN d   1       1.171   1.560  -0.407  0.00  0.00    -0.031 A 
ATOM      3  C3  DEN d   1       1.413   0.337   0.385  0.00  0.00     0.027 A 
ATOM      4  C4  DEN d   1       0.576  -2.065  -0.041  0.00  0.00     0.027 A 
ATOM      5  C5  DEN d   1      -0.179  -2.859  -0.876  0.00  0.00    -0.003 A 
ATOM      6  C6  DEN d   1      -0.839  -2.354  -1.965  0.00  0.00     0.001 A 
ATOM      7  C7  DEN d   1      -0.721  -1.024  -2.273  0.00  0.00     0.017 A 
ATOM      8  C8  DEN d   1       0.032  -0.216  -1.432  0.00  0.00    -0.094 A 
ATOM      9  C9  DEN d   1       0.702  -0.748  -0.343  0.00  0.00    -0.072 A 
ENDROOT
TORSDOF 0
ENDMDL
