MODEL 1
REMARK minimizedAffinity 9.55369759
REMARK minimizedRMSD -1
REMARK  0 active torsions:
REMARK  status: ('A' for Active; 'I' for Inactive)
ROOT
ATOM      1  C1  DEN d   1      -0.182   0.977  -0.407  0.00  0.00     0.130 A 
ATOM      2  C2  DEN d   1       0.146   2.230  -1.081  0.00  0.00    -0.031 A 
ATOM      3  C3  DEN d   1       1.330   2.810  -0.415  0.00  0.00     0.027 A 
ATOM      4  C4  DEN d   1       2.682   1.891   1.580  0.00  0.00     0.027 A 
ATOM      5  C5  DEN d   1       2.777   0.866   2.494  0.00  0.00    -0.003 A 
ATOM      6  C6  DEN d   1       1.880  -0.169   2.527  0.00  0.00     0.001 A 
ATOM      7  C7  DEN d   1       0.874  -0.225   1.599  0.00  0.00     0.017 A 
ATOM      8  C8  DEN d   1       0.767   0.810   0.679  0.00  0.00    -0.094 A 
ATOM      9  C9  DEN d   1       1.691   1.841   0.654  0.00  0.00    -0.072 A 
ENDROOT
TORSDOF 0
ENDMDL
