MODEL 1
REMARK minimizedAffinity 9.85122585
REMARK minimizedRMSD -1
REMARK  0 active torsions:
REMARK  status: ('A' for Active; 'I' for Inactive)
ROOT
ATOM      1  C1  DEN d   1       1.075   0.108   0.524  0.00  0.00     0.130 A 
ATOM      2  C2  DEN d   1       0.899   1.188  -0.444  0.00  0.00    -0.031 A 
ATOM      3  C3  DEN d   1       1.499   2.412   0.124  0.00  0.00     0.027 A 
ATOM      4  C4  DEN d   1       2.681   2.737   2.394  0.00  0.00     0.027 A 
ATOM      5  C5  DEN d   1       3.062   2.112   3.561  0.00  0.00    -0.003 A 
ATOM      6  C6  DEN d   1       2.779   0.796   3.810  0.00  0.00     0.001 A 
ATOM      7  C7  DEN d   1       2.136   0.048   2.859  0.00  0.00     0.017 A 
ATOM      8  C8  DEN d   1       1.742   0.672   1.683  0.00  0.00    -0.094 A 
ATOM      9  C9  DEN d   1       2.048   2.002   1.445  0.00  0.00    -0.072 A 
ENDROOT
TORSDOF 0
ENDMDL
