MODEL 1
REMARK minimizedAffinity -3.74902964
REMARK minimizedRMSD -1
REMARK  2 active torsions:
REMARK  status: ('A' for Active; 'I' for Inactive)
REMARK    1  A    between atoms: C2'_3  and  C1'_4 
REMARK    2  A    between atoms: C1'_4  and  C1_5 
ROOT
ATOM      1  C1  I4B d   1      -0.165   0.220   1.227  0.00  0.00    -0.075 A 
ATOM      2  C2  I4B d   1       1.197   0.051   1.248  0.00  0.00     0.003 A 
ATOM      3  C3  I4B d   1       1.786  -0.882   2.137  0.00  0.00     0.002 A 
ATOM      4  C4  I4B d   1       0.985  -1.582   3.016  0.00  0.00    -0.004 A 
ATOM      5  C5  I4B d   1      -0.397  -1.425   2.978  0.00  0.00     0.002 A 
ATOM      6  C6  I4B d   1      -0.977  -0.528   2.069  0.00  0.00     0.003 A 
ENDROOT
BRANCH   1   7
ATOM      7  C1' I4B d   1      -0.750   1.237   0.300  0.00  0.00     0.060 C 
BRANCH   7   8
ATOM      8  C2' I4B d   1      -0.566   0.736  -1.118  0.00  0.00    -0.013 C 
ATOM      9  C4' I4B d   1      -1.748  -0.082  -1.566  0.00  0.00     0.013 C 
ATOM     10  C3' I4B d   1      -0.364   1.927  -2.007  0.00  0.00     0.013 C 
ENDBRANCH   7   8
ENDBRANCH   1   7
TORSDOF 2
ENDMDL
