MODEL 1
REMARK minimizedAffinity -1.28517902
REMARK minimizedRMSD -1
REMARK  2 active torsions:
REMARK  status: ('A' for Active; 'I' for Inactive)
REMARK    1  A    between atoms: C2'_3  and  C1'_4 
REMARK    2  A    between atoms: C1'_4  and  C1_5 
ROOT
ATOM      1  C1  I4B d   1       0.546  -0.218   0.688  0.00  0.00    -0.075 A 
ATOM      2  C2  I4B d   1      -0.405  -0.714   1.545  0.00  0.00     0.003 A 
ATOM      3  C3  I4B d   1      -0.056  -1.063   2.872  0.00  0.00     0.002 A 
ATOM      4  C4  I4B d   1       1.257  -0.948   3.282  0.00  0.00    -0.004 A 
ATOM      5  C5  I4B d   1       2.215  -0.423   2.419  0.00  0.00     0.002 A 
ATOM      6  C6  I4B d   1       1.855  -0.045   1.117  0.00  0.00     0.003 A 
ENDROOT
BRANCH   1   7
ATOM      7  C1' I4B d   1       0.149   0.109  -0.717  0.00  0.00     0.060 C 
BRANCH   7   8
ATOM      8  C2' I4B d   1      -1.302   0.543  -0.704  0.00  0.00    -0.013 C 
ATOM      9  C4' I4B d   1      -1.490   1.841  -1.445  0.00  0.00     0.013 C 
ATOM     10  C3' I4B d   1      -2.120  -0.554  -1.317  0.00  0.00     0.013 C 
ENDBRANCH   7   8
ENDBRANCH   1   7
TORSDOF 2
ENDMDL
