MODEL 1
REMARK minimizedAffinity 1.30437768
REMARK minimizedRMSD -1
REMARK  2 active torsions:
REMARK  status: ('A' for Active; 'I' for Inactive)
REMARK    1  A    between atoms: C2'_3  and  C1'_4 
REMARK    2  A    between atoms: C1'_4  and  C1_5 
ROOT
ATOM      1  C1  I4B d   1      -1.713  -0.336  -0.257  0.00  0.00    -0.075 A 
ATOM      2  C2  I4B d   1      -2.431  -0.621   0.877  0.00  0.00     0.003 A 
ATOM      3  C3  I4B d   1      -3.668  -1.304   0.785  0.00  0.00     0.002 A 
ATOM      4  C4  I4B d   1      -4.170  -1.637  -0.457  0.00  0.00    -0.004 A 
ATOM      5  C5  I4B d   1      -3.429  -1.367  -1.604  0.00  0.00     0.002 A 
ATOM      6  C6  I4B d   1      -2.187  -0.724  -1.503  0.00  0.00     0.003 A 
ENDROOT
BRANCH   1   7
ATOM      7  C1' I4B d   1      -0.427   0.416  -0.125  0.00  0.00     0.060 C 
BRANCH   7   8
ATOM      8  C2' I4B d   1       0.655  -0.573   0.260  0.00  0.00    -0.013 C 
ATOM      9  C4' I4B d   1       1.472  -0.980  -0.938  0.00  0.00     0.013 C 
ATOM     10  C3' I4B d   1       1.514   0.067   1.309  0.00  0.00     0.013 C 
ENDBRANCH   7   8
ENDBRANCH   1   7
TORSDOF 2
ENDMDL
