MODEL 1
REMARK minimizedAffinity -2.71138954
REMARK minimizedRMSD -1
REMARK  2 active torsions:
REMARK  status: ('A' for Active; 'I' for Inactive)
REMARK    1  A    between atoms: C2'_3  and  C1'_4 
REMARK    2  A    between atoms: C1'_4  and  C1_5 
ROOT
ATOM      1  C1  I4B d   1       0.089   0.739  -0.749  0.00  0.00    -0.075 A 
ATOM      2  C2  I4B d   1       0.606  -0.456  -1.182  0.00  0.00     0.003 A 
ATOM      3  C3  I4B d   1       1.630  -1.098  -0.444  0.00  0.00     0.002 A 
ATOM      4  C4  I4B d   1       2.139  -0.489   0.685  0.00  0.00    -0.004 A 
ATOM      5  C5  I4B d   1       1.597   0.712   1.135  0.00  0.00     0.002 A 
ATOM      6  C6  I4B d   1       0.557   1.324   0.420  0.00  0.00     0.003 A 
ENDROOT
BRANCH   1   7
ATOM      7  C1' I4B d   1      -0.969   1.406  -1.571  0.00  0.00     0.060 C 
BRANCH   7   8
ATOM      8  C2' I4B d   1      -0.491   2.806  -1.899  0.00  0.00    -0.013 C 
ATOM      9  C4' I4B d   1       0.127   2.863  -3.272  0.00  0.00     0.013 C 
ATOM     10  C3' I4B d   1      -1.666   3.732  -1.796  0.00  0.00     0.013 C 
ENDBRANCH   7   8
ENDBRANCH   1   7
TORSDOF 2
ENDMDL
