MODEL 1
REMARK minimizedAffinity -1.78162169
REMARK minimizedRMSD -1
REMARK  2 active torsions:
REMARK  status: ('A' for Active; 'I' for Inactive)
REMARK    1  A    between atoms: C2'_3  and  C1'_4 
REMARK    2  A    between atoms: C1'_4  and  C1_5 
ROOT
ATOM      1  C1  I4B d   1       0.342   0.511  -0.790  0.00  0.00    -0.075 A 
ATOM      2  C2  I4B d   1       1.002  -0.514  -1.420  0.00  0.00     0.003 A 
ATOM      3  C3  I4B d   1       2.103  -1.145  -0.791  0.00  0.00     0.002 A 
ATOM      4  C4  I4B d   1       2.538  -0.689   0.436  0.00  0.00    -0.004 A 
ATOM      5  C5  I4B d   1       1.854   0.336   1.083  0.00  0.00     0.002 A 
ATOM      6  C6  I4B d   1       0.741   0.932   0.472  0.00  0.00     0.003 A 
ENDROOT
BRANCH   1   7
ATOM      7  C1' I4B d   1      -0.797   1.177  -1.496  0.00  0.00     0.060 C 
BRANCH   7   8
ATOM      8  C2' I4B d   1      -0.478   2.654  -1.606  0.00  0.00    -0.013 C 
ATOM      9  C4' I4B d   1       0.515   2.918  -2.707  0.00  0.00     0.013 C 
ATOM     10  C3' I4B d   1      -1.763   3.389  -1.848  0.00  0.00     0.013 C 
ENDBRANCH   7   8
ENDBRANCH   1   7
TORSDOF 2
ENDMDL
