MODEL 1
REMARK minimizedAffinity 1.09290719
REMARK minimizedRMSD -1
REMARK  2 active torsions:
REMARK  status: ('A' for Active; 'I' for Inactive)
REMARK    1  A    between atoms: C2'_3  and  C1'_4 
REMARK    2  A    between atoms: C1'_4  and  C1_5 
ROOT
ATOM      1  C1  I4B d   1      -1.191  -0.336  -0.651  0.00  0.00    -0.075 A 
ATOM      2  C2  I4B d   1       0.023  -0.216  -1.280  0.00  0.00     0.003 A 
ATOM      3  C3  I4B d   1       1.222  -0.244  -0.527  0.00  0.00     0.002 A 
ATOM      4  C4  I4B d   1       1.159  -0.343   0.847  0.00  0.00    -0.004 A 
ATOM      5  C5  I4B d   1      -0.072  -0.489   1.482  0.00  0.00     0.002 A 
ATOM      6  C6  I4B d   1      -1.254  -0.498   0.727  0.00  0.00     0.003 A 
ENDROOT
BRANCH   1   7
ATOM      7  C1' I4B d   1      -2.439  -0.269  -1.474  0.00  0.00     0.060 C 
BRANCH   7   8
ATOM      8  C2' I4B d   1      -3.052  -1.654  -1.504  0.00  0.00    -0.013 C 
ATOM      9  C4' I4B d   1      -4.275  -1.728  -0.628  0.00  0.00     0.013 C 
ATOM     10  C3' I4B d   1      -3.387  -1.981  -2.929  0.00  0.00     0.013 C 
ENDBRANCH   7   8
ENDBRANCH   1   7
TORSDOF 2
ENDMDL
