MODEL 1
REMARK minimizedAffinity -0.443701208
REMARK minimizedRMSD -1
REMARK  1 active torsions:
REMARK  status: ('A' for Active; 'I' for Inactive)
REMARK    1  A    between atoms: C3_4  and  O_7 
ROOT
ATOM      1  C   UNL d   1       0.495  -1.844   0.819  0.00  0.00    -0.033 A 
ATOM      2  C1  UNL d   1       0.254  -3.209   0.650  0.00  0.00     0.039 A 
ATOM      3  C2  UNL d   1       1.287  -4.057   0.245  0.00  0.00    -0.080 A 
ATOM      4  C3  UNL d   1       2.554  -3.528   0.014  0.00  0.00     0.150 A 
ATOM      5  C4  UNL d   1       2.802  -2.170   0.184  0.00  0.00    -0.007 A 
ATOM      6  C5  UNL d   1       1.769  -1.325   0.588  0.00  0.00     0.039 A 
ENDROOT
BRANCH   4   7
ATOM      7  O   UNL d   1       3.592  -4.316  -0.387  0.00  0.00    -0.526 OA
ATOM      8  H5  UNL d   1       3.267  -5.225  -0.491  0.00  0.00     0.418 HD
ENDBRANCH   4   7
TORSDOF 1
ENDMDL
