MODEL 1
REMARK minimizedAffinity 5.70591593
REMARK minimizedRMSD -1
REMARK  1 active torsions:
REMARK  status: ('A' for Active; 'I' for Inactive)
REMARK    1  A    between atoms: C3_4  and  O_7 
ROOT
ATOM      1  C   UNL d   1      -0.408  -0.623   0.827  0.00  0.00    -0.033 A 
ATOM      2  C1  UNL d   1       0.889  -0.715   1.335  0.00  0.00     0.039 A 
ATOM      3  C2  UNL d   1       1.612  -1.902   1.197  0.00  0.00    -0.080 A 
ATOM      4  C3  UNL d   1       1.028  -2.986   0.549  0.00  0.00     0.150 A 
ATOM      5  C4  UNL d   1      -0.263  -2.900   0.037  0.00  0.00    -0.007 A 
ATOM      6  C5  UNL d   1      -0.983  -1.715   0.176  0.00  0.00     0.039 A 
ENDROOT
BRANCH   4   7
ATOM      7  O   UNL d   1       1.692  -4.167   0.395  0.00  0.00    -0.526 OA
ATOM      8  H5  UNL d   1       2.561  -4.089   0.823  0.00  0.00     0.418 HD
ENDBRANCH   4   7
TORSDOF 1
ENDMDL
