MODEL 1
REMARK minimizedAffinity 0.355111599
REMARK minimizedRMSD -1
REMARK  1 active torsions:
REMARK  status: ('A' for Active; 'I' for Inactive)
REMARK    1  A    between atoms: C3_4  and  O_7 
ROOT
ATOM      1  C   UNL d   1      -0.335  -0.635   0.601  0.00  0.00    -0.033 A 
ATOM      2  C1  UNL d   1       1.033  -0.757   0.854  0.00  0.00     0.039 A 
ATOM      3  C2  UNL d   1       1.658  -2.000   0.735  0.00  0.00    -0.080 A 
ATOM      4  C3  UNL d   1       0.906  -3.110   0.362  0.00  0.00     0.150 A 
ATOM      5  C4  UNL d   1      -0.457  -2.995   0.105  0.00  0.00    -0.007 A 
ATOM      6  C5  UNL d   1      -1.079  -1.753   0.225  0.00  0.00     0.039 A 
ENDROOT
BRANCH   4   7
ATOM      7  O   UNL d   1       1.470  -4.345   0.237  0.00  0.00    -0.526 OA
ATOM      8  H5  UNL d   1       2.411  -4.278   0.474  0.00  0.00     0.418 HD
ENDBRANCH   4   7
TORSDOF 1
ENDMDL
