MODEL 1
REMARK minimizedAffinity -2.50746512
REMARK minimizedRMSD -1
REMARK  1 active torsions:
REMARK  status: ('A' for Active; 'I' for Inactive)
REMARK    1  A    between atoms: C3_4  and  O_7 
ROOT
ATOM      1  C   UNL d   1       0.061  -1.599   0.676  0.00  0.00    -0.033 A 
ATOM      2  C1  UNL d   1      -0.088  -2.976   0.500  0.00  0.00     0.039 A 
ATOM      3  C2  UNL d   1       1.028  -3.771   0.231  0.00  0.00    -0.080 A 
ATOM      4  C3  UNL d   1       2.284  -3.179   0.143  0.00  0.00     0.150 A 
ATOM      5  C4  UNL d   1       2.440  -1.808   0.321  0.00  0.00    -0.007 A 
ATOM      6  C5  UNL d   1       1.325  -1.015   0.589  0.00  0.00     0.039 A 
ENDROOT
BRANCH   4   7
ATOM      7  O   UNL d   1       3.402  -3.913  -0.122  0.00  0.00    -0.526 OA
ATOM      8  H5  UNL d   1       3.138  -4.840  -0.251  0.00  0.00     0.418 HD
ENDBRANCH   4   7
TORSDOF 1
ENDMDL
