MODEL 1
REMARK minimizedAffinity -0.241441622
REMARK minimizedRMSD -1
REMARK  1 active torsions:
REMARK  status: ('A' for Active; 'I' for Inactive)
REMARK    1  A    between atoms: C3_4  and  O_7 
ROOT
ATOM      1  C   UNL d   1       0.602  -1.694   1.062  0.00  0.00    -0.033 A 
ATOM      2  C1  UNL d   1       1.858  -1.084   1.049  0.00  0.00     0.039 A 
ATOM      3  C2  UNL d   1       2.948  -1.737   0.471  0.00  0.00    -0.080 A 
ATOM      4  C3  UNL d   1       2.769  -2.998  -0.091  0.00  0.00     0.150 A 
ATOM      5  C4  UNL d   1       1.520  -3.610  -0.086  0.00  0.00    -0.007 A 
ATOM      6  C5  UNL d   1       0.433  -2.956   0.493  0.00  0.00     0.039 A 
ENDROOT
BRANCH   4   7
ATOM      7  O   UNL d   1       3.804  -3.677  -0.663  0.00  0.00    -0.526 OA
ATOM      8  H5  UNL d   1       4.611  -3.144  -0.568  0.00  0.00     0.418 HD
ENDBRANCH   4   7
TORSDOF 1
ENDMDL
