MODEL 1
REMARK minimizedAffinity -2.4211235
REMARK minimizedRMSD -1
REMARK  1 active torsions:
REMARK  status: ('A' for Active; 'I' for Inactive)
REMARK    1  A    between atoms: C3_4  and  O_7 
ROOT
ATOM      1  C   UNL d   1       0.567   0.079   1.051  0.00  0.00    -0.033 A 
ATOM      2  C1  UNL d   1      -0.673  -0.561   0.988  0.00  0.00     0.039 A 
ATOM      3  C2  UNL d   1      -0.740  -1.937   0.759  0.00  0.00    -0.080 A 
ATOM      4  C3  UNL d   1       0.438  -2.660   0.595  0.00  0.00     0.150 A 
ATOM      5  C4  UNL d   1       1.677  -2.030   0.660  0.00  0.00    -0.007 A 
ATOM      6  C5  UNL d   1       1.742  -0.656   0.888  0.00  0.00     0.039 A 
ENDROOT
BRANCH   4   7
ATOM      7  O   UNL d   1       0.423  -4.004   0.364  0.00  0.00    -0.526 OA
ATOM      8  H5  UNL d   1      -0.502  -4.297   0.317  0.00  0.00     0.418 HD
ENDBRANCH   4   7
TORSDOF 1
ENDMDL
