MODEL 1
REMARK minimizedAffinity -3.77205086
REMARK minimizedRMSD -1
REMARK  1 active torsions:
REMARK  status: ('A' for Active; 'I' for Inactive)
REMARK    1  A    between atoms: C3_4  and  O_7 
ROOT
ATOM      1  C   UNL d   1      -0.186  -0.212   1.199  0.00  0.00    -0.033 A 
ATOM      2  C1  UNL d   1       1.162  -0.475   1.448  0.00  0.00     0.039 A 
ATOM      3  C2  UNL d   1       1.731  -1.678   1.024  0.00  0.00    -0.080 A 
ATOM      4  C3  UNL d   1       0.941  -2.608   0.354  0.00  0.00     0.150 A 
ATOM      5  C4  UNL d   1      -0.402  -2.351   0.099  0.00  0.00    -0.007 A 
ATOM      6  C5  UNL d   1      -0.968  -1.150   0.523  0.00  0.00     0.039 A 
ENDROOT
BRANCH   4   7
ATOM      7  O   UNL d   1       1.450  -3.798  -0.074  0.00  0.00    -0.526 OA
ATOM      8  H5  UNL d   1       2.382  -3.849   0.197  0.00  0.00     0.418 HD
ENDBRANCH   4   7
TORSDOF 1
ENDMDL
