MODEL 1
REMARK minimizedAffinity -2.28454733
REMARK minimizedRMSD -1
REMARK  1 active torsions:
REMARK  status: ('A' for Active; 'I' for Inactive)
REMARK    1  A    between atoms: C3_4  and  O_7 
ROOT
ATOM      1  C   UNL d   1       0.137  -0.446   0.615  0.00  0.00    -0.033 A 
ATOM      2  C1  UNL d   1       1.519  -0.552   0.783  0.00  0.00     0.039 A 
ATOM      3  C2  UNL d   1       2.134  -1.805   0.752  0.00  0.00    -0.080 A 
ATOM      4  C3  UNL d   1       1.357  -2.942   0.550  0.00  0.00     0.150 A 
ATOM      5  C4  UNL d   1      -0.020  -2.844   0.377  0.00  0.00    -0.007 A 
ATOM      6  C5  UNL d   1      -0.632  -1.592   0.410  0.00  0.00     0.039 A 
ENDROOT
BRANCH   4   7
ATOM      7  O   UNL d   1       1.912  -4.187   0.516  0.00  0.00    -0.526 OA
ATOM      8  H5  UNL d   1       2.866  -4.103   0.678  0.00  0.00     0.418 HD
ENDBRANCH   4   7
TORSDOF 1
ENDMDL
