MODEL 1
REMARK minimizedAffinity -2.09429884
REMARK minimizedRMSD -1
REMARK  1 active torsions:
REMARK  status: ('A' for Active; 'I' for Inactive)
REMARK    1  A    between atoms: C3_4  and  O_7 
ROOT
ATOM      1  C   UNL d   1       3.265  -3.161  -0.124  0.00  0.00    -0.033 A 
ATOM      2  C1  UNL d   1       3.046  -1.809   0.148  0.00  0.00     0.039 A 
ATOM      3  C2  UNL d   1       1.779  -1.370   0.539  0.00  0.00    -0.080 A 
ATOM      4  C3  UNL d   1       0.743  -2.292   0.657  0.00  0.00     0.150 A 
ATOM      5  C4  UNL d   1       0.955  -3.641   0.392  0.00  0.00    -0.007 A 
ATOM      6  C5  UNL d   1       2.220  -4.077   0.000  0.00  0.00     0.039 A 
ENDROOT
BRANCH   4   7
ATOM      7  O   UNL d   1      -0.511  -1.910   1.032  0.00  0.00    -0.526 OA
ATOM      8  H5  UNL d   1      -0.516  -0.946   1.153  0.00  0.00     0.418 HD
ENDBRANCH   4   7
TORSDOF 1
ENDMDL
