MODEL 1
REMARK minimizedAffinity -5.54361629
REMARK minimizedRMSD -1
REMARK  1 active torsions:
REMARK  status: ('A' for Active; 'I' for Inactive)
REMARK    1  A    between atoms: C3_4  and  O_7 
ROOT
ATOM      1  C   UNL d   1       0.175  -0.883   1.136  0.00  0.00    -0.033 A 
ATOM      2  C1  UNL d   1      -0.316  -2.190   1.145  0.00  0.00     0.039 A 
ATOM      3  C2  UNL d   1       0.432  -3.222   0.574  0.00  0.00    -0.080 A 
ATOM      4  C3  UNL d   1       1.667  -2.934  -0.000  0.00  0.00     0.150 A 
ATOM      5  C4  UNL d   1       2.163  -1.634  -0.009  0.00  0.00    -0.007 A 
ATOM      6  C5  UNL d   1       1.415  -0.605   0.561  0.00  0.00     0.039 A 
ENDROOT
BRANCH   4   7
ATOM      7  O   UNL d   1       2.431  -3.907  -0.574  0.00  0.00    -0.526 OA
ATOM      8  H5  UNL d   1       1.948  -4.749  -0.519  0.00  0.00     0.418 HD
ENDBRANCH   4   7
TORSDOF 1
ENDMDL
