MODEL 1
REMARK minimizedAffinity -3.46120143
REMARK minimizedRMSD -1
REMARK  1 active torsions:
REMARK  status: ('A' for Active; 'I' for Inactive)
REMARK    1  A    between atoms: C3_4  and  O_7 
ROOT
ATOM      1  C   UNL d   1       0.033  -0.581   0.835  0.00  0.00    -0.033 A 
ATOM      2  C1  UNL d   1      -0.397  -1.869   0.509  0.00  0.00     0.039 A 
ATOM      3  C2  UNL d   1       0.521  -2.818   0.055  0.00  0.00    -0.080 A 
ATOM      4  C3  UNL d   1       1.862  -2.468  -0.068  0.00  0.00     0.150 A 
ATOM      5  C4  UNL d   1       2.297  -1.188   0.258  0.00  0.00    -0.007 A 
ATOM      6  C5  UNL d   1       1.380  -0.241   0.711  0.00  0.00     0.039 A 
ENDROOT
BRANCH   4   7
ATOM      7  O   UNL d   1       2.794  -3.359  -0.512  0.00  0.00    -0.526 OA
ATOM      8  H5  UNL d   1       2.344  -4.193  -0.727  0.00  0.00     0.418 HD
ENDBRANCH   4   7
TORSDOF 1
ENDMDL
