MODEL 1
REMARK minimizedAffinity -4.30509043
REMARK minimizedRMSD -1
REMARK  1 active torsions:
REMARK  status: ('A' for Active; 'I' for Inactive)
REMARK    1  A    between atoms: C3_4  and  O_7 
ROOT
ATOM      1  C   UNL d   1       2.568  -3.419   0.128  0.00  0.00    -0.033 A 
ATOM      2  C1  UNL d   1       2.894  -2.103   0.463  0.00  0.00     0.039 A 
ATOM      3  C2  UNL d   1       1.885  -1.156   0.643  0.00  0.00    -0.080 A 
ATOM      4  C3  UNL d   1       0.555  -1.536   0.486  0.00  0.00     0.150 A 
ATOM      5  C4  UNL d   1       0.222  -2.846   0.157  0.00  0.00    -0.007 A 
ATOM      6  C5  UNL d   1       1.231  -3.791  -0.023  0.00  0.00     0.039 A 
ENDROOT
BRANCH   4   7
ATOM      7  O   UNL d   1      -0.465  -0.646   0.647  0.00  0.00    -0.526 OA
ATOM      8  H5  UNL d   1      -0.084   0.226   0.844  0.00  0.00     0.418 HD
ENDBRANCH   4   7
TORSDOF 1
ENDMDL
