MODEL 1
REMARK minimizedAffinity -0.33295387
REMARK minimizedRMSD -1
REMARK  1 active torsions:
REMARK  status: ('A' for Active; 'I' for Inactive)
REMARK    1  A    between atoms: C3_4  and  O_7 
ROOT
ATOM      1  C   UNL d   1       0.844   0.018   0.889  0.00  0.00    -0.033 A 
ATOM      2  C1  UNL d   1      -0.339  -0.622   1.265  0.00  0.00     0.039 A 
ATOM      3  C2  UNL d   1      -0.493  -1.992   1.047  0.00  0.00    -0.080 A 
ATOM      4  C3  UNL d   1       0.541  -2.710   0.453  0.00  0.00     0.150 A 
ATOM      5  C4  UNL d   1       1.723  -2.080   0.079  0.00  0.00    -0.007 A 
ATOM      6  C5  UNL d   1       1.875  -0.711   0.297  0.00  0.00     0.039 A 
ENDROOT
BRANCH   4   7
ATOM      7  O   UNL d   1       0.434  -4.048   0.215  0.00  0.00    -0.526 OA
ATOM      8  H5  UNL d   1      -0.447  -4.342   0.499  0.00  0.00     0.418 HD
ENDBRANCH   4   7
TORSDOF 1
ENDMDL
