MODEL 1
REMARK minimizedAffinity -3.84461379
REMARK minimizedRMSD -1
REMARK  1 active torsions:
REMARK  status: ('A' for Active; 'I' for Inactive)
REMARK    1  A    between atoms: C3_4  and  O_7 
ROOT
ATOM      1  C   UNL d   1       0.276  -1.046   0.745  0.00  0.00    -0.033 A 
ATOM      2  C1  UNL d   1      -0.097  -2.392   0.761  0.00  0.00     0.039 A 
ATOM      3  C2  UNL d   1       0.854  -3.384   0.518  0.00  0.00    -0.080 A 
ATOM      4  C3  UNL d   1       2.173  -3.019   0.262  0.00  0.00     0.150 A 
ATOM      5  C4  UNL d   1       2.552  -1.681   0.249  0.00  0.00    -0.007 A 
ATOM      6  C5  UNL d   1       1.601  -0.691   0.491  0.00  0.00     0.039 A 
ENDROOT
BRANCH   4   7
ATOM      7  O   UNL d   1       3.135  -3.953   0.015  0.00  0.00    -0.526 OA
ATOM      8  H5  UNL d   1       2.722  -4.832   0.027  0.00  0.00     0.418 HD
ENDBRANCH   4   7
TORSDOF 1
ENDMDL
