MODEL 1
REMARK minimizedAffinity -3.07020831
REMARK minimizedRMSD -1
REMARK  1 active torsions:
REMARK  status: ('A' for Active; 'I' for Inactive)
REMARK    1  A    between atoms: C3_4  and  O_7 
ROOT
ATOM      1  C   UNL d   1      -0.031  -1.144   0.818  0.00  0.00    -0.033 A 
ATOM      2  C1  UNL d   1      -0.030  -2.540   0.846  0.00  0.00     0.039 A 
ATOM      3  C2  UNL d   1       1.068  -3.249   0.355  0.00  0.00    -0.080 A 
ATOM      4  C3  UNL d   1       2.158  -2.551  -0.159  0.00  0.00     0.150 A 
ATOM      5  C4  UNL d   1       2.165  -1.161  -0.186  0.00  0.00    -0.007 A 
ATOM      6  C5  UNL d   1       1.068  -0.454   0.304  0.00  0.00     0.039 A 
ENDROOT
BRANCH   4   7
ATOM      7  O   UNL d   1       3.250  -3.200  -0.654  0.00  0.00    -0.526 OA
ATOM      8  H5  UNL d   1       3.092  -4.157  -0.597  0.00  0.00     0.418 HD
ENDBRANCH   4   7
TORSDOF 1
ENDMDL
