MODEL 1
REMARK minimizedAffinity -4.82165432
REMARK minimizedRMSD -1
REMARK  0 active torsions:
REMARK  status: ('A' for Active; 'I' for Inactive)
ROOT
ATOM      1  C4' PXY d   1      -3.579  -2.732   4.298  0.00  0.00     0.077 C 
ATOM      2  C1' PXY d   1      -1.052   2.048   2.252  0.00  0.00     0.077 C 
ATOM      3  C1  PXY d   1      -1.724   0.795   2.779  0.00  0.00    -0.082 A 
ATOM      4  C2  PXY d   1      -1.612   0.482   4.060  0.00  0.00     0.003 A 
ATOM      5  C3  PXY d   1      -2.185  -0.665   4.546  0.00  0.00     0.003 A 
ATOM      6  C4  PXY d   1      -2.926  -1.471   3.724  0.00  0.00    -0.082 A 
ATOM      7  C5  PXY d   1      -3.054  -1.153   2.418  0.00  0.00     0.003 A 
ATOM      8  C6  PXY d   1      -2.429  -0.007   1.936  0.00  0.00     0.003 A 
ENDROOT
TORSDOF 0
ENDMDL
