MODEL 1
REMARK minimizedAffinity -0.515061617
REMARK minimizedRMSD -1
REMARK  0 active torsions:
REMARK  status: ('A' for Active; 'I' for Inactive)
ROOT
ATOM      1  C4' PXY d   1       2.282  -0.517  -2.022  0.00  0.00     0.077 C 
ATOM      2  C1' PXY d   1      -2.625   0.397   0.895  0.00  0.00     0.077 C 
ATOM      3  C1  PXY d   1      -1.341   0.167   0.122  0.00  0.00    -0.082 A 
ATOM      4  C2  PXY d   1      -0.781  -1.031   0.125  0.00  0.00     0.003 A 
ATOM      5  C3  PXY d   1       0.397  -1.248  -0.542  0.00  0.00     0.003 A 
ATOM      6  C4  PXY d   1       0.980  -0.242  -1.264  0.00  0.00    -0.082 A 
ATOM      7  C5  PXY d   1       0.409   0.981  -1.281  0.00  0.00     0.003 A 
ATOM      8  C6  PXY d   1      -0.765   1.192  -0.564  0.00  0.00     0.003 A 
ENDROOT
TORSDOF 0
ENDMDL
