MODEL 1
REMARK minimizedAffinity 4.90771484
REMARK minimizedRMSD -1
REMARK  0 active torsions:
REMARK  status: ('A' for Active; 'I' for Inactive)
ROOT
ATOM      1  C4' PXY d   1      -0.321  -0.355  -0.540  0.00  0.00     0.077 C 
ATOM      2  C1' PXY d   1      -3.700  -1.835   3.911  0.00  0.00     0.077 C 
ATOM      3  C1  PXY d   1      -2.805  -1.443   2.752  0.00  0.00    -0.082 A 
ATOM      4  C2  PXY d   1      -3.343  -1.145   1.581  0.00  0.00     0.003 A 
ATOM      5  C3  PXY d   1      -2.547  -0.819   0.514  0.00  0.00     0.003 A 
ATOM      6  C4  PXY d   1      -1.187  -0.747   0.661  0.00  0.00    -0.082 A 
ATOM      7  C5  PXY d   1      -0.630  -1.040   1.855  0.00  0.00     0.003 A 
ATOM      8  C6  PXY d   1      -1.454  -1.409   2.915  0.00  0.00     0.003 A 
ENDROOT
TORSDOF 0
ENDMDL
