MODEL 1
REMARK minimizedAffinity -0.172166973
REMARK minimizedRMSD -1
REMARK  0 active torsions:
REMARK  status: ('A' for Active; 'I' for Inactive)
ROOT
ATOM      1  C4' PXY d   1       0.180   0.059   1.205  0.00  0.00     0.077 C 
ATOM      2  C1' PXY d   1       1.372   0.394  -4.441  0.00  0.00     0.077 C 
ATOM      3  C1  PXY d   1       1.068   0.316  -2.958  0.00  0.00    -0.082 A 
ATOM      4  C2  PXY d   1       0.579  -0.803  -2.449  0.00  0.00     0.003 A 
ATOM      5  C3  PXY d   1       0.269  -0.881  -1.115  0.00  0.00     0.003 A 
ATOM      6  C4  PXY d   1       0.510   0.181  -0.285  0.00  0.00    -0.082 A 
ATOM      7  C5  PXY d   1       1.019   1.322  -0.795  0.00  0.00     0.003 A 
ATOM      8  C6  PXY d   1       1.288   1.395  -2.159  0.00  0.00     0.003 A 
ENDROOT
TORSDOF 0
ENDMDL
