MODEL 1
REMARK minimizedAffinity -1.27814889
REMARK minimizedRMSD -1
REMARK  0 active torsions:
REMARK  status: ('A' for Active; 'I' for Inactive)
ROOT
ATOM      1  C4' PXY d   1       2.272   2.982  -0.430  0.00  0.00     0.077 C 
ATOM      2  C1' PXY d   1      -2.357  -0.479  -0.539  0.00  0.00     0.077 C 
ATOM      3  C1  PXY d   1      -1.137   0.420  -0.504  0.00  0.00    -0.082 A 
ATOM      4  C2  PXY d   1      -1.284   1.728  -0.637  0.00  0.00     0.003 A 
ATOM      5  C3  PXY d   1      -0.188   2.552  -0.639  0.00  0.00     0.003 A 
ATOM      6  C4  PXY d   1       1.067   2.037  -0.450  0.00  0.00    -0.082 A 
ATOM      7  C5  PXY d   1       1.224   0.705  -0.303  0.00  0.00     0.003 A 
ATOM      8  C6  PXY d   1       0.103  -0.119  -0.345  0.00  0.00     0.003 A 
ENDROOT
TORSDOF 0
ENDMDL
