MODEL 1
REMARK minimizedAffinity -2.86304569
REMARK minimizedRMSD -1
REMARK  0 active torsions:
REMARK  status: ('A' for Active; 'I' for Inactive)
ROOT
ATOM      1  C4' PXY d   1       0.606   2.252  -2.266  0.00  0.00     0.077 C 
ATOM      2  C1' PXY d   1       0.973  -3.061  -0.019  0.00  0.00     0.077 C 
ATOM      3  C1  PXY d   1       0.890  -1.668  -0.612  0.00  0.00    -0.082 A 
ATOM      4  C2  PXY d   1      -0.047  -0.833  -0.190  0.00  0.00     0.003 A 
ATOM      5  C3  PXY d   1      -0.157   0.419  -0.738  0.00  0.00     0.003 A 
ATOM      6  C4  PXY d   1       0.734   0.840  -1.689  0.00  0.00    -0.082 A 
ATOM      7  C5  PXY d   1       1.698  -0.003  -2.117  0.00  0.00     0.003 A 
ATOM      8  C6  PXY d   1       1.768  -1.284  -1.577  0.00  0.00     0.003 A 
ENDROOT
TORSDOF 0
ENDMDL
