MODEL 1
REMARK minimizedAffinity -2.21435976
REMARK minimizedRMSD -1
REMARK  0 active torsions:
REMARK  status: ('A' for Active; 'I' for Inactive)
ROOT
ATOM      1  C4' PXY d   1      -3.423  -2.224   3.389  0.00  0.00     0.077 C 
ATOM      2  C1' PXY d   1      -1.284   2.908   1.806  0.00  0.00     0.077 C 
ATOM      3  C1  PXY d   1      -1.848   1.560   2.209  0.00  0.00    -0.082 A 
ATOM      4  C2  PXY d   1      -2.198   1.347   3.467  0.00  0.00     0.003 A 
ATOM      5  C3  PXY d   1      -2.681   0.123   3.855  0.00  0.00     0.003 A 
ATOM      6  C4  PXY d   1      -2.857  -0.875   2.935  0.00  0.00    -0.082 A 
ATOM      7  C5  PXY d   1      -2.512  -0.662   1.648  0.00  0.00     0.003 A 
ATOM      8  C6  PXY d   1      -1.986   0.573   1.282  0.00  0.00     0.003 A 
ENDROOT
TORSDOF 0
ENDMDL
