MODEL 1
REMARK minimizedAffinity -4.93554878
REMARK minimizedRMSD -1
REMARK  0 active torsions:
REMARK  status: ('A' for Active; 'I' for Inactive)
ROOT
ATOM      1  C4' PXY d   1      -1.767   0.190   2.434  0.00  0.00     0.077 C 
ATOM      2  C1' PXY d   1       1.921  -1.572  -1.654  0.00  0.00     0.077 C 
ATOM      3  C1  PXY d   1       0.952  -1.099  -0.588  0.00  0.00    -0.082 A 
ATOM      4  C2  PXY d   1       1.005  -1.626   0.624  0.00  0.00     0.003 A 
ATOM      5  C3  PXY d   1       0.116  -1.233   1.591  0.00  0.00     0.003 A 
ATOM      6  C4  PXY d   1      -0.802  -0.251   1.329  0.00  0.00    -0.082 A 
ATOM      7  C5  PXY d   1      -0.855   0.299   0.098  0.00  0.00     0.003 A 
ATOM      8  C6  PXY d   1       0.029  -0.143  -0.881  0.00  0.00     0.003 A 
ENDROOT
TORSDOF 0
ENDMDL
