MODEL 1
REMARK minimizedAffinity -4.78262758
REMARK minimizedRMSD -1
REMARK  0 active torsions:
REMARK  status: ('A' for Active; 'I' for Inactive)
ROOT
ATOM      1  C4' PXY d   1       1.526   3.307  -2.725  0.00  0.00     0.077 C 
ATOM      2  C1' PXY d   1       0.319  -1.704  -0.109  0.00  0.00     0.077 C 
ATOM      3  C1  PXY d   1       0.648  -0.392  -0.793  0.00  0.00    -0.082 A 
ATOM      4  C2  PXY d   1      -0.273   0.555  -0.869  0.00  0.00     0.003 A 
ATOM      5  C3  PXY d   1      -0.002   1.736  -1.512  0.00  0.00     0.003 A 
ATOM      6  C4  PXY d   1       1.241   1.970  -2.036  0.00  0.00    -0.082 A 
ATOM      7  C5  PXY d   1       2.189   1.013  -1.952  0.00  0.00     0.003 A 
ATOM      8  C6  PXY d   1       1.882  -0.194  -1.332  0.00  0.00     0.003 A 
ENDROOT
TORSDOF 0
ENDMDL
