MODEL 1
REMARK minimizedAffinity -3.38644052
REMARK minimizedRMSD -1
REMARK  0 active torsions:
REMARK  status: ('A' for Active; 'I' for Inactive)
ROOT
ATOM      1  C4' PXY d   1       1.389   2.207  -1.405  0.00  0.00     0.077 C 
ATOM      2  C1' PXY d   1       1.814  -3.441  -0.248  0.00  0.00     0.077 C 
ATOM      3  C1  PXY d   1       1.690  -1.961  -0.554  0.00  0.00    -0.082 A 
ATOM      4  C2  PXY d   1       2.753  -1.285  -0.957  0.00  0.00     0.003 A 
ATOM      5  C3  PXY d   1       2.666   0.060  -1.207  0.00  0.00     0.003 A 
ATOM      6  C4  PXY d   1       1.466   0.709  -1.094  0.00  0.00    -0.082 A 
ATOM      7  C5  PXY d   1       0.374   0.024  -0.693  0.00  0.00     0.003 A 
ATOM      8  C6  PXY d   1       0.493  -1.332  -0.404  0.00  0.00     0.003 A 
ENDROOT
TORSDOF 0
ENDMDL
