MODEL 1
REMARK minimizedAffinity -3.43238139
REMARK minimizedRMSD -1
REMARK  0 active torsions:
REMARK  status: ('A' for Active; 'I' for Inactive)
ROOT
ATOM      1  C4' PXY d   1       0.913   2.183  -2.084  0.00  0.00     0.077 C 
ATOM      2  C1' PXY d   1       2.130  -3.171  -0.276  0.00  0.00     0.077 C 
ATOM      3  C1  PXY d   1       1.798  -1.770  -0.750  0.00  0.00    -0.082 A 
ATOM      4  C2  PXY d   1       2.681  -1.096  -1.468  0.00  0.00     0.003 A 
ATOM      5  C3  PXY d   1       2.410   0.185  -1.877  0.00  0.00     0.003 A 
ATOM      6  C4  PXY d   1       1.201   0.761  -1.593  0.00  0.00    -0.082 A 
ATOM      7  C5  PXY d   1       0.291   0.076  -0.870  0.00  0.00     0.003 A 
ATOM      8  C6  PXY d   1       0.601  -1.207  -0.429  0.00  0.00     0.003 A 
ENDROOT
TORSDOF 0
ENDMDL
