MODEL 1
REMARK minimizedAffinity -4.8815484
REMARK minimizedRMSD -1
REMARK  0 active torsions:
REMARK  status: ('A' for Active; 'I' for Inactive)
ROOT
ATOM      1  C4' PXY d   1      -1.222  -0.103   0.469  0.00  0.00     0.077 C 
ATOM      2  C1' PXY d   1       4.005  -0.405  -1.980  0.00  0.00     0.077 C 
ATOM      3  C1  PXY d   1       2.630  -0.336  -1.344  0.00  0.00    -0.082 A 
ATOM      4  C2  PXY d   1       2.195   0.811  -0.850  0.00  0.00     0.003 A 
ATOM      5  C3  PXY d   1       0.968   0.884  -0.243  0.00  0.00     0.003 A 
ATOM      6  C4  PXY d   1       0.155  -0.217  -0.190  0.00  0.00    -0.082 A 
ATOM      7  C5  PXY d   1       0.588  -1.389  -0.702  0.00  0.00     0.003 A 
ATOM      8  C6  PXY d   1       1.854  -1.451  -1.277  0.00  0.00     0.003 A 
ENDROOT
TORSDOF 0
ENDMDL
