MODEL 1
REMARK minimizedAffinity -3.5938406
REMARK minimizedRMSD -1
REMARK  0 active torsions:
REMARK  status: ('A' for Active; 'I' for Inactive)
ROOT
ATOM      1  C4' PXY d   1      -3.044  -1.852   3.860  0.00  0.00     0.077 C 
ATOM      2  C1' PXY d   1      -0.857   1.495  -0.314  0.00  0.00     0.077 C 
ATOM      3  C1  PXY d   1      -1.433   0.628   0.787  0.00  0.00    -0.082 A 
ATOM      4  C2  PXY d   1      -1.025  -0.624   0.916  0.00  0.00     0.003 A 
ATOM      5  C3  PXY d   1      -1.560  -1.432   1.886  0.00  0.00     0.003 A 
ATOM      6  C4  PXY d   1      -2.483  -0.937   2.768  0.00  0.00    -0.082 A 
ATOM      7  C5  PXY d   1      -2.896   0.342   2.651  0.00  0.00     0.003 A 
ATOM      8  C6  PXY d   1      -2.372   1.134   1.633  0.00  0.00     0.003 A 
ENDROOT
TORSDOF 0
ENDMDL
