MODEL 1
REMARK minimizedAffinity 6.66070318
REMARK minimizedRMSD -1
REMARK  0 active torsions:
REMARK  status: ('A' for Active; 'I' for Inactive)
ROOT
ATOM      1  C4' PXY d   1      -4.928  -3.145   3.060  0.00  0.00     0.077 C 
ATOM      2  C1' PXY d   1      -0.653   0.739   2.815  0.00  0.00     0.077 C 
ATOM      3  C1  PXY d   1      -1.769  -0.285   2.890  0.00  0.00    -0.082 A 
ATOM      4  C2  PXY d   1      -2.470  -0.568   1.805  0.00  0.00     0.003 A 
ATOM      5  C3  PXY d   1      -3.503  -1.468   1.862  0.00  0.00     0.003 A 
ATOM      6  C4  PXY d   1      -3.786  -2.125   3.029  0.00  0.00    -0.082 A 
ATOM      7  C5  PXY d   1      -3.068  -1.849   4.139  0.00  0.00     0.003 A 
ATOM      8  C6  PXY d   1      -2.050  -0.902   4.069  0.00  0.00     0.003 A 
ENDROOT
TORSDOF 0
ENDMDL
