MODEL 1
REMARK minimizedAffinity -1.31132603
REMARK minimizedRMSD -1
REMARK  0 active torsions:
REMARK  status: ('A' for Active; 'I' for Inactive)
ROOT
ATOM      1  C4' PXY d   1      -3.773  -2.929   4.460  0.00  0.00     0.077 C 
ATOM      2  C1' PXY d   1      -1.534   2.175   2.926  0.00  0.00     0.077 C 
ATOM      3  C1  PXY d   1      -2.119   0.832   3.316  0.00  0.00    -0.082 A 
ATOM      4  C2  PXY d   1      -2.976   0.759   4.321  0.00  0.00     0.003 A 
ATOM      5  C3  PXY d   1      -3.490  -0.452   4.708  0.00  0.00     0.003 A 
ATOM      6  C4  PXY d   1      -3.164  -1.593   4.025  0.00  0.00    -0.082 A 
ATOM      7  C5  PXY d   1      -2.298  -1.525   2.992  0.00  0.00     0.003 A 
ATOM      8  C6  PXY d   1      -1.756  -0.292   2.641  0.00  0.00     0.003 A 
ENDROOT
TORSDOF 0
ENDMDL
