MODEL 1
REMARK minimizedAffinity -4.5243659
REMARK minimizedRMSD -1
REMARK  0 active torsions:
REMARK  status: ('A' for Active; 'I' for Inactive)
ROOT
ATOM      1  C4' PXY d   1       3.270  -0.015  -2.582  0.00  0.00     0.077 C 
ATOM      2  C1' PXY d   1      -1.071  -0.564   1.195  0.00  0.00     0.077 C 
ATOM      3  C1  PXY d   1       0.071  -0.433   0.207  0.00  0.00    -0.082 A 
ATOM      4  C2  PXY d   1       0.560   0.765  -0.072  0.00  0.00     0.003 A 
ATOM      5  C3  PXY d   1       1.571   0.905  -0.987  0.00  0.00     0.003 A 
ATOM      6  C4  PXY d   1       2.123  -0.196  -1.584  0.00  0.00    -0.082 A 
ATOM      7  C5  PXY d   1       1.638  -1.422  -1.296  0.00  0.00     0.003 A 
ATOM      8  C6  PXY d   1       0.583  -1.540  -0.395  0.00  0.00     0.003 A 
ENDROOT
TORSDOF 0
ENDMDL
