MODEL 1
REMARK minimizedAffinity -5.96052408
REMARK minimizedRMSD -1
REMARK  0 active torsions:
REMARK  status: ('A' for Active; 'I' for Inactive)
ROOT
ATOM      1  C4' PXY d   1      -1.509   1.963   2.634  0.00  0.00     0.077 C 
ATOM      2  C1' PXY d   1      -4.833  -2.520   4.139  0.00  0.00     0.077 C 
ATOM      3  C1  PXY d   1      -3.972  -1.338   3.741  0.00  0.00    -0.082 A 
ATOM      4  C2  PXY d   1      -2.698  -1.529   3.437  0.00  0.00     0.003 A 
ATOM      5  C3  PXY d   1      -1.897  -0.467   3.106  0.00  0.00     0.003 A 
ATOM      6  C4  PXY d   1      -2.418   0.797   3.033  0.00  0.00    -0.082 A 
ATOM      7  C5  PXY d   1      -3.719   0.999   3.331  0.00  0.00     0.003 A 
ATOM      8  C6  PXY d   1      -4.505  -0.087   3.705  0.00  0.00     0.003 A 
ENDROOT
TORSDOF 0
ENDMDL
