MODEL 1
REMARK minimizedAffinity -5.76076269
REMARK minimizedRMSD -1
REMARK  0 active torsions:
REMARK  status: ('A' for Active; 'I' for Inactive)
ROOT
ATOM      1  C4' PXY d   1       4.391   0.530  -2.639  0.00  0.00     0.077 C 
ATOM      2  C1' PXY d   1      -0.748  -0.330  -0.135  0.00  0.00     0.077 C 
ATOM      3  C1  PXY d   1       0.605  -0.112  -0.782  0.00  0.00    -0.082 A 
ATOM      4  C2  PXY d   1       0.809   0.964  -1.525  0.00  0.00     0.003 A 
ATOM      5  C3  PXY d   1       2.017   1.160  -2.144  0.00  0.00     0.003 A 
ATOM      6  C4  PXY d   1       3.043   0.274  -1.958  0.00  0.00    -0.082 A 
ATOM      7  C5  PXY d   1       2.847  -0.821  -1.193  0.00  0.00     0.003 A 
ATOM      8  C6  PXY d   1       1.601  -1.023  -0.606  0.00  0.00     0.003 A 
ENDROOT
TORSDOF 0
ENDMDL
