MODEL 1
REMARK minimizedAffinity 0.917850733
REMARK minimizedRMSD -1
REMARK  0 active torsions:
REMARK  status: ('A' for Active; 'I' for Inactive)
ROOT
ATOM      1  C4' PXY d   1       1.580   0.491  -3.987  0.00  0.00     0.077 C 
ATOM      2  C1' PXY d   1      -0.892  -1.022   1.015  0.00  0.00     0.077 C 
ATOM      3  C1  PXY d   1      -0.233  -0.633  -0.294  0.00  0.00    -0.082 A 
ATOM      4  C2  PXY d   1      -0.580   0.497  -0.890  0.00  0.00     0.003 A 
ATOM      5  C3  PXY d   1      -0.017   0.849  -2.090  0.00  0.00     0.003 A 
ATOM      6  C4  PXY d   1       0.948   0.062  -2.660  0.00  0.00    -0.082 A 
ATOM      7  C5  PXY d   1       1.314  -1.086  -2.052  0.00  0.00     0.003 A 
ATOM      8  C6  PXY d   1       0.702  -1.446  -0.855  0.00  0.00     0.003 A 
ENDROOT
TORSDOF 0
ENDMDL
