MODEL 1
REMARK minimizedAffinity -5.69937038
REMARK minimizedRMSD -1
REMARK  0 active torsions:
REMARK  status: ('A' for Active; 'I' for Inactive)
ROOT
ATOM      1  C4' PXY d   1      -1.417   2.320   2.244  0.00  0.00     0.077 C 
ATOM      2  C1' PXY d   1      -3.778  -2.592   4.169  0.00  0.00     0.077 C 
ATOM      3  C1  PXY d   1      -3.169  -1.297   3.668  0.00  0.00    -0.082 A 
ATOM      4  C2  PXY d   1      -2.239  -1.333   2.727  0.00  0.00     0.003 A 
ATOM      5  C3  PXY d   1      -1.656  -0.173   2.285  0.00  0.00     0.003 A 
ATOM      6  C4  PXY d   1      -2.066   1.039   2.773  0.00  0.00    -0.082 A 
ATOM      7  C5  PXY d   1      -3.022   1.084   3.725  0.00  0.00     0.003 A 
ATOM      8  C6  PXY d   1      -3.573  -0.107   4.190  0.00  0.00     0.003 A 
ENDROOT
TORSDOF 0
ENDMDL
