MODEL 1
REMARK minimizedAffinity 0.0772199109
REMARK minimizedRMSD -1
REMARK  0 active torsions:
REMARK  status: ('A' for Active; 'I' for Inactive)
ROOT
ATOM      1  C   UNL d   1      -1.466   0.194   2.109  0.00  0.00    -0.002 A 
ATOM      2  C1  UNL d   1      -1.883   1.471   1.762  0.00  0.00     0.010 A 
ATOM      3  C2  UNL d   1      -1.283   2.150   0.699  0.00  0.00     0.041 A 
ATOM      4  C3  UNL d   1      -0.249   1.516  -0.018  0.00  0.00    -0.075 A 
ATOM      5  S   UNL d   1       0.630   2.154  -1.357  0.00  0.00     0.015 SA
ATOM      6  C4  UNL d   1       1.578   0.745  -1.501  0.00  0.00     0.022 A 
ATOM      7  C5  UNL d   1       1.246  -0.199  -0.558  0.00  0.00     0.026 A 
ATOM      8  C6  UNL d   1       0.187   0.229   0.312  0.00  0.00    -0.082 A 
ATOM      9  C7  UNL d   1      -0.440  -0.432   1.395  0.00  0.00     0.045 A 
ENDROOT
TORSDOF 0
ENDMDL
