MODEL 1
REMARK minimizedAffinity 1.36993027
REMARK minimizedRMSD -1
REMARK  0 active torsions:
REMARK  status: ('A' for Active; 'I' for Inactive)
ROOT
ATOM      1  C   UNL d   1      -1.893   1.277   2.007  0.00  0.00    -0.002 A 
ATOM      2  C1  UNL d   1      -0.970   0.245   2.099  0.00  0.00     0.010 A 
ATOM      3  C2  UNL d   1      -0.039   0.032   1.080  0.00  0.00     0.041 A 
ATOM      4  C3  UNL d   1      -0.051   0.884  -0.043  0.00  0.00    -0.075 A 
ATOM      5  S   UNL d   1       0.995   0.813  -1.412  0.00  0.00     0.015 SA
ATOM      6  C4  UNL d   1       0.241   2.152  -2.150  0.00  0.00     0.022 A 
ATOM      7  C5  UNL d   1      -0.785   2.652  -1.385  0.00  0.00     0.026 A 
ATOM      8  C6  UNL d   1      -0.970   1.930  -0.157  0.00  0.00    -0.082 A 
ATOM      9  C7  UNL d   1      -1.902   2.120   0.892  0.00  0.00     0.045 A 
ENDROOT
TORSDOF 0
ENDMDL
