MODEL 1
REMARK minimizedAffinity -1.94249618
REMARK minimizedRMSD -1
REMARK  0 active torsions:
REMARK  status: ('A' for Active; 'I' for Inactive)
ROOT
ATOM      1  C   UNL d   1      -2.081   2.325   1.606  0.00  0.00    -0.002 A 
ATOM      2  C1  UNL d   1      -2.210   2.804   0.310  0.00  0.00     0.010 A 
ATOM      3  C2  UNL d   1      -1.442   2.268  -0.725  0.00  0.00     0.041 A 
ATOM      4  C3  UNL d   1      -0.535   1.230  -0.433  0.00  0.00    -0.075 A 
ATOM      5  S   UNL d   1       0.509   0.420  -1.541  0.00  0.00     0.015 SA
ATOM      6  C4  UNL d   1       1.150  -0.582  -0.320  0.00  0.00     0.022 A 
ATOM      7  C5  UNL d   1       0.593  -0.318   0.909  0.00  0.00     0.026 A 
ATOM      8  C6  UNL d   1      -0.388   0.730   0.864  0.00  0.00    -0.082 A 
ATOM      9  C7  UNL d   1      -1.180   1.296   1.892  0.00  0.00     0.045 A 
ENDROOT
TORSDOF 0
ENDMDL
