MODEL 1
REMARK minimizedAffinity -5.3747859
REMARK minimizedRMSD -1
REMARK  0 active torsions:
REMARK  status: ('A' for Active; 'I' for Inactive)
ROOT
ATOM      1  C   UNL d   1      -1.961   2.493   1.366  0.00  0.00    -0.002 A 
ATOM      2  C1  UNL d   1      -1.867   2.948   0.059  0.00  0.00     0.010 A 
ATOM      3  C2  UNL d   1      -1.038   2.302  -0.860  0.00  0.00     0.041 A 
ATOM      4  C3  UNL d   1      -0.299   1.179  -0.440  0.00  0.00    -0.075 A 
ATOM      5  S   UNL d   1       0.780   0.228  -1.391  0.00  0.00     0.015 SA
ATOM      6  C4  UNL d   1       1.141  -0.805  -0.085  0.00  0.00     0.022 A 
ATOM      7  C5  UNL d   1       0.464  -0.448   1.057  0.00  0.00     0.026 A 
ATOM      8  C6  UNL d   1      -0.377   0.701   0.872  0.00  0.00    -0.082 A 
ATOM      9  C7  UNL d   1      -1.226   1.378   1.780  0.00  0.00     0.045 A 
ENDROOT
TORSDOF 0
ENDMDL
