MODEL 1
REMARK minimizedAffinity -1.76422858
REMARK minimizedRMSD -1
REMARK  0 active torsions:
REMARK  status: ('A' for Active; 'I' for Inactive)
ROOT
ATOM      1  C   UNL d   1      -1.012   0.121   2.172  0.00  0.00    -0.002 A 
ATOM      2  C1  UNL d   1      -0.386  -0.809   1.355  0.00  0.00     0.010 A 
ATOM      3  C2  UNL d   1       0.267  -0.405   0.188  0.00  0.00     0.041 A 
ATOM      4  C3  UNL d   1       0.281   0.964  -0.145  0.00  0.00    -0.075 A 
ATOM      5  S   UNL d   1       1.020   1.690  -1.523  0.00  0.00     0.015 SA
ATOM      6  C4  UNL d   1       0.522   3.253  -1.059  0.00  0.00     0.022 A 
ATOM      7  C5  UNL d   1      -0.191   3.239   0.116  0.00  0.00     0.026 A 
ATOM      8  C6  UNL d   1      -0.341   1.920   0.663  0.00  0.00    -0.082 A 
ATOM      9  C7  UNL d   1      -0.995   1.478   1.838  0.00  0.00     0.045 A 
ENDROOT
TORSDOF 0
ENDMDL
