MODEL 1
REMARK minimizedAffinity -1.40820289
REMARK minimizedRMSD -1
REMARK  0 active torsions:
REMARK  status: ('A' for Active; 'I' for Inactive)
ROOT
ATOM      1  C   UNL d   1       0.178  -0.020   1.199  0.00  0.00    -0.002 A 
ATOM      2  C1  UNL d   1      -1.117  -0.503   1.071  0.00  0.00     0.010 A 
ATOM      3  C2  UNL d   1      -1.456  -1.357   0.020  0.00  0.00     0.041 A 
ATOM      4  C3  UNL d   1      -0.461  -1.723  -0.908  0.00  0.00    -0.075 A 
ATOM      5  S   UNL d   1      -0.645  -2.758  -2.275  0.00  0.00     0.015 SA
ATOM      6  C4  UNL d   1       0.991  -2.584  -2.720  0.00  0.00     0.022 A 
ATOM      7  C5  UNL d   1       1.675  -1.760  -1.858  0.00  0.00     0.026 A 
ATOM      8  C6  UNL d   1       0.850  -1.250  -0.799  0.00  0.00    -0.082 A 
ATOM      9  C7  UNL d   1       1.162  -0.385   0.277  0.00  0.00     0.045 A 
ENDROOT
TORSDOF 0
ENDMDL
