MODEL 1
REMARK minimizedAffinity -4.59565544
REMARK minimizedRMSD -1
REMARK  0 active torsions:
REMARK  status: ('A' for Active; 'I' for Inactive)
ROOT
ATOM      1  C   UNL d   1      -1.980   2.401   1.801  0.00  0.00    -0.002 A 
ATOM      2  C1  UNL d   1      -1.472   3.324   0.897  0.00  0.00     0.010 A 
ATOM      3  C2  UNL d   1      -0.580   2.924  -0.100  0.00  0.00     0.041 A 
ATOM      4  C3  UNL d   1      -0.205   1.568  -0.176  0.00  0.00    -0.075 A 
ATOM      5  S   UNL d   1       0.872   0.850  -1.314  0.00  0.00     0.015 SA
ATOM      6  C4  UNL d   1       0.682  -0.699  -0.628  0.00  0.00     0.022 A 
ATOM      7  C5  UNL d   1      -0.178  -0.687   0.444  0.00  0.00     0.026 A 
ATOM      8  C6  UNL d   1      -0.705   0.620   0.722  0.00  0.00    -0.082 A 
ATOM      9  C7  UNL d   1      -1.606   1.057   1.722  0.00  0.00     0.045 A 
ENDROOT
TORSDOF 0
ENDMDL
