MODEL 1
REMARK minimizedAffinity 8.79387665
REMARK minimizedRMSD -1
REMARK  0 active torsions:
REMARK  status: ('A' for Active; 'I' for Inactive)
ROOT
ATOM      1  C   UNL d   1      -0.790   3.018   2.908  0.00  0.00    -0.002 A 
ATOM      2  C1  UNL d   1      -0.159   3.698   1.876  0.00  0.00     0.010 A 
ATOM      3  C2  UNL d   1       0.307   3.011   0.753  0.00  0.00     0.041 A 
ATOM      4  C3  UNL d   1       0.124   1.616   0.683  0.00  0.00    -0.075 A 
ATOM      5  S   UNL d   1       0.611   0.566  -0.595  0.00  0.00     0.015 SA
ATOM      6  C4  UNL d   1      -0.008  -0.809   0.198  0.00  0.00     0.022 A 
ATOM      7  C5  UNL d   1      -0.576  -0.494   1.410  0.00  0.00     0.026 A 
ATOM      8  C6  UNL d   1      -0.510   0.909   1.709  0.00  0.00    -0.082 A 
ATOM      9  C7  UNL d   1      -0.970   1.634   2.835  0.00  0.00     0.045 A 
ENDROOT
TORSDOF 0
ENDMDL
