MODEL 1
REMARK minimizedAffinity 12.4564533
REMARK minimizedRMSD -1
REMARK  0 active torsions:
REMARK  status: ('A' for Active; 'I' for Inactive)
ROOT
ATOM      1  C   UNL d   1      -0.994  -0.995   3.632  0.00  0.00    -0.002 A 
ATOM      2  C1  UNL d   1      -1.481   0.301   3.554  0.00  0.00     0.010 A 
ATOM      3  C2  UNL d   1      -1.155   1.119   2.470  0.00  0.00     0.041 A 
ATOM      4  C3  UNL d   1      -0.325   0.605   1.455  0.00  0.00    -0.075 A 
ATOM      5  S   UNL d   1       0.206   1.423   0.033  0.00  0.00     0.015 SA
ATOM      6  C4  UNL d   1       1.092   0.071  -0.505  0.00  0.00     0.022 A 
ATOM      7  C5  UNL d   1       0.997  -0.988   0.367  0.00  0.00     0.026 A 
ATOM      8  C6  UNL d   1       0.178  -0.698   1.510  0.00  0.00    -0.082 A 
ATOM      9  C7  UNL d   1      -0.170  -1.501   2.623  0.00  0.00     0.045 A 
ENDROOT
TORSDOF 0
ENDMDL
