MODEL 1
REMARK minimizedAffinity -2.71264195
REMARK minimizedRMSD -1
REMARK  0 active torsions:
REMARK  status: ('A' for Active; 'I' for Inactive)
ROOT
ATOM      1  C   UNL d   1      -2.147   2.472   0.818  0.00  0.00    -0.002 A 
ATOM      2  C1  UNL d   1      -2.261   1.198   1.356  0.00  0.00     0.010 A 
ATOM      3  C2  UNL d   1      -1.420   0.168   0.928  0.00  0.00     0.041 A 
ATOM      4  C3  UNL d   1      -0.452   0.444  -0.057  0.00  0.00    -0.075 A 
ATOM      5  S   UNL d   1       0.687  -0.659  -0.733  0.00  0.00     0.015 SA
ATOM      6  C4  UNL d   1       1.353   0.535  -1.751  0.00  0.00     0.022 A 
ATOM      7  C5  UNL d   1       0.733   1.752  -1.592  0.00  0.00     0.026 A 
ATOM      8  C6  UNL d   1      -0.317   1.720  -0.613  0.00  0.00    -0.082 A 
ATOM      9  C7  UNL d   1      -1.185   2.742  -0.159  0.00  0.00     0.045 A 
ENDROOT
TORSDOF 0
ENDMDL
