MODEL 1
REMARK minimizedAffinity -4.16424227
REMARK minimizedRMSD -1
REMARK  0 active torsions:
REMARK  status: ('A' for Active; 'I' for Inactive)
ROOT
ATOM      1  C   UNL d   1      -1.767   1.668   1.959  0.00  0.00    -0.002 A 
ATOM      2  C1  UNL d   1      -1.464   0.368   2.338  0.00  0.00     0.010 A 
ATOM      3  C2  UNL d   1      -0.527  -0.381   1.623  0.00  0.00     0.041 A 
ATOM      4  C3  UNL d   1       0.109   0.206   0.511  0.00  0.00    -0.075 A 
ATOM      5  S   UNL d   1       1.290  -0.521  -0.513  0.00  0.00     0.015 SA
ATOM      6  C4  UNL d   1       1.422   0.878  -1.478  0.00  0.00     0.022 A 
ATOM      7  C5  UNL d   1       0.591   1.884  -1.044  0.00  0.00     0.026 A 
ATOM      8  C6  UNL d   1      -0.179   1.513   0.110  0.00  0.00    -0.082 A 
ATOM      9  C7  UNL d   1      -1.134   2.246   0.855  0.00  0.00     0.045 A 
ENDROOT
TORSDOF 0
ENDMDL
