MODEL 1
REMARK minimizedAffinity -2.3562274
REMARK minimizedRMSD -1
REMARK  0 active torsions:
REMARK  status: ('A' for Active; 'I' for Inactive)
ROOT
ATOM      1  C   UNL d   1       0.739  -0.698   1.490  0.00  0.00    -0.002 A 
ATOM      2  C1  UNL d   1      -0.073  -0.335   2.555  0.00  0.00     0.010 A 
ATOM      3  C2  UNL d   1      -0.954   0.743   2.441  0.00  0.00     0.041 A 
ATOM      4  C3  UNL d   1      -1.006   1.455   1.227  0.00  0.00    -0.075 A 
ATOM      5  S   UNL d   1      -2.009   2.808   0.858  0.00  0.00     0.015 SA
ATOM      6  C4  UNL d   1      -1.383   2.935  -0.723  0.00  0.00     0.022 A 
ATOM      7  C5  UNL d   1      -0.432   1.977  -0.979  0.00  0.00     0.026 A 
ATOM      8  C6  UNL d   1      -0.199   1.108   0.140  0.00  0.00    -0.082 A 
ATOM      9  C7  UNL d   1       0.684   0.011   0.287  0.00  0.00     0.045 A 
ENDROOT
TORSDOF 0
ENDMDL
