MODEL 1
REMARK minimizedAffinity -1.21731246
REMARK minimizedRMSD -1
REMARK  1 active torsions:
REMARK  status: ('A' for Active; 'I' for Inactive)
REMARK    1  A    between atoms: C1_2  and  C2_3 
ROOT
ATOM      1  C2  UNL d   1      -0.314   0.226   1.124  0.00  0.00    -0.073 A 
ATOM      2  C3  UNL d   1      -1.365   0.790   0.392  0.00  0.00    -0.002 A 
ATOM      3  C4  UNL d   1      -1.977   1.965   0.828  0.00  0.00     0.004 A 
ATOM      4  C5  UNL d   1      -1.541   2.593   1.995  0.00  0.00    -0.004 A 
ATOM      5  C6  UNL d   1      -0.485   2.051   2.734  0.00  0.00    -0.075 A 
ATOM      6  C7  UNL d   1      -0.006   2.712   3.993  0.00  0.00     0.076 C 
ATOM      7  C8  UNL d   1       0.123   0.868   2.292  0.00  0.00     0.001 A 
ENDROOT
BRANCH   1   8
ATOM      8  C1  UNL d   1       0.354  -1.040   0.654  0.00  0.00     0.053 C 
ATOM      9  C   UNL d   1       0.734  -0.972  -0.817  0.00  0.00     0.018 C 
ENDBRANCH   1   8
TORSDOF 1
ENDMDL
