MODEL 1
REMARK minimizedAffinity -5.42429638
REMARK minimizedRMSD -1
REMARK  1 active torsions:
REMARK  status: ('A' for Active; 'I' for Inactive)
REMARK    1  A    between atoms: C1_2  and  C2_3 
ROOT
ATOM      1  C2  UNL d   1      -0.400   0.003   0.008  0.00  0.00    -0.073 A 
ATOM      2  C3  UNL d   1      -0.781  -0.266   1.328  0.00  0.00    -0.002 A 
ATOM      3  C4  UNL d   1      -1.221   0.766   2.158  0.00  0.00     0.004 A 
ATOM      4  C5  UNL d   1      -1.291   2.073   1.677  0.00  0.00    -0.004 A 
ATOM      5  C6  UNL d   1      -0.926   2.360   0.358  0.00  0.00    -0.075 A 
ATOM      6  C7  UNL d   1      -0.994   3.761  -0.174  0.00  0.00     0.076 C 
ATOM      7  C8  UNL d   1      -0.483   1.319  -0.469  0.00  0.00     0.001 A 
ENDROOT
BRANCH   1   8
ATOM      8  C1  UNL d   1       0.069  -1.109  -0.894  0.00  0.00     0.053 C 
ATOM      9  C   UNL d   1       1.472  -0.859  -1.424  0.00  0.00     0.018 C 
ENDBRANCH   1   8
TORSDOF 1
ENDMDL
