MODEL 1
REMARK minimizedAffinity -4.3731904
REMARK minimizedRMSD -1
REMARK  1 active torsions:
REMARK  status: ('A' for Active; 'I' for Inactive)
REMARK    1  A    between atoms: C1_2  and  C2_3 
ROOT
ATOM      1  C2  UNL d   1       0.539  -0.500  -0.852  0.00  0.00    -0.073 A 
ATOM      2  C3  UNL d   1       1.158   0.395  -1.733  0.00  0.00    -0.002 A 
ATOM      3  C4  UNL d   1       0.823   1.749  -1.712  0.00  0.00     0.004 A 
ATOM      4  C5  UNL d   1      -0.128   2.224  -0.809  0.00  0.00    -0.004 A 
ATOM      5  C6  UNL d   1      -0.749   1.347   0.087  0.00  0.00    -0.075 A 
ATOM      6  C7  UNL d   1      -1.776   1.842   1.063  0.00  0.00     0.076 C 
ATOM      7  C8  UNL d   1      -0.409  -0.012   0.058  0.00  0.00     0.001 A 
ENDROOT
BRANCH   1   8
ATOM      8  C1  UNL d   1       0.902  -1.962  -0.866  0.00  0.00     0.053 C 
ATOM      9  C   UNL d   1       0.459  -2.648  -2.149  0.00  0.00     0.018 C 
ENDBRANCH   1   8
TORSDOF 1
ENDMDL
