MODEL 1
REMARK minimizedAffinity -4.40029001
REMARK minimizedRMSD -1
REMARK  1 active torsions:
REMARK  status: ('A' for Active; 'I' for Inactive)
REMARK    1  A    between atoms: C1_2  and  C2_3 
ROOT
ATOM      1  C2  UNL d   1       0.081  -0.213   0.152  0.00  0.00    -0.073 A 
ATOM      2  C3  UNL d   1      -0.465  -1.077   1.108  0.00  0.00    -0.002 A 
ATOM      3  C4  UNL d   1      -1.290  -0.580   2.118  0.00  0.00     0.004 A 
ATOM      4  C5  UNL d   1      -1.584   0.782   2.177  0.00  0.00    -0.004 A 
ATOM      5  C6  UNL d   1      -1.058   1.660   1.224  0.00  0.00    -0.075 A 
ATOM      6  C7  UNL d   1      -1.363   3.128   1.276  0.00  0.00     0.076 C 
ATOM      7  C8  UNL d   1      -0.228   1.154   0.215  0.00  0.00     0.001 A 
ENDROOT
BRANCH   1   8
ATOM      8  C1  UNL d   1       0.968  -0.745  -0.944  0.00  0.00     0.053 C 
ATOM      9  C   UNL d   1       0.493  -2.096  -1.455  0.00  0.00     0.018 C 
ENDBRANCH   1   8
TORSDOF 1
ENDMDL
