MODEL 1
REMARK minimizedAffinity -5.80807018
REMARK minimizedRMSD -1
REMARK  1 active torsions:
REMARK  status: ('A' for Active; 'I' for Inactive)
REMARK    1  A    between atoms: C1_2  and  C2_3 
ROOT
ATOM      1  C2  UNL d   1      -0.081  -0.592  -0.593  0.00  0.00    -0.073 A 
ATOM      2  C3  UNL d   1       0.605  -1.080   0.525  0.00  0.00    -0.002 A 
ATOM      3  C4  UNL d   1       0.342  -0.562   1.794  0.00  0.00     0.004 A 
ATOM      4  C5  UNL d   1      -0.611   0.442   1.959  0.00  0.00    -0.004 A 
ATOM      5  C6  UNL d   1      -1.316   0.935   0.855  0.00  0.00    -0.075 A 
ATOM      6  C7  UNL d   1      -2.343   2.016   1.015  0.00  0.00     0.076 C 
ATOM      7  C8  UNL d   1      -1.044   0.412  -0.416  0.00  0.00     0.001 A 
ENDROOT
BRANCH   1   8
ATOM      8  C1  UNL d   1       0.195  -1.152  -1.965  0.00  0.00     0.053 C 
ATOM      9  C   UNL d   1       0.087  -2.669  -1.993  0.00  0.00     0.018 C 
ENDBRANCH   1   8
TORSDOF 1
ENDMDL
