MODEL 1
REMARK minimizedAffinity -3.19113207
REMARK minimizedRMSD -1
REMARK  1 active torsions:
REMARK  status: ('A' for Active; 'I' for Inactive)
REMARK    1  A    between atoms: C1_2  and  C2_3 
ROOT
ATOM      1  C2  UNL d   1       0.856  -1.132  -1.143  0.00  0.00    -0.073 A 
ATOM      2  C3  UNL d   1       1.467  -0.111  -1.880  0.00  0.00    -0.002 A 
ATOM      3  C4  UNL d   1       1.233   1.227  -1.559  0.00  0.00     0.004 A 
ATOM      4  C5  UNL d   1       0.393   1.557  -0.495  0.00  0.00    -0.004 A 
ATOM      5  C6  UNL d   1      -0.217   0.551   0.260  0.00  0.00    -0.075 A 
ATOM      6  C7  UNL d   1      -1.125   0.889   1.406  0.00  0.00     0.076 C 
ATOM      7  C8  UNL d   1       0.021  -0.790  -0.070  0.00  0.00     0.001 A 
ENDROOT
BRANCH   1   8
ATOM      8  C1  UNL d   1       1.111  -2.578  -1.482  0.00  0.00     0.053 C 
ATOM      9  C   UNL d   1       0.384  -3.003  -2.749  0.00  0.00     0.018 C 
ENDBRANCH   1   8
TORSDOF 1
ENDMDL
