MODEL 1
REMARK minimizedAffinity -3.52706099
REMARK minimizedRMSD -1
REMARK  1 active torsions:
REMARK  status: ('A' for Active; 'I' for Inactive)
REMARK    1  A    between atoms: C1_2  and  C2_3 
ROOT
ATOM      1  C2  UNL d   1      -0.589   1.095   1.255  0.00  0.00    -0.073 A 
ATOM      2  C3  UNL d   1      -0.309  -0.276   1.277  0.00  0.00    -0.002 A 
ATOM      3  C4  UNL d   1       0.398  -0.868   0.229  0.00  0.00     0.004 A 
ATOM      4  C5  UNL d   1       0.837  -0.096  -0.846  0.00  0.00    -0.004 A 
ATOM      5  C6  UNL d   1       0.577   1.278  -0.881  0.00  0.00    -0.075 A 
ATOM      6  C7  UNL d   1       1.040   2.122  -2.032  0.00  0.00     0.076 C 
ATOM      7  C8  UNL d   1      -0.135   1.865   0.174  0.00  0.00     0.001 A 
ENDROOT
BRANCH   1   8
ATOM      8  C1  UNL d   1      -1.345   1.740   2.387  0.00  0.00     0.053 C 
ATOM      9  C   UNL d   1      -2.582   2.479   1.899  0.00  0.00     0.018 C 
ENDBRANCH   1   8
TORSDOF 1
ENDMDL
