MODEL 1
REMARK minimizedAffinity -5.1902914
REMARK minimizedRMSD -1
REMARK  1 active torsions:
REMARK  status: ('A' for Active; 'I' for Inactive)
REMARK    1  A    between atoms: C1_2  and  C2_3 
ROOT
ATOM      1  C2  UNL d   1      -0.332  -0.177   0.180  0.00  0.00    -0.073 A 
ATOM      2  C3  UNL d   1       0.089  -0.624   1.438  0.00  0.00    -0.002 A 
ATOM      3  C4  UNL d   1      -0.258   0.084   2.590  0.00  0.00     0.004 A 
ATOM      4  C5  UNL d   1      -1.033   1.240   2.497  0.00  0.00    -0.004 A 
ATOM      5  C6  UNL d   1      -1.473   1.696   1.250  0.00  0.00    -0.075 A 
ATOM      6  C7  UNL d   1      -2.305   2.939   1.132  0.00  0.00     0.076 C 
ATOM      7  C8  UNL d   1      -1.118   0.981   0.098  0.00  0.00     0.001 A 
ENDROOT
BRANCH   1   8
ATOM      8  C1  UNL d   1       0.034  -0.941  -1.065  0.00  0.00     0.053 C 
ATOM      9  C   UNL d   1       1.532  -1.186  -1.164  0.00  0.00     0.018 C 
ENDBRANCH   1   8
TORSDOF 1
ENDMDL
