MODEL 1
REMARK minimizedAffinity -0.952187359
REMARK minimizedRMSD -1
REMARK  1 active torsions:
REMARK  status: ('A' for Active; 'I' for Inactive)
REMARK    1  A    between atoms: C1_2  and  C2_3 
ROOT
ATOM      1  C2  UNL d   1       0.765  -1.055  -0.721  0.00  0.00    -0.073 A 
ATOM      2  C3  UNL d   1       0.973   0.065  -1.535  0.00  0.00    -0.002 A 
ATOM      3  C4  UNL d   1       0.437   1.304  -1.181  0.00  0.00     0.004 A 
ATOM      4  C5  UNL d   1      -0.304   1.438  -0.007  0.00  0.00    -0.004 A 
ATOM      5  C6  UNL d   1      -0.513   0.333   0.825  0.00  0.00    -0.075 A 
ATOM      6  C7  UNL d   1      -1.310   0.461   2.090  0.00  0.00     0.076 C 
ATOM      7  C8  UNL d   1       0.026  -0.908   0.461  0.00  0.00     0.001 A 
ENDROOT
BRANCH   1   8
ATOM      8  C1  UNL d   1       1.347  -2.393  -1.097  0.00  0.00     0.053 C 
ATOM      9  C   UNL d   1       0.474  -3.133  -2.099  0.00  0.00     0.018 C 
ENDBRANCH   1   8
TORSDOF 1
ENDMDL
