MODEL 1
REMARK minimizedAffinity -2.04759669
REMARK minimizedRMSD -1
REMARK  1 active torsions:
REMARK  status: ('A' for Active; 'I' for Inactive)
REMARK    1  A    between atoms: C1_2  and  C2_3 
ROOT
ATOM      1  C2  UNL d   1       0.038  -0.410  -0.852  0.00  0.00    -0.073 A 
ATOM      2  C3  UNL d   1       0.775  -1.034   0.160  0.00  0.00    -0.002 A 
ATOM      3  C4  UNL d   1       0.546  -0.714   1.499  0.00  0.00     0.004 A 
ATOM      4  C5  UNL d   1      -0.426   0.226   1.839  0.00  0.00    -0.004 A 
ATOM      5  C6  UNL d   1      -1.182   0.852   0.843  0.00  0.00    -0.075 A 
ATOM      6  C7  UNL d   1      -2.229   1.868   1.192  0.00  0.00     0.076 C 
ATOM      7  C8  UNL d   1      -0.944   0.527  -0.500  0.00  0.00     0.001 A 
ENDROOT
BRANCH   1   8
ATOM      8  C1  UNL d   1       0.277  -0.758  -2.299  0.00  0.00     0.053 C 
ATOM      9  C   UNL d   1       0.011  -2.227  -2.584  0.00  0.00     0.018 C 
ENDBRANCH   1   8
TORSDOF 1
ENDMDL
