MODEL 1
REMARK minimizedAffinity -5.59337473
REMARK minimizedRMSD -1
REMARK  1 active torsions:
REMARK  status: ('A' for Active; 'I' for Inactive)
REMARK    1  A    between atoms: C1_2  and  C2_3 
ROOT
ATOM      1  C2  UNL d   1       0.879  -0.305  -0.749  0.00  0.00    -0.073 A 
ATOM      2  C3  UNL d   1       1.399   0.766  -1.484  0.00  0.00    -0.002 A 
ATOM      3  C4  UNL d   1       0.848   2.042  -1.356  0.00  0.00     0.004 A 
ATOM      4  C5  UNL d   1      -0.222   2.261  -0.489  0.00  0.00    -0.004 A 
ATOM      5  C6  UNL d   1      -0.748   1.205   0.263  0.00  0.00    -0.075 A 
ATOM      6  C7  UNL d   1      -1.900   1.424   1.199  0.00  0.00     0.076 C 
ATOM      7  C8  UNL d   1      -0.191  -0.073   0.127  0.00  0.00     0.001 A 
ENDROOT
BRANCH   1   8
ATOM      8  C1  UNL d   1       1.474  -1.683  -0.879  0.00  0.00     0.053 C 
ATOM      9  C   UNL d   1       0.976  -2.405  -2.121  0.00  0.00     0.018 C 
ENDBRANCH   1   8
TORSDOF 1
ENDMDL
