MODEL 1
REMARK minimizedAffinity -3.53508234
REMARK minimizedRMSD -1
REMARK  0 active torsions:
REMARK  status: ('A' for Active; 'I' for Inactive)
ROOT
ATOM      1  C   UNL d   1       0.757   1.513  -2.283  0.00  0.00     0.078 C 
ATOM      2  C1  UNL d   1       0.646   0.292  -1.420  0.00  0.00    -0.077 A 
ATOM      3  C2  UNL d   1      -0.325   0.204  -0.415  0.00  0.00    -0.001 A 
ATOM      4  C3  UNL d   1      -0.411  -0.935   0.387  0.00  0.00     0.003 A 
ATOM      5  C4  UNL d   1       0.472  -1.995   0.193  0.00  0.00    -0.005 A 
ATOM      6  C5  UNL d   1       1.443  -1.916  -0.803  0.00  0.00     0.003 A 
ATOM      7  C6  UNL d   1       1.530  -0.778  -1.606  0.00  0.00    -0.001 A 
ENDROOT
TORSDOF 0
ENDMDL
