MODEL 1
REMARK minimizedAffinity -1.90003717
REMARK minimizedRMSD -1
REMARK  0 active torsions:
REMARK  status: ('A' for Active; 'I' for Inactive)
ROOT
ATOM      1  C   UNL d   1      -0.709   0.548   1.431  0.00  0.00     0.078 C 
ATOM      2  C1  UNL d   1       0.086  -0.139   0.361  0.00  0.00    -0.077 A 
ATOM      3  C2  UNL d   1       0.666  -1.394   0.588  0.00  0.00    -0.001 A 
ATOM      4  C3  UNL d   1       1.411  -2.018  -0.414  0.00  0.00     0.003 A 
ATOM      5  C4  UNL d   1       1.585  -1.394  -1.648  0.00  0.00    -0.005 A 
ATOM      6  C5  UNL d   1       1.013  -0.145  -1.882  0.00  0.00     0.003 A 
ATOM      7  C6  UNL d   1       0.267   0.480  -0.881  0.00  0.00    -0.001 A 
ENDROOT
TORSDOF 0
ENDMDL
