MODEL 1
REMARK minimizedAffinity -1.51198709
REMARK minimizedRMSD -1
REMARK  0 active torsions:
REMARK  status: ('A' for Active; 'I' for Inactive)
ROOT
ATOM      1  C   UNL d   1       1.674  -1.760  -1.481  0.00  0.00     0.078 C 
ATOM      2  C1  UNL d   1       0.588  -1.087  -0.697  0.00  0.00    -0.077 A 
ATOM      3  C2  UNL d   1       0.144   0.198  -1.035  0.00  0.00    -0.001 A 
ATOM      4  C3  UNL d   1      -0.861   0.817  -0.290  0.00  0.00     0.003 A 
ATOM      5  C4  UNL d   1      -1.430   0.159   0.798  0.00  0.00    -0.005 A 
ATOM      6  C5  UNL d   1      -0.994  -1.118   1.144  0.00  0.00     0.003 A 
ATOM      7  C6  UNL d   1       0.011  -1.739   0.400  0.00  0.00    -0.001 A 
ENDROOT
TORSDOF 0
ENDMDL
