MODEL 1
REMARK minimizedAffinity -2.43120527
REMARK minimizedRMSD -1
REMARK  0 active torsions:
REMARK  status: ('A' for Active; 'I' for Inactive)
ROOT
ATOM      1  C   UNL d   1      -1.123   0.452   1.573  0.00  0.00     0.078 C 
ATOM      2  C1  UNL d   1      -0.214  -0.124   0.529  0.00  0.00    -0.077 A 
ATOM      3  C2  UNL d   1       0.421  -1.357   0.726  0.00  0.00    -0.001 A 
ATOM      4  C3  UNL d   1       1.272  -1.876  -0.251  0.00  0.00     0.003 A 
ATOM      5  C4  UNL d   1       1.497  -1.170  -1.430  0.00  0.00    -0.005 A 
ATOM      6  C5  UNL d   1       0.872   0.059  -1.634  0.00  0.00     0.003 A 
ATOM      7  C6  UNL d   1       0.020   0.580  -0.659  0.00  0.00    -0.001 A 
ENDROOT
TORSDOF 0
ENDMDL
