MODEL 1
REMARK minimizedAffinity -4.96820021
REMARK minimizedRMSD -1
REMARK  0 active torsions:
REMARK  status: ('A' for Active; 'I' for Inactive)
ROOT
ATOM      1  C   UNL d   1      -0.509  -1.236  -0.076  0.00  0.00     0.078 C 
ATOM      2  C1  UNL d   1       0.684  -0.532  -0.650  0.00  0.00    -0.077 A 
ATOM      3  C2  UNL d   1       0.873   0.842  -0.454  0.00  0.00    -0.001 A 
ATOM      4  C3  UNL d   1       1.983   1.487  -1.002  0.00  0.00     0.003 A 
ATOM      5  C4  UNL d   1       2.912   0.766  -1.750  0.00  0.00    -0.005 A 
ATOM      6  C5  UNL d   1       2.731  -0.601  -1.952  0.00  0.00     0.003 A 
ATOM      7  C6  UNL d   1       1.622  -1.247  -1.405  0.00  0.00    -0.001 A 
ENDROOT
TORSDOF 0
ENDMDL
