MODEL 1
REMARK minimizedAffinity -3.42410946
REMARK minimizedRMSD -1
REMARK  0 active torsions:
REMARK  status: ('A' for Active; 'I' for Inactive)
ROOT
ATOM      1  C   UNL d   1      -1.456   0.221   0.840  0.00  0.00     0.078 C 
ATOM      2  C1  UNL d   1      -0.215  -0.373   0.242  0.00  0.00    -0.077 A 
ATOM      3  C2  UNL d   1       0.463   0.272  -0.800  0.00  0.00    -0.001 A 
ATOM      4  C3  UNL d   1       1.611  -0.297  -1.353  0.00  0.00     0.003 A 
ATOM      5  C4  UNL d   1       2.090  -1.515  -0.873  0.00  0.00    -0.005 A 
ATOM      6  C5  UNL d   1       1.420  -2.165   0.162  0.00  0.00     0.003 A 
ATOM      7  C6  UNL d   1       0.272  -1.597   0.717  0.00  0.00    -0.001 A 
ENDROOT
TORSDOF 0
ENDMDL
