MODEL 1
REMARK minimizedAffinity -3.56035089
REMARK minimizedRMSD -1
REMARK  0 active torsions:
REMARK  status: ('A' for Active; 'I' for Inactive)
ROOT
ATOM      1  C   UNL d   1       2.428  -1.622  -1.317  0.00  0.00     0.078 C 
ATOM      2  C1  UNL d   1       1.197  -1.063  -0.668  0.00  0.00    -0.077 A 
ATOM      3  C2  UNL d   1       0.359  -1.874   0.107  0.00  0.00    -0.001 A 
ATOM      4  C3  UNL d   1      -0.789  -1.343   0.697  0.00  0.00     0.003 A 
ATOM      5  C4  UNL d   1      -1.110   0.001   0.517  0.00  0.00    -0.005 A 
ATOM      6  C5  UNL d   1      -0.283   0.816  -0.255  0.00  0.00     0.003 A 
ATOM      7  C6  UNL d   1       0.865   0.286  -0.845  0.00  0.00    -0.001 A 
ENDROOT
TORSDOF 0
ENDMDL
