MODEL 1
REMARK minimizedAffinity -3.43705535
REMARK minimizedRMSD -1
REMARK  0 active torsions:
REMARK  status: ('A' for Active; 'I' for Inactive)
ROOT
ATOM      1  C   UNL d   1       1.100  -2.439  -0.384  0.00  0.00     0.078 C 
ATOM      2  C1  UNL d   1       0.680  -1.050  -0.763  0.00  0.00    -0.077 A 
ATOM      3  C2  UNL d   1      -0.291  -0.363  -0.024  0.00  0.00    -0.001 A 
ATOM      4  C3  UNL d   1      -0.679   0.926  -0.394  0.00  0.00     0.003 A 
ATOM      5  C4  UNL d   1      -0.102   1.538  -1.504  0.00  0.00    -0.005 A 
ATOM      6  C5  UNL d   1       0.864   0.862  -2.247  0.00  0.00     0.003 A 
ATOM      7  C6  UNL d   1       1.253  -0.427  -1.878  0.00  0.00    -0.001 A 
ENDROOT
TORSDOF 0
ENDMDL
