MODEL 1
REMARK minimizedAffinity 5.63411236
REMARK minimizedRMSD -1
REMARK  0 active torsions:
REMARK  status: ('A' for Active; 'I' for Inactive)
ROOT
ATOM      1  C   UNL d   1      -5.468  -2.944   3.342  0.00  0.00     0.078 C 
ATOM      2  C1  UNL d   1      -4.308  -2.005   3.485  0.00  0.00    -0.077 A 
ATOM      3  C2  UNL d   1      -3.673  -1.826   4.720  0.00  0.00    -0.001 A 
ATOM      4  C3  UNL d   1      -2.600  -0.941   4.841  0.00  0.00     0.003 A 
ATOM      5  C4  UNL d   1      -2.154  -0.227   3.731  0.00  0.00    -0.005 A 
ATOM      6  C5  UNL d   1      -2.781  -0.397   2.498  0.00  0.00     0.003 A 
ATOM      7  C6  UNL d   1      -3.854  -1.281   2.376  0.00  0.00    -0.001 A 
ENDROOT
TORSDOF 0
ENDMDL
