MODEL 1
REMARK minimizedAffinity -3.32318068
REMARK minimizedRMSD -1
REMARK  0 active torsions:
REMARK  status: ('A' for Active; 'I' for Inactive)
ROOT
ATOM      1  C   UNL d   1      -0.236   0.286   0.115  0.00  0.00     0.078 C 
ATOM      2  C1  UNL d   1       0.809   0.063  -0.938  0.00  0.00    -0.077 A 
ATOM      3  C2  UNL d   1       1.074   1.037  -1.908  0.00  0.00    -0.001 A 
ATOM      4  C3  UNL d   1       2.043   0.813  -2.888  0.00  0.00     0.003 A 
ATOM      5  C4  UNL d   1       2.753  -0.386  -2.908  0.00  0.00    -0.005 A 
ATOM      6  C5  UNL d   1       2.494  -1.362  -1.948  0.00  0.00     0.003 A 
ATOM      7  C6  UNL d   1       1.526  -1.139  -0.967  0.00  0.00    -0.001 A 
ENDROOT
TORSDOF 0
ENDMDL
