MODEL 1
REMARK minimizedAffinity -5.20066023
REMARK minimizedRMSD -1
REMARK  0 active torsions:
REMARK  status: ('A' for Active; 'I' for Inactive)
ROOT
ATOM      1  C   UNL d   1      -0.630   0.430   0.114  0.00  0.00     0.078 C 
ATOM      2  C1  UNL d   1       0.679   0.534  -0.611  0.00  0.00    -0.077 A 
ATOM      3  C2  UNL d   1       0.957   1.624  -1.443  0.00  0.00    -0.001 A 
ATOM      4  C3  UNL d   1       2.176   1.703  -2.119  0.00  0.00     0.003 A 
ATOM      5  C4  UNL d   1       3.125   0.694  -1.970  0.00  0.00    -0.005 A 
ATOM      6  C5  UNL d   1       2.856  -0.397  -1.146  0.00  0.00     0.003 A 
ATOM      7  C6  UNL d   1       1.638  -0.477  -0.469  0.00  0.00    -0.001 A 
ENDROOT
TORSDOF 0
ENDMDL
