MODEL 1
REMARK minimizedAffinity -2.92524934
REMARK minimizedRMSD -1
REMARK  0 active torsions:
REMARK  status: ('A' for Active; 'I' for Inactive)
ROOT
ATOM      1  C   UNL d   1      -0.397   2.557  -1.760  0.00  0.00     0.078 C 
ATOM      2  C1  UNL d   1       0.160   1.172  -1.610  0.00  0.00    -0.077 A 
ATOM      3  C2  UNL d   1      -0.237   0.347  -0.550  0.00  0.00    -0.001 A 
ATOM      4  C3  UNL d   1       0.296  -0.936  -0.417  0.00  0.00     0.003 A 
ATOM      5  C4  UNL d   1       1.230  -1.405  -1.339  0.00  0.00    -0.005 A 
ATOM      6  C5  UNL d   1       1.632  -0.590  -2.396  0.00  0.00     0.003 A 
ATOM      7  C6  UNL d   1       1.100   0.693  -2.530  0.00  0.00    -0.001 A 
ENDROOT
TORSDOF 0
ENDMDL
