MODEL 1
REMARK minimizedAffinity -3.90083551
REMARK minimizedRMSD -1
REMARK  0 active torsions:
REMARK  status: ('A' for Active; 'I' for Inactive)
ROOT
ATOM      1  C   UNL d   1       1.774  -0.421  -2.900  0.00  0.00     0.078 C 
ATOM      2  C1  UNL d   1       0.751  -0.082  -1.856  0.00  0.00    -0.077 A 
ATOM      3  C2  UNL d   1       0.087   1.151  -1.871  0.00  0.00    -0.001 A 
ATOM      4  C3  UNL d   1      -0.856   1.456  -0.888  0.00  0.00     0.003 A 
ATOM      5  C4  UNL d   1      -1.142   0.535   0.117  0.00  0.00    -0.005 A 
ATOM      6  C5  UNL d   1      -0.484  -0.693   0.142  0.00  0.00     0.003 A 
ATOM      7  C6  UNL d   1       0.459  -1.000  -0.840  0.00  0.00    -0.001 A 
ENDROOT
TORSDOF 0
ENDMDL
