MODEL 1
REMARK minimizedAffinity -5.1714859
REMARK minimizedRMSD -1
REMARK  0 active torsions:
REMARK  status: ('A' for Active; 'I' for Inactive)
ROOT
ATOM      1  C   UNL d   1       2.217  -0.367  -2.180  0.00  0.00     0.078 C 
ATOM      2  C1  UNL d   1       0.997  -0.159  -1.333  0.00  0.00    -0.077 A 
ATOM      3  C2  UNL d   1       0.347  -1.241  -0.727  0.00  0.00    -0.001 A 
ATOM      4  C3  UNL d   1      -0.793  -1.034   0.051  0.00  0.00     0.003 A 
ATOM      5  C4  UNL d   1      -1.295   0.254   0.228  0.00  0.00    -0.005 A 
ATOM      6  C5  UNL d   1      -0.657   1.337  -0.374  0.00  0.00     0.003 A 
ATOM      7  C6  UNL d   1       0.484   1.131  -1.151  0.00  0.00    -0.001 A 
ENDROOT
TORSDOF 0
ENDMDL
