MODEL 1
REMARK minimizedAffinity -4.00465202
REMARK minimizedRMSD -1
REMARK  0 active torsions:
REMARK  status: ('A' for Active; 'I' for Inactive)
ROOT
ATOM      1  C   UNL d   1      -1.092   0.414   0.719  0.00  0.00     0.078 C 
ATOM      2  C1  UNL d   1      -0.034   0.219  -0.325  0.00  0.00    -0.077 A 
ATOM      3  C2  UNL d   1       0.191   1.186  -1.313  0.00  0.00    -0.001 A 
ATOM      4  C3  UNL d   1       1.173   0.987  -2.285  0.00  0.00     0.003 A 
ATOM      5  C4  UNL d   1       1.938  -0.178  -2.279  0.00  0.00    -0.005 A 
ATOM      6  C5  UNL d   1       1.720  -1.146  -1.301  0.00  0.00     0.003 A 
ATOM      7  C6  UNL d   1       0.738  -0.949  -0.329  0.00  0.00    -0.001 A 
ENDROOT
TORSDOF 0
ENDMDL
