MODEL 1
REMARK minimizedAffinity -3.68147373
REMARK minimizedRMSD -1
REMARK  0 active torsions:
REMARK  status: ('A' for Active; 'I' for Inactive)
ROOT
ATOM      1  C   UNL d   1      -4.967  -2.473  -2.546  0.00  0.00     0.124 A 
ATOM      2  C1  UNL d   1      -5.454  -2.196  -3.816  0.00  0.00     0.062 A 
ATOM      3  C2  UNL d   1      -5.518  -3.201  -4.776  0.00  0.00     0.162 A 
ATOM      4  C3  UNL d   1      -5.094  -4.494  -4.471  0.00  0.00    -0.034 A 
ATOM      5  C4  UNL d   1      -4.604  -4.766  -3.192  0.00  0.00     0.162 A 
ATOM      6  C5  UNL d   1      -4.542  -3.757  -2.236  0.00  0.00     0.062 A 
ATOM      7  F   UNL d   1      -4.071  -4.028  -1.010  0.00  0.00    -0.097 F 
ATOM      8  F1  UNL d   1      -4.189  -5.998  -2.865  0.00  0.00    -0.096 F 
ATOM      9  I   UNL d   1      -5.189  -6.000  -5.904  0.00  0.00    -0.060 I 
ATOM     10  F2  UNL d   1      -5.994  -2.904  -5.995  0.00  0.00    -0.096 F 
ATOM     11  F3  UNL d   1      -5.864  -0.955  -4.119  0.00  0.00    -0.097 F 
ATOM     12  F4  UNL d   1      -4.905  -1.504  -1.624  0.00  0.00    -0.092 F 
ENDROOT
TORSDOF 0
ENDMDL
