MODEL 1
REMARK minimizedAffinity 14.6232681
REMARK minimizedRMSD -1
REMARK  0 active torsions:
REMARK  status: ('A' for Active; 'I' for Inactive)
ROOT
ATOM      1  C   UNL d   1      -2.894  -0.379  -0.243  0.00  0.00     0.124 A 
ATOM      2  C1  UNL d   1      -1.853   0.504   0.011  0.00  0.00     0.062 A 
ATOM      3  C2  UNL d   1      -0.607   0.023   0.405  0.00  0.00     0.162 A 
ATOM      4  C3  UNL d   1      -0.395  -1.349   0.547  0.00  0.00    -0.034 A 
ATOM      5  C4  UNL d   1      -1.447  -2.230   0.291  0.00  0.00     0.162 A 
ATOM      6  C5  UNL d   1      -2.690  -1.745  -0.103  0.00  0.00     0.062 A 
ATOM      7  F   UNL d   1      -3.694  -2.599  -0.347  0.00  0.00    -0.097 F 
ATOM      8  F1  UNL d   1      -1.277  -3.555   0.417  0.00  0.00    -0.096 F 
ATOM      9  I   UNL d   1       1.466  -2.072   1.135  0.00  0.00    -0.060 I 
ATOM     10  F2  UNL d   1       0.380   0.898   0.643  0.00  0.00    -0.096 F 
ATOM     11  F3  UNL d   1      -2.047   1.823  -0.122  0.00  0.00    -0.097 F 
ATOM     12  F4  UNL d   1      -4.091   0.086  -0.620  0.00  0.00    -0.092 F 
ENDROOT
TORSDOF 0
ENDMDL
