MODEL 1
REMARK minimizedAffinity 19.988802
REMARK minimizedRMSD -1
REMARK  0 active torsions:
REMARK  status: ('A' for Active; 'I' for Inactive)
ROOT
ATOM      1  C   UNL d   1      -2.855  -3.692  -2.268  0.00  0.00     0.124 A 
ATOM      2  C1  UNL d   1      -2.881  -4.515  -3.386  0.00  0.00     0.062 A 
ATOM      3  C2  UNL d   1      -3.741  -4.232  -4.443  0.00  0.00     0.162 A 
ATOM      4  C3  UNL d   1      -4.582  -3.120  -4.389  0.00  0.00    -0.034 A 
ATOM      5  C4  UNL d   1      -4.550  -2.298  -3.261  0.00  0.00     0.162 A 
ATOM      6  C5  UNL d   1      -3.689  -2.585  -2.207  0.00  0.00     0.062 A 
ATOM      7  F   UNL d   1      -3.665  -1.789  -1.128  0.00  0.00    -0.097 F 
ATOM      8  F1  UNL d   1      -5.344  -1.220  -3.176  0.00  0.00    -0.096 F 
ATOM      9  I   UNL d   1      -5.869  -2.693  -5.967  0.00  0.00    -0.060 I 
ATOM     10  F2  UNL d   1      -3.746  -5.044  -5.511  0.00  0.00    -0.096 F 
ATOM     11  F3  UNL d   1      -2.077  -5.586  -3.448  0.00  0.00    -0.097 F 
ATOM     12  F4  UNL d   1      -2.027  -3.968  -1.252  0.00  0.00    -0.092 F 
ENDROOT
TORSDOF 0
ENDMDL
