MODEL 1
REMARK minimizedAffinity 10.6017456
REMARK minimizedRMSD -1
REMARK  0 active torsions:
REMARK  status: ('A' for Active; 'I' for Inactive)
ROOT
ATOM      1  C   UNL d   1      -3.608  -2.585  -2.572  0.00  0.00     0.124 A 
ATOM      2  C1  UNL d   1      -4.194  -2.430  -3.821  0.00  0.00     0.062 A 
ATOM      3  C2  UNL d   1      -4.022  -3.403  -4.801  0.00  0.00     0.162 A 
ATOM      4  C3  UNL d   1      -3.261  -4.541  -4.536  0.00  0.00    -0.034 A 
ATOM      5  C4  UNL d   1      -2.673  -4.690  -3.279  0.00  0.00     0.162 A 
ATOM      6  C5  UNL d   1      -2.848  -3.715  -2.302  0.00  0.00     0.062 A 
ATOM      7  F   UNL d   1      -2.281  -3.866  -1.097  0.00  0.00    -0.097 F 
ATOM      8  F1  UNL d   1      -1.935  -5.772  -2.991  0.00  0.00    -0.096 F 
ATOM      9  I   UNL d   1      -3.001  -5.999  -5.999  0.00  0.00    -0.060 I 
ATOM     10  F2  UNL d   1      -4.600  -3.226  -5.998  0.00  0.00    -0.096 F 
ATOM     11  F3  UNL d   1      -4.928  -1.339  -4.084  0.00  0.00    -0.097 F 
ATOM     12  F4  UNL d   1      -3.774  -1.647  -1.631  0.00  0.00    -0.092 F 
ENDROOT
TORSDOF 0
ENDMDL
