MODEL 1
REMARK minimizedAffinity 6.09484386
REMARK minimizedRMSD -1
REMARK  0 active torsions:
REMARK  status: ('A' for Active; 'I' for Inactive)
ROOT
ATOM      1  C   UNL d   1      -5.007  -3.838  -5.085  0.00  0.00     0.124 A 
ATOM      2  C1  UNL d   1      -4.978  -2.823  -4.139  0.00  0.00     0.062 A 
ATOM      3  C2  UNL d   1      -3.956  -2.773  -3.196  0.00  0.00     0.162 A 
ATOM      4  C3  UNL d   1      -2.954  -3.743  -3.193  0.00  0.00    -0.034 A 
ATOM      5  C4  UNL d   1      -2.990  -4.762  -4.146  0.00  0.00     0.162 A 
ATOM      6  C5  UNL d   1      -4.014  -4.807  -5.087  0.00  0.00     0.062 A 
ATOM      7  F   UNL d   1      -4.040  -5.789  -6.000  0.00  0.00    -0.097 F 
ATOM      8  F1  UNL d   1      -2.042  -5.711  -4.172  0.00  0.00    -0.096 F 
ATOM      9  I   UNL d   1      -1.424  -3.673  -1.784  0.00  0.00    -0.060 I 
ATOM     10  F2  UNL d   1      -3.954  -1.780  -2.294  0.00  0.00    -0.096 F 
ATOM     11  F3  UNL d   1      -5.938  -1.886  -4.134  0.00  0.00    -0.097 F 
ATOM     12  F4  UNL d   1      -5.992  -3.884  -5.991  0.00  0.00    -0.092 F 
ENDROOT
TORSDOF 0
ENDMDL
