MODEL 1
REMARK minimizedAffinity 9.31292725
REMARK minimizedRMSD -1
REMARK  0 active torsions:
REMARK  status: ('A' for Active; 'I' for Inactive)
ROOT
ATOM      1  C   UNL d   1       1.741  -1.728  -0.437  0.00  0.00     0.124 A 
ATOM      2  C1  UNL d   1       2.535  -2.703   0.151  0.00  0.00     0.062 A 
ATOM      3  C2  UNL d   1       2.416  -2.976   1.511  0.00  0.00     0.162 A 
ATOM      4  C3  UNL d   1       1.498  -2.275   2.292  0.00  0.00    -0.034 A 
ATOM      5  C4  UNL d   1       0.703  -1.296   1.694  0.00  0.00     0.162 A 
ATOM      6  C5  UNL d   1       0.825  -1.026   0.335  0.00  0.00     0.062 A 
ATOM      7  F   UNL d   1       0.057  -0.085  -0.232  0.00  0.00    -0.097 F 
ATOM      8  F1  UNL d   1      -0.191  -0.603   2.415  0.00  0.00    -0.096 F 
ATOM      9  I   UNL d   1       1.317  -2.681   4.325  0.00  0.00    -0.060 I 
ATOM     10  F2  UNL d   1       3.197  -3.923   2.053  0.00  0.00    -0.096 F 
ATOM     11  F3  UNL d   1       3.421  -3.382  -0.592  0.00  0.00    -0.097 F 
ATOM     12  F4  UNL d   1       1.858  -1.467  -1.745  0.00  0.00    -0.092 F 
ENDROOT
TORSDOF 0
ENDMDL
