MODEL 1
REMARK minimizedAffinity 7.26626778
REMARK minimizedRMSD -1
REMARK  0 active torsions:
REMARK  status: ('A' for Active; 'I' for Inactive)
ROOT
ATOM      1  C   UNL d   1      -2.441  -5.089  -3.486  0.00  0.00     0.124 A 
ATOM      2  C1  UNL d   1      -2.033  -4.190  -4.461  0.00  0.00     0.062 A 
ATOM      3  C2  UNL d   1      -2.956  -3.331  -5.051  0.00  0.00     0.162 A 
ATOM      4  C3  UNL d   1      -4.296  -3.367  -4.667  0.00  0.00    -0.034 A 
ATOM      5  C4  UNL d   1      -4.699  -4.275  -3.686  0.00  0.00     0.162 A 
ATOM      6  C5  UNL d   1      -3.773  -5.131  -3.099  0.00  0.00     0.062 A 
ATOM      7  F   UNL d   1      -4.169  -5.999  -2.157  0.00  0.00    -0.097 F 
ATOM      8  F1  UNL d   1      -5.980  -4.336  -3.293  0.00  0.00    -0.096 F 
ATOM      9  I   UNL d   1      -5.680  -2.085  -5.547  0.00  0.00    -0.060 I 
ATOM     10  F2  UNL d   1      -2.534  -2.472  -5.991  0.00  0.00    -0.096 F 
ATOM     11  F3  UNL d   1      -0.747  -4.148  -4.837  0.00  0.00    -0.097 F 
ATOM     12  F4  UNL d   1      -1.551  -5.915  -2.920  0.00  0.00    -0.092 F 
ENDROOT
TORSDOF 0
ENDMDL
