MODEL 1
REMARK minimizedAffinity 14.6375484
REMARK minimizedRMSD -1
REMARK  0 active torsions:
REMARK  status: ('A' for Active; 'I' for Inactive)
ROOT
ATOM      1  C   UNL d   1      -4.742  -2.093  -2.654  0.00  0.00     0.124 A 
ATOM      2  C1  UNL d   1      -5.379  -1.905  -3.872  0.00  0.00     0.062 A 
ATOM      3  C2  UNL d   1      -5.374  -2.916  -4.828  0.00  0.00     0.162 A 
ATOM      4  C3  UNL d   1      -4.731  -4.126  -4.569  0.00  0.00    -0.034 A 
ATOM      5  C4  UNL d   1      -4.091  -4.308  -3.342  0.00  0.00     0.162 A 
ATOM      6  C5  UNL d   1      -4.099  -3.294  -2.389  0.00  0.00     0.062 A 
ATOM      7  F   UNL d   1      -3.483  -3.478  -1.212  0.00  0.00    -0.097 F 
ATOM      8  F1  UNL d   1      -3.463  -5.459  -3.060  0.00  0.00    -0.096 F 
ATOM      9  I   UNL d   1      -4.721  -5.641  -5.996  0.00  0.00    -0.060 I 
ATOM     10  F2  UNL d   1      -5.997  -2.706  -5.997  0.00  0.00    -0.096 F 
ATOM     11  F3  UNL d   1      -6.000  -0.745  -4.130  0.00  0.00    -0.097 F 
ATOM     12  F4  UNL d   1      -4.747  -1.118  -1.736  0.00  0.00    -0.092 F 
ENDROOT
TORSDOF 0
ENDMDL
