MODEL 1
REMARK minimizedAffinity 14.8400078
REMARK minimizedRMSD -1
REMARK  0 active torsions:
REMARK  status: ('A' for Active; 'I' for Inactive)
ROOT
ATOM      1  C   UNL d   1      -1.871  -4.910  -4.190  0.00  0.00     0.124 A 
ATOM      2  C1  UNL d   1      -1.853  -3.874  -3.267  0.00  0.00     0.062 A 
ATOM      3  C2  UNL d   1      -2.872  -2.926  -3.259  0.00  0.00     0.162 A 
ATOM      4  C3  UNL d   1      -3.919  -3.010  -4.177  0.00  0.00    -0.034 A 
ATOM      5  C4  UNL d   1      -3.930  -4.054  -5.103  0.00  0.00     0.162 A 
ATOM      6  C5  UNL d   1      -2.909  -5.000  -5.107  0.00  0.00     0.062 A 
ATOM      7  F   UNL d   1      -2.928  -6.000  -6.000  0.00  0.00    -0.097 F 
ATOM      8  F1  UNL d   1      -4.921  -4.165  -6.000  0.00  0.00    -0.096 F 
ATOM      9  I   UNL d   1      -5.445  -1.594  -4.168  0.00  0.00    -0.060 I 
ATOM     10  F2  UNL d   1      -2.829  -1.935  -2.356  0.00  0.00    -0.096 F 
ATOM     11  F3  UNL d   1      -0.851  -3.785  -2.381  0.00  0.00    -0.097 F 
ATOM     12  F4  UNL d   1      -0.889  -5.820  -4.196  0.00  0.00    -0.092 F 
ENDROOT
TORSDOF 0
ENDMDL
