MODEL 1
REMARK minimizedAffinity 8.62762356
REMARK minimizedRMSD -1
REMARK  0 active torsions:
REMARK  status: ('A' for Active; 'I' for Inactive)
ROOT
ATOM      1  C   UNL d   1      -4.467  -2.289  -2.826  0.00  0.00     0.124 A 
ATOM      2  C1  UNL d   1      -3.734  -3.441  -2.575  0.00  0.00     0.062 A 
ATOM      3  C2  UNL d   1      -3.760  -4.499  -3.479  0.00  0.00     0.162 A 
ATOM      4  C3  UNL d   1      -4.521  -4.410  -4.644  0.00  0.00    -0.034 A 
ATOM      5  C4  UNL d   1      -5.257  -3.249  -4.890  0.00  0.00     0.162 A 
ATOM      6  C5  UNL d   1      -5.227  -2.195  -3.983  0.00  0.00     0.062 A 
ATOM      7  F   UNL d   1      -5.936  -1.083  -4.228  0.00  0.00    -0.097 F 
ATOM      8  F1  UNL d   1      -6.000  -3.131  -6.000  0.00  0.00    -0.096 F 
ATOM      9  I   UNL d   1      -4.563  -5.990  -5.998  0.00  0.00    -0.060 I 
ATOM     10  F2  UNL d   1      -3.042  -5.599  -3.210  0.00  0.00    -0.096 F 
ATOM     11  F3  UNL d   1      -2.998  -3.535  -1.457  0.00  0.00    -0.097 F 
ATOM     12  F4  UNL d   1      -4.440  -1.273  -1.954  0.00  0.00    -0.092 F 
ENDROOT
TORSDOF 0
ENDMDL
