MODEL 1
REMARK minimizedAffinity 13.0229712
REMARK minimizedRMSD -1
REMARK  0 active torsions:
REMARK  status: ('A' for Active; 'I' for Inactive)
ROOT
ATOM      1  C   UNL d   1      -4.127  -3.072  -4.111  0.00  0.00     0.124 A 
ATOM      2  C1  UNL d   1      -4.133  -4.130  -5.009  0.00  0.00     0.062 A 
ATOM      3  C2  UNL d   1      -3.025  -4.965  -5.115  0.00  0.00     0.162 A 
ATOM      4  C3  UNL d   1      -1.901  -4.747  -4.319  0.00  0.00    -0.034 A 
ATOM      5  C4  UNL d   1      -1.901  -3.681  -3.418  0.00  0.00     0.162 A 
ATOM      6  C5  UNL d   1      -3.011  -2.848  -3.316  0.00  0.00     0.062 A 
ATOM      7  F   UNL d   1      -3.003  -1.827  -2.448  0.00  0.00    -0.097 F 
ATOM      8  F1  UNL d   1      -0.836  -3.442  -2.638  0.00  0.00    -0.096 F 
ATOM      9  I   UNL d   1      -0.242  -5.994  -4.474  0.00  0.00    -0.060 I 
ATOM     10  F2  UNL d   1      -3.059  -5.980  -5.992  0.00  0.00    -0.096 F 
ATOM     11  F3  UNL d   1      -5.210  -4.347  -5.779  0.00  0.00    -0.097 F 
ATOM     12  F4  UNL d   1      -5.194  -2.269  -4.012  0.00  0.00    -0.092 F 
ENDROOT
TORSDOF 0
ENDMDL
