MODEL 1
REMARK minimizedAffinity 17.2870903
REMARK minimizedRMSD -1
REMARK  0 active torsions:
REMARK  status: ('A' for Active; 'I' for Inactive)
ROOT
ATOM      1  C   UNL d   1       0.370   2.834  -4.585  0.00  0.00     0.124 A 
ATOM      2  C1  UNL d   1       1.501   2.257  -4.025  0.00  0.00     0.062 A 
ATOM      3  C2  UNL d   1       1.379   1.357  -2.970  0.00  0.00     0.162 A 
ATOM      4  C3  UNL d   1       0.120   1.028  -2.468  0.00  0.00    -0.034 A 
ATOM      5  C4  UNL d   1      -1.013   1.614  -3.035  0.00  0.00     0.162 A 
ATOM      6  C5  UNL d   1      -0.886   2.512  -4.090  0.00  0.00     0.062 A 
ATOM      7  F   UNL d   1      -1.980   3.069  -4.629  0.00  0.00    -0.097 F 
ATOM      8  F1  UNL d   1      -2.239   1.319  -2.577  0.00  0.00    -0.096 F 
ATOM      9  I   UNL d   1      -0.067  -0.316  -0.890  0.00  0.00    -0.060 I 
ATOM     10  F2  UNL d   1       2.489   0.815  -2.448  0.00  0.00    -0.096 F 
ATOM     11  F3  UNL d   1       2.716   2.567  -4.501  0.00  0.00    -0.097 F 
ATOM     12  F4  UNL d   1       0.491   3.700  -5.599  0.00  0.00    -0.092 F 
ENDROOT
TORSDOF 0
ENDMDL
