MODEL 1
REMARK minimizedAffinity 9.86368752
REMARK minimizedRMSD -1
REMARK  0 active torsions:
REMARK  status: ('A' for Active; 'I' for Inactive)
ROOT
ATOM      1  C   UNL d   1      -1.467  -5.535  -2.826  0.00  0.00     0.124 A 
ATOM      2  C1  UNL d   1      -2.652  -5.541  -2.104  0.00  0.00     0.062 A 
ATOM      3  C2  UNL d   1      -3.832  -5.095  -2.691  0.00  0.00     0.162 A 
ATOM      4  C3  UNL d   1      -3.834  -4.639  -4.009  0.00  0.00    -0.034 A 
ATOM      5  C4  UNL d   1      -2.638  -4.635  -4.729  0.00  0.00     0.162 A 
ATOM      6  C5  UNL d   1      -1.461  -5.082  -4.138  0.00  0.00     0.062 A 
ATOM      7  F   UNL d   1      -0.317  -5.075  -4.838  0.00  0.00    -0.097 F 
ATOM      8  F1  UNL d   1      -2.604  -4.204  -5.999  0.00  0.00    -0.096 F 
ATOM      9  I   UNL d   1      -5.597  -3.971  -4.891  0.00  0.00    -0.060 I 
ATOM     10  F2  UNL d   1      -4.962  -5.112  -1.969  0.00  0.00    -0.096 F 
ATOM     11  F3  UNL d   1      -2.660  -5.977  -0.836  0.00  0.00    -0.097 F 
ATOM     12  F4  UNL d   1      -0.332  -5.963  -2.259  0.00  0.00    -0.092 F 
ENDROOT
TORSDOF 0
ENDMDL
