MODEL 1
REMARK minimizedAffinity 8.59495926
REMARK minimizedRMSD -1
REMARK  0 active torsions:
REMARK  status: ('A' for Active; 'I' for Inactive)
ROOT
ATOM      1  C   UNL d   1      -0.759  -0.780  -0.581  0.00  0.00     0.124 A 
ATOM      2  C1  UNL d   1       0.457  -0.267  -0.154  0.00  0.00     0.062 A 
ATOM      3  C2  UNL d   1       1.048  -0.746   1.013  0.00  0.00     0.162 A 
ATOM      4  C3  UNL d   1       0.423  -1.744   1.759  0.00  0.00    -0.034 A 
ATOM      5  C4  UNL d   1      -0.801  -2.255   1.323  0.00  0.00     0.162 A 
ATOM      6  C5  UNL d   1      -1.387  -1.773   0.157  0.00  0.00     0.062 A 
ATOM      7  F   UNL d   1      -2.563  -2.270  -0.255  0.00  0.00    -0.097 F 
ATOM      8  F1  UNL d   1      -1.429  -3.216   2.017  0.00  0.00    -0.096 F 
ATOM      9  I   UNL d   1       1.302  -2.462   3.503  0.00  0.00    -0.060 I 
ATOM     10  F2  UNL d   1       2.224  -0.231   1.402  0.00  0.00    -0.096 F 
ATOM     11  F3  UNL d   1       1.066   0.693  -0.865  0.00  0.00    -0.097 F 
ATOM     12  F4  UNL d   1      -1.326  -0.318  -1.703  0.00  0.00    -0.092 F 
ENDROOT
TORSDOF 0
ENDMDL
