MODEL 1
REMARK minimizedAffinity 5.71953392
REMARK minimizedRMSD -1
REMARK  0 active torsions:
REMARK  status: ('A' for Active; 'I' for Inactive)
ROOT
ATOM      1  C   UNL d   1      -4.013  -2.508  -3.107  0.00  0.00     0.124 A 
ATOM      2  C1  UNL d   1      -4.771  -2.998  -4.161  0.00  0.00     0.062 A 
ATOM      3  C2  UNL d   1      -4.261  -3.995  -4.987  0.00  0.00     0.162 A 
ATOM      4  C3  UNL d   1      -2.984  -4.509  -4.762  0.00  0.00    -0.034 A 
ATOM      5  C4  UNL d   1      -2.226  -4.011  -3.701  0.00  0.00     0.162 A 
ATOM      6  C5  UNL d   1      -2.741  -3.015  -2.878  0.00  0.00     0.062 A 
ATOM      7  F   UNL d   1      -2.007  -2.543  -1.860  0.00  0.00    -0.097 F 
ATOM      8  F1  UNL d   1      -0.995  -4.484  -3.456  0.00  0.00    -0.096 F 
ATOM      9  I   UNL d   1      -2.217  -6.000  -5.996  0.00  0.00    -0.060 I 
ATOM     10  F2  UNL d   1      -5.016  -4.449  -5.998  0.00  0.00    -0.096 F 
ATOM     11  F3  UNL d   1      -6.000  -2.509  -4.384  0.00  0.00    -0.097 F 
ATOM     12  F4  UNL d   1      -4.506  -1.548  -2.314  0.00  0.00    -0.092 F 
ENDROOT
TORSDOF 0
ENDMDL
