MODEL 1
REMARK minimizedAffinity 11.8208179
REMARK minimizedRMSD -1
REMARK  0 active torsions:
REMARK  status: ('A' for Active; 'I' for Inactive)
ROOT
ATOM      1  C   UNL d   1      -0.866  -2.008   1.268  0.00  0.00     0.124 A 
ATOM      2  C1  UNL d   1      -1.187  -0.802   0.659  0.00  0.00     0.062 A 
ATOM      3  C2  UNL d   1      -0.213   0.178   0.489  0.00  0.00     0.162 A 
ATOM      4  C3  UNL d   1       1.092  -0.044   0.928  0.00  0.00    -0.034 A 
ATOM      5  C4  UNL d   1       1.407  -1.259   1.541  0.00  0.00     0.162 A 
ATOM      6  C5  UNL d   1       0.430  -2.235   1.708  0.00  0.00     0.062 A 
ATOM      7  F   UNL d   1       0.742  -3.399   2.296  0.00  0.00    -0.097 F 
ATOM      8  F1  UNL d   1       2.652  -1.505   1.975  0.00  0.00    -0.096 F 
ATOM      9  I   UNL d   1       2.551   1.418   0.677  0.00  0.00    -0.060 I 
ATOM     10  F2  UNL d   1      -0.552   1.333  -0.102  0.00  0.00    -0.096 F 
ATOM     11  F3  UNL d   1      -2.439  -0.580   0.234  0.00  0.00    -0.097 F 
ATOM     12  F4  UNL d   1      -1.806  -2.948   1.430  0.00  0.00    -0.092 F 
ENDROOT
TORSDOF 0
ENDMDL
