MODEL 1
REMARK minimizedAffinity 12.2412872
REMARK minimizedRMSD -1
REMARK  0 active torsions:
REMARK  status: ('A' for Active; 'I' for Inactive)
ROOT
ATOM      1  C   UNL d   1      -2.745  -4.950  -3.906  0.00  0.00     0.124 A 
ATOM      2  C1  UNL d   1      -3.661  -4.871  -4.945  0.00  0.00     0.062 A 
ATOM      3  C2  UNL d   1      -4.590  -3.835  -4.982  0.00  0.00     0.162 A 
ATOM      4  C3  UNL d   1      -4.608  -2.869  -3.976  0.00  0.00    -0.034 A 
ATOM      5  C4  UNL d   1      -3.684  -2.956  -2.933  0.00  0.00     0.162 A 
ATOM      6  C5  UNL d   1      -2.757  -3.993  -2.901  0.00  0.00     0.062 A 
ATOM      7  F   UNL d   1      -1.873  -4.067  -1.896  0.00  0.00    -0.097 F 
ATOM      8  F1  UNL d   1      -3.673  -2.044  -1.950  0.00  0.00    -0.096 F 
ATOM      9  I   UNL d   1      -5.996  -1.319  -4.028  0.00  0.00    -0.060 I 
ATOM     10  F2  UNL d   1      -5.464  -3.784  -5.999  0.00  0.00    -0.096 F 
ATOM     11  F3  UNL d   1      -3.652  -5.795  -5.917  0.00  0.00    -0.097 F 
ATOM     12  F4  UNL d   1      -1.852  -5.948  -3.872  0.00  0.00    -0.092 F 
ENDROOT
TORSDOF 0
ENDMDL
