MODEL 1
REMARK minimizedAffinity -5.78091812
REMARK minimizedRMSD -1
REMARK  1 active torsions:
REMARK  status: ('A' for Active; 'I' for Inactive)
REMARK    1  A    between atoms: C1_2  and  C2_3 
ROOT
ATOM      1  C2  UNL d   1      -0.341   0.139  -0.515  0.00  0.00    -0.081 A 
ATOM      2  C3  UNL d   1      -1.054   0.078   0.689  0.00  0.00     0.006 A 
ATOM      3  C4  UNL d   1      -0.416  -0.302   1.872  0.00  0.00     0.002 A 
ATOM      4  C5  UNL d   1       0.946  -0.619   1.873  0.00  0.00    -0.080 A 
ATOM      5  C6  UNL d   1       1.650  -0.999   3.141  0.00  0.00     0.076 C 
ATOM      6  C7  UNL d   1       1.655  -0.576   0.667  0.00  0.00     0.002 A 
ATOM      7  C8  UNL d   1       1.017  -0.197  -0.516  0.00  0.00     0.006 A 
ENDROOT
BRANCH   1   8
ATOM      8  C1  UNL d   1      -1.011   0.611  -1.780  0.00  0.00     0.054 C 
ATOM      9  C   UNL d   1      -0.566   2.018  -2.151  0.00  0.00     0.018 C 
ENDBRANCH   1   8
TORSDOF 1
ENDMDL
