MODEL 1
REMARK minimizedAffinity -5.3858037
REMARK minimizedRMSD -1
REMARK  1 active torsions:
REMARK  status: ('A' for Active; 'I' for Inactive)
REMARK    1  A    between atoms: C1_2  and  C2_3 
ROOT
ATOM      1  C2  UNL d   1       0.184  -0.146  -0.604  0.00  0.00    -0.081 A 
ATOM      2  C3  UNL d   1      -0.365   0.120   0.656  0.00  0.00     0.006 A 
ATOM      3  C4  UNL d   1       0.225  -0.400   1.810  0.00  0.00     0.002 A 
ATOM      4  C5  UNL d   1       1.378  -1.187   1.724  0.00  0.00    -0.080 A 
ATOM      5  C6  UNL d   1       2.040  -1.727   2.958  0.00  0.00     0.076 C 
ATOM      6  C7  UNL d   1       1.918  -1.467   0.464  0.00  0.00     0.002 A 
ATOM      7  C8  UNL d   1       1.327  -0.948  -0.690  0.00  0.00     0.006 A 
ENDROOT
BRANCH   1   8
ATOM      8  C1  UNL d   1      -0.413   0.467  -1.845  0.00  0.00     0.054 C 
ATOM      9  C   UNL d   1      -0.095   1.953  -1.936  0.00  0.00     0.018 C 
ENDBRANCH   1   8
TORSDOF 1
ENDMDL
