MODEL 1
REMARK minimizedAffinity -4.08064508
REMARK minimizedRMSD -1
REMARK  1 active torsions:
REMARK  status: ('A' for Active; 'I' for Inactive)
REMARK    1  A    between atoms: C1_2  and  C2_3 
ROOT
ATOM      1  C2  UNL d   1       1.796  -1.330   1.193  0.00  0.00    -0.081 A 
ATOM      2  C3  UNL d   1       1.058  -1.436   2.379  0.00  0.00     0.006 A 
ATOM      3  C4  UNL d   1      -0.211  -0.860   2.477  0.00  0.00     0.002 A 
ATOM      4  C5  UNL d   1      -0.766  -0.176   1.390  0.00  0.00    -0.080 A 
ATOM      5  C6  UNL d   1      -2.139   0.421   1.473  0.00  0.00     0.076 C 
ATOM      6  C7  UNL d   1      -0.022  -0.055   0.212  0.00  0.00     0.002 A 
ATOM      7  C8  UNL d   1       1.247  -0.630   0.113  0.00  0.00     0.006 A 
ENDROOT
BRANCH   1   8
ATOM      8  C1  UNL d   1       3.137  -2.005   1.062  0.00  0.00     0.054 C 
ATOM      9  C   UNL d   1       3.433  -2.371  -0.386  0.00  0.00     0.018 C 
ENDBRANCH   1   8
TORSDOF 1
ENDMDL
