MODEL 1
REMARK minimizedAffinity -4.47930384
REMARK minimizedRMSD -1
REMARK  1 active torsions:
REMARK  status: ('A' for Active; 'I' for Inactive)
REMARK    1  A    between atoms: C1_2  and  C2_3 
ROOT
ATOM      1  C2  UNL d   1      -0.171  -0.067  -0.733  0.00  0.00    -0.081 A 
ATOM      2  C3  UNL d   1      -0.994  -0.051   0.400  0.00  0.00     0.006 A 
ATOM      3  C4  UNL d   1      -0.483  -0.403   1.651  0.00  0.00     0.002 A 
ATOM      4  C5  UNL d   1       0.860  -0.769   1.792  0.00  0.00    -0.080 A 
ATOM      5  C6  UNL d   1       1.429  -1.120   3.135  0.00  0.00     0.076 C 
ATOM      6  C7  UNL d   1       1.678  -0.802   0.657  0.00  0.00     0.002 A 
ATOM      7  C8  UNL d   1       1.167  -0.451  -0.594  0.00  0.00     0.006 A 
ENDROOT
BRANCH   1   8
ATOM      8  C1  UNL d   1      -0.703   0.374  -2.073  0.00  0.00     0.054 C 
ATOM      9  C   UNL d   1      -1.037   1.859  -2.073  0.00  0.00     0.018 C 
ENDBRANCH   1   8
TORSDOF 1
ENDMDL
