MODEL 1
REMARK minimizedAffinity -4.29342222
REMARK minimizedRMSD -1
REMARK  1 active torsions:
REMARK  status: ('A' for Active; 'I' for Inactive)
REMARK    1  A    between atoms: C1_2  and  C2_3 
ROOT
ATOM      1  C2  UNL d   1       0.275  -1.355   1.370  0.00  0.00    -0.081 A 
ATOM      2  C3  UNL d   1       0.950  -1.580   0.164  0.00  0.00     0.006 A 
ATOM      3  C4  UNL d   1       0.632  -0.835  -0.974  0.00  0.00     0.002 A 
ATOM      4  C5  UNL d   1      -0.359   0.151  -0.924  0.00  0.00    -0.080 A 
ATOM      5  C6  UNL d   1      -0.688   0.978  -2.131  0.00  0.00     0.076 C 
ATOM      6  C7  UNL d   1      -1.045   0.363   0.276  0.00  0.00     0.002 A 
ATOM      7  C8  UNL d   1      -0.729  -0.381   1.415  0.00  0.00     0.006 A 
ENDROOT
BRANCH   1   8
ATOM      8  C1  UNL d   1       0.659  -2.111   2.616  0.00  0.00     0.054 C 
ATOM      9  C   UNL d   1       1.917  -2.939   2.395  0.00  0.00     0.018 C 
ENDBRANCH   1   8
TORSDOF 1
ENDMDL
