MODEL 1
REMARK minimizedAffinity -5.28756666
REMARK minimizedRMSD -1
REMARK  1 active torsions:
REMARK  status: ('A' for Active; 'I' for Inactive)
REMARK    1  A    between atoms: C1_2  and  C2_3 
ROOT
ATOM      1  C2  UNL d   1      -0.144  -0.279  -0.525  0.00  0.00    -0.081 A 
ATOM      2  C3  UNL d   1      -0.888  -0.377   0.657  0.00  0.00     0.006 A 
ATOM      3  C4  UNL d   1      -0.272  -0.755   1.852  0.00  0.00     0.002 A 
ATOM      4  C5  UNL d   1       1.099  -1.034   1.887  0.00  0.00    -0.080 A 
ATOM      5  C6  UNL d   1       1.778  -1.412   3.169  0.00  0.00     0.076 C 
ATOM      6  C7  UNL d   1       1.838  -0.954   0.702  0.00  0.00     0.002 A 
ATOM      7  C8  UNL d   1       1.223  -0.576  -0.493  0.00  0.00     0.006 A 
ENDROOT
BRANCH   1   8
ATOM      8  C1  UNL d   1      -0.793   0.191  -1.802  0.00  0.00     0.054 C 
ATOM      9  C   UNL d   1      -0.894   1.709  -1.845  0.00  0.00     0.018 C 
ENDBRANCH   1   8
TORSDOF 1
ENDMDL
