MODEL 1
REMARK minimizedAffinity -6.14314032
REMARK minimizedRMSD -1
REMARK  1 active torsions:
REMARK  status: ('A' for Active; 'I' for Inactive)
REMARK    1  A    between atoms: C1_2  and  C2_3 
ROOT
ATOM      1  C2  UNL d   1       0.891  -0.912   1.075  0.00  0.00    -0.081 A 
ATOM      2  C3  UNL d   1       1.092  -1.227  -0.274  0.00  0.00     0.006 A 
ATOM      3  C4  UNL d   1       0.400  -0.537  -1.273  0.00  0.00     0.002 A 
ATOM      4  C5  UNL d   1      -0.496   0.484  -0.940  0.00  0.00    -0.080 A 
ATOM      5  C6  UNL d   1      -1.221   1.253  -2.004  0.00  0.00     0.076 C 
ATOM      6  C7  UNL d   1      -0.709   0.787   0.409  0.00  0.00     0.002 A 
ATOM      7  C8  UNL d   1      -0.019   0.097   1.408  0.00  0.00     0.006 A 
ENDROOT
BRANCH   1   8
ATOM      8  C1  UNL d   1       1.683  -1.610   2.151  0.00  0.00     0.054 C 
ATOM      9  C   UNL d   1       1.474  -0.951   3.507  0.00  0.00     0.018 C 
ENDBRANCH   1   8
TORSDOF 1
ENDMDL
