MODEL 1
REMARK minimizedAffinity -2.83272624
REMARK minimizedRMSD -1
REMARK  0 active torsions:
REMARK  status: ('A' for Active; 'I' for Inactive)
ROOT
ATOM      1  C1  BNZ d   1       2.797  -1.280  -0.990  0.00  0.00     0.000 A 
ATOM      2  C2  BNZ d   1       2.196  -1.985   0.019  0.00  0.00     0.000 A 
ATOM      3  C3  BNZ d   1       1.281  -1.388   0.840  0.00  0.00     0.000 A 
ATOM      4  C4  BNZ d   1       0.998  -0.079   0.678  0.00  0.00     0.000 A 
ATOM      5  C5  BNZ d   1       1.603   0.647  -0.328  0.00  0.00     0.000 A 
ATOM      6  C6  BNZ d   1       2.495   0.033  -1.178  0.00  0.00     0.000 A 
ENDROOT
TORSDOF 0
ENDMDL
