MODEL 1
REMARK minimizedAffinity 0.40708974
REMARK minimizedRMSD -1
REMARK  0 active torsions:
REMARK  status: ('A' for Active; 'I' for Inactive)
ROOT
ATOM      1  C1  BNZ d   1       0.367  -0.025   0.869  0.00  0.00     0.000 A 
ATOM      2  C2  BNZ d   1       0.815  -1.225   0.386  0.00  0.00     0.000 A 
ATOM      3  C3  BNZ d   1       2.051  -1.331  -0.189  0.00  0.00     0.000 A 
ATOM      4  C4  BNZ d   1       2.820  -0.230  -0.315  0.00  0.00     0.000 A 
ATOM      5  C5  BNZ d   1       2.378   0.989   0.159  0.00  0.00     0.000 A 
ATOM      6  C6  BNZ d   1       1.150   1.084   0.772  0.00  0.00     0.000 A 
ENDROOT
TORSDOF 0
ENDMDL
