MODEL 1
REMARK minimizedAffinity -1.51287782
REMARK minimizedRMSD -1
REMARK  0 active torsions:
REMARK  status: ('A' for Active; 'I' for Inactive)
ROOT
ATOM      1  C1  BNZ d   1       0.029  -1.230   1.236  0.00  0.00     0.000 A 
ATOM      2  C2  BNZ d   1       0.766  -1.513   0.117  0.00  0.00     0.000 A 
ATOM      3  C3  BNZ d   1       1.747  -0.661  -0.309  0.00  0.00     0.000 A 
ATOM      4  C4  BNZ d   1       1.962   0.490   0.361  0.00  0.00     0.000 A 
ATOM      5  C5  BNZ d   1       1.221   0.794   1.485  0.00  0.00     0.000 A 
ATOM      6  C6  BNZ d   1       0.261  -0.085   1.933  0.00  0.00     0.000 A 
ENDROOT
TORSDOF 0
ENDMDL
