MODEL 1
REMARK minimizedAffinity -1.63548028
REMARK minimizedRMSD -1
REMARK  0 active torsions:
REMARK  status: ('A' for Active; 'I' for Inactive)
ROOT
ATOM      1  C1  BNZ d   1       2.572   0.666  -0.385  0.00  0.00     0.000 A 
ATOM      2  C2  BNZ d   1       1.695   1.087   0.580  0.00  0.00     0.000 A 
ATOM      3  C3  BNZ d   1       0.800   0.218   1.138  0.00  0.00     0.000 A 
ATOM      4  C4  BNZ d   1       0.754  -1.058   0.704  0.00  0.00     0.000 A 
ATOM      5  C5  BNZ d   1       1.625  -1.495  -0.275  0.00  0.00     0.000 A 
ATOM      6  C6  BNZ d   1       2.551  -0.627  -0.807  0.00  0.00     0.000 A 
ENDROOT
TORSDOF 0
ENDMDL
