MODEL 1
REMARK minimizedAffinity -1.77883446
REMARK minimizedRMSD -1
REMARK  0 active torsions:
REMARK  status: ('A' for Active; 'I' for Inactive)
ROOT
ATOM      1  C1  BNZ d   1       1.243  -0.847  -0.328  0.00  0.00     0.000 A 
ATOM      2  C2  BNZ d   1       2.151  -1.618  -1.004  0.00  0.00     0.000 A 
ATOM      3  C3  BNZ d   1       3.195  -1.043  -1.674  0.00  0.00     0.000 A 
ATOM      4  C4  BNZ d   1       3.306   0.300  -1.701  0.00  0.00     0.000 A 
ATOM      5  C5  BNZ d   1       2.394   1.091  -1.032  0.00  0.00     0.000 A 
ATOM      6  C6  BNZ d   1       1.367   0.508  -0.326  0.00  0.00     0.000 A 
ENDROOT
TORSDOF 0
ENDMDL
