MODEL 1
REMARK minimizedAffinity -0.437894553
REMARK minimizedRMSD -1
REMARK  0 active torsions:
REMARK  status: ('A' for Active; 'I' for Inactive)
ROOT
ATOM      1  C1  BNZ d   1       3.098  -1.486  -1.286  0.00  0.00     0.000 A 
ATOM      2  C2  BNZ d   1       2.006  -1.543  -0.462  0.00  0.00     0.000 A 
ATOM      3  C3  BNZ d   1       1.298  -0.414  -0.160  0.00  0.00     0.000 A 
ATOM      4  C4  BNZ d   1       1.705   0.775  -0.649  0.00  0.00     0.000 A 
ATOM      5  C5  BNZ d   1       2.809   0.850  -1.474  0.00  0.00     0.000 A 
ATOM      6  C6  BNZ d   1       3.497  -0.294  -1.807  0.00  0.00     0.000 A 
ENDROOT
TORSDOF 0
ENDMDL
