MODEL 1
REMARK minimizedAffinity -1.95401037
REMARK minimizedRMSD -1
REMARK  0 active torsions:
REMARK  status: ('A' for Active; 'I' for Inactive)
ROOT
ATOM      1  C1  BNZ d   1       3.909  -1.329  -1.309  0.00  0.00     0.000 A 
ATOM      2  C2  BNZ d   1       2.687  -1.439  -0.701  0.00  0.00     0.000 A 
ATOM      3  C3  BNZ d   1       1.901  -0.338  -0.504  0.00  0.00     0.000 A 
ATOM      4  C4  BNZ d   1       2.354   0.875  -0.879  0.00  0.00     0.000 A 
ATOM      5  C5  BNZ d   1       3.587   1.004  -1.485  0.00  0.00     0.000 A 
ATOM      6  C6  BNZ d   1       4.359  -0.111  -1.717  0.00  0.00     0.000 A 
ENDROOT
TORSDOF 0
ENDMDL
