MODEL 1
REMARK minimizedAffinity -1.26881433
REMARK minimizedRMSD -1
REMARK  0 active torsions:
REMARK  status: ('A' for Active; 'I' for Inactive)
ROOT
ATOM      1  C1  BNZ d   1       3.002   0.671  -1.040  0.00  0.00     0.000 A 
ATOM      2  C2  BNZ d   1       1.812   0.588  -0.367  0.00  0.00     0.000 A 
ATOM      3  C3  BNZ d   1       1.318  -0.621   0.035  0.00  0.00     0.000 A 
ATOM      4  C4  BNZ d   1       1.992  -1.748  -0.271  0.00  0.00     0.000 A 
ATOM      5  C5  BNZ d   1       3.189  -1.682  -0.957  0.00  0.00     0.000 A 
ATOM      6  C6  BNZ d   1       3.703  -0.460  -1.326  0.00  0.00     0.000 A 
ENDROOT
TORSDOF 0
ENDMDL
