MODEL 1
REMARK minimizedAffinity -0.269269139
REMARK minimizedRMSD -1
REMARK  0 active torsions:
REMARK  status: ('A' for Active; 'I' for Inactive)
ROOT
ATOM      1  C1  BNZ d   1       1.578  -1.146   0.074  0.00  0.00     0.000 A 
ATOM      2  C2  BNZ d   1       0.537  -1.771   0.708  0.00  0.00     0.000 A 
ATOM      3  C3  BNZ d   1      -0.135  -1.153   1.726  0.00  0.00     0.000 A 
ATOM      4  C4  BNZ d   1       0.261   0.069   2.136  0.00  0.00     0.000 A 
ATOM      5  C5  BNZ d   1       1.315   0.708   1.513  0.00  0.00     0.000 A 
ATOM      6  C6  BNZ d   1       1.963   0.100   0.463  0.00  0.00     0.000 A 
ENDROOT
TORSDOF 0
ENDMDL
