MODEL 1
REMARK minimizedAffinity -3.34700418
REMARK minimizedRMSD -1
REMARK  0 active torsions:
REMARK  status: ('A' for Active; 'I' for Inactive)
ROOT
ATOM      1  C1  BNZ d   1       1.017   0.002   0.816  0.00  0.00     0.000 A 
ATOM      2  C2  BNZ d   1       1.491  -1.252   0.536  0.00  0.00     0.000 A 
ATOM      3  C3  BNZ d   1       2.293  -1.472  -0.549  0.00  0.00     0.000 A 
ATOM      4  C4  BNZ d   1       2.587  -0.446  -1.374  0.00  0.00     0.000 A 
ATOM      5  C5  BNZ d   1       2.109   0.822  -1.111  0.00  0.00     0.000 A 
ATOM      6  C6  BNZ d   1       1.334   1.047   0.003  0.00  0.00     0.000 A 
ENDROOT
TORSDOF 0
ENDMDL
