MODEL 1
REMARK minimizedAffinity 3.86512542
REMARK minimizedRMSD -1
REMARK  0 active torsions:
REMARK  status: ('A' for Active; 'I' for Inactive)
ROOT
ATOM      1  C1  BNZ d   1       0.257   3.312  -3.377  0.00  0.00     0.000 A 
ATOM      2  C2  BNZ d   1       0.439   4.514  -2.746  0.00  0.00     0.000 A 
ATOM      3  C3  BNZ d   1      -0.619   5.183  -2.195  0.00  0.00     0.000 A 
ATOM      4  C4  BNZ d   1      -1.860   4.670  -2.311  0.00  0.00     0.000 A 
ATOM      5  C5  BNZ d   1      -2.062   3.464  -2.953  0.00  0.00     0.000 A 
ATOM      6  C6  BNZ d   1      -0.990   2.775  -3.471  0.00  0.00     0.000 A 
ENDROOT
TORSDOF 0
ENDMDL
