MODEL 1
REMARK minimizedAffinity -2.19076204
REMARK minimizedRMSD -1
REMARK  0 active torsions:
REMARK  status: ('A' for Active; 'I' for Inactive)
ROOT
ATOM      1  C1  BNZ d   1       2.302  -1.131  -0.057  0.00  0.00     0.000 A 
ATOM      2  C2  BNZ d   1       1.461  -2.129   0.359  0.00  0.00     0.000 A 
ATOM      3  C3  BNZ d   1       0.407  -1.857   1.186  0.00  0.00     0.000 A 
ATOM      4  C4  BNZ d   1       0.219  -0.596   1.628  0.00  0.00     0.000 A 
ATOM      5  C5  BNZ d   1       1.064   0.419   1.224  0.00  0.00     0.000 A 
ATOM      6  C6  BNZ d   1       2.100   0.148   0.361  0.00  0.00     0.000 A 
ENDROOT
TORSDOF 0
ENDMDL
