MODEL 1
REMARK minimizedAffinity -1.24692118
REMARK minimizedRMSD -1
REMARK  0 active torsions:
REMARK  status: ('A' for Active; 'I' for Inactive)
ROOT
ATOM      1  C1  BNZ d   1       2.606  -1.493   0.017  0.00  0.00     0.000 A 
ATOM      2  C2  BNZ d   1       1.549  -1.877   0.798  0.00  0.00     0.000 A 
ATOM      3  C3  BNZ d   1       0.592  -0.976   1.173  0.00  0.00     0.000 A 
ATOM      4  C4  BNZ d   1       0.715   0.315   0.801  0.00  0.00     0.000 A 
ATOM      5  C5  BNZ d   1       1.781   0.719   0.022  0.00  0.00     0.000 A 
ATOM      6  C6  BNZ d   1       2.721  -0.199  -0.386  0.00  0.00     0.000 A 
ENDROOT
TORSDOF 0
ENDMDL
