MODEL 1
REMARK minimizedAffinity -0.429524571
REMARK minimizedRMSD -1
REMARK  0 active torsions:
REMARK  status: ('A' for Active; 'I' for Inactive)
ROOT
ATOM      1  C1  BNZ d   1       1.830  -1.353   0.710  0.00  0.00     0.000 A 
ATOM      2  C2  BNZ d   1       0.856  -1.864   1.526  0.00  0.00     0.000 A 
ATOM      3  C3  BNZ d   1      -0.190  -1.086   1.940  0.00  0.00     0.000 A 
ATOM      4  C4  BNZ d   1      -0.239   0.210   1.571  0.00  0.00     0.000 A 
ATOM      5  C5  BNZ d   1       0.741   0.742   0.756  0.00  0.00     0.000 A 
ATOM      6  C6  BNZ d   1       1.771  -0.053   0.310  0.00  0.00     0.000 A 
ENDROOT
TORSDOF 0
ENDMDL
