MODEL 1
REMARK minimizedAffinity 17.2881737
REMARK minimizedRMSD -1
REMARK  0 active torsions:
REMARK  status: ('A' for Active; 'I' for Inactive)
ROOT
ATOM      1  N1  IND d   1      -1.564  -4.301  -1.188  0.00  0.00    -0.196 N 
ATOM      2  C2  IND d   1      -0.517  -5.176  -1.100  0.00  0.00     0.054 A 
ATOM      3  C3  IND d   1      -0.494  -5.991  -2.179  0.00  0.00    -0.031 A 
ATOM      4  C4  IND d   1      -2.014  -5.998  -4.256  0.00  0.00     0.051 A 
ATOM      5  C5  IND d   1      -3.133  -5.409  -4.774  0.00  0.00    -0.031 A 
ATOM      6  C6  IND d   1      -3.798  -4.398  -4.111  0.00  0.00     0.015 A 
ATOM      7  C7  IND d   1      -3.360  -3.928  -2.905  0.00  0.00    -0.016 A 
ATOM      8  C8  IND d   1      -2.228  -4.529  -2.373  0.00  0.00    -0.047 A 
ATOM      9  C9  IND d   1      -1.574  -5.585  -3.021  0.00  0.00    -0.096 A 
ATOM     10  HN1 IND d   1      -1.772  -3.707  -0.602  0.00  0.00     0.298 HD
ENDROOT
TORSDOF 0
ENDMDL
