MODEL 1
REMARK minimizedAffinity 10.787097
REMARK minimizedRMSD -1
REMARK  0 active torsions:
REMARK  status: ('A' for Active; 'I' for Inactive)
ROOT
ATOM      1  N1  IND d   1       2.626   0.728   0.217  0.00  0.00    -0.196 N 
ATOM      2  C2  IND d   1       2.291  -0.485  -0.318  0.00  0.00     0.054 A 
ATOM      3  C3  IND d   1       3.169  -0.830  -1.286  0.00  0.00    -0.031 A 
ATOM      4  C4  IND d   1       5.286   0.396  -2.088  0.00  0.00     0.051 A 
ATOM      5  C5  IND d   1       5.984   1.560  -1.924  0.00  0.00    -0.031 A 
ATOM      6  C6  IND d   1       5.592   2.524  -1.018  0.00  0.00     0.015 A 
ATOM      7  C7  IND d   1       4.488   2.354  -0.230  0.00  0.00    -0.016 A 
ATOM      8  C8  IND d   1       3.773   1.177  -0.399  0.00  0.00    -0.047 A 
ATOM      9  C9  IND d   1       4.142   0.214  -1.347  0.00  0.00    -0.096 A 
ATOM     10  HN1 IND d   1       2.192   1.141   0.834  0.00  0.00     0.298 HD
ENDROOT
TORSDOF 0
ENDMDL
