MODEL 1
REMARK minimizedAffinity 3.95367908
REMARK minimizedRMSD -1
REMARK  0 active torsions:
REMARK  status: ('A' for Active; 'I' for Inactive)
ROOT
ATOM      1  N1  IND d   1       2.299   0.628  -0.339  0.00  0.00    -0.196 N 
ATOM      2  C2  IND d   1       3.649   0.832  -0.416  0.00  0.00     0.054 A 
ATOM      3  C3  IND d   1       4.277  -0.310  -0.774  0.00  0.00    -0.031 A 
ATOM      4  C4  IND d   1       3.280  -2.604  -1.382  0.00  0.00     0.051 A 
ATOM      5  C5  IND d   1       2.098  -3.288  -1.424  0.00  0.00    -0.031 A 
ATOM      6  C6  IND d   1       0.897  -2.688  -1.102  0.00  0.00     0.015 A 
ATOM      7  C7  IND d   1       0.833  -1.374  -0.736  0.00  0.00    -0.016 A 
ATOM      8  C8  IND d   1       2.033  -0.678  -0.686  0.00  0.00    -0.047 A 
ATOM      9  C9  IND d   1       3.259  -1.293  -0.970  0.00  0.00    -0.096 A 
ATOM     10  HN1 IND d   1       1.715   1.217  -0.113  0.00  0.00     0.298 HD
ENDROOT
TORSDOF 0
ENDMDL
