MODEL 1
REMARK minimizedAffinity 6.8034997
REMARK minimizedRMSD -1
REMARK  0 active torsions:
REMARK  status: ('A' for Active; 'I' for Inactive)
ROOT
ATOM      1  N1  IND d   1       5.124   4.404  -2.043  0.00  0.00    -0.196 N 
ATOM      2  C2  IND d   1       5.736   5.364  -1.286  0.00  0.00     0.054 A 
ATOM      3  C3  IND d   1       5.989   4.892  -0.044  0.00  0.00    -0.031 A 
ATOM      4  C4  IND d   1       5.577   2.545   0.930  0.00  0.00     0.051 A 
ATOM      5  C5  IND d   1       5.007   1.340   0.630  0.00  0.00    -0.031 A 
ATOM      6  C6  IND d   1       4.439   1.088  -0.601  0.00  0.00     0.015 A 
ATOM      7  C7  IND d   1       4.428   2.033  -1.588  0.00  0.00    -0.016 A 
ATOM      8  C8  IND d   1       4.999   3.261  -1.285  0.00  0.00    -0.047 A 
ATOM      9  C9  IND d   1       5.540   3.536  -0.023  0.00  0.00    -0.096 A 
ATOM     10  HN1 IND d   1       4.861   4.498  -2.857  0.00  0.00     0.298 HD
ENDROOT
TORSDOF 0
ENDMDL
