MODEL 1
REMARK minimizedAffinity 17.2650757
REMARK minimizedRMSD -1
REMARK  0 active torsions:
REMARK  status: ('A' for Active; 'I' for Inactive)
ROOT
ATOM      1  N1  IND d   1      -2.979  -3.798  -2.514  0.00  0.00    -0.196 N 
ATOM      2  C2  IND d   1      -1.817  -4.152  -1.887  0.00  0.00     0.054 A 
ATOM      3  C3  IND d   1      -1.134  -5.048  -2.634  0.00  0.00    -0.031 A 
ATOM      4  C4  IND d   1      -1.687  -5.996  -4.963  0.00  0.00     0.051 A 
ATOM      5  C5  IND d   1      -2.661  -5.998  -5.922  0.00  0.00    -0.031 A 
ATOM      6  C6  IND d   1      -3.813  -5.249  -5.792  0.00  0.00     0.015 A 
ATOM      7  C7  IND d   1      -4.029  -4.458  -4.699  0.00  0.00    -0.016 A 
ATOM      8  C8  IND d   1      -3.046  -4.460  -3.720  0.00  0.00    -0.047 A 
ATOM      9  C9  IND d   1      -1.894  -5.250  -3.827  0.00  0.00    -0.096 A 
ATOM     10  HN1 IND d   1      -3.570  -3.254  -2.206  0.00  0.00     0.298 HD
ENDROOT
TORSDOF 0
ENDMDL
