MODEL 1
REMARK minimizedAffinity 10.7798777
REMARK minimizedRMSD -1
REMARK  0 active torsions:
REMARK  status: ('A' for Active; 'I' for Inactive)
ROOT
ATOM      1  N1  IND d   1       4.273  -0.289  -2.252  0.00  0.00    -0.196 N 
ATOM      2  C2  IND d   1       4.562   0.524  -1.192  0.00  0.00     0.054 A 
ATOM      3  C3  IND d   1       3.952   0.074  -0.073  0.00  0.00    -0.031 A 
ATOM      4  C4  IND d   1       2.514  -2.033   0.271  0.00  0.00     0.051 A 
ATOM      5  C5  IND d   1       1.941  -3.070  -0.411  0.00  0.00    -0.031 A 
ATOM      6  C6  IND d   1       2.122  -3.237  -1.769  0.00  0.00     0.015 A 
ATOM      7  C7  IND d   1       2.895  -2.377  -2.496  0.00  0.00    -0.016 A 
ATOM      8  C8  IND d   1       3.473  -1.319  -1.808  0.00  0.00    -0.047 A 
ATOM      9  C9  IND d   1       3.258  -1.120  -0.438  0.00  0.00    -0.096 A 
ATOM     10  HN1 IND d   1       4.544  -0.177  -3.060  0.00  0.00     0.298 HD
ENDROOT
TORSDOF 0
ENDMDL
