MODEL 1
REMARK minimizedAffinity 14.3505707
REMARK minimizedRMSD -1
REMARK  0 active torsions:
REMARK  status: ('A' for Active; 'I' for Inactive)
ROOT
ATOM      1  N1  IND d   1       4.943  -2.633   1.181  0.00  0.00    -0.196 N 
ATOM      2  C2  IND d   1       5.996  -1.899   1.650  0.00  0.00     0.054 A 
ATOM      3  C3  IND d   1       6.000  -0.669   1.089  0.00  0.00    -0.031 A 
ATOM      4  C4  IND d   1       4.315   0.386  -0.548  0.00  0.00     0.051 A 
ATOM      5  C5  IND d   1       3.207   0.092  -1.291  0.00  0.00    -0.031 A 
ATOM      6  C6  IND d   1       2.606  -1.149  -1.245  0.00  0.00     0.015 A 
ATOM      7  C7  IND d   1       3.088  -2.144  -0.442  0.00  0.00    -0.016 A 
ATOM      8  C8  IND d   1       4.218  -1.851   0.309  0.00  0.00    -0.047 A 
ATOM      9  C9  IND d   1       4.856  -0.607   0.234  0.00  0.00    -0.096 A 
ATOM     10  HN1 IND d   1       4.763  -3.446   1.395  0.00  0.00     0.298 HD
ENDROOT
TORSDOF 0
ENDMDL
