MODEL 1
REMARK minimizedAffinity 11.107893
REMARK minimizedRMSD -1
REMARK  0 active torsions:
REMARK  status: ('A' for Active; 'I' for Inactive)
ROOT
ATOM      1  N1  IND d   1      -2.260   1.848  -5.419  0.00  0.00    -0.196 N 
ATOM      2  C2  IND d   1      -3.470   2.107  -6.000  0.00  0.00     0.054 A 
ATOM      3  C3  IND d   1      -4.443   1.385  -5.400  0.00  0.00    -0.031 A 
ATOM      4  C4  IND d   1      -4.292  -0.206  -3.382  0.00  0.00     0.051 A 
ATOM      5  C5  IND d   1      -3.391  -0.790  -2.536  0.00  0.00    -0.031 A 
ATOM      6  C6  IND d   1      -2.040  -0.516  -2.607  0.00  0.00     0.015 A 
ATOM      7  C7  IND d   1      -1.539   0.364  -3.524  0.00  0.00    -0.016 A 
ATOM      8  C8  IND d   1      -2.450   0.953  -4.390  0.00  0.00    -0.047 A 
ATOM      9  C9  IND d   1      -3.816   0.647  -4.350  0.00  0.00    -0.096 A 
ATOM     10  HN1 IND d   1      -1.507   2.188  -5.657  0.00  0.00     0.298 HD
ENDROOT
TORSDOF 0
ENDMDL
