MODEL 1
REMARK minimizedAffinity -4.25864649
REMARK minimizedRMSD -1
REMARK  1 active torsions:
REMARK  status: ('A' for Active; 'I' for Inactive)
REMARK    1  A    between atoms: C1_2  and  C2_3 
ROOT
ATOM      1  C2  UNL d   1       0.055   0.452  -0.413  0.00  0.00    -0.073 A 
ATOM      2  C3  UNL d   1      -0.883   1.438  -0.739  0.00  0.00    -0.002 A 
ATOM      3  C4  UNL d   1      -1.908   1.759   0.151  0.00  0.00     0.004 A 
ATOM      4  C5  UNL d   1      -2.003   1.102   1.378  0.00  0.00    -0.004 A 
ATOM      5  C6  UNL d   1      -1.069   0.122   1.728  0.00  0.00    -0.075 A 
ATOM      6  C7  UNL d   1      -1.158  -0.595   3.043  0.00  0.00     0.076 C 
ATOM      7  C8  UNL d   1      -0.044  -0.196   0.827  0.00  0.00     0.001 A 
ENDROOT
BRANCH   1   8
ATOM      8  C1  UNL d   1       1.167   0.107  -1.368  0.00  0.00     0.053 C 
ATOM      9  C   UNL d   1       1.156  -1.366  -1.749  0.00  0.00     0.018 C 
ENDBRANCH   1   8
TORSDOF 1
ENDMDL
