MODEL 1
REMARK minimizedAffinity -4.20874691
REMARK minimizedRMSD -1
REMARK  1 active torsions:
REMARK  status: ('A' for Active; 'I' for Inactive)
REMARK    1  A    between atoms: C1_2  and  C2_3 
ROOT
ATOM      1  C2  UNL d   1      -0.445   0.262   0.548  0.00  0.00    -0.073 A 
ATOM      2  C3  UNL d   1       0.304   1.202  -0.170  0.00  0.00    -0.002 A 
ATOM      3  C4  UNL d   1       1.165   0.788  -1.188  0.00  0.00     0.004 A 
ATOM      4  C5  UNL d   1       1.280  -0.566  -1.502  0.00  0.00    -0.004 A 
ATOM      5  C6  UNL d   1       0.531  -1.519  -0.804  0.00  0.00    -0.075 A 
ATOM      6  C7  UNL d   1       0.646  -2.979  -1.129  0.00  0.00     0.076 C 
ATOM      7  C8  UNL d   1      -0.329  -1.096   0.218  0.00  0.00     0.001 A 
ENDROOT
BRANCH   1   8
ATOM      8  C1  UNL d   1      -1.380   0.705   1.643  0.00  0.00     0.053 C 
ATOM      9  C   UNL d   1      -2.506   1.578   1.113  0.00  0.00     0.018 C 
ENDBRANCH   1   8
TORSDOF 1
ENDMDL
