MODEL 1
REMARK minimizedAffinity -2.75072765
REMARK minimizedRMSD -1
REMARK  1 active torsions:
REMARK  status: ('A' for Active; 'I' for Inactive)
REMARK    1  A    between atoms: C1_2  and  C2_3 
ROOT
ATOM      1  C2  UNL d   1       0.198   0.505  -0.147  0.00  0.00    -0.073 A 
ATOM      2  C3  UNL d   1       0.671  -0.226   0.948  0.00  0.00    -0.002 A 
ATOM      3  C4  UNL d   1       0.012  -0.161   2.177  0.00  0.00     0.004 A 
ATOM      4  C5  UNL d   1      -1.129   0.628   2.321  0.00  0.00    -0.004 A 
ATOM      5  C6  UNL d   1      -1.625   1.356   1.234  0.00  0.00    -0.075 A 
ATOM      6  C7  UNL d   1      -2.850   2.211   1.373  0.00  0.00     0.076 C 
ATOM      7  C8  UNL d   1      -0.955   1.288   0.005  0.00  0.00     0.001 A 
ENDROOT
BRANCH   1   8
ATOM      8  C1  UNL d   1       0.903   0.434  -1.477  0.00  0.00     0.053 C 
ATOM      9  C   UNL d   1       1.505   1.772  -1.876  0.00  0.00     0.018 C 
ENDBRANCH   1   8
TORSDOF 1
ENDMDL
