MODEL 1
REMARK minimizedAffinity -5.46063137
REMARK minimizedRMSD -1
REMARK  1 active torsions:
REMARK  status: ('A' for Active; 'I' for Inactive)
REMARK    1  A    between atoms: C1_2  and  C2_3 
ROOT
ATOM      1  C2  UNL d   1       0.025  -0.590   0.244  0.00  0.00    -0.073 A 
ATOM      2  C3  UNL d   1      -0.784  -0.736   1.376  0.00  0.00    -0.002 A 
ATOM      3  C4  UNL d   1      -1.568   0.329   1.824  0.00  0.00     0.004 A 
ATOM      4  C5  UNL d   1      -1.556   1.545   1.141  0.00  0.00    -0.004 A 
ATOM      5  C6  UNL d   1      -0.763   1.706   0.001  0.00  0.00    -0.075 A 
ATOM      6  C7  UNL d   1      -0.737   3.009  -0.744  0.00  0.00     0.076 C 
ATOM      7  C8  UNL d   1       0.024   0.633  -0.441  0.00  0.00     0.001 A 
ENDROOT
BRANCH   1   8
ATOM      8  C1  UNL d   1       0.869  -1.739  -0.246  0.00  0.00     0.053 C 
ATOM      9  C   UNL d   1       0.251  -2.424  -1.455  0.00  0.00     0.018 C 
ENDBRANCH   1   8
TORSDOF 1
ENDMDL
