MODEL 1
REMARK minimizedAffinity -4.53495598
REMARK minimizedRMSD -1
REMARK  1 active torsions:
REMARK  status: ('A' for Active; 'I' for Inactive)
REMARK    1  A    between atoms: C1_2  and  C2_3 
ROOT
ATOM      1  C2  UNL d   1      -0.566  -0.354  -0.444  0.00  0.00    -0.073 A 
ATOM      2  C3  UNL d   1       0.070  -0.756   0.736  0.00  0.00    -0.002 A 
ATOM      3  C4  UNL d   1      -0.155  -0.068   1.929  0.00  0.00     0.004 A 
ATOM      4  C5  UNL d   1      -1.023   1.023   1.956  0.00  0.00    -0.004 A 
ATOM      5  C6  UNL d   1      -1.678   1.434   0.790  0.00  0.00    -0.075 A 
ATOM      6  C7  UNL d   1      -2.613   2.607   0.803  0.00  0.00     0.076 C 
ATOM      7  C8  UNL d   1      -1.444   0.739  -0.404  0.00  0.00     0.001 A 
ENDROOT
BRANCH   1   8
ATOM      8  C1  UNL d   1      -0.331  -1.097  -1.733  0.00  0.00     0.053 C 
ATOM      9  C   UNL d   1       0.822  -2.082  -1.620  0.00  0.00     0.018 C 
ENDBRANCH   1   8
TORSDOF 1
ENDMDL
