MODEL 1
REMARK minimizedAffinity -4.30997801
REMARK minimizedRMSD -1
REMARK  1 active torsions:
REMARK  status: ('A' for Active; 'I' for Inactive)
REMARK    1  A    between atoms: C1_2  and  C2_3 
ROOT
ATOM      1  C2  UNL d   1      -0.117   0.129   0.094  0.00  0.00    -0.073 A 
ATOM      2  C3  UNL d   1       0.303  -0.416   1.313  0.00  0.00    -0.002 A 
ATOM      3  C4  UNL d   1      -0.239   0.043   2.514  0.00  0.00     0.004 A 
ATOM      4  C5  UNL d   1      -1.210   1.044   2.510  0.00  0.00    -0.004 A 
ATOM      5  C6  UNL d   1      -1.652   1.592   1.302  0.00  0.00    -0.075 A 
ATOM      6  C7  UNL d   1      -2.694   2.672   1.280  0.00  0.00     0.076 C 
ATOM      7  C8  UNL d   1      -1.101   1.129   0.099  0.00  0.00     0.001 A 
ENDROOT
BRANCH   1   8
ATOM      8  C1  UNL d   1       0.460  -0.367  -1.206  0.00  0.00     0.053 C 
ATOM      9  C   UNL d   1       0.509  -1.885  -1.266  0.00  0.00     0.018 C 
ENDBRANCH   1   8
TORSDOF 1
ENDMDL
