MODEL 1
REMARK minimizedAffinity -3.7022779
REMARK minimizedRMSD -1
REMARK  1 active torsions:
REMARK  status: ('A' for Active; 'I' for Inactive)
REMARK    1  A    between atoms: C1_2  and  C2_3 
ROOT
ATOM      1  C2  UNL d   1       0.725  -0.690  -0.578  0.00  0.00    -0.073 A 
ATOM      2  C3  UNL d   1       1.376   0.252  -1.382  0.00  0.00    -0.002 A 
ATOM      3  C4  UNL d   1       0.899   1.561  -1.460  0.00  0.00     0.004 A 
ATOM      4  C5  UNL d   1      -0.228   1.943  -0.731  0.00  0.00    -0.004 A 
ATOM      5  C6  UNL d   1      -0.885   1.019   0.087  0.00  0.00    -0.075 A 
ATOM      6  C7  UNL d   1      -2.099   1.413   0.876  0.00  0.00     0.076 C 
ATOM      7  C8  UNL d   1      -0.402  -0.295   0.158  0.00  0.00     0.001 A 
ENDROOT
BRANCH   1   8
ATOM      8  C1  UNL d   1       1.240  -2.103  -0.485  0.00  0.00     0.053 C 
ATOM      9  C   UNL d   1       0.712  -2.977  -1.612  0.00  0.00     0.018 C 
ENDBRANCH   1   8
TORSDOF 1
ENDMDL
