MODEL 1
REMARK minimizedAffinity -2.62760234
REMARK minimizedRMSD -1
REMARK  1 active torsions:
REMARK  status: ('A' for Active; 'I' for Inactive)
REMARK    1  A    between atoms: C1_2  and  C2_3 
ROOT
ATOM      1  C2  UNL d   1       5.421   2.408  -5.259  0.00  0.00    -0.081 A 
ATOM      2  C3  UNL d   1       5.802   1.260  -5.963  0.00  0.00     0.006 A 
ATOM      3  C4  UNL d   1       5.999   0.051  -5.292  0.00  0.00     0.002 A 
ATOM      4  C5  UNL d   1       5.810  -0.032  -3.908  0.00  0.00    -0.080 A 
ATOM      5  C6  UNL d   1       5.988  -1.331  -3.180  0.00  0.00     0.076 C 
ATOM      6  C7  UNL d   1       5.446   1.119  -3.202  0.00  0.00     0.002 A 
ATOM      7  C8  UNL d   1       5.250   2.329  -3.872  0.00  0.00     0.006 A 
ENDROOT
BRANCH   1   8
ATOM      8  C1  UNL d   1       5.145   3.698  -5.988  0.00  0.00     0.054 C 
ATOM      9  C   UNL d   1       3.664   4.049  -5.952  0.00  0.00     0.018 C 
ENDBRANCH   1   8
TORSDOF 1
ENDMDL
