MODEL 1
REMARK minimizedAffinity 8.63219738
REMARK minimizedRMSD -1
REMARK  1 active torsions:
REMARK  status: ('A' for Active; 'I' for Inactive)
REMARK    1  A    between atoms: C1_2  and  C2_3 
ROOT
ATOM      1  C2  UNL d   1       2.793   2.209   1.497  0.00  0.00    -0.081 A 
ATOM      2  C3  UNL d   1       2.509   2.204   2.868  0.00  0.00     0.006 A 
ATOM      3  C4  UNL d   1       3.545   2.224   3.805  0.00  0.00     0.002 A 
ATOM      4  C5  UNL d   1       4.879   2.257   3.388  0.00  0.00    -0.080 A 
ATOM      5  C6  UNL d   1       6.000   2.309   4.384  0.00  0.00     0.076 C 
ATOM      6  C7  UNL d   1       5.163   2.244   2.018  0.00  0.00     0.002 A 
ATOM      7  C8  UNL d   1       4.128   2.224   1.080  0.00  0.00     0.006 A 
ENDROOT
BRANCH   1   8
ATOM      8  C1  UNL d   1       1.677   2.253   0.483  0.00  0.00     0.054 C 
ATOM      9  C   UNL d   1       0.314   2.260   1.161  0.00  0.00     0.018 C 
ENDBRANCH   1   8
TORSDOF 1
ENDMDL
