MODEL 1
REMARK minimizedAffinity 13.1928778
REMARK minimizedRMSD -1
REMARK  1 active torsions:
REMARK  status: ('A' for Active; 'I' for Inactive)
REMARK    1  A    between atoms: C1_2  and  C2_3 
ROOT
ATOM      1  C2  UNL d   1       5.187   0.979  -3.804  0.00  0.00    -0.081 A 
ATOM      2  C3  UNL d   1       5.593  -0.083  -2.986  0.00  0.00     0.006 A 
ATOM      3  C4  UNL d   1       5.385  -0.033  -1.606  0.00  0.00     0.002 A 
ATOM      4  C5  UNL d   1       4.760   1.073  -1.022  0.00  0.00    -0.080 A 
ATOM      5  C6  UNL d   1       4.502   1.126   0.455  0.00  0.00     0.076 C 
ATOM      6  C7  UNL d   1       4.369   2.142  -1.836  0.00  0.00     0.002 A 
ATOM      7  C8  UNL d   1       4.578   2.093  -3.216  0.00  0.00     0.006 A 
ENDROOT
BRANCH   1   8
ATOM      8  C1  UNL d   1       5.352   0.900  -5.300  0.00  0.00     0.054 C 
ATOM      9  C   UNL d   1       4.609   2.030  -5.999  0.00  0.00     0.018 C 
ENDBRANCH   1   8
TORSDOF 1
ENDMDL
