MODEL 1
REMARK minimizedAffinity 4.05106354
REMARK minimizedRMSD -1
REMARK  1 active torsions:
REMARK  status: ('A' for Active; 'I' for Inactive)
REMARK    1  A    between atoms: C1_2  and  C2_3 
ROOT
ATOM      1  C2  UNL d   1      -2.896   2.353   0.807  0.00  0.00    -0.081 A 
ATOM      2  C3  UNL d   1      -2.711   3.461  -0.029  0.00  0.00     0.006 A 
ATOM      3  C4  UNL d   1      -1.481   4.122  -0.067  0.00  0.00     0.002 A 
ATOM      4  C5  UNL d   1      -0.414   3.682   0.723  0.00  0.00    -0.080 A 
ATOM      5  C6  UNL d   1       0.921   4.364   0.670  0.00  0.00     0.076 C 
ATOM      6  C7  UNL d   1      -0.604   2.585   1.571  0.00  0.00     0.002 A 
ATOM      7  C8  UNL d   1      -1.834   1.924   1.610  0.00  0.00     0.006 A 
ENDROOT
BRANCH   1   8
ATOM      8  C1  UNL d   1      -4.201   1.598   0.802  0.00  0.00     0.054 C 
ATOM      9  C   UNL d   1      -5.331   2.451   0.242  0.00  0.00     0.018 C 
ENDBRANCH   1   8
TORSDOF 1
ENDMDL
