MODEL 1
REMARK minimizedAffinity -3.79829335
REMARK minimizedRMSD -1
REMARK  1 active torsions:
REMARK  status: ('A' for Active; 'I' for Inactive)
REMARK    1  A    between atoms: C1_2  and  C2_3 
ROOT
ATOM      1  C2  UNL d   1       5.660   2.063  -5.091  0.00  0.00    -0.081 A 
ATOM      2  C3  UNL d   1       5.880   2.109  -3.709  0.00  0.00     0.006 A 
ATOM      3  C4  UNL d   1       5.978   0.929  -2.968  0.00  0.00     0.002 A 
ATOM      4  C5  UNL d   1       5.866  -0.316  -3.597  0.00  0.00    -0.080 A 
ATOM      5  C6  UNL d   1       6.000  -1.590  -2.818  0.00  0.00     0.076 C 
ATOM      6  C7  UNL d   1       5.629  -0.362  -4.975  0.00  0.00     0.002 A 
ATOM      7  C8  UNL d   1       5.530   0.817  -5.716  0.00  0.00     0.006 A 
ENDROOT
BRANCH   1   8
ATOM      8  C1  UNL d   1       5.618   3.332  -5.904  0.00  0.00     0.054 C 
ATOM      9  C   UNL d   1       4.204   3.887  -5.990  0.00  0.00     0.018 C 
ENDBRANCH   1   8
TORSDOF 1
ENDMDL
