MODEL 1
REMARK minimizedAffinity 9.96170425
REMARK minimizedRMSD -1
REMARK  1 active torsions:
REMARK  status: ('A' for Active; 'I' for Inactive)
REMARK    1  A    between atoms: C1_2  and  C2_3 
ROOT
ATOM      1  C2  UNL d   1      -1.559  -2.388   1.119  0.00  0.00    -0.081 A 
ATOM      2  C3  UNL d   1      -2.205  -3.362   0.349  0.00  0.00     0.006 A 
ATOM      3  C4  UNL d   1      -1.742  -3.673  -0.932  0.00  0.00     0.002 A 
ATOM      4  C5  UNL d   1      -0.622  -3.021  -1.460  0.00  0.00    -0.080 A 
ATOM      5  C6  UNL d   1      -0.096  -3.367  -2.821  0.00  0.00     0.076 C 
ATOM      6  C7  UNL d   1       0.012  -2.035  -0.697  0.00  0.00     0.002 A 
ATOM      7  C8  UNL d   1      -0.451  -1.723   0.584  0.00  0.00     0.006 A 
ENDROOT
BRANCH   1   8
ATOM      8  C1  UNL d   1      -2.017  -2.096   2.526  0.00  0.00     0.054 C 
ATOM      9  C   UNL d   1      -2.153  -3.374   3.340  0.00  0.00     0.018 C 
ENDBRANCH   1   8
TORSDOF 1
ENDMDL
