MODEL 1
REMARK minimizedAffinity 4.87420893
REMARK minimizedRMSD -1
REMARK  1 active torsions:
REMARK  status: ('A' for Active; 'I' for Inactive)
REMARK    1  A    between atoms: C1_2  and  C2_3 
ROOT
ATOM      1  C2  UNL d   1       1.332  -4.131  -3.293  0.00  0.00    -0.081 A 
ATOM      2  C3  UNL d   1       1.580  -4.338  -1.931  0.00  0.00     0.006 A 
ATOM      3  C4  UNL d   1       0.578  -4.110  -0.985  0.00  0.00     0.002 A 
ATOM      4  C5  UNL d   1      -0.691  -3.678  -1.386  0.00  0.00    -0.080 A 
ATOM      5  C6  UNL d   1      -1.785  -3.458  -0.384  0.00  0.00     0.076 C 
ATOM      6  C7  UNL d   1      -0.934  -3.454  -2.746  0.00  0.00     0.002 A 
ATOM      7  C8  UNL d   1       0.068  -3.682  -3.691  0.00  0.00     0.006 A 
ENDROOT
BRANCH   1   8
ATOM      8  C1  UNL d   1       2.391  -4.439  -4.321  0.00  0.00     0.054 C 
ATOM      9  C   UNL d   1       1.773  -4.928  -5.622  0.00  0.00     0.018 C 
ENDBRANCH   1   8
TORSDOF 1
ENDMDL
