MODEL 1
REMARK minimizedAffinity 10.4295015
REMARK minimizedRMSD -1
REMARK  1 active torsions:
REMARK  status: ('A' for Active; 'I' for Inactive)
REMARK    1  A    between atoms: C1_2  and  C2_3 
ROOT
ATOM      1  C2  UNL d   1       3.626  -5.679  -2.015  0.00  0.00    -0.081 A 
ATOM      2  C3  UNL d   1       2.362  -5.105  -2.202  0.00  0.00     0.006 A 
ATOM      3  C4  UNL d   1       1.876  -4.867  -3.490  0.00  0.00     0.002 A 
ATOM      4  C5  UNL d   1       2.642  -5.205  -4.611  0.00  0.00    -0.080 A 
ATOM      5  C6  UNL d   1       2.119  -4.982  -5.999  0.00  0.00     0.076 C 
ATOM      6  C7  UNL d   1       3.911  -5.761  -4.424  0.00  0.00     0.002 A 
ATOM      7  C8  UNL d   1       4.398  -5.999  -3.137  0.00  0.00     0.006 A 
ENDROOT
BRANCH   1   8
ATOM      8  C1  UNL d   1       4.126  -5.997  -0.629  0.00  0.00     0.054 C 
ATOM      9  C   UNL d   1       5.496  -5.382  -0.380  0.00  0.00     0.018 C 
ENDBRANCH   1   8
TORSDOF 1
ENDMDL
