MODEL 1
REMARK minimizedAffinity 15.8721085
REMARK minimizedRMSD -1
REMARK  1 active torsions:
REMARK  status: ('A' for Active; 'I' for Inactive)
REMARK    1  A    between atoms: C1_2  and  C2_3 
ROOT
ATOM      1  C2  UNL d   1      -2.036   2.339   1.149  0.00  0.00    -0.081 A 
ATOM      2  C3  UNL d   1      -2.093   1.064   1.725  0.00  0.00     0.006 A 
ATOM      3  C4  UNL d   1      -3.253   0.293   1.622  0.00  0.00     0.002 A 
ATOM      4  C5  UNL d   1      -4.371   0.779   0.936  0.00  0.00    -0.080 A 
ATOM      5  C6  UNL d   1      -5.612  -0.051   0.793  0.00  0.00     0.076 C 
ATOM      6  C7  UNL d   1      -4.320   2.060   0.376  0.00  0.00     0.002 A 
ATOM      7  C8  UNL d   1      -3.161   2.832   0.479  0.00  0.00     0.006 A 
ENDROOT
BRANCH   1   8
ATOM      8  C1  UNL d   1      -0.764   3.147   1.202  0.00  0.00     0.054 C 
ATOM      9  C   UNL d   1       0.464   2.249   1.187  0.00  0.00     0.018 C 
ENDBRANCH   1   8
TORSDOF 1
ENDMDL
