MODEL 1
REMARK minimizedAffinity 11.4092207
REMARK minimizedRMSD -1
REMARK  1 active torsions:
REMARK  status: ('A' for Active; 'I' for Inactive)
REMARK    1  A    between atoms: C1_2  and  C2_3 
ROOT
ATOM      1  C2  UNL d   1      -1.232  -1.878   1.254  0.00  0.00    -0.081 A 
ATOM      2  C3  UNL d   1      -1.874  -2.927   0.586  0.00  0.00     0.006 A 
ATOM      3  C4  UNL d   1      -1.467  -3.305  -0.695  0.00  0.00     0.002 A 
ATOM      4  C5  UNL d   1      -0.407  -2.646  -1.327  0.00  0.00    -0.080 A 
ATOM      5  C6  UNL d   1       0.060  -3.062  -2.690  0.00  0.00     0.076 C 
ATOM      6  C7  UNL d   1       0.224  -1.586  -0.666  0.00  0.00     0.002 A 
ATOM      7  C8  UNL d   1      -0.183  -1.207   0.615  0.00  0.00     0.006 A 
ENDROOT
BRANCH   1   8
ATOM      8  C1  UNL d   1      -1.626  -1.510   2.662  0.00  0.00     0.054 C 
ATOM      9  C   UNL d   1      -1.880  -0.015   2.793  0.00  0.00     0.018 C 
ENDBRANCH   1   8
TORSDOF 1
ENDMDL
