MODEL 1
REMARK minimizedAffinity 8.92768097
REMARK minimizedRMSD -1
REMARK  1 active torsions:
REMARK  status: ('A' for Active; 'I' for Inactive)
REMARK    1  A    between atoms: C1_2  and  C2_3 
ROOT
ATOM      1  C2  UNL d   1      -0.121  -0.928   0.348  0.00  0.00    -0.081 A 
ATOM      2  C3  UNL d   1      -0.684  -2.015   1.028  0.00  0.00     0.006 A 
ATOM      3  C4  UNL d   1      -1.170  -3.118   0.322  0.00  0.00     0.002 A 
ATOM      4  C5  UNL d   1      -1.095  -3.156  -1.075  0.00  0.00    -0.080 A 
ATOM      5  C6  UNL d   1      -1.585  -4.347  -1.843  0.00  0.00     0.076 C 
ATOM      6  C7  UNL d   1      -0.548  -2.063  -1.755  0.00  0.00     0.002 A 
ATOM      7  C8  UNL d   1      -0.063  -0.959  -1.050  0.00  0.00     0.006 A 
ENDROOT
BRANCH   1   8
ATOM      8  C1  UNL d   1       0.462   0.234   1.110  0.00  0.00     0.054 C 
ATOM      9  C   UNL d   1       1.010   1.295   0.167  0.00  0.00     0.018 C 
ENDBRANCH   1   8
TORSDOF 1
ENDMDL
