MODEL 1
REMARK minimizedAffinity 5.53276682
REMARK minimizedRMSD -1
REMARK  1 active torsions:
REMARK  status: ('A' for Active; 'I' for Inactive)
REMARK    1  A    between atoms: C1_2  and  C2_3 
ROOT
ATOM      1  C2  UNL d   1       1.635   2.260   1.737  0.00  0.00    -0.081 A 
ATOM      2  C3  UNL d   1       0.674   1.663   2.563  0.00  0.00     0.006 A 
ATOM      3  C4  UNL d   1      -0.684   1.931   2.377  0.00  0.00     0.002 A 
ATOM      4  C5  UNL d   1      -1.105   2.793   1.359  0.00  0.00    -0.080 A 
ATOM      5  C6  UNL d   1      -2.561   3.066   1.129  0.00  0.00     0.076 C 
ATOM      6  C7  UNL d   1      -0.144   3.404   0.546  0.00  0.00     0.002 A 
ATOM      7  C8  UNL d   1       1.215   3.137   0.731  0.00  0.00     0.006 A 
ENDROOT
BRANCH   1   8
ATOM      8  C1  UNL d   1       3.096   1.922   1.894  0.00  0.00     0.054 C 
ATOM      9  C   UNL d   1       3.511   1.928   3.358  0.00  0.00     0.018 C 
ENDBRANCH   1   8
TORSDOF 1
ENDMDL
