MODEL 1
REMARK minimizedAffinity 9.50685692
REMARK minimizedRMSD -1
REMARK  1 active torsions:
REMARK  status: ('A' for Active; 'I' for Inactive)
REMARK    1  A    between atoms: C1_2  and  C2_3 
ROOT
ATOM      1  C2  UNL d   1      -1.242   2.498   2.432  0.00  0.00    -0.081 A 
ATOM      2  C3  UNL d   1      -2.414   3.115   1.978  0.00  0.00     0.006 A 
ATOM      3  C4  UNL d   1      -2.491   3.619   0.677  0.00  0.00     0.002 A 
ATOM      4  C5  UNL d   1      -1.401   3.509  -0.193  0.00  0.00    -0.080 A 
ATOM      5  C6  UNL d   1      -1.481   4.019  -1.601  0.00  0.00     0.076 C 
ATOM      6  C7  UNL d   1      -0.224   2.908   0.266  0.00  0.00     0.002 A 
ATOM      7  C8  UNL d   1      -0.146   2.404   1.567  0.00  0.00     0.006 A 
ENDROOT
BRANCH   1   8
ATOM      8  C1  UNL d   1      -1.178   1.895   3.812  0.00  0.00     0.054 C 
ATOM      9  C   UNL d   1      -2.058   0.658   3.917  0.00  0.00     0.018 C 
ENDBRANCH   1   8
TORSDOF 1
ENDMDL
