MODEL 1
REMARK minimizedAffinity 12.2149382
REMARK minimizedRMSD -1
REMARK  1 active torsions:
REMARK  status: ('A' for Active; 'I' for Inactive)
REMARK    1  A    between atoms: C1_2  and  C2_3 
ROOT
ATOM      1  C2  UNL d   1      -1.488  -2.605   0.782  0.00  0.00    -0.081 A 
ATOM      2  C3  UNL d   1      -2.013  -3.730   0.134  0.00  0.00     0.006 A 
ATOM      3  C4  UNL d   1      -1.554  -4.095  -1.134  0.00  0.00     0.002 A 
ATOM      4  C5  UNL d   1      -0.559  -3.347  -1.771  0.00  0.00    -0.080 A 
ATOM      5  C6  UNL d   1      -0.036  -3.745  -3.119  0.00  0.00     0.076 C 
ATOM      6  C7  UNL d   1      -0.047  -2.213  -1.131  0.00  0.00     0.002 A 
ATOM      7  C8  UNL d   1      -0.506  -1.847   0.136  0.00  0.00     0.006 A 
ENDROOT
BRANCH   1   8
ATOM      8  C1  UNL d   1      -1.934  -2.247   2.177  0.00  0.00     0.054 C 
ATOM      9  C   UNL d   1      -2.003  -3.478   3.069  0.00  0.00     0.018 C 
ENDBRANCH   1   8
TORSDOF 1
ENDMDL
