MODEL 1
REMARK minimizedAffinity 0.120019212
REMARK minimizedRMSD -1
REMARK  1 active torsions:
REMARK  status: ('A' for Active; 'I' for Inactive)
REMARK    1  A    between atoms: C1_2  and  C2_3 
ROOT
ATOM      1  C2  UNL d   1       5.170   1.332  -5.366  0.00  0.00    -0.081 A 
ATOM      2  C3  UNL d   1       3.774   1.401  -5.453  0.00  0.00     0.006 A 
ATOM      3  C4  UNL d   1       3.136   2.628  -5.645  0.00  0.00     0.002 A 
ATOM      4  C5  UNL d   1       3.882   3.806  -5.761  0.00  0.00    -0.080 A 
ATOM      5  C6  UNL d   1       3.211   5.126  -5.997  0.00  0.00     0.076 C 
ATOM      6  C7  UNL d   1       5.276   3.740  -5.657  0.00  0.00     0.002 A 
ATOM      7  C8  UNL d   1       5.914   2.513  -5.465  0.00  0.00     0.006 A 
ENDROOT
BRANCH   1   8
ATOM      8  C1  UNL d   1       5.865   0.002  -5.224  0.00  0.00     0.054 C 
ATOM      9  C   UNL d   1       5.739  -0.540  -3.808  0.00  0.00     0.018 C 
ENDBRANCH   1   8
TORSDOF 1
ENDMDL
