MODEL 1
REMARK minimizedAffinity -0.284096986
REMARK minimizedRMSD -1
REMARK  1 active torsions:
REMARK  status: ('A' for Active; 'I' for Inactive)
REMARK    1  A    between atoms: C1_2  and  C2_3 
ROOT
ATOM      1  C2  UNL d   1       4.595   3.537  -5.733  0.00  0.00    -0.081 A 
ATOM      2  C3  UNL d   1       3.569   2.616  -5.978  0.00  0.00     0.006 A 
ATOM      3  C4  UNL d   1       3.751   1.261  -5.692  0.00  0.00     0.002 A 
ATOM      4  C5  UNL d   1       4.958   0.806  -5.148  0.00  0.00    -0.080 A 
ATOM      5  C6  UNL d   1       5.155  -0.641  -4.808  0.00  0.00     0.076 C 
ATOM      6  C7  UNL d   1       5.988   1.724  -4.919  0.00  0.00     0.002 A 
ATOM      7  C8  UNL d   1       5.807   3.079  -5.206  0.00  0.00     0.006 A 
ENDROOT
BRANCH   1   8
ATOM      8  C1  UNL d   1       4.378   5.009  -5.980  0.00  0.00     0.054 C 
ATOM      9  C   UNL d   1       5.661   5.800  -5.768  0.00  0.00     0.018 C 
ENDBRANCH   1   8
TORSDOF 1
ENDMDL
