MODEL 1
REMARK minimizedAffinity -5.20975971
REMARK minimizedRMSD -1
REMARK  1 active torsions:
REMARK  status: ('A' for Active; 'I' for Inactive)
REMARK    1  A    between atoms: C1_2  and  C2_3 
ROOT
ATOM      1  C2  UNL d   1      -0.257   0.236   0.081  0.00  0.00    -0.077 A 
ATOM      2  C3  UNL d   1      -1.027  -0.313   1.116  0.00  0.00     0.002 A 
ATOM      3  C4  UNL d   1      -0.575  -1.433   1.816  0.00  0.00     0.002 A 
ATOM      4  C5  UNL d   1       0.651  -2.011   1.491  0.00  0.00    -0.004 A 
ATOM      5  C6  UNL d   1       1.423  -1.474   0.462  0.00  0.00     0.002 A 
ATOM      6  C7  UNL d   1       0.972  -0.355  -0.239  0.00  0.00     0.002 A 
ENDROOT
BRANCH   1   7
ATOM      7  C1  UNL d   1      -0.721   1.474  -0.641  0.00  0.00     0.055 C 
ATOM      8  C   UNL d   1      -1.975   1.201  -1.458  0.00  0.00     0.019 C 
ENDBRANCH   1   7
TORSDOF 1
ENDMDL
