MODEL 1
REMARK minimizedAffinity -6.48112297
REMARK minimizedRMSD -1
REMARK  1 active torsions:
REMARK  status: ('A' for Active; 'I' for Inactive)
REMARK    1  A    between atoms: C1_2  and  C2_3 
ROOT
ATOM      1  C2  UNL d   1      -0.317  -0.433   0.998  0.00  0.00    -0.077 A 
ATOM      2  C3  UNL d   1      -0.758  -1.268   2.034  0.00  0.00     0.002 A 
ATOM      3  C4  UNL d   1      -0.058  -2.435   2.347  0.00  0.00     0.002 A 
ATOM      4  C5  UNL d   1       1.089  -2.774   1.632  0.00  0.00    -0.004 A 
ATOM      5  C6  UNL d   1       1.535  -1.950   0.599  0.00  0.00     0.002 A 
ATOM      6  C7  UNL d   1       0.835  -0.784   0.284  0.00  0.00     0.002 A 
ENDROOT
BRANCH   1   7
ATOM      7  C1  UNL d   1      -1.043   0.851   0.692  0.00  0.00     0.055 C 
ATOM      8  C   UNL d   1      -0.804   1.293  -0.745  0.00  0.00     0.019 C 
ENDBRANCH   1   7
TORSDOF 1
ENDMDL
