MODEL 1
REMARK minimizedAffinity -4.8090539
REMARK minimizedRMSD -1
REMARK  1 active torsions:
REMARK  status: ('A' for Active; 'I' for Inactive)
REMARK    1  A    between atoms: C1_2  and  C2_3 
ROOT
ATOM      1  C2  UNL d   1       0.015   0.214   0.173  0.00  0.00    -0.077 A 
ATOM      2  C3  UNL d   1      -0.380  -0.887   0.945  0.00  0.00     0.002 A 
ATOM      3  C4  UNL d   1       0.470  -1.984   1.099  0.00  0.00     0.002 A 
ATOM      4  C5  UNL d   1       1.721  -1.989   0.487  0.00  0.00    -0.004 A 
ATOM      5  C6  UNL d   1       2.123  -0.900  -0.285  0.00  0.00     0.002 A 
ATOM      6  C7  UNL d   1       1.274   0.197  -0.441  0.00  0.00     0.002 A 
ENDROOT
BRANCH   1   7
ATOM      7  C1  UNL d   1      -0.880   1.419   0.046  0.00  0.00     0.055 C 
ATOM      8  C   UNL d   1      -1.217   1.707  -1.410  0.00  0.00     0.019 C 
ENDBRANCH   1   7
TORSDOF 1
ENDMDL
