MODEL 1
REMARK minimizedAffinity -5.71356249
REMARK minimizedRMSD -1
REMARK  1 active torsions:
REMARK  status: ('A' for Active; 'I' for Inactive)
REMARK    1  A    between atoms: C1_2  and  C2_3 
ROOT
ATOM      1  C2  UNL d   1       0.834  -0.809   0.400  0.00  0.00    -0.077 A 
ATOM      2  C3  UNL d   1      -0.323  -0.913   1.183  0.00  0.00     0.002 A 
ATOM      3  C4  UNL d   1      -0.427  -1.903   2.162  0.00  0.00     0.002 A 
ATOM      4  C5  UNL d   1       0.625  -2.793   2.370  0.00  0.00    -0.004 A 
ATOM      5  C6  UNL d   1       1.780  -2.699   1.594  0.00  0.00     0.002 A 
ATOM      6  C7  UNL d   1       1.885  -1.711   0.614  0.00  0.00     0.002 A 
ENDROOT
BRANCH   1   7
ATOM      7  C1  UNL d   1       0.968   0.289  -0.623  0.00  0.00     0.055 C 
ATOM      8  C   UNL d   1      -0.359   0.999  -0.849  0.00  0.00     0.019 C 
ENDBRANCH   1   7
TORSDOF 1
ENDMDL
