MODEL 1
REMARK minimizedAffinity -3.26151657
REMARK minimizedRMSD -1
REMARK  1 active torsions:
REMARK  status: ('A' for Active; 'I' for Inactive)
REMARK    1  A    between atoms: C1_2  and  C2_3 
ROOT
ATOM      1  C2  UNL d   1       1.914  -1.673   2.501  0.00  0.00    -0.077 A 
ATOM      2  C3  UNL d   1       2.038  -1.879   1.120  0.00  0.00     0.002 A 
ATOM      3  C4  UNL d   1       0.901  -2.010   0.321  0.00  0.00     0.002 A 
ATOM      4  C5  UNL d   1      -0.368  -1.932   0.893  0.00  0.00    -0.004 A 
ATOM      5  C6  UNL d   1      -0.501  -1.729   2.266  0.00  0.00     0.002 A 
ATOM      6  C7  UNL d   1       0.635  -1.599   3.066  0.00  0.00     0.002 A 
ENDROOT
BRANCH   1   7
ATOM      7  C1  UNL d   1       3.139  -1.482   3.357  0.00  0.00     0.055 C 
ATOM      8  C   UNL d   1       2.780  -0.891   4.713  0.00  0.00     0.019 C 
ENDBRANCH   1   7
TORSDOF 1
ENDMDL
