MODEL 1
REMARK minimizedAffinity -5.76560879
REMARK minimizedRMSD -1
REMARK  1 active torsions:
REMARK  status: ('A' for Active; 'I' for Inactive)
REMARK    1  A    between atoms: C1_2  and  C2_3 
ROOT
ATOM      1  C2  UNL d   1       0.485  -1.862   1.201  0.00  0.00    -0.077 A 
ATOM      2  C3  UNL d   1       1.622  -2.383   0.566  0.00  0.00     0.002 A 
ATOM      3  C4  UNL d   1       2.167  -1.740  -0.547  0.00  0.00     0.002 A 
ATOM      4  C5  UNL d   1       1.585  -0.571  -1.032  0.00  0.00    -0.004 A 
ATOM      5  C6  UNL d   1       0.454  -0.046  -0.409  0.00  0.00     0.002 A 
ATOM      6  C7  UNL d   1      -0.093  -0.688   0.702  0.00  0.00     0.002 A 
ENDROOT
BRANCH   1   7
ATOM      7  C1  UNL d   1      -0.075  -2.527   2.431  0.00  0.00     0.055 C 
ATOM      8  C   UNL d   1      -1.100  -1.639   3.121  0.00  0.00     0.019 C 
ENDBRANCH   1   7
TORSDOF 1
ENDMDL
