MODEL 1
REMARK minimizedAffinity -5.51759768
REMARK minimizedRMSD -1
REMARK  1 active torsions:
REMARK  status: ('A' for Active; 'I' for Inactive)
REMARK    1  A    between atoms: C1_2  and  C2_3 
ROOT
ATOM      1  C2  UNL d   1       0.524  -0.689   0.455  0.00  0.00    -0.077 A 
ATOM      2  C3  UNL d   1       1.429  -1.751   0.317  0.00  0.00     0.002 A 
ATOM      3  C4  UNL d   1       1.337  -2.869   1.147  0.00  0.00     0.002 A 
ATOM      4  C5  UNL d   1       0.340  -2.938   2.118  0.00  0.00    -0.004 A 
ATOM      5  C6  UNL d   1      -0.563  -1.886   2.265  0.00  0.00     0.002 A 
ATOM      6  C7  UNL d   1      -0.472  -0.767   1.436  0.00  0.00     0.002 A 
ENDROOT
BRANCH   1   7
ATOM      7  C1  UNL d   1       0.591   0.497  -0.473  0.00  0.00     0.055 C 
ATOM      8  C   UNL d   1      -0.799   1.019  -0.804  0.00  0.00     0.019 C 
ENDBRANCH   1   7
TORSDOF 1
ENDMDL
