MODEL 1
REMARK minimizedAffinity -2.49839926
REMARK minimizedRMSD -1
REMARK  1 active torsions:
REMARK  status: ('A' for Active; 'I' for Inactive)
REMARK    1  A    between atoms: C1_2  and  C2_3 
ROOT
ATOM      1  C2  UNL d   1       0.392  -0.554   0.532  0.00  0.00    -0.077 A 
ATOM      2  C3  UNL d   1      -0.208  -1.021   1.709  0.00  0.00     0.002 A 
ATOM      3  C4  UNL d   1       0.452  -1.948   2.519  0.00  0.00     0.002 A 
ATOM      4  C5  UNL d   1       1.717  -2.411   2.162  0.00  0.00    -0.004 A 
ATOM      5  C6  UNL d   1       2.321  -1.954   0.992  0.00  0.00     0.002 A 
ATOM      6  C7  UNL d   1       1.663  -1.028   0.181  0.00  0.00     0.002 A 
ENDROOT
BRANCH   1   7
ATOM      7  C1  UNL d   1      -0.297   0.483  -0.317  0.00  0.00     0.055 C 
ATOM      8  C   UNL d   1      -1.269   1.315   0.507  0.00  0.00     0.019 C 
ENDBRANCH   1   7
TORSDOF 1
ENDMDL
