MODEL 1
REMARK minimizedAffinity -6.13332462
REMARK minimizedRMSD -1
REMARK  1 active torsions:
REMARK  status: ('A' for Active; 'I' for Inactive)
REMARK    1  A    between atoms: C1_2  and  C2_3 
ROOT
ATOM      1  C2  UNL d   1       0.069  -0.217   1.030  0.00  0.00    -0.077 A 
ATOM      2  C3  UNL d   1       1.188  -0.601   0.278  0.00  0.00     0.002 A 
ATOM      3  C4  UNL d   1       1.790  -1.843   0.492  0.00  0.00     0.002 A 
ATOM      4  C5  UNL d   1       1.278  -2.711   1.454  0.00  0.00    -0.004 A 
ATOM      5  C6  UNL d   1       0.167  -2.337   2.208  0.00  0.00     0.002 A 
ATOM      6  C7  UNL d   1      -0.436  -1.096   1.997  0.00  0.00     0.002 A 
ENDROOT
BRANCH   1   7
ATOM      7  C1  UNL d   1      -0.612   1.101   0.767  0.00  0.00     0.055 C 
ATOM      8  C   UNL d   1      -0.780   1.349  -0.725  0.00  0.00     0.019 C 
ENDBRANCH   1   7
TORSDOF 1
ENDMDL
