MODEL 1
REMARK minimizedAffinity -0.944451034
REMARK minimizedRMSD -1
REMARK  1 active torsions:
REMARK  status: ('A' for Active; 'I' for Inactive)
REMARK    1  A    between atoms: C1_2  and  C2_3 
ROOT
ATOM      1  C2  UNL d   1      -0.749  -0.625   1.268  0.00  0.00    -0.077 A 
ATOM      2  C3  UNL d   1       0.430  -1.382   1.309  0.00  0.00     0.002 A 
ATOM      3  C4  UNL d   1       1.473  -1.112   0.421  0.00  0.00     0.002 A 
ATOM      4  C5  UNL d   1       1.349  -0.083  -0.510  0.00  0.00    -0.004 A 
ATOM      5  C6  UNL d   1       0.179   0.674  -0.560  0.00  0.00     0.002 A 
ATOM      6  C7  UNL d   1      -0.865   0.405   0.326  0.00  0.00     0.002 A 
ENDROOT
BRANCH   1   7
ATOM      7  C1  UNL d   1      -1.856  -0.882   2.257  0.00  0.00     0.055 C 
ATOM      8  C   UNL d   1      -1.366  -1.717   3.431  0.00  0.00     0.019 C 
ENDBRANCH   1   7
TORSDOF 1
ENDMDL
