MODEL 1
REMARK minimizedAffinity 15.6099205
REMARK minimizedRMSD -1
REMARK  0 active torsions:
REMARK  status: ('A' for Active; 'I' for Inactive)
ROOT
ATOM      1  C   UNL d   1      -2.782  -1.552  -2.646  0.00  0.00    -0.002 A 
ATOM      2  C1  UNL d   1      -2.086  -2.670  -3.084  0.00  0.00     0.010 A 
ATOM      3  C2  UNL d   1      -1.117  -3.266  -2.273  0.00  0.00     0.041 A 
ATOM      4  C3  UNL d   1      -0.858  -2.714  -1.003  0.00  0.00    -0.075 A 
ATOM      5  S   UNL d   1       0.283  -3.275   0.161  0.00  0.00     0.015 SA
ATOM      6  C4  UNL d   1      -0.128  -2.045   1.267  0.00  0.00     0.022 A 
ATOM      7  C5  UNL d   1      -1.109  -1.217   0.776  0.00  0.00     0.026 A 
ATOM      8  C6  UNL d   1      -1.547  -1.589  -0.540  0.00  0.00    -0.082 A 
ATOM      9  C7  UNL d   1      -2.523  -1.008  -1.386  0.00  0.00     0.045 A 
ENDROOT
TORSDOF 0
ENDMDL
