MODEL 1
REMARK minimizedAffinity 13.6462212
REMARK minimizedRMSD -1
REMARK  0 active torsions:
REMARK  status: ('A' for Active; 'I' for Inactive)
ROOT
ATOM      1  C   UNL d   1       1.194   5.678  -5.788  0.00  0.00    -0.002 A 
ATOM      2  C1  UNL d   1       2.549   5.979  -5.793  0.00  0.00     0.010 A 
ATOM      3  C2  UNL d   1       3.502   4.961  -5.848  0.00  0.00     0.041 A 
ATOM      4  C3  UNL d   1       3.068   3.622  -5.899  0.00  0.00    -0.075 A 
ATOM      5  S   UNL d   1       4.055   2.211  -5.972  0.00  0.00     0.015 SA
ATOM      6  C4  UNL d   1       2.702   1.175  -5.998  0.00  0.00     0.022 A 
ATOM      7  C5  UNL d   1       1.518   1.872  -5.953  0.00  0.00     0.026 A 
ATOM      8  C6  UNL d   1       1.709   3.294  -5.896  0.00  0.00    -0.082 A 
ATOM      9  C7  UNL d   1       0.766   4.349  -5.839  0.00  0.00     0.045 A 
ENDROOT
TORSDOF 0
ENDMDL
