MODEL 1
REMARK minimizedAffinity 10.4910727
REMARK minimizedRMSD -1
REMARK  0 active torsions:
REMARK  status: ('A' for Active; 'I' for Inactive)
ROOT
ATOM      1  C   UNL d   1      -1.913  -4.141  -4.886  0.00  0.00    -0.002 A 
ATOM      2  C1  UNL d   1      -2.636  -3.738  -6.000  0.00  0.00     0.010 A 
ATOM      3  C2  UNL d   1      -3.913  -3.190  -5.858  0.00  0.00     0.041 A 
ATOM      4  C3  UNL d   1      -4.455  -3.052  -4.565  0.00  0.00    -0.075 A 
ATOM      5  S   UNL d   1      -5.999  -2.407  -4.150  0.00  0.00     0.015 SA
ATOM      6  C4  UNL d   1      -5.735  -2.651  -2.484  0.00  0.00     0.022 A 
ATOM      7  C5  UNL d   1      -4.505  -3.210  -2.233  0.00  0.00     0.026 A 
ATOM      8  C6  UNL d   1      -3.746  -3.450  -3.428  0.00  0.00    -0.082 A 
ATOM      9  C7  UNL d   1      -2.455  -4.002  -3.605  0.00  0.00     0.045 A 
ENDROOT
TORSDOF 0
ENDMDL
