MODEL 1
REMARK minimizedAffinity 21.0210285
REMARK minimizedRMSD -1
REMARK  0 active torsions:
REMARK  status: ('A' for Active; 'I' for Inactive)
ROOT
ATOM      1  C   UNL d   1      -2.945  -2.256  -1.368  0.00  0.00    -0.002 A 
ATOM      2  C1  UNL d   1      -1.871  -1.387  -1.499  0.00  0.00     0.010 A 
ATOM      3  C2  UNL d   1      -1.234  -1.226  -2.730  0.00  0.00     0.041 A 
ATOM      4  C3  UNL d   1      -1.700  -1.958  -3.840  0.00  0.00    -0.075 A 
ATOM      5  S   UNL d   1      -1.076  -1.921  -5.447  0.00  0.00     0.015 SA
ATOM      6  C4  UNL d   1      -2.221  -3.057  -5.997  0.00  0.00     0.022 A 
ATOM      7  C5  UNL d   1      -3.066  -3.466  -4.993  0.00  0.00     0.026 A 
ATOM      8  C6  UNL d   1      -2.781  -2.839  -3.733  0.00  0.00    -0.082 A 
ATOM      9  C7  UNL d   1      -3.405  -2.981  -2.471  0.00  0.00     0.045 A 
ENDROOT
TORSDOF 0
ENDMDL
