MODEL 1
REMARK minimizedAffinity 9.19827461
REMARK minimizedRMSD -1
REMARK  0 active torsions:
REMARK  status: ('A' for Active; 'I' for Inactive)
ROOT
ATOM      1  C   UNL d   1       4.214  -0.770   2.000  0.00  0.00    -0.002 A 
ATOM      2  C1  UNL d   1       3.378  -0.372   0.967  0.00  0.00     0.010 A 
ATOM      3  C2  UNL d   1       2.034  -0.082   1.212  0.00  0.00     0.041 A 
ATOM      4  C3  UNL d   1       1.541  -0.199   2.527  0.00  0.00    -0.075 A 
ATOM      5  S   UNL d   1      -0.069   0.105   3.063  0.00  0.00     0.015 SA
ATOM      6  C4  UNL d   1       0.316  -0.285   4.677  0.00  0.00     0.022 A 
ATOM      7  C5  UNL d   1       1.636  -0.641   4.821  0.00  0.00     0.026 A 
ATOM      8  C6  UNL d   1       2.364  -0.597   3.584  0.00  0.00    -0.082 A 
ATOM      9  C7  UNL d   1       3.721  -0.884   3.303  0.00  0.00     0.045 A 
ENDROOT
TORSDOF 0
ENDMDL
