MODEL 1
REMARK minimizedAffinity 8.11582088
REMARK minimizedRMSD -1
REMARK  0 active torsions:
REMARK  status: ('A' for Active; 'I' for Inactive)
ROOT
ATOM      1  C   UNL d   1       2.820   1.362  -5.580  0.00  0.00    -0.002 A 
ATOM      2  C1  UNL d   1       3.935   1.749  -4.850  0.00  0.00     0.010 A 
ATOM      3  C2  UNL d   1       4.139   3.091  -4.524  0.00  0.00     0.041 A 
ATOM      4  C3  UNL d   1       3.195   4.047  -4.949  0.00  0.00    -0.075 A 
ATOM      5  S   UNL d   1       3.238   5.747  -4.666  0.00  0.00     0.015 SA
ATOM      6  C4  UNL d   1       1.778   5.999  -5.508  0.00  0.00     0.022 A 
ATOM      7  C5  UNL d   1       1.257   4.826  -5.999  0.00  0.00     0.026 A 
ATOM      8  C6  UNL d   1       2.065   3.681  -5.685  0.00  0.00    -0.082 A 
ATOM      9  C7  UNL d   1       1.886   2.313  -5.999  0.00  0.00     0.045 A 
ENDROOT
TORSDOF 0
ENDMDL
