MODEL 1
REMARK minimizedAffinity 28.1274204
REMARK minimizedRMSD -1
REMARK  0 active torsions:
REMARK  status: ('A' for Active; 'I' for Inactive)
ROOT
ATOM      1  C   UNL d   1      -2.639  -2.694  -6.000  0.00  0.00    -0.002 A 
ATOM      2  C1  UNL d   1      -1.265  -2.503  -5.999  0.00  0.00     0.010 A 
ATOM      3  C2  UNL d   1      -0.584  -2.249  -4.807  0.00  0.00     0.041 A 
ATOM      4  C3  UNL d   1      -1.314  -2.191  -3.604  0.00  0.00    -0.075 A 
ATOM      5  S   UNL d   1      -0.691  -1.895  -2.024  0.00  0.00     0.015 SA
ATOM      6  C4  UNL d   1      -2.235  -2.016  -1.312  0.00  0.00     0.022 A 
ATOM      7  C5  UNL d   1      -3.213  -2.276  -2.242  0.00  0.00     0.026 A 
ATOM      8  C6  UNL d   1      -2.698  -2.382  -3.579  0.00  0.00    -0.082 A 
ATOM      9  C7  UNL d   1      -3.360  -2.637  -4.804  0.00  0.00     0.045 A 
ENDROOT
TORSDOF 0
ENDMDL
