MODEL 1
REMARK minimizedAffinity 16.3192234
REMARK minimizedRMSD -1
REMARK  0 active torsions:
REMARK  status: ('A' for Active; 'I' for Inactive)
ROOT
ATOM      1  C   UNL d   1      -0.200   1.032   2.995  0.00  0.00    -0.002 A 
ATOM      2  C1  UNL d   1       1.122   0.983   2.575  0.00  0.00     0.010 A 
ATOM      3  C2  UNL d   1       1.538   0.024   1.650  0.00  0.00     0.041 A 
ATOM      4  C3  UNL d   1       0.594  -0.892   1.146  0.00  0.00    -0.075 A 
ATOM      5  S   UNL d   1       0.875  -2.152   0.004  0.00  0.00     0.015 SA
ATOM      6  C4  UNL d   1      -0.753  -2.654   0.044  0.00  0.00     0.022 A 
ATOM      7  C5  UNL d   1      -1.507  -1.890   0.904  0.00  0.00     0.026 A 
ATOM      8  C6  UNL d   1      -0.743  -0.862   1.552  0.00  0.00    -0.082 A 
ATOM      9  C7  UNL d   1      -1.133   0.122   2.493  0.00  0.00     0.045 A 
ENDROOT
TORSDOF 0
ENDMDL
