MODEL 1
REMARK minimizedAffinity 11.7484865
REMARK minimizedRMSD -1
REMARK  0 active torsions:
REMARK  status: ('A' for Active; 'I' for Inactive)
ROOT
ATOM      1  C   UNL d   1      -2.570  -2.079   3.784  0.00  0.00    -0.002 A 
ATOM      2  C1  UNL d   1      -2.083  -0.927   3.184  0.00  0.00     0.010 A 
ATOM      3  C2  UNL d   1      -1.219  -1.006   2.090  0.00  0.00     0.041 A 
ATOM      4  C3  UNL d   1      -0.852  -2.276   1.603  0.00  0.00    -0.075 A 
ATOM      5  S   UNL d   1       0.192  -2.617   0.274  0.00  0.00     0.015 SA
ATOM      6  C4  UNL d   1       0.016  -4.301   0.471  0.00  0.00     0.022 A 
ATOM      7  C5  UNL d   1      -0.816  -4.613   1.520  0.00  0.00     0.026 A 
ATOM      8  C6  UNL d   1      -1.330  -3.451   2.190  0.00  0.00    -0.082 A 
ATOM      9  C7  UNL d   1      -2.203  -3.337   3.298  0.00  0.00     0.045 A 
ENDROOT
TORSDOF 0
ENDMDL
