MODEL 1
REMARK minimizedAffinity 20.2184181
REMARK minimizedRMSD -1
REMARK  0 active torsions:
REMARK  status: ('A' for Active; 'I' for Inactive)
ROOT
ATOM      1  C   UNL d   1       4.334   1.534   0.071  0.00  0.00    -0.002 A 
ATOM      2  C1  UNL d   1       4.234   0.287   0.670  0.00  0.00     0.010 A 
ATOM      3  C2  UNL d   1       3.165  -0.011   1.517  0.00  0.00     0.041 A 
ATOM      4  C3  UNL d   1       2.187   0.975   1.753  0.00  0.00    -0.075 A 
ATOM      5  S   UNL d   1       0.789   0.835   2.752  0.00  0.00     0.015 SA
ATOM      6  C4  UNL d   1       0.290   2.427   2.407  0.00  0.00     0.022 A 
ATOM      7  C5  UNL d   1       1.158   3.065   1.551  0.00  0.00     0.026 A 
ATOM      8  C6  UNL d   1       2.265   2.238   1.160  0.00  0.00    -0.082 A 
ATOM      9  C7  UNL d   1       3.361   2.510   0.307  0.00  0.00     0.045 A 
ENDROOT
TORSDOF 0
ENDMDL
