MODEL 1
REMARK minimizedAffinity -3.4282279
REMARK minimizedRMSD -1
REMARK  0 active torsions:
REMARK  status: ('A' for Active; 'I' for Inactive)
ROOT
ATOM      1  C   UNL d   1       2.126  -2.987  -2.638  0.00  0.00     0.172 C 
ATOM      2  N   UNL d   1       2.195  -1.822  -1.788  0.00  0.00    -0.070 N 
ATOM      3  C1  UNL d   1       1.172  -1.333  -1.020  0.00  0.00    -0.004 A 
ATOM      4  C2  UNL d   1       1.636  -0.215  -0.360  0.00  0.00    -0.047 A 
ATOM      5  C3  UNL d   1       2.985  -0.026  -0.746  0.00  0.00    -0.047 A 
ATOM      6  C4  UNL d   1       3.305  -1.035  -1.630  0.00  0.00    -0.004 A 
ENDROOT
TORSDOF 0
ENDMDL
