MODEL 1
REMARK minimizedAffinity -2.78685331
REMARK minimizedRMSD -1
REMARK  0 active torsions:
REMARK  status: ('A' for Active; 'I' for Inactive)
ROOT
ATOM      1  C   UNL d   1      -0.582   0.479   0.594  0.00  0.00     0.172 C 
ATOM      2  N   UNL d   1       0.400  -0.297  -0.127  0.00  0.00    -0.070 N 
ATOM      3  C1  UNL d   1       1.520   0.202  -0.736  0.00  0.00    -0.004 A 
ATOM      4  C2  UNL d   1       2.194  -0.854  -1.310  0.00  0.00    -0.047 A 
ATOM      5  C3  UNL d   1       1.453  -2.028  -1.037  0.00  0.00    -0.047 A 
ATOM      6  C4  UNL d   1       0.347  -1.654  -0.303  0.00  0.00    -0.004 A 
ENDROOT
TORSDOF 0
ENDMDL
