MODEL 1
REMARK minimizedAffinity -4.04794073
REMARK minimizedRMSD -1
REMARK  0 active torsions:
REMARK  status: ('A' for Active; 'I' for Inactive)
ROOT
ATOM      1  C   UNL d   1       0.397  -0.763   0.127  0.00  0.00     0.172 C 
ATOM      2  N   UNL d   1       1.058  -0.138  -0.994  0.00  0.00    -0.070 N 
ATOM      3  C1  UNL d   1       0.677   1.034  -1.593  0.00  0.00    -0.004 A 
ATOM      4  C2  UNL d   1       1.561   1.289  -2.619  0.00  0.00    -0.047 A 
ATOM      5  C3  UNL d   1       2.505   0.235  -2.638  0.00  0.00    -0.047 A 
ATOM      6  C4  UNL d   1       2.169  -0.635  -1.621  0.00  0.00    -0.004 A 
ENDROOT
TORSDOF 0
ENDMDL
