MODEL 1
REMARK minimizedAffinity -2.8024497
REMARK minimizedRMSD -1
REMARK  0 active torsions:
REMARK  status: ('A' for Active; 'I' for Inactive)
ROOT
ATOM      1  C   UNL d   1      -1.731   0.804   0.158  0.00  0.00     0.172 C 
ATOM      2  N   UNL d   1      -0.737  -0.200   0.457  0.00  0.00    -0.070 N 
ATOM      3  C1  UNL d   1      -0.449  -1.293  -0.315  0.00  0.00    -0.004 A 
ATOM      4  C2  UNL d   1       0.553  -2.001   0.312  0.00  0.00    -0.047 A 
ATOM      5  C3  UNL d   1       0.879  -1.309   1.503  0.00  0.00    -0.047 A 
ATOM      6  C4  UNL d   1       0.065  -0.198   1.568  0.00  0.00    -0.004 A 
ENDROOT
TORSDOF 0
ENDMDL
