MODEL 1
REMARK minimizedAffinity -2.36493373
REMARK minimizedRMSD -1
REMARK  0 active torsions:
REMARK  status: ('A' for Active; 'I' for Inactive)
ROOT
ATOM      1  C   UNL d   1      -0.113   0.963   0.351  0.00  0.00     0.172 C 
ATOM      2  N   UNL d   1      -0.848   0.877   1.590  0.00  0.00    -0.070 N 
ATOM      3  C1  UNL d   1      -0.787   1.778   2.620  0.00  0.00    -0.004 A 
ATOM      4  C2  UNL d   1      -1.633   1.340   3.615  0.00  0.00    -0.047 A 
ATOM      5  C3  UNL d   1      -2.223   0.133   3.169  0.00  0.00    -0.047 A 
ATOM      6  C4  UNL d   1      -1.720  -0.130   1.913  0.00  0.00    -0.004 A 
ENDROOT
TORSDOF 0
ENDMDL
