MODEL 1
REMARK minimizedAffinity -3.46800804
REMARK minimizedRMSD -1
REMARK  0 active torsions:
REMARK  status: ('A' for Active; 'I' for Inactive)
ROOT
ATOM      1  C   UNL d   1      -1.182   0.065   0.232  0.00  0.00     0.172 C 
ATOM      2  N   UNL d   1       0.203  -0.061  -0.156  0.00  0.00    -0.070 N 
ATOM      3  C1  UNL d   1       1.055   0.977  -0.421  0.00  0.00    -0.004 A 
ATOM      4  C2  UNL d   1       2.281   0.442  -0.754  0.00  0.00    -0.047 A 
ATOM      5  C3  UNL d   1       2.161  -0.966  -0.687  0.00  0.00    -0.047 A 
ATOM      6  C4  UNL d   1       0.864  -1.250  -0.315  0.00  0.00    -0.004 A 
ENDROOT
TORSDOF 0
ENDMDL
