MODEL 1
REMARK minimizedAffinity -3.78452086
REMARK minimizedRMSD -1
REMARK  0 active torsions:
REMARK  status: ('A' for Active; 'I' for Inactive)
ROOT
ATOM      1  C   UNL d   1      -0.903   0.256   0.433  0.00  0.00     0.172 C 
ATOM      2  N   UNL d   1       0.343  -0.111  -0.197  0.00  0.00    -0.070 N 
ATOM      3  C1  UNL d   1       0.835  -1.384  -0.311  0.00  0.00    -0.004 A 
ATOM      4  C2  UNL d   1       2.042  -1.312  -0.973  0.00  0.00    -0.047 A 
ATOM      5  C3  UNL d   1       2.283   0.052  -1.266  0.00  0.00    -0.047 A 
ATOM      6  C4  UNL d   1       1.216   0.773  -0.775  0.00  0.00    -0.004 A 
ENDROOT
TORSDOF 0
ENDMDL
