MODEL 1
REMARK minimizedAffinity -2.88771534
REMARK minimizedRMSD -1
REMARK  0 active torsions:
REMARK  status: ('A' for Active; 'I' for Inactive)
ROOT
ATOM      1  C   UNL d   1       2.689  -0.048  -0.793  0.00  0.00     0.172 C 
ATOM      2  N   UNL d   1       1.309   0.169  -0.428  0.00  0.00    -0.070 N 
ATOM      3  C1  UNL d   1       0.580   1.296  -0.698  0.00  0.00    -0.004 A 
ATOM      4  C2  UNL d   1      -0.687   1.112  -0.188  0.00  0.00    -0.047 A 
ATOM      5  C3  UNL d   1      -0.720  -0.170   0.410  0.00  0.00    -0.047 A 
ATOM      6  C4  UNL d   1       0.529  -0.732   0.248  0.00  0.00    -0.004 A 
ENDROOT
TORSDOF 0
ENDMDL
