MODEL 1
REMARK minimizedAffinity -2.80752063
REMARK minimizedRMSD -1
REMARK  0 active torsions:
REMARK  status: ('A' for Active; 'I' for Inactive)
ROOT
ATOM      1  C   UNL d   1      -0.430  -0.017   0.354  0.00  0.00     0.172 C 
ATOM      2  N   UNL d   1       0.532  -0.879  -0.292  0.00  0.00    -0.070 N 
ATOM      3  C1  UNL d   1       0.667  -2.225  -0.080  0.00  0.00    -0.004 A 
ATOM      4  C2  UNL d   1       1.690  -2.678  -0.884  0.00  0.00    -0.047 A 
ATOM      5  C3  UNL d   1       2.188  -1.566  -1.604  0.00  0.00    -0.047 A 
ATOM      6  C4  UNL d   1       1.453  -0.465  -1.218  0.00  0.00    -0.004 A 
ENDROOT
TORSDOF 0
ENDMDL
