MODEL 1
REMARK minimizedAffinity -1.39434254
REMARK minimizedRMSD -1
REMARK  0 active torsions:
REMARK  status: ('A' for Active; 'I' for Inactive)
ROOT
ATOM      1  C   UNL d   1      -0.205   0.292   0.016  0.00  0.00     0.172 C 
ATOM      2  N   UNL d   1       0.593  -0.626  -0.763  0.00  0.00    -0.070 N 
ATOM      3  C1  UNL d   1       0.565  -1.991  -0.663  0.00  0.00    -0.004 A 
ATOM      4  C2  UNL d   1       1.467  -2.500  -1.573  0.00  0.00    -0.047 A 
ATOM      5  C3  UNL d   1       2.058  -1.402  -2.242  0.00  0.00    -0.047 A 
ATOM      6  C4  UNL d   1       1.498  -0.254  -1.722  0.00  0.00    -0.004 A 
ENDROOT
TORSDOF 0
ENDMDL
