MODEL 1
REMARK minimizedAffinity -3.0807972
REMARK minimizedRMSD -1
REMARK  0 active torsions:
REMARK  status: ('A' for Active; 'I' for Inactive)
ROOT
ATOM      1  C   UNL d   1       0.122   1.189  -0.537  0.00  0.00     0.172 C 
ATOM      2  N   UNL d   1       1.022   0.071  -0.695  0.00  0.00    -0.070 N 
ATOM      3  C1  UNL d   1       2.342   0.153  -1.051  0.00  0.00    -0.004 A 
ATOM      4  C2  UNL d   1       2.848  -1.128  -1.091  0.00  0.00    -0.047 A 
ATOM      5  C3  UNL d   1       1.796  -2.011  -0.749  0.00  0.00    -0.047 A 
ATOM      6  C4  UNL d   1       0.677  -1.242  -0.508  0.00  0.00    -0.004 A 
ENDROOT
TORSDOF 0
ENDMDL
