MODEL 1
REMARK minimizedAffinity -2.47454786
REMARK minimizedRMSD -1
REMARK  0 active torsions:
REMARK  status: ('A' for Active; 'I' for Inactive)
ROOT
ATOM      1  C   UNL d   1       2.016  -1.550  -1.425  0.00  0.00     0.172 C 
ATOM      2  N   UNL d   1       0.837  -1.064  -0.748  0.00  0.00    -0.070 N 
ATOM      3  C1  UNL d   1       0.010  -1.810   0.049  0.00  0.00    -0.004 A 
ATOM      4  C2  UNL d   1      -0.994  -0.984   0.505  0.00  0.00    -0.047 A 
ATOM      5  C3  UNL d   1      -0.764   0.303  -0.038  0.00  0.00    -0.047 A 
ATOM      6  C4  UNL d   1       0.376   0.224  -0.810  0.00  0.00    -0.004 A 
ENDROOT
TORSDOF 0
ENDMDL
