MODEL 1
REMARK minimizedAffinity -2.89867473
REMARK minimizedRMSD -1
REMARK  0 active torsions:
REMARK  status: ('A' for Active; 'I' for Inactive)
ROOT
ATOM      1  C   UNL d   1       0.089  -0.268   0.381  0.00  0.00     0.172 C 
ATOM      2  N   UNL d   1      -0.762   0.266   1.419  0.00  0.00    -0.070 N 
ATOM      3  C1  UNL d   1      -2.129   0.193   1.446  0.00  0.00    -0.004 A 
ATOM      4  C2  UNL d   1      -2.562   0.817   2.596  0.00  0.00    -0.047 A 
ATOM      5  C3  UNL d   1      -1.415   1.283   3.283  0.00  0.00    -0.047 A 
ATOM      6  C4  UNL d   1      -0.315   0.928   2.532  0.00  0.00    -0.004 A 
ENDROOT
TORSDOF 0
ENDMDL
