MODEL 1
REMARK minimizedAffinity -2.26578355
REMARK minimizedRMSD -1
REMARK  0 active torsions:
REMARK  status: ('A' for Active; 'I' for Inactive)
ROOT
ATOM      1  C   UNL d   1      -0.762   0.407   0.186  0.00  0.00     0.172 C 
ATOM      2  N   UNL d   1      -1.491   0.804   1.368  0.00  0.00    -0.070 N 
ATOM      3  C1  UNL d   1      -1.312   1.971   2.061  0.00  0.00    -0.004 A 
ATOM      4  C2  UNL d   1      -2.195   1.973   3.120  0.00  0.00    -0.047 A 
ATOM      5  C3  UNL d   1      -2.929   0.765   3.061  0.00  0.00    -0.047 A 
ATOM      6  C4  UNL d   1      -2.473   0.060   1.967  0.00  0.00    -0.004 A 
ENDROOT
TORSDOF 0
ENDMDL
