MODEL 1
REMARK minimizedAffinity -4.20371962
REMARK minimizedRMSD -1
REMARK  0 active torsions:
REMARK  status: ('A' for Active; 'I' for Inactive)
ROOT
ATOM      1  C   UNL d   1       0.765  -1.142  -0.070  0.00  0.00     0.172 C 
ATOM      2  N   UNL d   1       1.515  -0.388  -1.047  0.00  0.00    -0.070 N 
ATOM      3  C1  UNL d   1       1.130   0.803  -1.603  0.00  0.00    -0.004 A 
ATOM      4  C2  UNL d   1       2.114   1.195  -2.485  0.00  0.00    -0.047 A 
ATOM      5  C3  UNL d   1       3.125   0.205  -2.458  0.00  0.00    -0.047 A 
ATOM      6  C4  UNL d   1       2.728  -0.763  -1.560  0.00  0.00    -0.004 A 
ENDROOT
TORSDOF 0
ENDMDL
