MODEL 1
REMARK minimizedAffinity 6.92535114
REMARK minimizedRMSD -1
REMARK  0 active torsions:
REMARK  status: ('A' for Active; 'I' for Inactive)
ROOT
ATOM      1  C   UNL d   1       0.407   3.511   1.783  0.00  0.00     0.077 C 
ATOM      2  C1  UNL d   1       0.142   2.264   0.993  0.00  0.00    -0.074 A 
ATOM      3  C2  UNL d   1      -0.434   2.327  -0.280  0.00  0.00    -0.005 A 
ATOM      4  C3  UNL d   1      -0.665   1.159  -1.006  0.00  0.00     0.006 A 
ATOM      5  C4  UNL d   1      -0.323  -0.082  -0.468  0.00  0.00    -0.005 A 
ATOM      6  C5  UNL d   1       0.256  -0.165   0.802  0.00  0.00    -0.074 A 
ATOM      7  C6  UNL d   1       0.639  -1.491   1.391  0.00  0.00     0.077 C 
ATOM      8  C7  UNL d   1       0.491   1.013   1.523  0.00  0.00    -0.001 A 
ENDROOT
TORSDOF 0
ENDMDL
