MODEL 1
REMARK minimizedAffinity 1.44724202
REMARK minimizedRMSD -1
REMARK  0 active torsions:
REMARK  status: ('A' for Active; 'I' for Inactive)
ROOT
ATOM      1  C   UNL d   1      -0.470  -1.024   1.086  0.00  0.00     0.077 C 
ATOM      2  C1  UNL d   1      -0.328   0.402   0.642  0.00  0.00    -0.074 A 
ATOM      3  C2  UNL d   1      -0.728   0.799  -0.638  0.00  0.00    -0.005 A 
ATOM      4  C3  UNL d   1      -0.600   2.131  -1.033  0.00  0.00     0.006 A 
ATOM      5  C4  UNL d   1      -0.070   3.077  -0.154  0.00  0.00    -0.005 A 
ATOM      6  C5  UNL d   1       0.334   2.698   1.130  0.00  0.00    -0.074 A 
ATOM      7  C6  UNL d   1       0.896   3.704   2.090  0.00  0.00     0.077 C 
ATOM      8  C7  UNL d   1       0.195   1.360   1.522  0.00  0.00    -0.001 A 
ENDROOT
TORSDOF 0
ENDMDL
