MODEL 1
REMARK minimizedAffinity 1.50508475
REMARK minimizedRMSD -1
REMARK  0 active torsions:
REMARK  status: ('A' for Active; 'I' for Inactive)
ROOT
ATOM      1  C   UNL d   1      -0.276   5.764  -2.518  0.00  0.00     0.077 C 
ATOM      2  C1  UNL d   1      -0.321   4.469  -1.762  0.00  0.00    -0.074 A 
ATOM      3  C2  UNL d   1       0.104   4.399  -0.431  0.00  0.00    -0.005 A 
ATOM      4  C3  UNL d   1       0.047   3.190   0.262  0.00  0.00     0.006 A 
ATOM      5  C4  UNL d   1      -0.434   2.041  -0.367  0.00  0.00    -0.005 A 
ATOM      6  C5  UNL d   1      -0.864   2.092  -1.697  0.00  0.00    -0.074 A 
ATOM      7  C6  UNL d   1      -1.393   0.869  -2.385  0.00  0.00     0.077 C 
ATOM      8  C7  UNL d   1      -0.810   3.312  -2.385  0.00  0.00    -0.001 A 
ENDROOT
TORSDOF 0
ENDMDL
