MODEL 1
REMARK minimizedAffinity 2.75163412
REMARK minimizedRMSD -1
REMARK  0 active torsions:
REMARK  status: ('A' for Active; 'I' for Inactive)
ROOT
ATOM      1  C   UNL d   1      -3.939   3.938  -3.184  0.00  0.00     0.077 C 
ATOM      2  C1  UNL d   1      -3.585   2.620  -2.562  0.00  0.00    -0.074 A 
ATOM      3  C2  UNL d   1      -4.577   1.777  -2.051  0.00  0.00    -0.005 A 
ATOM      4  C3  UNL d   1      -4.233   0.550  -1.484  0.00  0.00     0.006 A 
ATOM      5  C4  UNL d   1      -2.896   0.155  -1.422  0.00  0.00    -0.005 A 
ATOM      6  C5  UNL d   1      -1.891   0.984  -1.928  0.00  0.00    -0.074 A 
ATOM      7  C6  UNL d   1      -0.450   0.570  -1.878  0.00  0.00     0.077 C 
ATOM      8  C7  UNL d   1      -2.245   2.212  -2.503  0.00  0.00    -0.001 A 
ENDROOT
TORSDOF 0
ENDMDL
