MODEL 1
REMARK minimizedAffinity 4.35221863
REMARK minimizedRMSD -1
REMARK  0 active torsions:
REMARK  status: ('A' for Active; 'I' for Inactive)
ROOT
ATOM      1  C   UNL d   1       5.374  -5.993  -0.359  0.00  0.00     0.077 C 
ATOM      2  C1  UNL d   1       4.295  -5.747  -1.371  0.00  0.00    -0.074 A 
ATOM      3  C2  UNL d   1       4.588  -5.706  -2.738  0.00  0.00    -0.005 A 
ATOM      4  C3  UNL d   1       3.573  -5.486  -3.669  0.00  0.00     0.006 A 
ATOM      5  C4  UNL d   1       2.257  -5.303  -3.243  0.00  0.00    -0.005 A 
ATOM      6  C5  UNL d   1       1.945  -5.341  -1.880  0.00  0.00    -0.074 A 
ATOM      7  C6  UNL d   1       0.534  -5.157  -1.406  0.00  0.00     0.077 C 
ATOM      8  C7  UNL d   1       2.969  -5.570  -0.952  0.00  0.00    -0.001 A 
ENDROOT
TORSDOF 0
ENDMDL
