MODEL 1
REMARK minimizedAffinity 7.53757191
REMARK minimizedRMSD -1
REMARK  0 active torsions:
REMARK  status: ('A' for Active; 'I' for Inactive)
ROOT
ATOM      1  C   UNL d   1      -0.694  -1.169  -1.642  0.00  0.00     0.077 C 
ATOM      2  C1  UNL d   1      -1.487   0.061  -1.970  0.00  0.00    -0.074 A 
ATOM      3  C2  UNL d   1      -2.863  -0.013  -2.209  0.00  0.00    -0.005 A 
ATOM      4  C3  UNL d   1      -3.589   1.141  -2.503  0.00  0.00     0.006 A 
ATOM      5  C4  UNL d   1      -2.947   2.379  -2.562  0.00  0.00    -0.005 A 
ATOM      6  C5  UNL d   1      -1.572   2.472  -2.325  0.00  0.00    -0.074 A 
ATOM      7  C6  UNL d   1      -0.869   3.796  -2.375  0.00  0.00     0.077 C 
ATOM      8  C7  UNL d   1      -0.851   1.309  -2.023  0.00  0.00    -0.001 A 
ENDROOT
TORSDOF 0
ENDMDL
