MODEL 1
REMARK minimizedAffinity 2.66711688
REMARK minimizedRMSD -1
REMARK  0 active torsions:
REMARK  status: ('A' for Active; 'I' for Inactive)
ROOT
ATOM      1  C   UNL d   1       0.158   4.606  -1.698  0.00  0.00     0.077 C 
ATOM      2  C1  UNL d   1       0.026   3.363  -0.870  0.00  0.00    -0.074 A 
ATOM      3  C2  UNL d   1      -0.482   2.182  -1.422  0.00  0.00    -0.005 A 
ATOM      4  C3  UNL d   1      -0.590   1.031  -0.643  0.00  0.00     0.006 A 
ATOM      5  C4  UNL d   1      -0.192   1.048   0.695  0.00  0.00    -0.005 A 
ATOM      6  C5  UNL d   1       0.319   2.219   1.264  0.00  0.00    -0.074 A 
ATOM      7  C6  UNL d   1       0.761   2.252   2.697  0.00  0.00     0.077 C 
ATOM      8  C7  UNL d   1       0.431   3.370   0.472  0.00  0.00    -0.001 A 
ENDROOT
TORSDOF 0
ENDMDL
