MODEL 1
REMARK minimizedAffinity -4.05249119
REMARK minimizedRMSD -1
REMARK  0 active torsions:
REMARK  status: ('A' for Active; 'I' for Inactive)
ROOT
ATOM      1  C   UNL d   1       0.108  -0.264   1.457  0.00  0.00     0.077 C 
ATOM      2  C1  UNL d   1       0.158   1.227   1.302  0.00  0.00    -0.074 A 
ATOM      3  C2  UNL d   1       0.206   2.064   2.421  0.00  0.00    -0.005 A 
ATOM      4  C3  UNL d   1       0.262   3.449   2.261  0.00  0.00     0.006 A 
ATOM      5  C4  UNL d   1       0.269   4.009   0.983  0.00  0.00    -0.005 A 
ATOM      6  C5  UNL d   1       0.222   3.187  -0.147  0.00  0.00    -0.074 A 
ATOM      7  C6  UNL d   1       0.240   3.773  -1.528  0.00  0.00     0.077 C 
ATOM      8  C7  UNL d   1       0.174   1.797   0.021  0.00  0.00    -0.001 A 
ENDROOT
TORSDOF 0
ENDMDL
