MODEL 1
REMARK minimizedAffinity 0.668842673
REMARK minimizedRMSD -1
REMARK  0 active torsions:
REMARK  status: ('A' for Active; 'I' for Inactive)
ROOT
ATOM      1  C   UNL d   1       0.048   0.403  -2.151  0.00  0.00     0.077 C 
ATOM      2  C1  UNL d   1       0.523   0.258  -0.736  0.00  0.00    -0.074 A 
ATOM      3  C2  UNL d   1       1.413  -0.760  -0.377  0.00  0.00    -0.005 A 
ATOM      4  C3  UNL d   1       1.853  -0.876   0.941  0.00  0.00     0.006 A 
ATOM      5  C4  UNL d   1       1.410   0.022   1.912  0.00  0.00    -0.005 A 
ATOM      6  C5  UNL d   1       0.521   1.047   1.572  0.00  0.00    -0.074 A 
ATOM      7  C6  UNL d   1       0.043   2.027   2.601  0.00  0.00     0.077 C 
ATOM      8  C7  UNL d   1       0.089   1.162   0.244  0.00  0.00    -0.001 A 
ENDROOT
TORSDOF 0
ENDMDL
