MODEL 1
REMARK minimizedAffinity -1.2119503
REMARK minimizedRMSD -1
REMARK  1 active torsions:
REMARK  status: ('A' for Active; 'I' for Inactive)
REMARK    1  A    between atoms: N_2  and  C1_3 
ROOT
ATOM      1  C1  UNL d   1       0.197  -1.223   3.410  0.00  0.00     0.143 A 
ATOM      2  C2  UNL d   1      -1.114  -0.873   3.751  0.00  0.00    -0.057 A 
ATOM      3  C3  UNL d   1      -1.973  -0.279   2.818  0.00  0.00     0.033 A 
ATOM      4  C4  UNL d   1      -1.525   0.003   1.532  0.00  0.00    -0.042 A 
ATOM      5  C5  UNL d   1      -0.218  -0.313   1.178  0.00  0.00     0.033 A 
ATOM      6  C6  UNL d   1       0.633  -0.912   2.112  0.00  0.00    -0.057 A 
ENDROOT
BRANCH   1   7
ATOM      7  N   UNL d   1       1.130  -1.725   4.320  0.00  0.00    -0.732 N 
ATOM      8  C   UNL d   1       2.548  -1.627   4.051  0.00  0.00     0.284 C 
ATOM      9  H3  UNL d   1       0.875  -1.529   5.285  0.00  0.00     0.395 HD
ENDBRANCH   1   7
TORSDOF 1
ENDMDL
