MODEL 1
REMARK minimizedAffinity 2.43560076
REMARK minimizedRMSD -1
REMARK  1 active torsions:
REMARK  status: ('A' for Active; 'I' for Inactive)
REMARK    1  A    between atoms: N_2  and  C1_3 
ROOT
ATOM      1  C1  UNL d   1      -0.135  -0.656   2.111  0.00  0.00     0.143 A 
ATOM      2  C2  UNL d   1       1.155  -0.530   1.582  0.00  0.00    -0.057 A 
ATOM      3  C3  UNL d   1       2.283  -0.900   2.324  0.00  0.00     0.033 A 
ATOM      4  C4  UNL d   1       2.143  -1.377   3.623  0.00  0.00    -0.042 A 
ATOM      5  C5  UNL d   1       0.873  -1.487   4.178  0.00  0.00     0.033 A 
ATOM      6  C6  UNL d   1      -0.250  -1.122   3.430  0.00  0.00    -0.057 A 
ENDROOT
BRANCH   1   7
ATOM      7  N   UNL d   1      -1.289  -0.212   1.460  0.00  0.00    -0.732 N 
ATOM      8  C   UNL d   1      -2.367   0.398   2.207  0.00  0.00     0.284 C 
ATOM      9  H3  UNL d   1      -1.084   0.246   0.576  0.00  0.00     0.395 HD
ENDBRANCH   1   7
TORSDOF 1
ENDMDL
