MODEL 1
REMARK minimizedAffinity 6.72460318
REMARK minimizedRMSD -1
REMARK  1 active torsions:
REMARK  status: ('A' for Active; 'I' for Inactive)
REMARK    1  A    between atoms: N_2  and  C1_3 
ROOT
ATOM      1  C1  UNL d   1      -0.673  -0.530   1.153  0.00  0.00     0.143 A 
ATOM      2  C2  UNL d   1      -1.640   0.351   1.652  0.00  0.00    -0.057 A 
ATOM      3  C3  UNL d   1      -2.782   0.672   0.908  0.00  0.00     0.033 A 
ATOM      4  C4  UNL d   1      -2.963   0.139  -0.364  0.00  0.00    -0.042 A 
ATOM      5  C5  UNL d   1      -2.003  -0.718  -0.890  0.00  0.00     0.033 A 
ATOM      6  C6  UNL d   1      -0.868  -1.041  -0.139  0.00  0.00    -0.057 A 
ENDROOT
BRANCH   1   7
ATOM      7  N   UNL d   1       0.531  -0.812   1.803  0.00  0.00    -0.732 N 
ATOM      8  C   UNL d   1       1.782  -0.291   1.295  0.00  0.00     0.284 C 
ATOM      9  H3  UNL d   1       0.444  -0.771   2.816  0.00  0.00     0.395 HD
ENDBRANCH   1   7
TORSDOF 1
ENDMDL
