MODEL 1
REMARK minimizedAffinity 3.26330781
REMARK minimizedRMSD -1
REMARK  1 active torsions:
REMARK  status: ('A' for Active; 'I' for Inactive)
REMARK    1  A    between atoms: N_2  and  C1_3 
ROOT
ATOM      1  C1  UNL d   1       0.035  -0.673   2.252  0.00  0.00     0.143 A 
ATOM      2  C2  UNL d   1      -1.180  -0.299   2.837  0.00  0.00    -0.057 A 
ATOM      3  C3  UNL d   1      -2.251   0.154   2.059  0.00  0.00     0.033 A 
ATOM      4  C4  UNL d   1      -2.117   0.269   0.679  0.00  0.00    -0.042 A 
ATOM      5  C5  UNL d   1      -0.911  -0.074   0.079  0.00  0.00     0.033 A 
ATOM      6  C6  UNL d   1       0.154  -0.532   0.861  0.00  0.00    -0.057 A 
ENDROOT
BRANCH   1   7
ATOM      7  N   UNL d   1       1.170  -1.037   2.981  0.00  0.00    -0.732 N 
ATOM      8  C   UNL d   1       1.062  -1.415   4.374  0.00  0.00     0.284 C 
ATOM      9  H3  UNL d   1       1.808  -1.617   2.442  0.00  0.00     0.395 HD
ENDBRANCH   1   7
TORSDOF 1
ENDMDL
