MODEL 1
REMARK minimizedAffinity 0.563857496
REMARK minimizedRMSD -1
REMARK  1 active torsions:
REMARK  status: ('A' for Active; 'I' for Inactive)
REMARK    1  A    between atoms: N_2  and  C1_3 
ROOT
ATOM      1  C1  UNL d   1       0.299  -0.422   1.211  0.00  0.00     0.143 A 
ATOM      2  C2  UNL d   1       0.171  -0.713  -0.151  0.00  0.00    -0.057 A 
ATOM      3  C3  UNL d   1      -1.058  -0.583  -0.810  0.00  0.00     0.033 A 
ATOM      4  C4  UNL d   1      -2.191  -0.186  -0.107  0.00  0.00    -0.042 A 
ATOM      5  C5  UNL d   1      -2.093   0.085   1.253  0.00  0.00     0.033 A 
ATOM      6  C6  UNL d   1      -0.862  -0.041   1.903  0.00  0.00    -0.057 A 
ENDROOT
BRANCH   1   7
ATOM      7  N   UNL d   1       1.470  -0.627   1.944  0.00  0.00    -0.732 N 
ATOM      8  C   UNL d   1       1.411  -1.013   3.337  0.00  0.00     0.284 C 
ATOM      9  H3  UNL d   1       2.184  -1.115   1.407  0.00  0.00     0.395 HD
ENDBRANCH   1   7
TORSDOF 1
ENDMDL
