MODEL 1
REMARK minimizedAffinity 6.17547703
REMARK minimizedRMSD -1
REMARK  1 active torsions:
REMARK  status: ('A' for Active; 'I' for Inactive)
REMARK    1  A    between atoms: N_2  and  C1_3 
ROOT
ATOM      1  C1  UNL d   1      -0.158  -0.411   0.681  0.00  0.00     0.143 A 
ATOM      2  C2  UNL d   1      -0.813  -1.100  -0.345  0.00  0.00    -0.057 A 
ATOM      3  C3  UNL d   1      -2.198  -0.991  -0.524  0.00  0.00     0.033 A 
ATOM      4  C4  UNL d   1      -2.958  -0.210   0.340  0.00  0.00    -0.042 A 
ATOM      5  C5  UNL d   1      -2.331   0.464   1.382  0.00  0.00     0.033 A 
ATOM      6  C6  UNL d   1      -0.948   0.356   1.552  0.00  0.00    -0.057 A 
ENDROOT
BRANCH   1   7
ATOM      7  N   UNL d   1       1.200  -0.557   0.972  0.00  0.00    -0.732 N 
ATOM      8  C   UNL d   1       2.136   0.506   0.674  0.00  0.00     0.284 C 
ATOM      9  H3  UNL d   1       1.359  -1.011   1.869  0.00  0.00     0.395 HD
ENDBRANCH   1   7
TORSDOF 1
ENDMDL
