MODEL 1
REMARK minimizedAffinity -2.82336617
REMARK minimizedRMSD -1
REMARK  0 active torsions:
REMARK  status: ('A' for Active; 'I' for Inactive)
ROOT
ATOM      1  C1  BNZ d   1       0.457   0.688   1.188  0.00  0.00     0.000 A 
ATOM      2  C2  BNZ d   1      -0.243   0.433   0.039  0.00  0.00     0.000 A 
ATOM      3  C3  BNZ d   1       0.147  -0.565  -0.810  0.00  0.00     0.000 A 
ATOM      4  C4  BNZ d   1       1.257  -1.278  -0.531  0.00  0.00     0.000 A 
ATOM      5  C5  BNZ d   1       1.978  -1.026   0.619  0.00  0.00     0.000 A 
ATOM      6  C6  BNZ d   1       1.561  -0.047   1.491  0.00  0.00     0.000 A 
ENDROOT
TORSDOF 0
ENDMDL
