MODEL 1
REMARK minimizedAffinity -3.07367778
REMARK minimizedRMSD -1
REMARK  0 active torsions:
REMARK  status: ('A' for Active; 'I' for Inactive)
ROOT
ATOM      1  C1  BNZ d   1      -0.551  -0.173  -0.071  0.00  0.00     0.000 A 
ATOM      2  C2  BNZ d   1      -0.463   0.600   1.056  0.00  0.00     0.000 A 
ATOM      3  C3  BNZ d   1       0.715   0.703   1.743  0.00  0.00     0.000 A 
ATOM      4  C4  BNZ d   1       1.789   0.003   1.326  0.00  0.00     0.000 A 
ATOM      5  C5  BNZ d   1       1.713  -0.788   0.197  0.00  0.00     0.000 A 
ATOM      6  C6  BNZ d   1       0.538  -0.859  -0.514  0.00  0.00     0.000 A 
ENDROOT
TORSDOF 0
ENDMDL
