MODEL 1
REMARK minimizedAffinity -4.60186291
REMARK minimizedRMSD -1
REMARK  0 active torsions:
REMARK  status: ('A' for Active; 'I' for Inactive)
ROOT
ATOM      1  C1  BNZ d   1      -0.448   0.884   0.446  0.00  0.00     0.000 A 
ATOM      2  C2  BNZ d   1       0.612   1.109   1.283  0.00  0.00     0.000 A 
ATOM      3  C3  BNZ d   1       0.484   0.945   2.634  0.00  0.00     0.000 A 
ATOM      4  C4  BNZ d   1      -0.712   0.595   3.149  0.00  0.00     0.000 A 
ATOM      5  C5  BNZ d   1      -1.793   0.374   2.319  0.00  0.00     0.000 A 
ATOM      6  C6  BNZ d   1      -1.651   0.502   0.957  0.00  0.00     0.000 A 
ENDROOT
TORSDOF 0
ENDMDL
