MODEL 1
REMARK minimizedAffinity -5.45070314
REMARK minimizedRMSD -1
REMARK  0 active torsions:
REMARK  status: ('A' for Active; 'I' for Inactive)
ROOT
ATOM      1  C1  BNZ d   1       0.956   0.404   3.254  0.00  0.00     0.000 A 
ATOM      2  C2  BNZ d   1       1.410  -0.247   2.138  0.00  0.00     0.000 A 
ATOM      3  C3  BNZ d   1       0.676  -0.255   0.985  0.00  0.00     0.000 A 
ATOM      4  C4  BNZ d   1      -0.528   0.352   0.961  0.00  0.00     0.000 A 
ATOM      5  C5  BNZ d   1      -1.004   1.005   2.081  0.00  0.00     0.000 A 
ATOM      6  C6  BNZ d   1      -0.245   1.045   3.227  0.00  0.00     0.000 A 
ENDROOT
TORSDOF 0
ENDMDL
