MODEL 1
REMARK minimizedAffinity 5.46464443
REMARK minimizedRMSD -1
REMARK  0 active torsions:
REMARK  status: ('A' for Active; 'I' for Inactive)
ROOT
ATOM      1  C1  BNZ d   1       2.609  -0.975  -1.878  0.00  0.00     0.000 A 
ATOM      2  C2  BNZ d   1       1.588  -0.236  -2.416  0.00  0.00     0.000 A 
ATOM      3  C3  BNZ d   1       1.815   0.610  -3.465  0.00  0.00     0.000 A 
ATOM      4  C4  BNZ d   1       3.067   0.747  -3.948  0.00  0.00     0.000 A 
ATOM      5  C5  BNZ d   1       4.107   0.017  -3.410  0.00  0.00     0.000 A 
ATOM      6  C6  BNZ d   1       3.869  -0.863  -2.379  0.00  0.00     0.000 A 
ENDROOT
TORSDOF 0
ENDMDL
