MODEL 1
REMARK minimizedAffinity 1.79163742
REMARK minimizedRMSD -1
REMARK  3 active torsions:
REMARK  status: ('A' for Active; 'I' for Inactive)
REMARK    1  A    between atoms: C3'_2  and  C2'_3 
REMARK    2  A    between atoms: C2'_3  and  C1'_4 
REMARK    3  A    between atoms: C1'_4  and  C1_5 
ROOT
ATOM      1  C1  N4B d   1      -4.979   2.288  -2.846  0.00  0.00    -0.075 A 
ATOM      2  C2  N4B d   1      -4.113   2.216  -3.959  0.00  0.00     0.002 A 
ATOM      3  C3  N4B d   1      -4.051   3.259  -4.850  0.00  0.00     0.002 A 
ATOM      4  C4  N4B d   1      -4.856   4.372  -4.660  0.00  0.00    -0.004 A 
ATOM      5  C5  N4B d   1      -5.672   4.444  -3.569  0.00  0.00     0.002 A 
ATOM      6  C6  N4B d   1      -5.742   3.405  -2.663  0.00  0.00     0.002 A 
ENDROOT
BRANCH   1   7
ATOM      7  C1' N4B d   1      -5.145   1.136  -1.893  0.00  0.00     0.057 C 
BRANCH   7   8
ATOM      8  C2' N4B d   1      -3.927   1.067  -0.975  0.00  0.00     0.009 C 
BRANCH   8   9
ATOM      9  C3' N4B d   1      -4.315   0.753   0.460  0.00  0.00     0.004 C 
ATOM     10  C4' N4B d   1      -3.441   1.447   1.462  0.00  0.00     0.003 C 
ENDBRANCH   8   9
ENDBRANCH   7   8
ENDBRANCH   1   7
TORSDOF 3
ENDMDL
