MODEL 1
REMARK minimizedAffinity 3.96457052
REMARK minimizedRMSD -1
REMARK  3 active torsions:
REMARK  status: ('A' for Active; 'I' for Inactive)
REMARK    1  A    between atoms: C3'_2  and  C2'_3 
REMARK    2  A    between atoms: C2'_3  and  C1'_4 
REMARK    3  A    between atoms: C1'_4  and  C1_5 
ROOT
ATOM      1  C1  N4B d   1       0.782   2.308   1.132  0.00  0.00    -0.075 A 
ATOM      2  C2  N4B d   1       0.640   1.464   2.255  0.00  0.00     0.002 A 
ATOM      3  C3  N4B d   1      -0.463   1.579   3.065  0.00  0.00     0.002 A 
ATOM      4  C4  N4B d   1      -1.424   2.539   2.783  0.00  0.00    -0.004 A 
ATOM      5  C5  N4B d   1      -1.292   3.333   1.682  0.00  0.00     0.002 A 
ATOM      6  C6  N4B d   1      -0.190   3.226   0.857  0.00  0.00     0.002 A 
ENDROOT
BRANCH   1   7
ATOM      7  C1' N4B d   1       2.012   2.278   0.266  0.00  0.00     0.057 C 
BRANCH   7   8
ATOM      8  C2' N4B d   1       2.362   0.828  -0.057  0.00  0.00     0.009 C 
BRANCH   8   9
ATOM      9  C3' N4B d   1       3.830   0.663  -0.408  0.00  0.00     0.004 C 
ATOM     10  C4' N4B d   1       4.520   1.971  -0.655  0.00  0.00     0.003 C 
ENDBRANCH   8   9
ENDBRANCH   7   8
ENDBRANCH   1   7
TORSDOF 3
ENDMDL
