MODEL 1
REMARK minimizedAffinity 7.66266966
REMARK minimizedRMSD -1
REMARK  3 active torsions:
REMARK  status: ('A' for Active; 'I' for Inactive)
REMARK    1  A    between atoms: C3'_2  and  C2'_3 
REMARK    2  A    between atoms: C2'_3  and  C1'_4 
REMARK    3  A    between atoms: C1'_4  and  C1_5 
ROOT
ATOM      1  C1  N4B d   1       2.800   0.226   0.885  0.00  0.00    -0.075 A 
ATOM      2  C2  N4B d   1       2.810  -0.580   2.045  0.00  0.00     0.002 A 
ATOM      3  C3  N4B d   1       2.915  -1.944   1.931  0.00  0.00     0.002 A 
ATOM      4  C4  N4B d   1       2.991  -2.524   0.674  0.00  0.00    -0.004 A 
ATOM      5  C5  N4B d   1       3.005  -1.737  -0.440  0.00  0.00     0.002 A 
ATOM      6  C6  N4B d   1       2.905  -0.364  -0.341  0.00  0.00     0.002 A 
ENDROOT
BRANCH   1   7
ATOM      7  C1' N4B d   1       2.601   1.716   0.955  0.00  0.00     0.057 C 
BRANCH   7   8
ATOM      8  C2' N4B d   1       2.124   2.222  -0.403  0.00  0.00     0.009 C 
BRANCH   8   9
ATOM      9  C3' N4B d   1       0.630   2.499  -0.413  0.00  0.00     0.004 C 
ATOM     10  C4' N4B d   1      -0.158   1.413  -1.081  0.00  0.00     0.003 C 
ENDBRANCH   8   9
ENDBRANCH   7   8
ENDBRANCH   1   7
TORSDOF 3
ENDMDL
