MODEL 1
REMARK minimizedAffinity 3.75350618
REMARK minimizedRMSD -1
REMARK  3 active torsions:
REMARK  status: ('A' for Active; 'I' for Inactive)
REMARK    1  A    between atoms: C3'_2  and  C2'_3 
REMARK    2  A    between atoms: C2'_3  and  C1'_4 
REMARK    3  A    between atoms: C1'_4  and  C1_5 
ROOT
ATOM      1  C1  N4B d   1      -4.955   0.187  -2.529  0.00  0.00    -0.075 A 
ATOM      2  C2  N4B d   1      -4.763  -0.404  -3.798  0.00  0.00     0.002 A 
ATOM      3  C3  N4B d   1      -4.889   0.356  -4.935  0.00  0.00     0.002 A 
ATOM      4  C4  N4B d   1      -5.223   1.698  -4.830  0.00  0.00    -0.004 A 
ATOM      5  C5  N4B d   1      -5.382   2.267  -3.600  0.00  0.00     0.002 A 
ATOM      6  C6  N4B d   1      -5.254   1.516  -2.448  0.00  0.00     0.002 A 
ENDROOT
BRANCH   1   7
ATOM      7  C1' N4B d   1      -4.912  -0.622  -1.262  0.00  0.00     0.057 C 
BRANCH   7   8
ATOM      8  C2' N4B d   1      -5.851   0.005  -0.236  0.00  0.00     0.009 C 
BRANCH   8   9
ATOM      9  C3' N4B d   1      -5.092   0.748   0.850  0.00  0.00     0.004 C 
ATOM     10  C4' N4B d   1      -5.997   1.368   1.872  0.00  0.00     0.003 C 
ENDBRANCH   8   9
ENDBRANCH   7   8
ENDBRANCH   1   7
TORSDOF 3
ENDMDL
