MODEL 1
REMARK minimizedAffinity 5.0894556
REMARK minimizedRMSD -1
REMARK  3 active torsions:
REMARK  status: ('A' for Active; 'I' for Inactive)
REMARK    1  A    between atoms: C3'_2  and  C2'_3 
REMARK    2  A    between atoms: C2'_3  and  C1'_4 
REMARK    3  A    between atoms: C1'_4  and  C1_5 
ROOT
ATOM      1  C1  N4B d   1       0.620  -1.690  -1.738  0.00  0.00    -0.075 A 
ATOM      2  C2  N4B d   1      -0.258  -2.760  -1.455  0.00  0.00     0.002 A 
ATOM      3  C3  N4B d   1      -0.014  -3.582  -0.382  0.00  0.00     0.002 A 
ATOM      4  C4  N4B d   1       1.105  -3.367   0.407  0.00  0.00    -0.004 A 
ATOM      5  C5  N4B d   1       1.934  -2.316   0.142  0.00  0.00     0.002 A 
ATOM      6  C6  N4B d   1       1.699  -1.479  -0.931  0.00  0.00     0.002 A 
ENDROOT
BRANCH   1   7
ATOM      7  C1' N4B d   1       0.442  -0.817  -2.950  0.00  0.00     0.057 C 
BRANCH   7   8
ATOM      8  C2' N4B d   1      -1.043  -0.528  -3.146  0.00  0.00     0.009 C 
BRANCH   8   9
ATOM      9  C3' N4B d   1      -1.467   0.757  -2.455  0.00  0.00     0.004 C 
ATOM     10  C4' N4B d   1      -2.745   1.317  -3.005  0.00  0.00     0.003 C 
ENDBRANCH   8   9
ENDBRANCH   7   8
ENDBRANCH   1   7
TORSDOF 3
ENDMDL
