MODEL 1
REMARK minimizedAffinity 15.109828
REMARK minimizedRMSD -1
REMARK  3 active torsions:
REMARK  status: ('A' for Active; 'I' for Inactive)
REMARK    1  A    between atoms: C3'_2  and  C2'_3 
REMARK    2  A    between atoms: C2'_3  and  C1'_4 
REMARK    3  A    between atoms: C1'_4  and  C1_5 
ROOT
ATOM      1  C1  N4B d   1      -5.633   1.538  -1.721  0.00  0.00    -0.075 A 
ATOM      2  C2  N4B d   1      -5.115   1.031  -2.933  0.00  0.00     0.002 A 
ATOM      3  C3  N4B d   1      -4.867   1.881  -3.983  0.00  0.00     0.002 A 
ATOM      4  C4  N4B d   1      -5.146   3.233  -3.851  0.00  0.00    -0.004 A 
ATOM      5  C5  N4B d   1      -5.622   3.718  -2.669  0.00  0.00     0.002 A 
ATOM      6  C6  N4B d   1      -5.872   2.876  -1.604  0.00  0.00     0.002 A 
ENDROOT
BRANCH   1   7
ATOM      7  C1' N4B d   1      -6.000   0.635  -0.575  0.00  0.00     0.057 C 
BRANCH   7   8
ATOM      8  C2' N4B d   1      -4.831   0.567   0.403  0.00  0.00     0.009 C 
BRANCH   8   9
ATOM      9  C3' N4B d   1      -5.213   1.079   1.781  0.00  0.00     0.004 C 
ATOM     10  C4' N4B d   1      -4.789   2.498   2.012  0.00  0.00     0.003 C 
ENDBRANCH   8   9
ENDBRANCH   7   8
ENDBRANCH   1   7
TORSDOF 3
ENDMDL
