MODEL 1
REMARK minimizedAffinity -5.30001831
REMARK minimizedRMSD -1
REMARK  0 active torsions:
REMARK  status: ('A' for Active; 'I' for Inactive)
ROOT
ATOM      1  C4' PXY d   1       1.215  -0.374   2.315  0.00  0.00     0.077 C 
ATOM      2  C1' PXY d   1      -1.358   1.996  -2.287  0.00  0.00     0.077 C 
ATOM      3  C1  PXY d   1      -0.684   1.386  -1.074  0.00  0.00    -0.082 A 
ATOM      4  C2  PXY d   1       0.129   0.354  -1.227  0.00  0.00     0.003 A 
ATOM      5  C3  PXY d   1       0.722  -0.231  -0.137  0.00  0.00     0.003 A 
ATOM      6  C4  PXY d   1       0.521   0.280   1.117  0.00  0.00    -0.082 A 
ATOM      7  C5  PXY d   1      -0.299   1.339   1.281  0.00  0.00     0.003 A 
ATOM      8  C6  PXY d   1      -0.923   1.892   0.166  0.00  0.00     0.003 A 
ENDROOT
TORSDOF 0
ENDMDL
