MODEL 1
REMARK minimizedAffinity 1.78531981
REMARK minimizedRMSD -1
REMARK  0 active torsions:
REMARK  status: ('A' for Active; 'I' for Inactive)
ROOT
ATOM      1  C4' PXY d   1      -0.699   1.919  -1.088  0.00  0.00     0.077 C 
ATOM      2  C1' PXY d   1       2.826  -1.096   2.363  0.00  0.00     0.077 C 
ATOM      3  C1  PXY d   1       1.892  -0.306   1.467  0.00  0.00    -0.082 A 
ATOM      4  C2  PXY d   1       2.060  -0.339   0.155  0.00  0.00     0.003 A 
ATOM      5  C3  PXY d   1       1.245   0.395  -0.668  0.00  0.00     0.003 A 
ATOM      6  C4  PXY d   1       0.214   1.129  -0.145  0.00  0.00    -0.082 A 
ATOM      7  C5  PXY d   1       0.029   1.160   1.191  0.00  0.00     0.003 A 
ATOM      8  C6  PXY d   1       0.893   0.440   2.012  0.00  0.00     0.003 A 
ENDROOT
TORSDOF 0
ENDMDL
