MODEL 1
REMARK minimizedAffinity -3.78461289
REMARK minimizedRMSD -1
REMARK  0 active torsions:
REMARK  status: ('A' for Active; 'I' for Inactive)
ROOT
ATOM      1  C4' PXY d   1       0.612  -2.691  -1.968  0.00  0.00     0.077 C 
ATOM      2  C1' PXY d   1      -0.413   1.876   1.424  0.00  0.00     0.077 C 
ATOM      3  C1  PXY d   1      -0.145   0.687   0.524  0.00  0.00    -0.082 A 
ATOM      4  C2  PXY d   1      -0.442  -0.532   0.945  0.00  0.00     0.003 A 
ATOM      5  C3  PXY d   1      -0.177  -1.622   0.157  0.00  0.00     0.003 A 
ATOM      6  C4  PXY d   1       0.350  -1.459  -1.097  0.00  0.00    -0.082 A 
ATOM      7  C5  PXY d   1       0.646  -0.218  -1.538  0.00  0.00     0.003 A 
ATOM      8  C6  PXY d   1       0.407   0.872  -0.706  0.00  0.00     0.003 A 
ENDROOT
TORSDOF 0
ENDMDL
