MODEL 1
REMARK minimizedAffinity -2.56266904
REMARK minimizedRMSD -1
REMARK  0 active torsions:
REMARK  status: ('A' for Active; 'I' for Inactive)
ROOT
ATOM      1  C4' PXY d   1       0.537  -2.091  -1.258  0.00  0.00     0.077 C 
ATOM      2  C1' PXY d   1      -1.285   2.355   1.957  0.00  0.00     0.077 C 
ATOM      3  C1  PXY d   1      -0.816   1.192   1.105  0.00  0.00    -0.082 A 
ATOM      4  C2  PXY d   1      -0.204   0.167   1.676  0.00  0.00     0.003 A 
ATOM      5  C3  PXY d   1       0.255  -0.878   0.916  0.00  0.00     0.003 A 
ATOM      6  C4  PXY d   1       0.038  -0.899  -0.435  0.00  0.00    -0.082 A 
ATOM      7  C5  PXY d   1      -0.594   0.138  -1.024  0.00  0.00     0.003 A 
ATOM      8  C6  PXY d   1      -1.016   1.208  -0.241  0.00  0.00     0.003 A 
ENDROOT
TORSDOF 0
ENDMDL
