MODEL 1
REMARK minimizedAffinity -3.58291006
REMARK minimizedRMSD -1
REMARK  0 active torsions:
REMARK  status: ('A' for Active; 'I' for Inactive)
ROOT
ATOM      1  C4' PXY d   1      -0.525   3.333  -1.497  0.00  0.00     0.077 C 
ATOM      2  C1' PXY d   1       0.521  -0.727   2.483  0.00  0.00     0.077 C 
ATOM      3  C1  PXY d   1       0.240   0.345   1.448  0.00  0.00    -0.082 A 
ATOM      4  C2  PXY d   1       0.216   0.024   0.164  0.00  0.00     0.003 A 
ATOM      5  C3  PXY d   1      -0.004   0.987  -0.787  0.00  0.00     0.003 A 
ATOM      6  C4  PXY d   1      -0.255   2.282  -0.417  0.00  0.00    -0.082 A 
ATOM      7  C5  PXY d   1      -0.243   2.614   0.891  0.00  0.00     0.003 A 
ATOM      8  C6  PXY d   1       0.024   1.630   1.838  0.00  0.00     0.003 A 
ENDROOT
TORSDOF 0
ENDMDL
