MODEL 1
REMARK minimizedAffinity -3.33215761
REMARK minimizedRMSD -1
REMARK  0 active torsions:
REMARK  status: ('A' for Active; 'I' for Inactive)
ROOT
ATOM      1  C4' PXY d   1       0.210  -2.273  -1.401  0.00  0.00     0.077 C 
ATOM      2  C1' PXY d   1      -0.301   2.424   1.930  0.00  0.00     0.077 C 
ATOM      3  C1  PXY d   1      -0.176   1.196   1.049  0.00  0.00    -0.082 A 
ATOM      4  C2  PXY d   1       0.300   0.072   1.557  0.00  0.00     0.003 A 
ATOM      5  C3  PXY d   1       0.450  -1.038   0.766  0.00  0.00     0.003 A 
ATOM      6  C4  PXY d   1       0.058  -1.012  -0.546  0.00  0.00    -0.082 A 
ATOM      7  C5  PXY d   1      -0.439   0.128  -1.069  0.00  0.00     0.003 A 
ATOM      8  C6  PXY d   1      -0.545   1.256  -0.260  0.00  0.00     0.003 A 
ENDROOT
TORSDOF 0
ENDMDL
