MODEL 1
REMARK minimizedAffinity 0.838940203
REMARK minimizedRMSD -1
REMARK  0 active torsions:
REMARK  status: ('A' for Active; 'I' for Inactive)
ROOT
ATOM      1  C4' PXY d   1       1.559  -2.982  -0.573  0.00  0.00     0.077 C 
ATOM      2  C1' PXY d   1       0.195   1.794   2.385  0.00  0.00     0.077 C 
ATOM      3  C1  PXY d   1       0.555   0.549   1.599  0.00  0.00    -0.082 A 
ATOM      4  C2  PXY d   1       0.087  -0.627   1.985  0.00  0.00     0.003 A 
ATOM      5  C3  PXY d   1       0.428  -1.767   1.304  0.00  0.00     0.003 A 
ATOM      6  C4  PXY d   1       1.214  -1.697   0.185  0.00  0.00    -0.082 A 
ATOM      7  C5  PXY d   1       1.687  -0.500  -0.221  0.00  0.00     0.003 A 
ATOM      8  C6  PXY d   1       1.363   0.641   0.507  0.00  0.00     0.003 A 
ENDROOT
TORSDOF 0
ENDMDL
