MODEL 1
REMARK minimizedAffinity -0.561600685
REMARK minimizedRMSD -1
REMARK  0 active torsions:
REMARK  status: ('A' for Active; 'I' for Inactive)
ROOT
ATOM      1  C4' PXY d   1       0.724  -3.559  -1.417  0.00  0.00     0.077 C 
ATOM      2  C1' PXY d   1      -0.816   1.719   0.369  0.00  0.00     0.077 C 
ATOM      3  C1  PXY d   1      -0.418   0.337  -0.111  0.00  0.00    -0.082 A 
ATOM      4  C2  PXY d   1      -0.180  -0.618   0.773  0.00  0.00     0.003 A 
ATOM      5  C3  PXY d   1       0.212  -1.865   0.357  0.00  0.00     0.003 A 
ATOM      6  C4  PXY d   1       0.310  -2.151  -0.978  0.00  0.00    -0.082 A 
ATOM      7  C5  PXY d   1       0.058  -1.184  -1.886  0.00  0.00     0.003 A 
ATOM      8  C6  PXY d   1      -0.299   0.086  -1.443  0.00  0.00     0.003 A 
ENDROOT
TORSDOF 0
ENDMDL
