MODEL 1
REMARK minimizedAffinity -6.04436779
REMARK minimizedRMSD -1
REMARK  0 active torsions:
REMARK  status: ('A' for Active; 'I' for Inactive)
ROOT
ATOM      1  C4' PXY d   1       0.533  -1.071   0.191  0.00  0.00     0.077 C 
ATOM      2  C1' PXY d   1      -1.822   4.196   0.538  0.00  0.00     0.077 C 
ATOM      3  C1  PXY d   1      -1.199   2.817   0.459  0.00  0.00    -0.082 A 
ATOM      4  C2  PXY d   1      -1.016   2.248  -0.722  0.00  0.00     0.003 A 
ATOM      5  C3  PXY d   1      -0.483   0.988  -0.810  0.00  0.00     0.003 A 
ATOM      6  C4  PXY d   1      -0.084   0.324   0.319  0.00  0.00    -0.082 A 
ATOM      7  C5  PXY d   1      -0.257   0.901   1.526  0.00  0.00     0.003 A 
ATOM      8  C6  PXY d   1      -0.838   2.164   1.597  0.00  0.00     0.003 A 
ENDROOT
TORSDOF 0
ENDMDL
