MODEL 1
REMARK minimizedAffinity -5.64247227
REMARK minimizedRMSD -1
REMARK  0 active torsions:
REMARK  status: ('A' for Active; 'I' for Inactive)
ROOT
ATOM      1  C4' PXY d   1       0.423  -0.905  -0.512  0.00  0.00     0.077 C 
ATOM      2  C1' PXY d   1      -1.792   4.050   1.478  0.00  0.00     0.077 C 
ATOM      3  C1  PXY d   1      -1.203   2.750   0.966  0.00  0.00    -0.082 A 
ATOM      4  C2  PXY d   1      -1.273   2.463  -0.324  0.00  0.00     0.003 A 
ATOM      5  C3  PXY d   1      -0.774   1.277  -0.799  0.00  0.00     0.003 A 
ATOM      6  C4  PXY d   1      -0.150   0.400   0.047  0.00  0.00    -0.082 A 
ATOM      7  C5  PXY d   1      -0.065   0.691   1.363  0.00  0.00     0.003 A 
ATOM      8  C6  PXY d   1      -0.614   1.880   1.831  0.00  0.00     0.003 A 
ENDROOT
TORSDOF 0
ENDMDL
