MODEL 1
REMARK minimizedAffinity -2.71058106
REMARK minimizedRMSD -1
REMARK  0 active torsions:
REMARK  status: ('A' for Active; 'I' for Inactive)
ROOT
ATOM      1  C4' PXY d   1       0.862  -3.110  -0.885  0.00  0.00     0.077 C 
ATOM      2  C1' PXY d   1      -0.257   2.076   1.408  0.00  0.00     0.077 C 
ATOM      3  C1  PXY d   1       0.028   0.719   0.797  0.00  0.00    -0.082 A 
ATOM      4  C2  PXY d   1       0.430  -0.276   1.571  0.00  0.00     0.003 A 
ATOM      5  C3  PXY d   1       0.723  -1.501   1.030  0.00  0.00     0.003 A 
ATOM      6  C4  PXY d   1       0.553  -1.726  -0.310  0.00  0.00    -0.082 A 
ATOM      7  C5  PXY d   1       0.134  -0.719  -1.105  0.00  0.00     0.003 A 
ATOM      8  C6  PXY d   1      -0.119   0.529  -0.543  0.00  0.00     0.003 A 
ENDROOT
TORSDOF 0
ENDMDL
