MODEL 1
REMARK minimizedAffinity -4.66714621
REMARK minimizedRMSD -1
REMARK  0 active torsions:
REMARK  status: ('A' for Active; 'I' for Inactive)
ROOT
ATOM      1  C4' PXY d   1       0.533  -1.850  -0.361  0.00  0.00     0.077 C 
ATOM      2  C1' PXY d   1      -1.318   3.457   0.992  0.00  0.00     0.077 C 
ATOM      3  C1  PXY d   1      -0.825   2.065   0.647  0.00  0.00    -0.082 A 
ATOM      4  C2  PXY d   1      -0.868   1.647  -0.607  0.00  0.00     0.003 A 
ATOM      5  C3  PXY d   1      -0.456   0.380  -0.931  0.00  0.00     0.003 A 
ATOM      6  C4  PXY d   1       0.055  -0.449   0.031  0.00  0.00    -0.082 A 
ATOM      7  C5  PXY d   1       0.113  -0.027   1.311  0.00  0.00     0.003 A 
ATOM      8  C6  PXY d   1      -0.349   1.248   1.626  0.00  0.00     0.003 A 
ENDROOT
TORSDOF 0
ENDMDL
