MODEL 1
REMARK minimizedAffinity -5.67706203
REMARK minimizedRMSD -1
REMARK  0 active torsions:
REMARK  status: ('A' for Active; 'I' for Inactive)
ROOT
ATOM      1  C4' PXY d   1       0.611  -0.554  -0.634  0.00  0.00     0.077 C 
ATOM      2  C1' PXY d   1      -1.584   4.645   0.616  0.00  0.00     0.077 C 
ATOM      3  C1  PXY d   1      -1.012   3.284   0.276  0.00  0.00    -0.082 A 
ATOM      4  C2  PXY d   1      -0.950   2.348   1.209  0.00  0.00     0.003 A 
ATOM      5  C3  PXY d   1      -0.406   1.121   0.927  0.00  0.00     0.003 A 
ATOM      6  C4  PXY d   1       0.031   0.832  -0.338  0.00  0.00    -0.082 A 
ATOM      7  C5  PXY d   1      -0.038   1.778  -1.298  0.00  0.00     0.003 A 
ATOM      8  C6  PXY d   1      -0.556   3.030  -0.981  0.00  0.00     0.003 A 
ENDROOT
TORSDOF 0
ENDMDL
