MODEL 1
REMARK minimizedAffinity -6.19286299
REMARK minimizedRMSD -1
REMARK  0 active torsions:
REMARK  status: ('A' for Active; 'I' for Inactive)
ROOT
ATOM      1  C4' PXY d   1      -1.519   3.789   1.459  0.00  0.00     0.077 C 
ATOM      2  C1' PXY d   1       0.758  -0.883  -1.072  0.00  0.00     0.077 C 
ATOM      3  C1  PXY d   1       0.164   0.350  -0.419  0.00  0.00    -0.082 A 
ATOM      4  C2  PXY d   1       0.031   0.392   0.897  0.00  0.00     0.003 A 
ATOM      5  C3  PXY d   1      -0.533   1.486   1.502  0.00  0.00     0.003 A 
ATOM      6  C4  PXY d   1      -0.916   2.569   0.757  0.00  0.00    -0.082 A 
ATOM      7  C5  PXY d   1      -0.774   2.537  -0.585  0.00  0.00     0.003 A 
ATOM      8  C6  PXY d   1      -0.237   1.401  -1.184  0.00  0.00     0.003 A 
ENDROOT
TORSDOF 0
ENDMDL
