MODEL 1
REMARK minimizedAffinity -2.79295588
REMARK minimizedRMSD -1
REMARK  0 active torsions:
REMARK  status: ('A' for Active; 'I' for Inactive)
ROOT
ATOM      1  C4' PXY d   1       0.579  -0.022   1.664  0.00  0.00     0.077 C 
ATOM      2  C1' PXY d   1       0.209   5.486  -0.049  0.00  0.00     0.077 C 
ATOM      3  C1  PXY d   1       0.299   4.038   0.390  0.00  0.00    -0.082 A 
ATOM      4  C2  PXY d   1       0.535   3.753   1.660  0.00  0.00     0.003 A 
ATOM      5  C3  PXY d   1       0.651   2.449   2.069  0.00  0.00     0.003 A 
ATOM      6  C4  PXY d   1       0.471   1.426   1.177  0.00  0.00    -0.082 A 
ATOM      7  C5  PXY d   1       0.220   1.708  -0.118  0.00  0.00     0.003 A 
ATOM      8  C6  PXY d   1       0.146   3.039  -0.520  0.00  0.00     0.003 A 
ENDROOT
TORSDOF 0
ENDMDL
