MODEL 1
REMARK minimizedAffinity 6.18311024
REMARK minimizedRMSD -1
REMARK  0 active torsions:
REMARK  status: ('A' for Active; 'I' for Inactive)
ROOT
ATOM      1  C4' PXY d   1      -0.213   0.035  -1.390  0.00  0.00     0.077 C 
ATOM      2  C1' PXY d   1      -5.878   0.960  -2.075  0.00  0.00     0.077 C 
ATOM      3  C1  PXY d   1      -4.393   0.706  -1.902  0.00  0.00    -0.082 A 
ATOM      4  C2  PXY d   1      -3.749   1.261  -0.889  0.00  0.00     0.003 A 
ATOM      5  C3  PXY d   1      -2.400   1.068  -0.736  0.00  0.00     0.003 A 
ATOM      6  C4  PXY d   1      -1.714   0.256  -1.599  0.00  0.00    -0.082 A 
ATOM      7  C5  PXY d   1      -2.367  -0.322  -2.629  0.00  0.00     0.003 A 
ATOM      8  C6  PXY d   1      -3.728  -0.081  -2.790  0.00  0.00     0.003 A 
ENDROOT
TORSDOF 0
ENDMDL
