MODEL 1
REMARK minimizedAffinity -2.77022839
REMARK minimizedRMSD -1
REMARK  0 active torsions:
REMARK  status: ('A' for Active; 'I' for Inactive)
ROOT
ATOM      1  C4' PXY d   1      -0.247  -0.493   2.963  0.00  0.00     0.077 C 
ATOM      2  C1' PXY d   1       0.108   4.263  -0.303  0.00  0.00     0.077 C 
ATOM      3  C1  PXY d   1       0.027   3.018   0.558  0.00  0.00    -0.082 A 
ATOM      4  C2  PXY d   1      -0.784   2.033   0.209  0.00  0.00     0.003 A 
ATOM      5  C3  PXY d   1      -0.894   0.914   0.993  0.00  0.00     0.003 A 
ATOM      6  C4  PXY d   1      -0.126   0.779   2.119  0.00  0.00    -0.082 A 
ATOM      7  C5  PXY d   1       0.712   1.775   2.476  0.00  0.00     0.003 A 
ATOM      8  C6  PXY d   1       0.778   2.921   1.688  0.00  0.00     0.003 A 
ENDROOT
TORSDOF 0
ENDMDL
