MODEL 1
REMARK minimizedAffinity 1.94282389
REMARK minimizedRMSD -1
REMARK  0 active torsions:
REMARK  status: ('A' for Active; 'I' for Inactive)
ROOT
ATOM      1  C4' PXY d   1      -0.121  -1.603  -1.870  0.00  0.00     0.077 C 
ATOM      2  C1' PXY d   1       0.599   2.099   2.511  0.00  0.00     0.077 C 
ATOM      3  C1  PXY d   1       0.402   1.137   1.356  0.00  0.00    -0.082 A 
ATOM      4  C2  PXY d   1       0.594  -0.159   1.545  0.00  0.00     0.003 A 
ATOM      5  C3  PXY d   1       0.451  -1.039   0.503  0.00  0.00     0.003 A 
ATOM      6  C4  PXY d   1       0.057  -0.596  -0.730  0.00  0.00    -0.082 A 
ATOM      7  C5  PXY d   1      -0.150   0.724  -0.928  0.00  0.00     0.003 A 
ATOM      8  C6  PXY d   1       0.040   1.606   0.131  0.00  0.00     0.003 A 
ENDROOT
TORSDOF 0
ENDMDL
