MODEL 1
REMARK minimizedAffinity 4.56333685
REMARK minimizedRMSD -1
REMARK  0 active torsions:
REMARK  status: ('A' for Active; 'I' for Inactive)
ROOT
ATOM      1  C4' PXY d   1      -0.848   0.922  -0.739  0.00  0.00     0.077 C 
ATOM      2  C1' PXY d   1       1.695   3.784   3.592  0.00  0.00     0.077 C 
ATOM      3  C1  PXY d   1       1.028   3.044   2.449  0.00  0.00    -0.082 A 
ATOM      4  C2  PXY d   1       0.346   1.937   2.696  0.00  0.00     0.003 A 
ATOM      5  C3  PXY d   1      -0.236   1.239   1.670  0.00  0.00     0.003 A 
ATOM      6  C4  PXY d   1      -0.166   1.707   0.385  0.00  0.00    -0.082 A 
ATOM      7  C5  PXY d   1       0.518   2.842   0.127  0.00  0.00     0.003 A 
ATOM      8  C6  PXY d   1       1.137   3.514   1.177  0.00  0.00     0.003 A 
ENDROOT
TORSDOF 0
ENDMDL
