MODEL 1
REMARK minimizedAffinity 5.63116693
REMARK minimizedRMSD -1
REMARK  0 active torsions:
REMARK  status: ('A' for Active; 'I' for Inactive)
ROOT
ATOM      1  C4' PXY d   1      -0.201   1.177  -1.449  0.00  0.00     0.077 C 
ATOM      2  C1' PXY d   1       1.634  -1.398   3.390  0.00  0.00     0.077 C 
ATOM      3  C1  PXY d   1       1.142  -0.719   2.127  0.00  0.00    -0.082 A 
ATOM      4  C2  PXY d   1       1.580  -1.132   0.949  0.00  0.00     0.003 A 
ATOM      5  C3  PXY d   1       1.170  -0.508  -0.201  0.00  0.00     0.003 A 
ATOM      6  C4  PXY d   1       0.261   0.515  -0.148  0.00  0.00    -0.082 A 
ATOM      7  C5  PXY d   1      -0.198   0.936   1.049  0.00  0.00     0.003 A 
ATOM      8  C6  PXY d   1       0.262   0.316   2.208  0.00  0.00     0.003 A 
ENDROOT
TORSDOF 0
ENDMDL
