MODEL 1
REMARK minimizedAffinity -3.88191628
REMARK minimizedRMSD -1
REMARK  0 active torsions:
REMARK  status: ('A' for Active; 'I' for Inactive)
ROOT
ATOM      1  C4' PXY d   1      -2.252   0.378   1.880  0.00  0.00     0.077 C 
ATOM      2  C1' PXY d   1       3.076  -0.469  -0.198  0.00  0.00     0.077 C 
ATOM      3  C1  PXY d   1       1.675  -0.243   0.335  0.00  0.00    -0.082 A 
ATOM      4  C2  PXY d   1       1.492  -0.043   1.630  0.00  0.00     0.003 A 
ATOM      5  C3  PXY d   1       0.229   0.131   2.134  0.00  0.00     0.003 A 
ATOM      6  C4  PXY d   1      -0.854   0.154   1.296  0.00  0.00    -0.082 A 
ATOM      7  C5  PXY d   1      -0.675  -0.038  -0.028  0.00  0.00     0.003 A 
ATOM      8  C6  PXY d   1       0.611  -0.254  -0.514  0.00  0.00     0.003 A 
ENDROOT
TORSDOF 0
ENDMDL
