MODEL 1
REMARK minimizedAffinity -3.27971625
REMARK minimizedRMSD -1
REMARK  0 active torsions:
REMARK  status: ('A' for Active; 'I' for Inactive)
ROOT
ATOM      1  C4' PXY d   1       3.143  -0.648  -0.023  0.00  0.00     0.077 C 
ATOM      2  C1' PXY d   1      -1.708   0.380   2.948  0.00  0.00     0.077 C 
ATOM      3  C1  PXY d   1      -0.443   0.106   2.159  0.00  0.00    -0.082 A 
ATOM      4  C2  PXY d   1       0.694  -0.109   2.800  0.00  0.00     0.003 A 
ATOM      5  C3  PXY d   1       1.854  -0.326   2.101  0.00  0.00     0.003 A 
ATOM      6  C4  PXY d   1       1.839  -0.377   0.733  0.00  0.00    -0.082 A 
ATOM      7  C5  PXY d   1       0.681  -0.170   0.072  0.00  0.00     0.003 A 
ATOM      8  C6  PXY d   1      -0.477   0.090   0.798  0.00  0.00     0.003 A 
ENDROOT
TORSDOF 0
ENDMDL
