MODEL 1
REMARK minimizedAffinity 5.1265626
REMARK minimizedRMSD -1
REMARK  0 active torsions:
REMARK  status: ('A' for Active; 'I' for Inactive)
ROOT
ATOM      1  C4' PXY d   1       1.508  -1.273   3.840  0.00  0.00     0.077 C 
ATOM      2  C1' PXY d   1      -2.980   0.450   0.630  0.00  0.00     0.077 C 
ATOM      3  C1  PXY d   1      -1.810   0.000   1.482  0.00  0.00    -0.082 A 
ATOM      4  C2  PXY d   1      -0.578   0.114   1.015  0.00  0.00     0.003 A 
ATOM      5  C3  PXY d   1       0.489  -0.318   1.760  0.00  0.00     0.003 A 
ATOM      6  C4  PXY d   1       0.297  -0.823   3.018  0.00  0.00    -0.082 A 
ATOM      7  C5  PXY d   1      -0.957  -0.933   3.506  0.00  0.00     0.003 A 
ATOM      8  C6  PXY d   1      -2.029  -0.527   2.718  0.00  0.00     0.003 A 
ENDROOT
TORSDOF 0
ENDMDL
