MODEL 1
REMARK minimizedAffinity 3.89529014
REMARK minimizedRMSD -1
REMARK  0 active torsions:
REMARK  status: ('A' for Active; 'I' for Inactive)
ROOT
ATOM      1  C4' PXY d   1       0.743  -0.825   4.610  0.00  0.00     0.077 C 
ATOM      2  C1' PXY d   1      -2.390   0.185  -0.142  0.00  0.00     0.077 C 
ATOM      3  C1  PXY d   1      -1.562  -0.089   1.098  0.00  0.00    -0.082 A 
ATOM      4  C2  PXY d   1      -2.047   0.219   2.290  0.00  0.00     0.003 A 
ATOM      5  C3  PXY d   1      -1.298   0.007   3.419  0.00  0.00     0.003 A 
ATOM      6  C4  PXY d   1      -0.062  -0.575   3.332  0.00  0.00    -0.082 A 
ATOM      7  C5  PXY d   1       0.435  -0.901   2.120  0.00  0.00     0.003 A 
ATOM      8  C6  PXY d   1      -0.323  -0.640   0.983  0.00  0.00     0.003 A 
ENDROOT
TORSDOF 0
ENDMDL
