MODEL 1
REMARK minimizedAffinity -1.83610308
REMARK minimizedRMSD -1
REMARK  0 active torsions:
REMARK  status: ('A' for Active; 'I' for Inactive)
ROOT
ATOM      1  C4' PXY d   1       0.675  -2.107  -2.246  0.00  0.00     0.077 C 
ATOM      2  C1' PXY d   1      -1.996   0.736   2.020  0.00  0.00     0.077 C 
ATOM      3  C1  PXY d   1      -1.284  -0.004   0.905  0.00  0.00    -0.082 A 
ATOM      4  C2  PXY d   1      -1.965  -0.390  -0.162  0.00  0.00     0.003 A 
ATOM      5  C3  PXY d   1      -1.344  -1.089  -1.165  0.00  0.00     0.003 A 
ATOM      6  C4  PXY d   1      -0.001  -1.349  -1.100  0.00  0.00    -0.082 A 
ATOM      7  C5  PXY d   1       0.702  -0.949  -0.019  0.00  0.00     0.003 A 
ATOM      8  C6  PXY d   1       0.045  -0.277   1.007  0.00  0.00     0.003 A 
ENDROOT
TORSDOF 0
ENDMDL
