MODEL 1
REMARK minimizedAffinity 1.07171416
REMARK minimizedRMSD -1
REMARK  0 active torsions:
REMARK  status: ('A' for Active; 'I' for Inactive)
ROOT
ATOM      1  C4' PXY d   1      -2.581   1.169  -0.393  0.00  0.00     0.077 C 
ATOM      2  C1' PXY d   1      -0.039  -1.266   4.191  0.00  0.00     0.077 C 
ATOM      3  C1  PXY d   1      -0.694  -0.626   2.983  0.00  0.00    -0.082 A 
ATOM      4  C2  PXY d   1      -1.871  -0.035   3.114  0.00  0.00     0.003 A 
ATOM      5  C3  PXY d   1      -2.492   0.520   2.025  0.00  0.00     0.003 A 
ATOM      6  C4  PXY d   1      -1.878   0.518   0.801  0.00  0.00    -0.082 A 
ATOM      7  C5  PXY d   1      -0.673  -0.073   0.662  0.00  0.00     0.003 A 
ATOM      8  C6  PXY d   1      -0.078  -0.668   1.771  0.00  0.00     0.003 A 
ENDROOT
TORSDOF 0
ENDMDL
