MODEL 1
REMARK minimizedAffinity 1.00858676
REMARK minimizedRMSD -1
REMARK  0 active torsions:
REMARK  status: ('A' for Active; 'I' for Inactive)
ROOT
ATOM      1  C4' PXY d   1       0.033  -0.150   0.003  0.00  0.00     0.077 C 
ATOM      2  C1' PXY d   1       4.278   1.435  -3.587  0.00  0.00     0.077 C 
ATOM      3  C1  PXY d   1       3.156   1.025  -2.653  0.00  0.00    -0.082 A 
ATOM      4  C2  PXY d   1       3.415   0.808  -1.374  0.00  0.00     0.003 A 
ATOM      5  C3  PXY d   1       2.419   0.405  -0.523  0.00  0.00     0.003 A 
ATOM      6  C4  PXY d   1       1.133   0.275  -0.974  0.00  0.00    -0.082 A 
ATOM      7  C5  PXY d   1       0.858   0.505  -2.275  0.00  0.00     0.003 A 
ATOM      8  C6  PXY d   1       1.891   0.873  -3.132  0.00  0.00     0.003 A 
ENDROOT
TORSDOF 0
ENDMDL
