MODEL 1
REMARK minimizedAffinity -1.28593051
REMARK minimizedRMSD -1
REMARK  0 active torsions:
REMARK  status: ('A' for Active; 'I' for Inactive)
ROOT
ATOM      1  C4' PXY d   1      -1.592   0.504  -0.460  0.00  0.00     0.077 C 
ATOM      2  C1' PXY d   1       0.375  -0.935   4.782  0.00  0.00     0.077 C 
ATOM      3  C1  PXY d   1      -0.153  -0.558   3.412  0.00  0.00    -0.082 A 
ATOM      4  C2  PXY d   1       0.554  -0.855   2.334  0.00  0.00     0.003 A 
ATOM      5  C3  PXY d   1       0.107  -0.492   1.089  0.00  0.00     0.003 A 
ATOM      6  C4  PXY d   1      -1.103   0.133   0.943  0.00  0.00    -0.082 A 
ATOM      7  C5  PXY d   1      -1.835   0.430   2.037  0.00  0.00     0.003 A 
ATOM      8  C6  PXY d   1      -1.344   0.090   3.295  0.00  0.00     0.003 A 
ENDROOT
TORSDOF 0
ENDMDL
