MODEL 1
REMARK minimizedAffinity -1.68287945
REMARK minimizedRMSD -1
REMARK  0 active torsions:
REMARK  status: ('A' for Active; 'I' for Inactive)
ROOT
ATOM      1  C4' PXY d   1      -4.187  -1.735   3.104  0.00  0.00     0.077 C 
ATOM      2  C1' PXY d   1       1.176  -1.626   5.259  0.00  0.00     0.077 C 
ATOM      3  C1  PXY d   1      -0.229  -1.643   4.688  0.00  0.00    -0.082 A 
ATOM      4  C2  PXY d   1      -1.173  -2.342   5.295  0.00  0.00     0.003 A 
ATOM      5  C3  PXY d   1      -2.441  -2.394   4.775  0.00  0.00     0.003 A 
ATOM      6  C4  PXY d   1      -2.758  -1.681   3.650  0.00  0.00    -0.082 A 
ATOM      7  C5  PXY d   1      -1.802  -0.957   3.030  0.00  0.00     0.003 A 
ATOM      8  C6  PXY d   1      -0.512  -0.950   3.551  0.00  0.00     0.003 A 
ENDROOT
TORSDOF 0
ENDMDL
