MODEL 1
REMARK minimizedAffinity 4.28943157
REMARK minimizedRMSD -1
REMARK  0 active torsions:
REMARK  status: ('A' for Active; 'I' for Inactive)
ROOT
ATOM      1  C4' PXY d   1       0.765   1.752   1.740  0.00  0.00     0.077 C 
ATOM      2  C1' PXY d   1      -3.674  -0.897  -0.848  0.00  0.00     0.077 C 
ATOM      3  C1  PXY d   1      -2.518  -0.192  -0.166  0.00  0.00    -0.082 A 
ATOM      4  C2  PXY d   1      -1.277  -0.457  -0.541  0.00  0.00     0.003 A 
ATOM      5  C3  PXY d   1      -0.218   0.147   0.086  0.00  0.00     0.003 A 
ATOM      6  C4  PXY d   1      -0.434   1.071   1.073  0.00  0.00    -0.082 A 
ATOM      7  C5  PXY d   1      -1.697   1.355   1.454  0.00  0.00     0.003 A 
ATOM      8  C6  PXY d   1      -2.757   0.701   0.833  0.00  0.00     0.003 A 
ENDROOT
TORSDOF 0
ENDMDL
