MODEL 1
REMARK minimizedAffinity -1.92226171
REMARK minimizedRMSD -1
REMARK  0 active torsions:
REMARK  status: ('A' for Active; 'I' for Inactive)
ROOT
ATOM      1  C4' PXY d   1       0.012   0.082   3.939  0.00  0.00     0.077 C 
ATOM      2  C1' PXY d   1      -1.261  -1.407  -1.499  0.00  0.00     0.077 C 
ATOM      3  C1  PXY d   1      -0.938  -1.009  -0.073  0.00  0.00    -0.082 A 
ATOM      4  C2  PXY d   1       0.311  -1.078   0.358  0.00  0.00     0.003 A 
ATOM      5  C3  PXY d   1       0.616  -0.752   1.655  0.00  0.00     0.003 A 
ATOM      6  C4  PXY d   1      -0.359  -0.301   2.504  0.00  0.00    -0.082 A 
ATOM      7  C5  PXY d   1      -1.634  -0.218   2.068  0.00  0.00     0.003 A 
ATOM      8  C6  PXY d   1      -1.930  -0.592   0.761  0.00  0.00     0.003 A 
ENDROOT
TORSDOF 0
ENDMDL
