MODEL 1
REMARK minimizedAffinity -2.15798879
REMARK minimizedRMSD -1
REMARK  0 active torsions:
REMARK  status: ('A' for Active; 'I' for Inactive)
ROOT
ATOM      1  C4' PXY d   1       0.122  -0.880   4.106  0.00  0.00     0.077 C 
ATOM      2  C1' PXY d   1      -2.635   0.811  -0.685  0.00  0.00     0.077 C 
ATOM      3  C1  PXY d   1      -1.904   0.360   0.565  0.00  0.00    -0.082 A 
ATOM      4  C2  PXY d   1      -2.505   0.444   1.740  0.00  0.00     0.003 A 
ATOM      5  C3  PXY d   1      -1.847   0.070   2.884  0.00  0.00     0.003 A 
ATOM      6  C4  PXY d   1      -0.581  -0.445   2.818  0.00  0.00    -0.082 A 
ATOM      7  C5  PXY d   1       0.036  -0.544   1.621  0.00  0.00     0.003 A 
ATOM      8  C6  PXY d   1      -0.634  -0.120   0.476  0.00  0.00     0.003 A 
ENDROOT
TORSDOF 0
ENDMDL
