MODEL 1
REMARK minimizedAffinity -2.50869846
REMARK minimizedRMSD -1
REMARK  0 active torsions:
REMARK  status: ('A' for Active; 'I' for Inactive)
ROOT
ATOM      1  C4' PXY d   1       4.529  -0.378  -0.390  0.00  0.00     0.077 C 
ATOM      2  C1' PXY d   1      -0.974  -0.180   1.369  0.00  0.00     0.077 C 
ATOM      3  C1  PXY d   1       0.469  -0.219   0.908  0.00  0.00    -0.082 A 
ATOM      4  C2  PXY d   1       0.916  -1.274   0.246  0.00  0.00     0.003 A 
ATOM      5  C3  PXY d   1       2.227  -1.339  -0.151  0.00  0.00     0.003 A 
ATOM      6  C4  PXY d   1       3.076  -0.291   0.087  0.00  0.00    -0.082 A 
ATOM      7  C5  PXY d   1       2.625   0.793   0.752  0.00  0.00     0.003 A 
ATOM      8  C6  PXY d   1       1.301   0.822   1.182  0.00  0.00     0.003 A 
ENDROOT
TORSDOF 0
ENDMDL
