MODEL 1
REMARK minimizedAffinity 1.86283553
REMARK minimizedRMSD -1
REMARK  1 active torsions:
REMARK  status: ('A' for Active; 'I' for Inactive)
REMARK    1  A    between atoms: C1_2  and  C2_3 
ROOT
ATOM      1  C2  UNL d   1      -2.218  -0.410   2.166  0.00  0.00    -0.073 A 
ATOM      2  C3  UNL d   1      -1.373  -1.266   1.450  0.00  0.00    -0.002 A 
ATOM      3  C4  UNL d   1      -1.782  -1.800   0.227  0.00  0.00     0.004 A 
ATOM      4  C5  UNL d   1      -3.035  -1.479  -0.295  0.00  0.00    -0.004 A 
ATOM      5  C6  UNL d   1      -3.889  -0.616   0.399  0.00  0.00    -0.075 A 
ATOM      6  C7  UNL d   1      -5.240  -0.263  -0.148  0.00  0.00     0.076 C 
ATOM      7  C8  UNL d   1      -3.472  -0.086   1.628  0.00  0.00     0.001 A 
ENDROOT
BRANCH   1   8
ATOM      8  C1  UNL d   1      -1.779   0.174   3.483  0.00  0.00     0.053 C 
ATOM      9  C   UNL d   1      -0.912   1.409   3.298  0.00  0.00     0.018 C 
ENDBRANCH   1   8
TORSDOF 1
ENDMDL
