MODEL 1
REMARK minimizedAffinity 8.35165119
REMARK minimizedRMSD -1
REMARK  1 active torsions:
REMARK  status: ('A' for Active; 'I' for Inactive)
REMARK    1  A    between atoms: C1_2  and  C2_3 
ROOT
ATOM      1  C2  UNL d   1       1.764   0.420   4.884  0.00  0.00    -0.073 A 
ATOM      2  C3  UNL d   1       2.348  -0.742   5.400  0.00  0.00    -0.002 A 
ATOM      3  C4  UNL d   1       1.553  -1.743   5.958  0.00  0.00     0.004 A 
ATOM      4  C5  UNL d   1       0.166  -1.596   6.000  0.00  0.00    -0.004 A 
ATOM      5  C6  UNL d   1      -0.437  -0.447   5.479  0.00  0.00    -0.075 A 
ATOM      6  C7  UNL d   1      -1.927  -0.273   5.518  0.00  0.00     0.076 C 
ATOM      7  C8  UNL d   1       0.369   0.555   4.922  0.00  0.00     0.001 A 
ENDROOT
BRANCH   1   8
ATOM      8  C1  UNL d   1       2.619   1.502   4.275  0.00  0.00     0.053 C 
ATOM      9  C   UNL d   1       1.781   2.602   3.643  0.00  0.00     0.018 C 
ENDBRANCH   1   8
TORSDOF 1
ENDMDL
