MODEL 1
REMARK minimizedAffinity 8.32223701
REMARK minimizedRMSD -1
REMARK  1 active torsions:
REMARK  status: ('A' for Active; 'I' for Inactive)
REMARK    1  A    between atoms: C1_2  and  C2_3 
ROOT
ATOM      1  C2  UNL d   1      -3.002  -1.127   2.383  0.00  0.00    -0.073 A 
ATOM      2  C3  UNL d   1      -2.631   0.130   1.892  0.00  0.00    -0.002 A 
ATOM      3  C4  UNL d   1      -3.342   0.715   0.844  0.00  0.00     0.004 A 
ATOM      4  C5  UNL d   1      -4.434   0.055   0.281  0.00  0.00    -0.004 A 
ATOM      5  C6  UNL d   1      -4.828  -1.196   0.766  0.00  0.00    -0.075 A 
ATOM      6  C7  UNL d   1      -6.000  -1.921   0.171  0.00  0.00     0.076 C 
ATOM      7  C8  UNL d   1      -4.107  -1.779   1.817  0.00  0.00     0.001 A 
ENDROOT
BRANCH   1   8
ATOM      8  C1  UNL d   1      -2.241  -1.761   3.519  0.00  0.00     0.053 C 
ATOM      9  C   UNL d   1      -1.850  -0.744   4.580  0.00  0.00     0.018 C 
ENDBRANCH   1   8
TORSDOF 1
ENDMDL
