MODEL 1
REMARK minimizedAffinity 2.29488969
REMARK minimizedRMSD -1
REMARK  1 active torsions:
REMARK  status: ('A' for Active; 'I' for Inactive)
REMARK    1  A    between atoms: C1_2  and  C2_3 
ROOT
ATOM      1  C2  UNL d   1      -2.404  -2.782   0.561  0.00  0.00    -0.073 A 
ATOM      2  C3  UNL d   1      -1.916  -2.151  -0.589  0.00  0.00    -0.002 A 
ATOM      3  C4  UNL d   1      -2.454  -0.934  -1.007  0.00  0.00     0.004 A 
ATOM      4  C5  UNL d   1      -3.479  -0.332  -0.279  0.00  0.00    -0.004 A 
ATOM      5  C6  UNL d   1      -3.973  -0.941   0.880  0.00  0.00    -0.075 A 
ATOM      6  C7  UNL d   1      -5.078  -0.307   1.673  0.00  0.00     0.076 C 
ATOM      7  C8  UNL d   1      -3.429  -2.165   1.292  0.00  0.00     0.001 A 
ENDROOT
BRANCH   1   8
ATOM      8  C1  UNL d   1      -1.822  -4.094   1.021  0.00  0.00     0.053 C 
ATOM      9  C   UNL d   1      -1.195  -4.872  -0.125  0.00  0.00     0.018 C 
ENDBRANCH   1   8
TORSDOF 1
ENDMDL
