MODEL 1
REMARK minimizedAffinity 5.58108187
REMARK minimizedRMSD -1
REMARK  1 active torsions:
REMARK  status: ('A' for Active; 'I' for Inactive)
REMARK    1  A    between atoms: C1_2  and  C2_3 
ROOT
ATOM      1  C2  UNL d   1      -1.141  -5.986   2.623  0.00  0.00    -0.073 A 
ATOM      2  C3  UNL d   1       0.201  -5.996   3.020  0.00  0.00    -0.002 A 
ATOM      3  C4  UNL d   1       0.535  -5.999   4.375  0.00  0.00     0.004 A 
ATOM      4  C5  UNL d   1      -0.466  -5.999   5.345  0.00  0.00    -0.004 A 
ATOM      5  C6  UNL d   1      -1.813  -6.000   4.968  0.00  0.00    -0.075 A 
ATOM      6  C7  UNL d   1      -2.903  -5.997   6.000  0.00  0.00     0.076 C 
ATOM      7  C8  UNL d   1      -2.141  -5.994   3.606  0.00  0.00     0.001 A 
ENDROOT
BRANCH   1   8
ATOM      8  C1  UNL d   1      -1.507  -5.989   1.161  0.00  0.00     0.053 C 
ATOM      9  C   UNL d   1      -0.278  -5.987   0.266  0.00  0.00     0.018 C 
ENDBRANCH   1   8
TORSDOF 1
ENDMDL
