MODEL 1
REMARK minimizedAffinity 9.18486691
REMARK minimizedRMSD -1
REMARK  1 active torsions:
REMARK  status: ('A' for Active; 'I' for Inactive)
REMARK    1  A    between atoms: C1_2  and  C2_3 
ROOT
ATOM      1  C2  UNL d   1       1.961  -1.568  -0.748  0.00  0.00    -0.073 A 
ATOM      2  C3  UNL d   1       0.668  -1.222  -0.339  0.00  0.00    -0.002 A 
ATOM      3  C4  UNL d   1       0.403   0.057   0.153  0.00  0.00     0.004 A 
ATOM      4  C5  UNL d   1       1.424   1.003   0.235  0.00  0.00    -0.004 A 
ATOM      5  C6  UNL d   1       2.720   0.680  -0.179  0.00  0.00    -0.075 A 
ATOM      6  C7  UNL d   1       3.830   1.686  -0.095  0.00  0.00     0.076 C 
ATOM      7  C8  UNL d   1       2.979  -0.607  -0.670  0.00  0.00     0.001 A 
ENDROOT
BRANCH   1   8
ATOM      8  C1  UNL d   1       2.251  -2.945  -1.286  0.00  0.00     0.053 C 
ATOM      9  C   UNL d   1       3.135  -2.900  -2.522  0.00  0.00     0.018 C 
ENDBRANCH   1   8
TORSDOF 1
ENDMDL
