MODEL 1
REMARK minimizedAffinity 7.21584749
REMARK minimizedRMSD -1
REMARK  0 active torsions:
REMARK  status: ('A' for Active; 'I' for Inactive)
ROOT
ATOM      1  C1  BNZ d   1       5.284   1.850  -2.402  0.00  0.00     0.000 A 
ATOM      2  C2  BNZ d   1       4.203   1.011  -2.381  0.00  0.00     0.000 A 
ATOM      3  C3  BNZ d   1       3.617   0.653  -1.199  0.00  0.00     0.000 A 
ATOM      4  C4  BNZ d   1       4.138   1.102  -0.039  0.00  0.00     0.000 A 
ATOM      5  C5  BNZ d   1       5.234   1.942  -0.043  0.00  0.00     0.000 A 
ATOM      6  C6  BNZ d   1       5.797   2.331  -1.236  0.00  0.00     0.000 A 
ENDROOT
TORSDOF 0
ENDMDL
