MODEL 1
REMARK minimizedAffinity 4.51607084
REMARK minimizedRMSD -1
REMARK  0 active torsions:
REMARK  status: ('A' for Active; 'I' for Inactive)
ROOT
ATOM      1  C1  BNZ d   1      -1.779   3.720   0.880  0.00  0.00     0.000 A 
ATOM      2  C2  BNZ d   1      -2.139   3.829   2.197  0.00  0.00     0.000 A 
ATOM      3  C3  BNZ d   1      -1.233   3.590   3.192  0.00  0.00     0.000 A 
ATOM      4  C4  BNZ d   1       0.019   3.204   2.871  0.00  0.00     0.000 A 
ATOM      5  C5  BNZ d   1       0.395   3.081   1.548  0.00  0.00     0.000 A 
ATOM      6  C6  BNZ d   1      -0.509   3.360   0.548  0.00  0.00     0.000 A 
ENDROOT
TORSDOF 0
ENDMDL
