MODEL 1
REMARK minimizedAffinity 3.41229963
REMARK minimizedRMSD -1
REMARK  0 active torsions:
REMARK  status: ('A' for Active; 'I' for Inactive)
ROOT
ATOM      1  C1  BNZ d   1       4.361   0.419  -2.351  0.00  0.00     0.000 A 
ATOM      2  C2  BNZ d   1       3.238  -0.234  -1.917  0.00  0.00     0.000 A 
ATOM      3  C3  BNZ d   1       2.606   0.150  -0.767  0.00  0.00     0.000 A 
ATOM      4  C4  BNZ d   1       3.121   1.157  -0.032  0.00  0.00     0.000 A 
ATOM      5  C5  BNZ d   1       4.258   1.819  -0.452  0.00  0.00     0.000 A 
ATOM      6  C6  BNZ d   1       4.869   1.455  -1.630  0.00  0.00     0.000 A 
ENDROOT
TORSDOF 0
ENDMDL
