MODEL 1
REMARK minimizedAffinity 7.55664587
REMARK minimizedRMSD -1
REMARK  0 active torsions:
REMARK  status: ('A' for Active; 'I' for Inactive)
ROOT
ATOM      1  C1  BNZ d   1       2.729   3.187   4.573  0.00  0.00     0.000 A 
ATOM      2  C2  BNZ d   1       2.150   2.825   5.760  0.00  0.00     0.000 A 
ATOM      3  C3  BNZ d   1       0.872   2.342   5.796  0.00  0.00     0.000 A 
ATOM      4  C4  BNZ d   1       0.162   2.258   4.653  0.00  0.00     0.000 A 
ATOM      5  C5  BNZ d   1       0.729   2.627   3.449  0.00  0.00     0.000 A 
ATOM      6  C6  BNZ d   1       2.029   3.077   3.411  0.00  0.00     0.000 A 
ENDROOT
TORSDOF 0
ENDMDL
