MODEL 1
REMARK minimizedAffinity 3.69426608
REMARK minimizedRMSD -1
REMARK  0 active torsions:
REMARK  status: ('A' for Active; 'I' for Inactive)
ROOT
ATOM      1  C1  BNZ d   1       3.998   0.488  -2.748  0.00  0.00     0.000 A 
ATOM      2  C2  BNZ d   1       3.069  -0.368  -2.218  0.00  0.00     0.000 A 
ATOM      3  C3  BNZ d   1       2.809  -0.374  -0.876  0.00  0.00     0.000 A 
ATOM      4  C4  BNZ d   1       3.504   0.446  -0.062  0.00  0.00     0.000 A 
ATOM      5  C5  BNZ d   1       4.450   1.308  -0.580  0.00  0.00     0.000 A 
ATOM      6  C6  BNZ d   1       4.682   1.339  -1.936  0.00  0.00     0.000 A 
ENDROOT
TORSDOF 0
ENDMDL
