MODEL 1
REMARK minimizedAffinity 3.27930593
REMARK minimizedRMSD -1
REMARK  0 active torsions:
REMARK  status: ('A' for Active; 'I' for Inactive)
ROOT
ATOM      1  C1  BNZ d   1       3.117   3.384   3.675  0.00  0.00     0.000 A 
ATOM      2  C2  BNZ d   1       4.421   3.802   3.684  0.00  0.00     0.000 A 
ATOM      3  C3  BNZ d   1       5.025   4.187   4.848  0.00  0.00     0.000 A 
ATOM      4  C4  BNZ d   1       4.314   4.192   5.994  0.00  0.00     0.000 A 
ATOM      5  C5  BNZ d   1       2.996   3.782   6.000  0.00  0.00     0.000 A 
ATOM      6  C6  BNZ d   1       2.402   3.358   4.833  0.00  0.00     0.000 A 
ENDROOT
TORSDOF 0
ENDMDL
