MODEL 1
REMARK minimizedAffinity -2.10848546
REMARK minimizedRMSD -1
REMARK  0 active torsions:
REMARK  status: ('A' for Active; 'I' for Inactive)
ROOT
ATOM      1  C1  BNZ d   1       3.610   4.140   3.504  0.00  0.00     0.000 A 
ATOM      2  C2  BNZ d   1       4.750   4.155   4.262  0.00  0.00     0.000 A 
ATOM      3  C3  BNZ d   1       4.913   5.073   5.262  0.00  0.00     0.000 A 
ATOM      4  C4  BNZ d   1       3.955   5.997   5.476  0.00  0.00     0.000 A 
ATOM      5  C5  BNZ d   1       2.804   6.000   4.715  0.00  0.00     0.000 A 
ATOM      6  C6  BNZ d   1       2.626   5.051   3.734  0.00  0.00     0.000 A 
ENDROOT
TORSDOF 0
ENDMDL
