MODEL 1
REMARK minimizedAffinity 3.33777714
REMARK minimizedRMSD -1
REMARK  0 active torsions:
REMARK  status: ('A' for Active; 'I' for Inactive)
ROOT
ATOM      1  C1  BNZ d   1       5.715   1.855  -2.255  0.00  0.00     0.000 A 
ATOM      2  C2  BNZ d   1       4.648   1.039  -2.518  0.00  0.00     0.000 A 
ATOM      3  C3  BNZ d   1       3.843   0.591  -1.509  0.00  0.00     0.000 A 
ATOM      4  C4  BNZ d   1       4.129   0.927  -0.234  0.00  0.00     0.000 A 
ATOM      5  C5  BNZ d   1       5.207   1.742   0.049  0.00  0.00     0.000 A 
ATOM      6  C6  BNZ d   1       5.992   2.222  -0.974  0.00  0.00     0.000 A 
ENDROOT
TORSDOF 0
ENDMDL
