MODEL 1
REMARK minimizedAffinity 2.49591994
REMARK minimizedRMSD -1
REMARK  0 active torsions:
REMARK  status: ('A' for Active; 'I' for Inactive)
ROOT
ATOM      1  C1  BNZ d   1      -1.071   3.204   0.127  0.00  0.00     0.000 A 
ATOM      2  C2  BNZ d   1       0.026   2.523  -0.329  0.00  0.00     0.000 A 
ATOM      3  C3  BNZ d   1      -0.115   1.351  -1.018  0.00  0.00     0.000 A 
ATOM      4  C4  BNZ d   1      -1.348   0.842  -1.215  0.00  0.00     0.000 A 
ATOM      5  C5  BNZ d   1      -2.463   1.512  -0.754  0.00  0.00     0.000 A 
ATOM      6  C6  BNZ d   1      -2.320   2.712  -0.094  0.00  0.00     0.000 A 
ENDROOT
TORSDOF 0
ENDMDL
