MODEL 1
REMARK minimizedAffinity 2.08374286
REMARK minimizedRMSD -1
REMARK  0 active torsions:
REMARK  status: ('A' for Active; 'I' for Inactive)
ROOT
ATOM      1  C1  BNZ d   1      -2.246   1.184  -1.155  0.00  0.00     0.000 A 
ATOM      2  C2  BNZ d   1      -1.473   0.150  -1.613  0.00  0.00     0.000 A 
ATOM      3  C3  BNZ d   1      -0.110   0.206  -1.533  0.00  0.00     0.000 A 
ATOM      4  C4  BNZ d   1       0.480   1.312  -1.034  0.00  0.00     0.000 A 
ATOM      5  C5  BNZ d   1      -0.285   2.367  -0.578  0.00  0.00     0.000 A 
ATOM      6  C6  BNZ d   1      -1.658   2.290  -0.623  0.00  0.00     0.000 A 
ENDROOT
TORSDOF 0
ENDMDL
