MODEL 1
REMARK minimizedAffinity 4.33710766
REMARK minimizedRMSD -1
REMARK  0 active torsions:
REMARK  status: ('A' for Active; 'I' for Inactive)
ROOT
ATOM      1  C1  BNZ d   1      -3.608  -1.381   3.464  0.00  0.00     0.000 A 
ATOM      2  C2  BNZ d   1      -3.419  -0.458   2.471  0.00  0.00     0.000 A 
ATOM      3  C3  BNZ d   1      -2.217   0.176   2.324  0.00  0.00     0.000 A 
ATOM      4  C4  BNZ d   1      -1.220  -0.084   3.194  0.00  0.00     0.000 A 
ATOM      5  C5  BNZ d   1      -1.398  -1.006   4.206  0.00  0.00     0.000 A 
ATOM      6  C6  BNZ d   1      -2.597  -1.671   4.327  0.00  0.00     0.000 A 
ENDROOT
TORSDOF 0
ENDMDL
