MODEL 1
REMARK minimizedAffinity -1.40464199
REMARK minimizedRMSD -1
REMARK  0 active torsions:
REMARK  status: ('A' for Active; 'I' for Inactive)
ROOT
ATOM      1  C1  BNZ d   1      -0.073  -0.548   3.167  0.00  0.00     0.000 A 
ATOM      2  C2  BNZ d   1      -1.352  -0.151   2.882  0.00  0.00     0.000 A 
ATOM      3  C3  BNZ d   1      -2.417  -0.682   3.554  0.00  0.00     0.000 A 
ATOM      4  C4  BNZ d   1      -2.206  -1.639   4.481  0.00  0.00     0.000 A 
ATOM      5  C5  BNZ d   1      -0.923  -2.057   4.774  0.00  0.00     0.000 A 
ATOM      6  C6  BNZ d   1       0.150  -1.491   4.123  0.00  0.00     0.000 A 
ENDROOT
TORSDOF 0
ENDMDL
