MODEL 1
REMARK minimizedAffinity -3.57672858
REMARK minimizedRMSD -1
REMARK  0 active torsions:
REMARK  status: ('A' for Active; 'I' for Inactive)
ROOT
ATOM      1  C1  BNZ d   1       0.658  -0.708   3.061  0.00  0.00     0.000 A 
ATOM      2  C2  BNZ d   1      -0.409  -0.096   2.460  0.00  0.00     0.000 A 
ATOM      3  C3  BNZ d   1      -1.690  -0.401   2.829  0.00  0.00     0.000 A 
ATOM      4  C4  BNZ d   1      -1.902  -1.344   3.769  0.00  0.00     0.000 A 
ATOM      5  C5  BNZ d   1      -0.836  -1.977   4.378  0.00  0.00     0.000 A 
ATOM      6  C6  BNZ d   1       0.452  -1.639   4.031  0.00  0.00     0.000 A 
ENDROOT
TORSDOF 0
ENDMDL
