MODEL 1
REMARK minimizedAffinity 3.85608959
REMARK minimizedRMSD -1
REMARK  0 active torsions:
REMARK  status: ('A' for Active; 'I' for Inactive)
ROOT
ATOM      1  C1  BNZ d   1      -1.880   1.314   1.928  0.00  0.00     0.000 A 
ATOM      2  C2  BNZ d   1      -1.806   1.720   0.622  0.00  0.00     0.000 A 
ATOM      3  C3  BNZ d   1      -2.158   0.876  -0.394  0.00  0.00     0.000 A 
ATOM      4  C4  BNZ d   1      -2.545  -0.384  -0.105  0.00  0.00     0.000 A 
ATOM      5  C5  BNZ d   1      -2.616  -0.811   1.206  0.00  0.00     0.000 A 
ATOM      6  C6  BNZ d   1      -2.297   0.054   2.228  0.00  0.00     0.000 A 
ENDROOT
TORSDOF 0
ENDMDL
