MODEL 1
REMARK minimizedAffinity 4.00334406
REMARK minimizedRMSD -1
REMARK  0 active torsions:
REMARK  status: ('A' for Active; 'I' for Inactive)
ROOT
ATOM      1  C1  BNZ d   1      -2.642   0.416   0.274  0.00  0.00     0.000 A 
ATOM      2  C2  BNZ d   1      -2.063  -0.266  -0.763  0.00  0.00     0.000 A 
ATOM      3  C3  BNZ d   1      -0.731  -0.570  -0.744  0.00  0.00     0.000 A 
ATOM      4  C4  BNZ d   1       0.029  -0.156   0.291  0.00  0.00     0.000 A 
ATOM      5  C5  BNZ d   1      -0.538   0.541   1.339  0.00  0.00     0.000 A 
ATOM      6  C6  BNZ d   1      -1.887   0.810   1.335  0.00  0.00     0.000 A 
ENDROOT
TORSDOF 0
ENDMDL
