MODEL 1
REMARK minimizedAffinity 3.05538106
REMARK minimizedRMSD -1
REMARK  0 active torsions:
REMARK  status: ('A' for Active; 'I' for Inactive)
ROOT
ATOM      1  C1  BNZ d   1       1.955  -0.336   1.137  0.00  0.00     0.000 A 
ATOM      2  C2  BNZ d   1       2.365   0.798   1.785  0.00  0.00     0.000 A 
ATOM      3  C3  BNZ d   1       3.066   1.768   1.124  0.00  0.00     0.000 A 
ATOM      4  C4  BNZ d   1       3.390   1.584  -0.172  0.00  0.00     0.000 A 
ATOM      5  C5  BNZ d   1       2.992   0.441  -0.837  0.00  0.00     0.000 A 
ATOM      6  C6  BNZ d   1       2.254  -0.515  -0.178  0.00  0.00     0.000 A 
ENDROOT
TORSDOF 0
ENDMDL
