MODEL 1
REMARK minimizedAffinity -1.07712185
REMARK minimizedRMSD -1
REMARK  0 active torsions:
REMARK  status: ('A' for Active; 'I' for Inactive)
ROOT
ATOM      1  C1  BNZ d   1      -0.060  -1.791   4.584  0.00  0.00     0.000 A 
ATOM      2  C2  BNZ d   1      -0.138  -0.694   3.768  0.00  0.00     0.000 A 
ATOM      3  C3  BNZ d   1      -1.348  -0.224   3.340  0.00  0.00     0.000 A 
ATOM      4  C4  BNZ d   1      -2.475  -0.874   3.696  0.00  0.00     0.000 A 
ATOM      5  C5  BNZ d   1      -2.412  -1.987   4.511  0.00  0.00     0.000 A 
ATOM      6  C6  BNZ d   1      -1.195  -2.434   4.971  0.00  0.00     0.000 A 
ENDROOT
TORSDOF 0
ENDMDL
