MODEL 1
REMARK minimizedAffinity -0.476488471
REMARK minimizedRMSD -1
REMARK  0 active torsions:
REMARK  status: ('A' for Active; 'I' for Inactive)
ROOT
ATOM      1  C1  BNZ d   1       0.912  -0.277   0.331  0.00  0.00     0.000 A 
ATOM      2  C2  BNZ d   1      -0.137   0.150  -0.438  0.00  0.00     0.000 A 
ATOM      3  C3  BNZ d   1      -1.386   0.294   0.098  0.00  0.00     0.000 A 
ATOM      4  C4  BNZ d   1      -1.593  -0.027   1.392  0.00  0.00     0.000 A 
ATOM      5  C5  BNZ d   1      -0.547  -0.469   2.178  0.00  0.00     0.000 A 
ATOM      6  C6  BNZ d   1       0.716  -0.575   1.645  0.00  0.00     0.000 A 
ENDROOT
TORSDOF 0
ENDMDL
