MODEL 1
REMARK minimizedAffinity -0.630554676
REMARK minimizedRMSD -1
REMARK  0 active torsions:
REMARK  status: ('A' for Active; 'I' for Inactive)
ROOT
ATOM      1  C1  BNZ d   1      -0.298  -0.994   4.141  0.00  0.00     0.000 A 
ATOM      2  C2  BNZ d   1      -0.611  -0.369   2.964  0.00  0.00     0.000 A 
ATOM      3  C3  BNZ d   1      -1.914  -0.192   2.590  0.00  0.00     0.000 A 
ATOM      4  C4  BNZ d   1      -2.899  -0.676   3.373  0.00  0.00     0.000 A 
ATOM      5  C5  BNZ d   1      -2.599  -1.317   4.559  0.00  0.00     0.000 A 
ATOM      6  C6  BNZ d   1      -1.288  -1.458   4.951  0.00  0.00     0.000 A 
ENDROOT
TORSDOF 0
ENDMDL
