MODEL 1
REMARK minimizedAffinity 3.51774621
REMARK minimizedRMSD -1
REMARK  0 active torsions:
REMARK  status: ('A' for Active; 'I' for Inactive)
ROOT
ATOM      1  C1  BNZ d   1      -0.338   0.322  -3.909  0.00  0.00     0.000 A 
ATOM      2  C2  BNZ d   1      -0.827  -0.649  -4.743  0.00  0.00     0.000 A 
ATOM      3  C3  BNZ d   1      -0.033  -1.209  -5.705  0.00  0.00     0.000 A 
ATOM      4  C4  BNZ d   1       1.233  -0.772  -5.857  0.00  0.00     0.000 A 
ATOM      5  C5  BNZ d   1       1.737   0.212  -5.031  0.00  0.00     0.000 A 
ATOM      6  C6  BNZ d   1       0.948   0.747  -4.038  0.00  0.00     0.000 A 
ENDROOT
TORSDOF 0
ENDMDL
