MODEL 1
REMARK minimizedAffinity -1.48537946
REMARK minimizedRMSD -1
REMARK  0 active torsions:
REMARK  status: ('A' for Active; 'I' for Inactive)
ROOT
ATOM      1  C1  BNZ d   1      -2.934  -1.984   5.166  0.00  0.00     0.000 A 
ATOM      2  C2  BNZ d   1      -3.309  -1.381   3.995  0.00  0.00     0.000 A 
ATOM      3  C3  BNZ d   1      -2.426  -0.612   3.290  0.00  0.00     0.000 A 
ATOM      4  C4  BNZ d   1      -1.184  -0.414   3.776  0.00  0.00     0.000 A 
ATOM      5  C5  BNZ d   1      -0.794  -1.008   4.960  0.00  0.00     0.000 A 
ATOM      6  C6  BNZ d   1      -1.673  -1.813   5.647  0.00  0.00     0.000 A 
ENDROOT
TORSDOF 0
ENDMDL
