MODEL 1
REMARK minimizedAffinity -3.98641562
REMARK minimizedRMSD -1
REMARK  0 active torsions:
REMARK  status: ('A' for Active; 'I' for Inactive)
ROOT
ATOM      1  C   UNL d   1      -1.206  -0.494   0.750  0.00  0.00     0.172 C 
ATOM      2  N   UNL d   1       0.139  -0.742   1.212  0.00  0.00    -0.070 N 
ATOM      3  C1  UNL d   1       0.536  -0.793   2.522  0.00  0.00    -0.004 A 
ATOM      4  C2  UNL d   1       1.890  -1.052   2.542  0.00  0.00    -0.047 A 
ATOM      5  C3  UNL d   1       2.321  -1.159   1.198  0.00  0.00    -0.047 A 
ATOM      6  C4  UNL d   1       1.217  -0.963   0.396  0.00  0.00    -0.004 A 
ENDROOT
TORSDOF 0
ENDMDL
