MODEL 1
REMARK minimizedAffinity -2.13052869
REMARK minimizedRMSD -1
REMARK  0 active torsions:
REMARK  status: ('A' for Active; 'I' for Inactive)
ROOT
ATOM      1  C   UNL d   1      -1.469   3.347  -2.677  0.00  0.00     0.172 C 
ATOM      2  N   UNL d   1      -2.637   2.882  -3.387  0.00  0.00    -0.070 N 
ATOM      3  C1  UNL d   1      -2.685   1.795  -4.219  0.00  0.00    -0.004 A 
ATOM      4  C2  UNL d   1      -3.973   1.687  -4.698  0.00  0.00    -0.047 A 
ATOM      5  C3  UNL d   1      -4.725   2.745  -4.135  0.00  0.00    -0.047 A 
ATOM      6  C4  UNL d   1      -3.873   3.470  -3.328  0.00  0.00    -0.004 A 
ENDROOT
TORSDOF 0
ENDMDL
