MODEL 1
REMARK minimizedAffinity -3.94320822
REMARK minimizedRMSD -1
REMARK  0 active torsions:
REMARK  status: ('A' for Active; 'I' for Inactive)
ROOT
ATOM      1  C   UNL d   1       0.080   0.046  -0.385  0.00  0.00     0.172 C 
ATOM      2  N   UNL d   1       0.916  -0.584   0.609  0.00  0.00    -0.070 N 
ATOM      3  C1  UNL d   1       2.008  -1.369   0.352  0.00  0.00    -0.004 A 
ATOM      4  C2  UNL d   1       2.530  -1.776   1.561  0.00  0.00    -0.047 A 
ATOM      5  C3  UNL d   1       1.723  -1.216   2.580  0.00  0.00    -0.047 A 
ATOM      6  C4  UNL d   1       0.731  -0.483   1.963  0.00  0.00    -0.004 A 
ENDROOT
TORSDOF 0
ENDMDL
