MODEL 1
REMARK minimizedAffinity -3.62317467
REMARK minimizedRMSD -1
REMARK  0 active torsions:
REMARK  status: ('A' for Active; 'I' for Inactive)
ROOT
ATOM      1  C   UNL d   1       0.029   0.354  -0.739  0.00  0.00     0.172 C 
ATOM      2  N   UNL d   1       0.339  -0.009   0.624  0.00  0.00    -0.070 N 
ATOM      3  C1  UNL d   1       1.594  -0.066   1.169  0.00  0.00    -0.004 A 
ATOM      4  C2  UNL d   1       1.464  -0.450   2.487  0.00  0.00    -0.047 A 
ATOM      5  C3  UNL d   1       0.084  -0.630   2.741  0.00  0.00    -0.047 A 
ATOM      6  C4  UNL d   1      -0.590  -0.351   1.571  0.00  0.00    -0.004 A 
ENDROOT
TORSDOF 0
ENDMDL
