MODEL 1
REMARK minimizedAffinity -3.52629328
REMARK minimizedRMSD -1
REMARK  0 active torsions:
REMARK  status: ('A' for Active; 'I' for Inactive)
ROOT
ATOM      1  C   UNL d   1      -0.591   0.068  -0.155  0.00  0.00     0.172 C 
ATOM      2  N   UNL d   1       0.522  -0.663   0.402  0.00  0.00    -0.070 N 
ATOM      3  C1  UNL d   1       0.673  -1.006   1.720  0.00  0.00    -0.004 A 
ATOM      4  C2  UNL d   1       1.860  -1.694   1.844  0.00  0.00    -0.047 A 
ATOM      5  C3  UNL d   1       2.444  -1.767   0.557  0.00  0.00    -0.047 A 
ATOM      6  C4  UNL d   1       1.595  -1.120  -0.316  0.00  0.00    -0.004 A 
ENDROOT
TORSDOF 0
ENDMDL
