MODEL 1
REMARK minimizedAffinity -2.44264603
REMARK minimizedRMSD -1
REMARK  0 active torsions:
REMARK  status: ('A' for Active; 'I' for Inactive)
ROOT
ATOM      1  C   UNL d   1      -0.026  -0.296  -1.965  0.00  0.00     0.172 C 
ATOM      2  N   UNL d   1      -0.406   1.072  -2.227  0.00  0.00    -0.070 N 
ATOM      3  C1  UNL d   1       0.374   2.012  -2.847  0.00  0.00    -0.004 A 
ATOM      4  C2  UNL d   1      -0.346   3.186  -2.905  0.00  0.00    -0.047 A 
ATOM      5  C3  UNL d   1      -1.601   2.944  -2.297  0.00  0.00    -0.047 A 
ATOM      6  C4  UNL d   1      -1.611   1.627  -1.886  0.00  0.00    -0.004 A 
ENDROOT
TORSDOF 0
ENDMDL
