MODEL 1
REMARK minimizedAffinity -2.40472698
REMARK minimizedRMSD -1
REMARK  0 active torsions:
REMARK  status: ('A' for Active; 'I' for Inactive)
ROOT
ATOM      1  C   UNL d   1      -0.613   0.041  -1.248  0.00  0.00     0.172 C 
ATOM      2  N   UNL d   1      -0.890   1.275  -1.944  0.00  0.00    -0.070 N 
ATOM      3  C1  UNL d   1       0.021   2.263  -2.210  0.00  0.00    -0.004 A 
ATOM      4  C2  UNL d   1      -0.634   3.269  -2.888  0.00  0.00    -0.047 A 
ATOM      5  C3  UNL d   1      -1.984   2.872  -3.034  0.00  0.00    -0.047 A 
ATOM      6  C4  UNL d   1      -2.115   1.634  -2.440  0.00  0.00    -0.004 A 
ENDROOT
TORSDOF 0
ENDMDL
