MODEL 1
REMARK minimizedAffinity 2.46371627
REMARK minimizedRMSD -1
REMARK  0 active torsions:
REMARK  status: ('A' for Active; 'I' for Inactive)
ROOT
ATOM      1  C2' OXE d   1       1.019   5.022  -4.987  0.00  0.00     0.078 C 
ATOM      2  C1' OXE d   1       0.317   2.337  -5.409  0.00  0.00     0.078 C 
ATOM      3  C1  OXE d   1       0.325   2.847  -3.990  0.00  0.00    -0.078 A 
ATOM      4  C2  OXE d   1       0.715   4.149  -3.788  0.00  0.00    -0.078 A 
ATOM      5  C3  OXE d   1       0.687   4.687  -2.505  0.00  0.00     0.003 A 
ATOM      6  C4  OXE d   1       0.414   3.870  -1.400  0.00  0.00    -0.002 A 
ATOM      7  C5  OXE d   1       0.053   2.531  -1.580  0.00  0.00    -0.002 A 
ATOM      8  C6  OXE d   1      -0.038   2.016  -2.868  0.00  0.00     0.003 A 
ENDROOT
TORSDOF 0
ENDMDL
