MODEL 1
REMARK minimizedAffinity 5.67278481
REMARK minimizedRMSD -1
REMARK  0 active torsions:
REMARK  status: ('A' for Active; 'I' for Inactive)
ROOT
ATOM      1  C2' OXE d   1       0.866   3.461  -3.365  0.00  0.00     0.078 C 
ATOM      2  C1' OXE d   1       2.397   3.285  -1.019  0.00  0.00     0.078 C 
ATOM      3  C1  OXE d   1       2.168   2.019  -1.806  0.00  0.00    -0.078 A 
ATOM      4  C2  OXE d   1       1.379   2.106  -2.927  0.00  0.00    -0.078 A 
ATOM      5  C3  OXE d   1       1.180   0.979  -3.720  0.00  0.00     0.003 A 
ATOM      6  C4  OXE d   1       1.650  -0.273  -3.302  0.00  0.00    -0.002 A 
ATOM      7  C5  OXE d   1       2.422  -0.390  -2.142  0.00  0.00    -0.002 A 
ATOM      8  C6  OXE d   1       2.726   0.751  -1.407  0.00  0.00     0.003 A 
ENDROOT
TORSDOF 0
ENDMDL
