MODEL 1
REMARK minimizedAffinity 7.60487843
REMARK minimizedRMSD -1
REMARK  0 active torsions:
REMARK  status: ('A' for Active; 'I' for Inactive)
ROOT
ATOM      1  C2' OXE d   1       2.336   2.683   1.072  0.00  0.00     0.078 C 
ATOM      2  C1' OXE d   1       4.607   2.412  -0.556  0.00  0.00     0.078 C 
ATOM      3  C1  OXE d   1       3.253   2.303  -1.213  0.00  0.00    -0.078 A 
ATOM      4  C2  OXE d   1       2.148   2.391  -0.401  0.00  0.00    -0.078 A 
ATOM      5  C3  OXE d   1       0.875   2.353  -0.964  0.00  0.00     0.003 A 
ATOM      6  C4  OXE d   1       0.710   2.072  -2.325  0.00  0.00    -0.002 A 
ATOM      7  C5  OXE d   1       1.823   1.940  -3.163  0.00  0.00    -0.002 A 
ATOM      8  C6  OXE d   1       3.098   2.095  -2.631  0.00  0.00     0.003 A 
ENDROOT
TORSDOF 0
ENDMDL
