MODEL 1
REMARK minimizedAffinity 0.788598478
REMARK minimizedRMSD -1
REMARK  0 active torsions:
REMARK  status: ('A' for Active; 'I' for Inactive)
ROOT
ATOM      1  C2' OXE d   1       3.739  -1.163   0.347  0.00  0.00     0.078 C 
ATOM      2  C1' OXE d   1       1.322  -1.608  -1.009  0.00  0.00     0.078 C 
ATOM      3  C1  OXE d   1       1.273  -1.481   0.493  0.00  0.00    -0.078 A 
ATOM      4  C2  OXE d   1       2.466  -1.310   1.153  0.00  0.00    -0.078 A 
ATOM      5  C3  OXE d   1       2.472  -1.133   2.533  0.00  0.00     0.003 A 
ATOM      6  C4  OXE d   1       1.291  -1.280   3.271  0.00  0.00    -0.002 A 
ATOM      7  C5  OXE d   1       0.070  -1.494   2.623  0.00  0.00    -0.002 A 
ATOM      8  C6  OXE d   1       0.038  -1.554   1.234  0.00  0.00     0.003 A 
ENDROOT
TORSDOF 0
ENDMDL
