MODEL 1
REMARK minimizedAffinity 7.00486517
REMARK minimizedRMSD -1
REMARK  0 active torsions:
REMARK  status: ('A' for Active; 'I' for Inactive)
ROOT
ATOM      1  C2' OXE d   1       1.299  -1.146  -1.010  0.00  0.00     0.078 C 
ATOM      2  C1' OXE d   1       3.895  -0.863   0.019  0.00  0.00     0.078 C 
ATOM      3  C1  OXE d   1       2.761  -1.007   1.002  0.00  0.00    -0.078 A 
ATOM      4  C2  OXE d   1       1.488  -1.098   0.491  0.00  0.00    -0.078 A 
ATOM      5  C3  OXE d   1       0.411  -1.288   1.352  0.00  0.00     0.003 A 
ATOM      6  C4  OXE d   1       0.594  -1.233   2.739  0.00  0.00    -0.002 A 
ATOM      7  C5  OXE d   1       1.877  -1.101   3.281  0.00  0.00    -0.002 A 
ATOM      8  C6  OXE d   1       2.973  -1.030   2.428  0.00  0.00     0.003 A 
ENDROOT
TORSDOF 0
ENDMDL
