MODEL 1
REMARK minimizedAffinity 4.16623735
REMARK minimizedRMSD -1
REMARK  0 active torsions:
REMARK  status: ('A' for Active; 'I' for Inactive)
ROOT
ATOM      1  C2' OXE d   1       2.268  -1.013   0.282  0.00  0.00     0.078 C 
ATOM      2  C1' OXE d   1       0.409  -1.164  -1.816  0.00  0.00     0.078 C 
ATOM      3  C1  OXE d   1       1.053   0.172  -1.542  0.00  0.00    -0.078 A 
ATOM      4  C2  OXE d   1       1.927   0.247  -0.484  0.00  0.00    -0.078 A 
ATOM      5  C3  OXE d   1       2.590   1.442  -0.222  0.00  0.00     0.003 A 
ATOM      6  C4  OXE d   1       2.262   2.605  -0.928  0.00  0.00    -0.002 A 
ATOM      7  C5  OXE d   1       1.345   2.560  -1.984  0.00  0.00    -0.002 A 
ATOM      8  C6  OXE d   1       0.765   1.344  -2.331  0.00  0.00     0.003 A 
ENDROOT
TORSDOF 0
ENDMDL
