MODEL 1
REMARK minimizedAffinity 8.86484623
REMARK minimizedRMSD -1
REMARK  0 active torsions:
REMARK  status: ('A' for Active; 'I' for Inactive)
ROOT
ATOM      1  C2' OXE d   1      -3.046   1.323  -2.936  0.00  0.00     0.078 C 
ATOM      2  C1' OXE d   1      -4.817   1.981  -5.012  0.00  0.00     0.078 C 
ATOM      3  C1  OXE d   1      -4.228   0.593  -5.003  0.00  0.00    -0.078 A 
ATOM      4  C2  OXE d   1      -3.327   0.295  -4.010  0.00  0.00    -0.078 A 
ATOM      5  C3  OXE d   1      -2.795  -0.989  -3.924  0.00  0.00     0.003 A 
ATOM      6  C4  OXE d   1      -3.052  -1.931  -4.927  0.00  0.00    -0.002 A 
ATOM      7  C5  OXE d   1      -3.937  -1.635  -5.970  0.00  0.00    -0.002 A 
ATOM      8  C6  OXE d   1      -4.565  -0.395  -5.999  0.00  0.00     0.003 A 
ENDROOT
TORSDOF 0
ENDMDL
