MODEL 1
REMARK minimizedAffinity 6.30527639
REMARK minimizedRMSD -1
REMARK  0 active torsions:
REMARK  status: ('A' for Active; 'I' for Inactive)
ROOT
ATOM      1  C2' OXE d   1      -0.827  -3.085   2.921  0.00  0.00     0.078 C 
ATOM      2  C1' OXE d   1      -1.900  -0.510   2.606  0.00  0.00     0.078 C 
ATOM      3  C1  OXE d   1      -0.405  -0.634   2.764  0.00  0.00    -0.078 A 
ATOM      4  C2  OXE d   1       0.107  -1.894   2.964  0.00  0.00    -0.078 A 
ATOM      5  C3  OXE d   1       1.484  -2.071   3.060  0.00  0.00     0.003 A 
ATOM      6  C4  OXE d   1       2.339  -0.964   3.109  0.00  0.00    -0.002 A 
ATOM      7  C5  OXE d   1       1.835   0.331   2.947  0.00  0.00    -0.002 A 
ATOM      8  C6  OXE d   1       0.473   0.509   2.731  0.00  0.00     0.003 A 
ENDROOT
TORSDOF 0
ENDMDL
