MODEL 1
REMARK minimizedAffinity 2.2693367
REMARK minimizedRMSD -1
REMARK  0 active torsions:
REMARK  status: ('A' for Active; 'I' for Inactive)
ROOT
ATOM      1  C2' OXE d   1       1.977  -0.561  -2.329  0.00  0.00     0.078 C 
ATOM      2  C1' OXE d   1       4.228   0.697  -1.220  0.00  0.00     0.078 C 
ATOM      3  C1  OXE d   1       3.499  -0.316  -0.372  0.00  0.00    -0.078 A 
ATOM      4  C2  OXE d   1       2.371  -0.892  -0.905  0.00  0.00    -0.078 A 
ATOM      5  C3  OXE d   1       1.693  -1.872  -0.187  0.00  0.00     0.003 A 
ATOM      6  C4  OXE d   1       2.058  -2.165   1.133  0.00  0.00    -0.002 A 
ATOM      7  C5  OXE d   1       3.180  -1.560   1.709  0.00  0.00    -0.002 A 
ATOM      8  C6  OXE d   1       3.935  -0.667   0.957  0.00  0.00     0.003 A 
ENDROOT
TORSDOF 0
ENDMDL
