MODEL 1
REMARK minimizedAffinity 4.16106701
REMARK minimizedRMSD -1
REMARK  0 active torsions:
REMARK  status: ('A' for Active; 'I' for Inactive)
ROOT
ATOM      1  C2' OXE d   1       4.577  -1.249  -0.124  0.00  0.00     0.078 C 
ATOM      2  C1' OXE d   1       1.875  -1.671   0.506  0.00  0.00     0.078 C 
ATOM      3  C1  OXE d   1       2.201  -1.120  -0.859  0.00  0.00    -0.078 A 
ATOM      4  C2  OXE d   1       3.522  -0.872  -1.142  0.00  0.00    -0.078 A 
ATOM      5  C3  OXE d   1       3.883  -0.415  -2.406  0.00  0.00     0.003 A 
ATOM      6  C4  OXE d   1       2.900  -0.059  -3.338  0.00  0.00    -0.002 A 
ATOM      7  C5  OXE d   1       1.546  -0.266  -3.056  0.00  0.00    -0.002 A 
ATOM      8  C6  OXE d   1       1.182  -0.834  -1.839  0.00  0.00     0.003 A 
ENDROOT
TORSDOF 0
ENDMDL
