MODEL 1
REMARK minimizedAffinity 2.45258141
REMARK minimizedRMSD -1
REMARK  0 active torsions:
REMARK  status: ('A' for Active; 'I' for Inactive)
ROOT
ATOM      1  C2' OXE d   1       1.866  -1.699  -0.371  0.00  0.00     0.078 C 
ATOM      2  C1' OXE d   1      -0.809  -0.852  -0.331  0.00  0.00     0.078 C 
ATOM      3  C1  OXE d   1       0.243   0.159  -0.713  0.00  0.00    -0.078 A 
ATOM      4  C2  OXE d   1       1.554  -0.252  -0.684  0.00  0.00    -0.078 A 
ATOM      5  C3  OXE d   1       2.560   0.625  -1.081  0.00  0.00     0.003 A 
ATOM      6  C4  OXE d   1       2.264   1.964  -1.360  0.00  0.00    -0.002 A 
ATOM      7  C5  OXE d   1       0.939   2.414  -1.356  0.00  0.00    -0.002 A 
ATOM      8  C6  OXE d   1      -0.085   1.515  -1.077  0.00  0.00     0.003 A 
ENDROOT
TORSDOF 0
ENDMDL
