MODEL 1
REMARK minimizedAffinity 11.1416664
REMARK minimizedRMSD -1
REMARK  0 active torsions:
REMARK  status: ('A' for Active; 'I' for Inactive)
ROOT
ATOM      1  O1  BZF d   1      -2.447   0.401  -3.653  0.00  0.00    -0.204 OA
ATOM      2  C2  BZF d   1      -2.199   0.063  -2.337  0.00  0.00     0.174 A 
ATOM      3  C3  BZF d   1      -3.001   0.758  -1.505  0.00  0.00    -0.012 A 
ATOM      4  C3A BZF d   1      -3.863   1.516  -2.359  0.00  0.00    -0.107 A 
ATOM      5  C4  BZF d   1      -4.887   2.389  -2.124  0.00  0.00     0.055 A 
ATOM      6  C5  BZF d   1      -5.476   3.014  -3.177  0.00  0.00    -0.016 A 
ATOM      7  C6  BZF d   1      -5.064   2.794  -4.475  0.00  0.00     0.022 A 
ATOM      8  C7  BZF d   1      -4.057   1.933  -4.758  0.00  0.00     0.029 A 
ATOM      9  C7A BZF d   1      -3.481   1.275  -3.699  0.00  0.00     0.058 A 
ENDROOT
TORSDOF 0
ENDMDL
