MODEL 1
REMARK minimizedAffinity 4.31234169
REMARK minimizedRMSD -1
REMARK  0 active torsions:
REMARK  status: ('A' for Active; 'I' for Inactive)
ROOT
ATOM      1  O1  BZF d   1       3.775  -0.280   2.455  0.00  0.00    -0.204 OA
ATOM      2  C2  BZF d   1       4.190  -0.694   1.204  0.00  0.00     0.174 A 
ATOM      3  C3  BZF d   1       3.456  -0.106   0.237  0.00  0.00    -0.012 A 
ATOM      4  C3A BZF d   1       2.584   0.797   0.924  0.00  0.00    -0.107 A 
ATOM      5  C4  BZF d   1       1.627   1.678   0.508  0.00  0.00     0.055 A 
ATOM      6  C5  BZF d   1       0.905   2.357   1.437  0.00  0.00    -0.016 A 
ATOM      7  C6  BZF d   1       1.109   2.176   2.789  0.00  0.00     0.022 A 
ATOM      8  C7  BZF d   1       2.051   1.317   3.251  0.00  0.00     0.029 A 
ATOM      9  C7A BZF d   1       2.805   0.654   2.314  0.00  0.00     0.058 A 
ENDROOT
TORSDOF 0
ENDMDL
