MODEL 1
REMARK minimizedAffinity 3.17061734
REMARK minimizedRMSD -1
REMARK  0 active torsions:
REMARK  status: ('A' for Active; 'I' for Inactive)
ROOT
ATOM      1  O1  BZF d   1       1.351  -2.630   2.299  0.00  0.00    -0.204 OA
ATOM      2  C2  BZF d   1       1.541  -1.262   2.339  0.00  0.00     0.174 A 
ATOM      3  C3  BZF d   1       2.439  -0.932   3.289  0.00  0.00    -0.012 A 
ATOM      4  C3A BZF d   1       2.905  -2.177   3.816  0.00  0.00    -0.107 A 
ATOM      5  C4  BZF d   1       3.818  -2.508   4.777  0.00  0.00     0.055 A 
ATOM      6  C5  BZF d   1       3.986  -3.815   5.106  0.00  0.00    -0.016 A 
ATOM      7  C6  BZF d   1       3.256  -4.817   4.500  0.00  0.00     0.022 A 
ATOM      8  C7  BZF d   1       2.343  -4.538   3.538  0.00  0.00     0.029 A 
ATOM      9  C7A BZF d   1       2.194  -3.221   3.180  0.00  0.00     0.058 A 
ENDROOT
TORSDOF 0
ENDMDL
