MODEL 1
REMARK minimizedAffinity 5.64834166
REMARK minimizedRMSD -1
REMARK  0 active torsions:
REMARK  status: ('A' for Active; 'I' for Inactive)
ROOT
ATOM      1  O1  BZF d   1       2.560  -4.987   1.600  0.00  0.00    -0.204 OA
ATOM      2  C2  BZF d   1       3.054  -6.000   0.800  0.00  0.00     0.174 A 
ATOM      3  C3  BZF d   1       4.402  -5.970   0.770  0.00  0.00    -0.012 A 
ATOM      4  C3A BZF d   1       4.776  -4.928   1.676  0.00  0.00    -0.107 A 
ATOM      5  C4  BZF d   1       5.979  -4.429   2.088  0.00  0.00     0.055 A 
ATOM      6  C5  BZF d   1       5.998  -3.360   2.927  0.00  0.00    -0.016 A 
ATOM      7  C6  BZF d   1       4.836  -2.764   3.369  0.00  0.00     0.022 A 
ATOM      8  C7  BZF d   1       3.619  -3.227   2.993  0.00  0.00     0.029 A 
ATOM      9  C7A BZF d   1       3.596  -4.327   2.171  0.00  0.00     0.058 A 
ENDROOT
TORSDOF 0
ENDMDL
