MODEL 1
REMARK minimizedAffinity -0.877342939
REMARK minimizedRMSD -1
REMARK  0 active torsions:
REMARK  status: ('A' for Active; 'I' for Inactive)
ROOT
ATOM      1  O1  BZF d   1       1.271  -5.851  -2.622  0.00  0.00    -0.204 OA
ATOM      2  C2  BZF d   1       1.916  -5.883  -1.401  0.00  0.00     0.174 A 
ATOM      3  C3  BZF d   1       3.249  -5.998  -1.566  0.00  0.00    -0.012 A 
ATOM      4  C3A BZF d   1       3.458  -5.949  -2.981  0.00  0.00    -0.107 A 
ATOM      5  C4  BZF d   1       4.574  -5.999  -3.767  0.00  0.00     0.055 A 
ATOM      6  C5  BZF d   1       4.429  -5.999  -5.119  0.00  0.00    -0.016 A 
ATOM      7  C6  BZF d   1       3.187  -5.956  -5.716  0.00  0.00     0.022 A 
ATOM      8  C7  BZF d   1       2.052  -5.900  -4.978  0.00  0.00     0.029 A 
ATOM      9  C7A BZF d   1       2.196  -5.866  -3.612  0.00  0.00     0.058 A 
ENDROOT
TORSDOF 0
ENDMDL
