MODEL 1
REMARK minimizedAffinity 5.94330502
REMARK minimizedRMSD -1
REMARK  0 active torsions:
REMARK  status: ('A' for Active; 'I' for Inactive)
ROOT
ATOM      1  O1  BZF d   1      -5.291   2.565  -1.951  0.00  0.00    -0.204 OA
ATOM      2  C2  BZF d   1      -4.201   2.315  -2.762  0.00  0.00     0.174 A 
ATOM      3  C3  BZF d   1      -3.059   2.318  -2.044  0.00  0.00    -0.012 A 
ATOM      4  C3A BZF d   1      -3.470   2.495  -0.685  0.00  0.00    -0.107 A 
ATOM      5  C4  BZF d   1      -2.794   2.565   0.499  0.00  0.00     0.055 A 
ATOM      6  C5  BZF d   1      -3.485   2.817   1.641  0.00  0.00    -0.016 A 
ATOM      7  C6  BZF d   1      -4.852   3.008   1.635  0.00  0.00     0.022 A 
ATOM      8  C7  BZF d   1      -5.567   2.943   0.486  0.00  0.00     0.029 A 
ATOM      9  C7A BZF d   1      -4.875   2.656  -0.665  0.00  0.00     0.058 A 
ENDROOT
TORSDOF 0
ENDMDL
