MODEL 1
REMARK minimizedAffinity 1.60894132
REMARK minimizedRMSD -1
REMARK  0 active torsions:
REMARK  status: ('A' for Active; 'I' for Inactive)
ROOT
ATOM      1  O1  BZF d   1       3.701  -5.946  -1.356  0.00  0.00    -0.204 OA
ATOM      2  C2  BZF d   1       3.331  -5.939  -2.688  0.00  0.00     0.174 A 
ATOM      3  C3  BZF d   1       1.990  -6.000  -2.811  0.00  0.00    -0.012 A 
ATOM      4  C3A BZF d   1       1.486  -5.954  -1.473  0.00  0.00    -0.107 A 
ATOM      5  C4  BZF d   1       0.227  -5.964  -0.943  0.00  0.00     0.055 A 
ATOM      6  C5  BZF d   1       0.080  -5.984   0.408  0.00  0.00    -0.016 A 
ATOM      7  C6  BZF d   1       1.167  -5.999   1.257  0.00  0.00     0.022 A 
ATOM      8  C7  BZF d   1       2.435  -5.984   0.778  0.00  0.00     0.029 A 
ATOM      9  C7A BZF d   1       2.587  -5.931  -0.586  0.00  0.00     0.058 A 
ENDROOT
TORSDOF 0
ENDMDL
