MODEL 1
REMARK minimizedAffinity 5.89453697
REMARK minimizedRMSD -1
REMARK  0 active torsions:
REMARK  status: ('A' for Active; 'I' for Inactive)
ROOT
ATOM      1  O1  BZF d   1       0.617  -0.914   2.907  0.00  0.00    -0.204 OA
ATOM      2  C2  BZF d   1       1.514  -0.082   2.266  0.00  0.00     0.174 A 
ATOM      3  C3  BZF d   1       2.777  -0.348   2.658  0.00  0.00    -0.012 A 
ATOM      4  C3A BZF d   1       2.670  -1.475   3.532  0.00  0.00    -0.107 A 
ATOM      5  C4  BZF d   1       3.585  -2.214   4.227  0.00  0.00     0.055 A 
ATOM      6  C5  BZF d   1       3.147  -3.204   5.048  0.00  0.00    -0.016 A 
ATOM      7  C6  BZF d   1       1.804  -3.479   5.202  0.00  0.00     0.022 A 
ATOM      8  C7  BZF d   1       0.860  -2.777   4.529  0.00  0.00     0.029 A 
ATOM      9  C7A BZF d   1       1.301  -1.797   3.674  0.00  0.00     0.058 A 
ENDROOT
TORSDOF 0
ENDMDL
