MODEL 1
REMARK minimizedAffinity 7.02015114
REMARK minimizedRMSD -1
REMARK  0 active torsions:
REMARK  status: ('A' for Active; 'I' for Inactive)
ROOT
ATOM      1  O1  BZF d   1      -1.361   1.081  -3.188  0.00  0.00    -0.204 OA
ATOM      2  C2  BZF d   1      -2.324   0.149  -3.519  0.00  0.00     0.174 A 
ATOM      3  C3  BZF d   1      -2.216  -0.948  -2.742  0.00  0.00    -0.012 A 
ATOM      4  C3A BZF d   1      -1.174  -0.647  -1.809  0.00  0.00    -0.107 A 
ATOM      5  C4  BZF d   1      -0.614  -1.336  -0.771  0.00  0.00     0.055 A 
ATOM      6  C5  BZF d   1       0.435  -0.788  -0.104  0.00  0.00    -0.016 A 
ATOM      7  C6  BZF d   1       0.953   0.443  -0.450  0.00  0.00     0.022 A 
ATOM      8  C7  BZF d   1       0.428   1.166  -1.469  0.00  0.00     0.029 A 
ATOM      9  C7A BZF d   1      -0.654   0.630  -2.124  0.00  0.00     0.058 A 
ENDROOT
TORSDOF 0
ENDMDL
