MODEL 1
REMARK minimizedAffinity -5.75619411
REMARK minimizedRMSD -1
REMARK  1 active torsions:
REMARK  status: ('A' for Active; 'I' for Inactive)
REMARK    1  A    between atoms: C1_2  and  C2_3 
ROOT
ATOM      1  C2  UNL d   1       1.060   0.016   0.004  0.00  0.00    -0.076 A 
ATOM      2  C3  UNL d   1       1.396   1.379   0.062  0.00  0.00     0.004 A 
ATOM      3  C4  UNL d   1       2.673   1.788   0.444  0.00  0.00    -0.003 A 
ATOM      4  C5  UNL d   1       3.635   0.839   0.772  0.00  0.00     0.000 A 
ATOM      5  C6  UNL d   1       3.324  -0.519   0.703  0.00  0.00     0.000 A 
ATOM      6  C7  UNL d   1       2.047  -0.948   0.304  0.00  0.00    -0.073 A 
ATOM      7  C8  UNL d   1       1.764  -2.425   0.253  0.00  0.00     0.078 C 
ENDROOT
BRANCH   1   8
ATOM      8  C1  UNL d   1      -0.349  -0.367  -0.391  0.00  0.00     0.053 C 
ATOM      9  C   UNL d   1      -1.303   0.817  -0.361  0.00  0.00     0.018 C 
ENDBRANCH   1   8
TORSDOF 1
ENDMDL
