MODEL 1
REMARK minimizedAffinity -1.3277961
REMARK minimizedRMSD -1
REMARK  1 active torsions:
REMARK  status: ('A' for Active; 'I' for Inactive)
REMARK    1  A    between atoms: C1_2  and  C2_3 
ROOT
ATOM      1  C2  UNL d   1       0.074  -0.295   0.662  0.00  0.00    -0.076 A 
ATOM      2  C3  UNL d   1       0.877  -0.201   1.812  0.00  0.00     0.004 A 
ATOM      3  C4  UNL d   1       2.144  -0.779   1.852  0.00  0.00    -0.003 A 
ATOM      4  C5  UNL d   1       2.630  -1.461   0.742  0.00  0.00     0.000 A 
ATOM      5  C6  UNL d   1       1.855  -1.549  -0.414  0.00  0.00     0.000 A 
ATOM      6  C7  UNL d   1       0.581  -0.958  -0.476  0.00  0.00    -0.073 A 
ATOM      7  C8  UNL d   1      -0.214  -1.089  -1.746  0.00  0.00     0.078 C 
ENDROOT
BRANCH   1   8
ATOM      8  C1  UNL d   1      -1.303   0.329   0.686  0.00  0.00     0.053 C 
ATOM      9  C   UNL d   1      -2.025   0.095   2.004  0.00  0.00     0.018 C 
ENDBRANCH   1   8
TORSDOF 1
ENDMDL
