MODEL 1
REMARK minimizedAffinity -3.61043024
REMARK minimizedRMSD -1
REMARK  1 active torsions:
REMARK  status: ('A' for Active; 'I' for Inactive)
REMARK    1  A    between atoms: C1_2  and  C2_3 
ROOT
ATOM      1  C2  UNL d   1       1.508  -0.479   0.323  0.00  0.00    -0.076 A 
ATOM      2  C3  UNL d   1       0.496  -1.318  -0.174  0.00  0.00     0.004 A 
ATOM      3  C4  UNL d   1      -0.740  -0.801  -0.559  0.00  0.00    -0.003 A 
ATOM      4  C5  UNL d   1      -0.984   0.563  -0.453  0.00  0.00     0.000 A 
ATOM      5  C6  UNL d   1       0.015   1.413   0.022  0.00  0.00     0.000 A 
ATOM      6  C7  UNL d   1       1.272   0.911   0.398  0.00  0.00    -0.073 A 
ATOM      7  C8  UNL d   1       2.310   1.872   0.909  0.00  0.00     0.078 C 
ENDROOT
BRANCH   1   8
ATOM      8  C1  UNL d   1       2.819  -1.099   0.750  0.00  0.00     0.053 C 
ATOM      9  C   UNL d   1       3.817  -1.197  -0.394  0.00  0.00     0.018 C 
ENDBRANCH   1   8
TORSDOF 1
ENDMDL
