MODEL 1
REMARK minimizedAffinity -5.95181847
REMARK minimizedRMSD -1
REMARK  1 active torsions:
REMARK  status: ('A' for Active; 'I' for Inactive)
REMARK    1  A    between atoms: C1_2  and  C2_3 
ROOT
ATOM      1  C2  UNL d   1       0.406   0.696   0.086  0.00  0.00    -0.076 A 
ATOM      2  C3  UNL d   1       1.464   1.531   0.485  0.00  0.00     0.004 A 
ATOM      3  C4  UNL d   1       2.694   0.999   0.867  0.00  0.00    -0.003 A 
ATOM      4  C5  UNL d   1       2.886  -0.378   0.856  0.00  0.00     0.000 A 
ATOM      5  C6  UNL d   1       1.854  -1.221   0.447  0.00  0.00     0.000 A 
ATOM      6  C7  UNL d   1       0.613  -0.700   0.043  0.00  0.00    -0.073 A 
ATOM      7  C8  UNL d   1      -0.468  -1.655  -0.383  0.00  0.00     0.078 C 
ENDROOT
BRANCH   1   8
ATOM      8  C1  UNL d   1      -0.914   1.329  -0.291  0.00  0.00     0.053 C 
ATOM      9  C   UNL d   1      -1.919   1.305   0.850  0.00  0.00     0.018 C 
ENDBRANCH   1   8
TORSDOF 1
ENDMDL
