MODEL 1
REMARK minimizedAffinity -1.48309124
REMARK minimizedRMSD -1
REMARK  1 active torsions:
REMARK  status: ('A' for Active; 'I' for Inactive)
REMARK    1  A    between atoms: C1_2  and  C2_3 
ROOT
ATOM      1  C2  UNL d   1       1.245   0.051   0.599  0.00  0.00    -0.076 A 
ATOM      2  C3  UNL d   1       0.147  -0.703   0.149  0.00  0.00     0.004 A 
ATOM      3  C4  UNL d   1      -0.917  -0.094  -0.515  0.00  0.00    -0.003 A 
ATOM      4  C5  UNL d   1      -0.899   1.278  -0.741  0.00  0.00     0.000 A 
ATOM      5  C6  UNL d   1       0.191   2.038  -0.317  0.00  0.00     0.000 A 
ATOM      6  C7  UNL d   1       1.279   1.438   0.340  0.00  0.00    -0.073 A 
ATOM      7  C8  UNL d   1       2.425   2.306   0.781  0.00  0.00     0.078 C 
ENDROOT
BRANCH   1   8
ATOM      8  C1  UNL d   1       2.357  -0.660   1.338  0.00  0.00     0.053 C 
ATOM      9  C   UNL d   1       3.239  -1.482   0.412  0.00  0.00     0.018 C 
ENDBRANCH   1   8
TORSDOF 1
ENDMDL
