MODEL 1
REMARK minimizedAffinity -3.60767412
REMARK minimizedRMSD -1
REMARK  1 active torsions:
REMARK  status: ('A' for Active; 'I' for Inactive)
REMARK    1  A    between atoms: C1_2  and  C2_3 
ROOT
ATOM      1  C2  UNL d   1       0.188   0.321  -0.166  0.00  0.00    -0.076 A 
ATOM      2  C3  UNL d   1      -0.041  -0.997  -0.600  0.00  0.00     0.004 A 
ATOM      3  C4  UNL d   1       0.961  -1.963  -0.521  0.00  0.00    -0.003 A 
ATOM      4  C5  UNL d   1       2.208  -1.627  -0.005  0.00  0.00     0.000 A 
ATOM      5  C6  UNL d   1       2.447  -0.330   0.446  0.00  0.00     0.000 A 
ATOM      6  C7  UNL d   1       1.443   0.652   0.388  0.00  0.00    -0.073 A 
ATOM      7  C8  UNL d   1       1.758   2.037   0.884  0.00  0.00     0.078 C 
ENDROOT
BRANCH   1   8
ATOM      8  C1  UNL d   1      -0.927   1.332  -0.302  0.00  0.00     0.053 C 
ATOM      9  C   UNL d   1      -2.285   0.757   0.070  0.00  0.00     0.018 C 
ENDBRANCH   1   8
TORSDOF 1
ENDMDL
