MODEL 1
REMARK minimizedAffinity -2.66166949
REMARK minimizedRMSD -1
REMARK  1 active torsions:
REMARK  status: ('A' for Active; 'I' for Inactive)
REMARK    1  A    between atoms: C1_2  and  C2_3 
ROOT
ATOM      1  C2  UNL d   1       0.021   0.008  -0.122  0.00  0.00    -0.076 A 
ATOM      2  C3  UNL d   1       1.080   0.847   0.268  0.00  0.00     0.004 A 
ATOM      3  C4  UNL d   1       2.318   0.318   0.629  0.00  0.00    -0.003 A 
ATOM      4  C5  UNL d   1       2.518  -1.058   0.605  0.00  0.00     0.000 A 
ATOM      5  C6  UNL d   1       1.485  -1.903   0.203  0.00  0.00     0.000 A 
ATOM      6  C7  UNL d   1       0.235  -1.385  -0.179  0.00  0.00    -0.073 A 
ATOM      7  C8  UNL d   1      -0.846  -2.344  -0.598  0.00  0.00     0.078 C 
ENDROOT
BRANCH   1   8
ATOM      8  C1  UNL d   1      -1.307   0.637  -0.476  0.00  0.00     0.053 C 
ATOM      9  C   UNL d   1      -2.214   0.804   0.734  0.00  0.00     0.018 C 
ENDBRANCH   1   8
TORSDOF 1
ENDMDL
