MODEL 1
REMARK minimizedAffinity -1.68751717
REMARK minimizedRMSD -1
REMARK  1 active torsions:
REMARK  status: ('A' for Active; 'I' for Inactive)
REMARK    1  A    between atoms: C3_4  and  O_7 
ROOT
ATOM      1  C   UNL d   1       4.776   5.954   0.421  0.00  0.00    -0.033 A 
ATOM      2  C1  UNL d   1       5.972   5.904   1.139  0.00  0.00     0.039 A 
ATOM      3  C2  UNL d   1       5.950   5.905   2.535  0.00  0.00    -0.080 A 
ATOM      4  C3  UNL d   1       4.728   5.954   3.200  0.00  0.00     0.150 A 
ATOM      5  C4  UNL d   1       3.532   6.000   2.490  0.00  0.00    -0.007 A 
ATOM      6  C5  UNL d   1       3.556   6.000   1.096  0.00  0.00     0.039 A 
ENDROOT
BRANCH   4   7
ATOM      7  O   UNL d   1       4.656   5.962   4.561  0.00  0.00    -0.526 OA
ATOM      8  H5  UNL d   1       5.561   5.956   4.917  0.00  0.00     0.418 HD
ENDBRANCH   4   7
TORSDOF 1
ENDMDL
