MODEL 1
REMARK minimizedAffinity 8.84938335
REMARK minimizedRMSD -1
REMARK  1 active torsions:
REMARK  status: ('A' for Active; 'I' for Inactive)
REMARK    1  A    between atoms: C3_4  and  O_7 
ROOT
ATOM      1  C   UNL d   1       0.108  -5.538   1.751  0.00  0.00    -0.033 A 
ATOM      2  C1  UNL d   1       1.495  -5.695   1.785  0.00  0.00     0.039 A 
ATOM      3  C2  UNL d   1       2.316  -4.818   1.072  0.00  0.00    -0.080 A 
ATOM      4  C3  UNL d   1       1.738  -3.791   0.332  0.00  0.00     0.150 A 
ATOM      5  C4  UNL d   1       0.357  -3.626   0.297  0.00  0.00    -0.007 A 
ATOM      6  C5  UNL d   1      -0.461  -4.503   1.009  0.00  0.00     0.039 A 
ENDROOT
BRANCH   4   7
ATOM      7  O   UNL d   1       2.498  -2.913  -0.383  0.00  0.00    -0.526 OA
ATOM      8  H5  UNL d   1       3.431  -3.166  -0.288  0.00  0.00     0.418 HD
ENDBRANCH   4   7
TORSDOF 1
ENDMDL
