MODEL 1
REMARK minimizedAffinity -2.72063494
REMARK minimizedRMSD -1
REMARK  1 active torsions:
REMARK  status: ('A' for Active; 'I' for Inactive)
REMARK    1  A    between atoms: C3_4  and  O_7 
ROOT
ATOM      1  C   UNL d   1       4.617   5.975  -0.928  0.00  0.00    -0.033 A 
ATOM      2  C1  UNL d   1       5.881   5.958  -0.333  0.00  0.00     0.039 A 
ATOM      3  C2  UNL d   1       5.999   5.965   1.058  0.00  0.00    -0.080 A 
ATOM      4  C3  UNL d   1       4.849   5.987   1.842  0.00  0.00     0.150 A 
ATOM      5  C4  UNL d   1       3.587   6.000   1.256  0.00  0.00    -0.007 A 
ATOM      6  C5  UNL d   1       3.471   5.994  -0.134  0.00  0.00     0.039 A 
ENDROOT
BRANCH   4   7
ATOM      7  O   UNL d   1       4.914   5.999   3.203  0.00  0.00    -0.526 OA
ATOM      8  H5  UNL d   1       5.850   6.017   3.466  0.00  0.00     0.418 HD
ENDBRANCH   4   7
TORSDOF 1
ENDMDL
