MODEL 1
REMARK minimizedAffinity 0.998569012
REMARK minimizedRMSD -1
REMARK  1 active torsions:
REMARK  status: ('A' for Active; 'I' for Inactive)
REMARK    1  A    between atoms: C3_4  and  O_7 
ROOT
ATOM      1  C   UNL d   1       4.848   5.029   1.770  0.00  0.00    -0.033 A 
ATOM      2  C1  UNL d   1       3.997   5.870   2.488  0.00  0.00     0.039 A 
ATOM      3  C2  UNL d   1       4.144   6.000   3.871  0.00  0.00    -0.080 A 
ATOM      4  C3  UNL d   1       5.146   5.285   4.521  0.00  0.00     0.150 A 
ATOM      5  C4  UNL d   1       6.000   4.448   3.811  0.00  0.00    -0.007 A 
ATOM      6  C5  UNL d   1       5.851   4.319   2.431  0.00  0.00     0.039 A 
ENDROOT
BRANCH   4   7
ATOM      7  O   UNL d   1       5.325   5.375   5.870  0.00  0.00    -0.526 OA
ATOM      8  H5  UNL d   1       4.645   5.967   6.232  0.00  0.00     0.418 HD
ENDBRANCH   4   7
TORSDOF 1
ENDMDL
