MODEL 1
REMARK minimizedAffinity 4.58855867
REMARK minimizedRMSD -1
REMARK  1 active torsions:
REMARK  status: ('A' for Active; 'I' for Inactive)
REMARK    1  A    between atoms: C3_4  and  O_7 
ROOT
ATOM      1  C   UNL d   1       1.984  -1.967  -1.424  0.00  0.00    -0.033 A 
ATOM      2  C1  UNL d   1       0.595  -2.112  -1.430  0.00  0.00     0.039 A 
ATOM      3  C2  UNL d   1      -0.219  -1.035  -1.785  0.00  0.00    -0.080 A 
ATOM      4  C3  UNL d   1       0.367   0.179  -2.132  0.00  0.00     0.150 A 
ATOM      5  C4  UNL d   1       1.750   0.329  -2.132  0.00  0.00    -0.007 A 
ATOM      6  C5  UNL d   1       2.561  -0.747  -1.776  0.00  0.00     0.039 A 
ENDROOT
BRANCH   4   7
ATOM      7  O   UNL d   1      -0.387   1.260  -2.481  0.00  0.00    -0.526 OA
ATOM      8  H5  UNL d   1      -1.325   1.017  -2.409  0.00  0.00     0.418 HD
ENDBRANCH   4   7
TORSDOF 1
ENDMDL
