MODEL 1
REMARK minimizedAffinity -2.90826154
REMARK minimizedRMSD -1
REMARK  1 active torsions:
REMARK  status: ('A' for Active; 'I' for Inactive)
REMARK    1  A    between atoms: C3_4  and  O_7 
ROOT
ATOM      1  C   UNL d   1       5.061  -5.956   5.429  0.00  0.00    -0.033 A 
ATOM      2  C1  UNL d   1       5.999  -5.094   6.000  0.00  0.00     0.039 A 
ATOM      3  C2  UNL d   1       5.997  -3.738   5.668  0.00  0.00    -0.080 A 
ATOM      4  C3  UNL d   1       5.052  -3.256   4.767  0.00  0.00     0.150 A 
ATOM      5  C4  UNL d   1       4.112  -4.108   4.197  0.00  0.00    -0.007 A 
ATOM      6  C5  UNL d   1       4.116  -5.462   4.528  0.00  0.00     0.039 A 
ENDROOT
BRANCH   4   7
ATOM      7  O   UNL d   1       5.014  -1.941   4.409  0.00  0.00    -0.526 OA
ATOM      8  H5  UNL d   1       5.741  -1.479   4.859  0.00  0.00     0.418 HD
ENDBRANCH   4   7
TORSDOF 1
ENDMDL
