MODEL 1
REMARK minimizedAffinity 15.4012804
REMARK minimizedRMSD -1
REMARK  1 active torsions:
REMARK  status: ('A' for Active; 'I' for Inactive)
REMARK    1  A    between atoms: C3_4  and  O_7 
ROOT
ATOM      1  C   UNL d   1      -6.000  -0.384   4.424  0.00  0.00    -0.033 A 
ATOM      2  C1  UNL d   1      -4.973  -0.210   5.355  0.00  0.00     0.039 A 
ATOM      3  C2  UNL d   1      -3.691   0.138   4.925  0.00  0.00    -0.080 A 
ATOM      4  C3  UNL d   1      -3.450   0.310   3.565  0.00  0.00     0.150 A 
ATOM      5  C4  UNL d   1      -4.469   0.142   2.633  0.00  0.00    -0.007 A 
ATOM      6  C5  UNL d   1      -5.748  -0.206   3.064  0.00  0.00     0.039 A 
ENDROOT
BRANCH   4   7
ATOM      7  O   UNL d   1      -2.213   0.645   3.097  0.00  0.00    -0.526 OA
ATOM      8  H5  UNL d   1      -1.603   0.699   3.852  0.00  0.00     0.418 HD
ENDBRANCH   4   7
TORSDOF 1
ENDMDL
