MODEL 1
REMARK minimizedAffinity 3.18943572
REMARK minimizedRMSD -1
REMARK  1 active torsions:
REMARK  status: ('A' for Active; 'I' for Inactive)
REMARK    1  A    between atoms: C3_4  and  O_7 
ROOT
ATOM      1  C   UNL d   1       5.293  -5.775   5.708  0.00  0.00    -0.033 A 
ATOM      2  C1  UNL d   1       3.899  -5.715   5.695  0.00  0.00     0.039 A 
ATOM      3  C2  UNL d   1       3.206  -5.790   4.485  0.00  0.00    -0.080 A 
ATOM      4  C3  UNL d   1       3.919  -5.927   3.297  0.00  0.00     0.150 A 
ATOM      5  C4  UNL d   1       5.309  -5.991   3.303  0.00  0.00    -0.007 A 
ATOM      6  C5  UNL d   1       5.998  -5.914   4.512  0.00  0.00     0.039 A 
ENDROOT
BRANCH   4   7
ATOM      7  O   UNL d   1       3.288  -6.000   2.091  0.00  0.00    -0.526 OA
ATOM      8  H5  UNL d   1       2.331  -5.913   2.239  0.00  0.00     0.418 HD
ENDBRANCH   4   7
TORSDOF 1
ENDMDL
