MODEL 1
REMARK minimizedAffinity 6.74774265
REMARK minimizedRMSD -1
REMARK  1 active torsions:
REMARK  status: ('A' for Active; 'I' for Inactive)
REMARK    1  A    between atoms: C3_4  and  O_7 
ROOT
ATOM      1  C   UNL d   1       2.244  -3.323  -1.022  0.00  0.00    -0.033 A 
ATOM      2  C1  UNL d   1       1.402  -3.987  -0.128  0.00  0.00     0.039 A 
ATOM      3  C2  UNL d   1       0.017  -3.933  -0.299  0.00  0.00    -0.080 A 
ATOM      4  C3  UNL d   1      -0.512  -3.214  -1.367  0.00  0.00     0.150 A 
ATOM      5  C4  UNL d   1       0.321  -2.553  -2.264  0.00  0.00    -0.007 A 
ATOM      6  C5  UNL d   1       1.703  -2.607  -2.091  0.00  0.00     0.039 A 
ENDROOT
BRANCH   4   7
ATOM      7  O   UNL d   1      -1.857  -3.129  -1.572  0.00  0.00    -0.526 OA
ATOM      8  H5  UNL d   1      -2.308  -3.610  -0.858  0.00  0.00     0.418 HD
ENDBRANCH   4   7
TORSDOF 1
ENDMDL
