MODEL 1
REMARK minimizedAffinity 4.24512196
REMARK minimizedRMSD -1
REMARK  1 active torsions:
REMARK  status: ('A' for Active; 'I' for Inactive)
REMARK    1  A    between atoms: C3_4  and  O_7 
ROOT
ATOM      1  C   UNL d   1      -2.973   3.960   3.333  0.00  0.00    -0.033 A 
ATOM      2  C1  UNL d   1      -1.996   3.399   4.158  0.00  0.00     0.039 A 
ATOM      3  C2  UNL d   1      -1.728   2.030   4.095  0.00  0.00    -0.080 A 
ATOM      4  C3  UNL d   1      -2.443   1.234   3.205  0.00  0.00     0.150 A 
ATOM      5  C4  UNL d   1      -3.415   1.786   2.377  0.00  0.00    -0.007 A 
ATOM      6  C5  UNL d   1      -3.682   3.153   2.441  0.00  0.00     0.039 A 
ENDROOT
BRANCH   4   7
ATOM      7  O   UNL d   1      -2.221  -0.108   3.111  0.00  0.00    -0.526 OA
ATOM      8  H5  UNL d   1      -1.543  -0.353   3.763  0.00  0.00     0.418 HD
ENDBRANCH   4   7
TORSDOF 1
ENDMDL
