MODEL 1
REMARK minimizedAffinity 2.95839453
REMARK minimizedRMSD -1
REMARK  1 active torsions:
REMARK  status: ('A' for Active; 'I' for Inactive)
REMARK    1  A    between atoms: C3_4  and  O_7 
ROOT
ATOM      1  C   UNL d   1      -2.995  -0.812   1.581  0.00  0.00    -0.033 A 
ATOM      2  C1  UNL d   1      -3.272  -0.681   2.943  0.00  0.00     0.039 A 
ATOM      3  C2  UNL d   1      -2.703   0.362   3.676  0.00  0.00    -0.080 A 
ATOM      4  C3  UNL d   1      -1.861   1.267   3.035  0.00  0.00     0.150 A 
ATOM      5  C4  UNL d   1      -1.583   1.145   1.678  0.00  0.00    -0.007 A 
ATOM      6  C5  UNL d   1      -2.151   0.102   0.948  0.00  0.00     0.039 A 
ENDROOT
BRANCH   4   7
ATOM      7  O   UNL d   1      -1.278   2.299   3.710  0.00  0.00    -0.526 OA
ATOM      8  H5  UNL d   1      -1.538   2.241   4.645  0.00  0.00     0.418 HD
ENDBRANCH   4   7
TORSDOF 1
ENDMDL
