MODEL 1
REMARK minimizedAffinity 3.79064608
REMARK minimizedRMSD -1
REMARK  1 active torsions:
REMARK  status: ('A' for Active; 'I' for Inactive)
REMARK    1  A    between atoms: C3_4  and  O_7 
ROOT
ATOM      1  C   UNL d   1       5.117   4.848   0.269  0.00  0.00    -0.033 A 
ATOM      2  C1  UNL d   1       5.675   5.987   0.852  0.00  0.00     0.039 A 
ATOM      3  C2  UNL d   1       5.978   6.000   2.215  0.00  0.00    -0.080 A 
ATOM      4  C3  UNL d   1       5.720   4.868   2.982  0.00  0.00     0.150 A 
ATOM      5  C4  UNL d   1       5.167   3.728   2.408  0.00  0.00    -0.007 A 
ATOM      6  C5  UNL d   1       4.865   3.717   1.047  0.00  0.00     0.039 A 
ENDROOT
BRANCH   4   7
ATOM      7  O   UNL d   1       5.994   4.834   4.317  0.00  0.00    -0.526 OA
ATOM      8  H5  UNL d   1       6.344   5.701   4.581  0.00  0.00     0.418 HD
ENDBRANCH   4   7
TORSDOF 1
ENDMDL
