MODEL 1
REMARK minimizedAffinity 6.35297203
REMARK minimizedRMSD -1
REMARK  1 active torsions:
REMARK  status: ('A' for Active; 'I' for Inactive)
REMARK    1  A    between atoms: C3_4  and  O_7 
ROOT
ATOM      1  C   UNL d   1       4.050   5.857   4.375  0.00  0.00    -0.033 A 
ATOM      2  C1  UNL d   1       3.404   5.991   3.145  0.00  0.00     0.039 A 
ATOM      3  C2  UNL d   1       4.044   5.590   1.971  0.00  0.00    -0.080 A 
ATOM      4  C3  UNL d   1       5.328   5.058   2.040  0.00  0.00     0.150 A 
ATOM      5  C4  UNL d   1       5.977   4.918   3.263  0.00  0.00    -0.007 A 
ATOM      6  C5  UNL d   1       5.336   5.319   4.434  0.00  0.00     0.039 A 
ENDROOT
BRANCH   4   7
ATOM      7  O   UNL d   1       5.996   4.658   0.921  0.00  0.00    -0.526 OA
ATOM      8  H5  UNL d   1       5.436   4.840   0.147  0.00  0.00     0.418 HD
ENDBRANCH   4   7
TORSDOF 1
ENDMDL
