MODEL 1
REMARK minimizedAffinity -0.645351052
REMARK minimizedRMSD -1
REMARK  1 active torsions:
REMARK  status: ('A' for Active; 'I' for Inactive)
REMARK    1  A    between atoms: C3_4  and  O_7 
ROOT
ATOM      1  C   UNL d   1       4.905   5.389   1.767  0.00  0.00    -0.033 A 
ATOM      2  C1  UNL d   1       5.980   4.859   2.483  0.00  0.00     0.039 A 
ATOM      3  C2  UNL d   1       5.981   4.901   3.878  0.00  0.00    -0.080 A 
ATOM      4  C3  UNL d   1       4.902   5.473   4.545  0.00  0.00     0.150 A 
ATOM      5  C4  UNL d   1       3.825   6.000   3.839  0.00  0.00    -0.007 A 
ATOM      6  C5  UNL d   1       3.826   5.958   2.446  0.00  0.00     0.039 A 
ENDROOT
BRANCH   4   7
ATOM      7  O   UNL d   1       4.860   5.541   5.906  0.00  0.00    -0.526 OA
ATOM      8  H5  UNL d   1       5.684   5.165   6.259  0.00  0.00     0.418 HD
ENDBRANCH   4   7
TORSDOF 1
ENDMDL
