MODEL 1
REMARK minimizedAffinity -0.984652996
REMARK minimizedRMSD -1
REMARK  1 active torsions:
REMARK  status: ('A' for Active; 'I' for Inactive)
REMARK    1  A    between atoms: C3_4  and  O_7 
ROOT
ATOM      1  C   UNL d   1       3.161  -1.125  -1.338  0.00  0.00    -0.033 A 
ATOM      2  C1  UNL d   1       3.277   0.266  -1.362  0.00  0.00     0.039 A 
ATOM      3  C2  UNL d   1       2.191   1.052  -1.750  0.00  0.00    -0.080 A 
ATOM      4  C3  UNL d   1       0.996   0.436  -2.111  0.00  0.00     0.150 A 
ATOM      5  C4  UNL d   1       0.872  -0.949  -2.086  0.00  0.00    -0.007 A 
ATOM      6  C5  UNL d   1       1.958  -1.733  -1.699  0.00  0.00     0.039 A 
ENDROOT
BRANCH   4   7
ATOM      7  O   UNL d   1      -0.091   1.162  -2.502  0.00  0.00    -0.526 OA
ATOM      8  H5  UNL d   1       0.151   2.103  -2.498  0.00  0.00     0.418 HD
ENDBRANCH   4   7
TORSDOF 1
ENDMDL
