MODEL 1
REMARK minimizedAffinity 1.2930491
REMARK minimizedRMSD -1
REMARK  1 active torsions:
REMARK  status: ('A' for Active; 'I' for Inactive)
REMARK    1  A    between atoms: C3_4  and  O_7 
ROOT
ATOM      1  C   UNL d   1       4.802   5.702   1.116  0.00  0.00    -0.033 A 
ATOM      2  C1  UNL d   1       5.984   5.573   1.848  0.00  0.00     0.039 A 
ATOM      3  C2  UNL d   1       5.958   5.658   3.241  0.00  0.00    -0.080 A 
ATOM      4  C3  UNL d   1       4.745   5.872   3.890  0.00  0.00     0.150 A 
ATOM      5  C4  UNL d   1       3.563   5.998   3.167  0.00  0.00    -0.007 A 
ATOM      6  C5  UNL d   1       3.591   5.913   1.776  0.00  0.00     0.039 A 
ENDROOT
BRANCH   4   7
ATOM      7  O   UNL d   1       4.670   5.967   5.248  0.00  0.00    -0.526 OA
ATOM      8  H5  UNL d   1       5.567   5.890   5.612  0.00  0.00     0.418 HD
ENDBRANCH   4   7
TORSDOF 1
ENDMDL
