MODEL 1
REMARK minimizedAffinity -3.40035295
REMARK minimizedRMSD -1
REMARK  0 active torsions:
REMARK  status: ('A' for Active; 'I' for Inactive)
ROOT
ATOM      1  C   UNL d   1       1.668   2.662  -0.607  0.00  0.00     0.023 A 
ATOM      2  C1  UNL d   1       1.081   1.988   0.464  0.00  0.00     0.003 A 
ATOM      3  C2  UNL d   1       0.802   0.623   0.363  0.00  0.00     0.048 A 
ATOM      4  C3  UNL d   1       1.113  -0.061  -0.811  0.00  0.00     0.023 A 
ATOM      5  C4  UNL d   1       1.701   0.610  -1.885  0.00  0.00     0.048 A 
ATOM      6  C5  UNL d   1       1.977   1.974  -1.780  0.00  0.00     0.003 A 
ATOM      7  I   UNL d   1       0.698  -2.092  -0.964  0.00  0.00    -0.146 I 
ENDROOT
TORSDOF 0
ENDMDL
