MODEL 1
REMARK minimizedAffinity 2.90427589
REMARK minimizedRMSD -1
REMARK  0 active torsions:
REMARK  status: ('A' for Active; 'I' for Inactive)
ROOT
ATOM      1  C   UNL d   1       1.705   1.122  -0.025  0.00  0.00     0.023 A 
ATOM      2  C1  UNL d   1       0.817   1.562  -1.007  0.00  0.00     0.003 A 
ATOM      3  C2  UNL d   1       0.836   0.983  -2.278  0.00  0.00     0.048 A 
ATOM      4  C3  UNL d   1       1.746  -0.035  -2.560  0.00  0.00     0.023 A 
ATOM      5  C4  UNL d   1       2.636  -0.479  -1.580  0.00  0.00     0.048 A 
ATOM      6  C5  UNL d   1       2.613   0.103  -0.312  0.00  0.00     0.003 A 
ATOM      7  I   UNL d   1       1.777  -0.898  -4.450  0.00  0.00    -0.146 I 
ENDROOT
TORSDOF 0
ENDMDL
