MODEL 1
REMARK minimizedAffinity -1.90898037
REMARK minimizedRMSD -1
REMARK  0 active torsions:
REMARK  status: ('A' for Active; 'I' for Inactive)
ROOT
ATOM      1  C   UNL d   1       1.380   3.133  -0.905  0.00  0.00     0.023 A 
ATOM      2  C1  UNL d   1       1.556   2.436  -2.100  0.00  0.00     0.003 A 
ATOM      3  C2  UNL d   1       1.393   1.049  -2.132  0.00  0.00     0.048 A 
ATOM      4  C3  UNL d   1       1.052   0.367  -0.965  0.00  0.00     0.023 A 
ATOM      5  C4  UNL d   1       0.873   1.060   0.233  0.00  0.00     0.048 A 
ATOM      6  C5  UNL d   1       1.039   2.446   0.260  0.00  0.00     0.003 A 
ATOM      7  I   UNL d   1       0.807  -1.697  -1.010  0.00  0.00    -0.146 I 
ENDROOT
TORSDOF 0
ENDMDL
