MODEL 1
REMARK minimizedAffinity -3.02382398
REMARK minimizedRMSD -1
REMARK  0 active torsions:
REMARK  status: ('A' for Active; 'I' for Inactive)
ROOT
ATOM      1  C   UNL d   1       1.241   3.902  -0.013  0.00  0.00     0.023 A 
ATOM      2  C1  UNL d   1       1.223   3.374  -1.304  0.00  0.00     0.003 A 
ATOM      3  C2  UNL d   1       1.216   1.990  -1.493  0.00  0.00     0.048 A 
ATOM      4  C3  UNL d   1       1.227   1.141  -0.387  0.00  0.00     0.023 A 
ATOM      5  C4  UNL d   1       1.244   1.666   0.906  0.00  0.00     0.048 A 
ATOM      6  C5  UNL d   1       1.252   3.049   1.091  0.00  0.00     0.003 A 
ATOM      7  I   UNL d   1       1.217  -0.918  -0.666  0.00  0.00    -0.146 I 
ENDROOT
TORSDOF 0
ENDMDL
