MODEL 1
REMARK minimizedAffinity -1.2932291
REMARK minimizedRMSD -1
REMARK  0 active torsions:
REMARK  status: ('A' for Active; 'I' for Inactive)
ROOT
ATOM      1  C   UNL d   1       0.892   2.813  -0.717  0.00  0.00     0.023 A 
ATOM      2  C1  UNL d   1       0.891   2.277   0.570  0.00  0.00     0.003 A 
ATOM      3  C2  UNL d   1       0.958   0.894   0.752  0.00  0.00     0.048 A 
ATOM      4  C3  UNL d   1       1.027   0.053  -0.359  0.00  0.00     0.023 A 
ATOM      5  C4  UNL d   1       1.029   0.586  -1.649  0.00  0.00     0.048 A 
ATOM      6  C5  UNL d   1       0.961   1.969  -1.826  0.00  0.00     0.003 A 
ATOM      7  I   UNL d   1       1.126  -2.005  -0.091  0.00  0.00    -0.146 I 
ENDROOT
TORSDOF 0
ENDMDL
