MODEL 1
REMARK minimizedAffinity -2.93727803
REMARK minimizedRMSD -1
REMARK  0 active torsions:
REMARK  status: ('A' for Active; 'I' for Inactive)
ROOT
ATOM      1  C   UNL d   1       1.412   0.314  -0.586  0.00  0.00     0.023 A 
ATOM      2  C1  UNL d   1       1.592   0.988   0.623  0.00  0.00     0.003 A 
ATOM      3  C2  UNL d   1       1.710   2.379   0.637  0.00  0.00     0.048 A 
ATOM      4  C3  UNL d   1       1.646   3.091  -0.560  0.00  0.00     0.023 A 
ATOM      5  C4  UNL d   1       1.465   2.421  -1.771  0.00  0.00     0.048 A 
ATOM      6  C5  UNL d   1       1.349   1.030  -1.781  0.00  0.00     0.003 A 
ATOM      7  I   UNL d   1       1.821   5.162  -0.541  0.00  0.00    -0.146 I 
ENDROOT
TORSDOF 0
ENDMDL
