MODEL 1
REMARK minimizedAffinity 3.23651862
REMARK minimizedRMSD -1
REMARK  0 active torsions:
REMARK  status: ('A' for Active; 'I' for Inactive)
ROOT
ATOM      1  C   UNL d   1       1.042  -2.474  -0.074  0.00  0.00     0.023 A 
ATOM      2  C1  UNL d   1       0.373  -2.043  -1.220  0.00  0.00     0.003 A 
ATOM      3  C2  UNL d   1       0.355  -0.686  -1.551  0.00  0.00     0.048 A 
ATOM      4  C3  UNL d   1       1.007   0.234  -0.731  0.00  0.00     0.023 A 
ATOM      5  C4  UNL d   1       1.678  -0.193   0.416  0.00  0.00     0.048 A 
ATOM      6  C5  UNL d   1       1.693  -1.550   0.743  0.00  0.00     0.003 A 
ATOM      7  I   UNL d   1       0.981   2.254  -1.221  0.00  0.00    -0.146 I 
ENDROOT
TORSDOF 0
ENDMDL
