MODEL 1
REMARK minimizedAffinity 2.18179822
REMARK minimizedRMSD -1
REMARK  0 active torsions:
REMARK  status: ('A' for Active; 'I' for Inactive)
ROOT
ATOM      1  C   UNL d   1       1.596   2.854  -1.201  0.00  0.00     0.023 A 
ATOM      2  C1  UNL d   1       0.892   2.653  -0.013  0.00  0.00     0.003 A 
ATOM      3  C2  UNL d   1       0.613   1.356   0.423  0.00  0.00     0.048 A 
ATOM      4  C3  UNL d   1       1.041   0.265  -0.333  0.00  0.00     0.023 A 
ATOM      5  C4  UNL d   1       1.746   0.462  -1.522  0.00  0.00     0.048 A 
ATOM      6  C5  UNL d   1       2.022   1.761  -1.954  0.00  0.00     0.003 A 
ATOM      7  I   UNL d   1       0.627  -1.666   0.314  0.00  0.00    -0.146 I 
ENDROOT
TORSDOF 0
ENDMDL
