MODEL 1
REMARK minimizedAffinity -2.87823606
REMARK minimizedRMSD -1
REMARK  0 active torsions:
REMARK  status: ('A' for Active; 'I' for Inactive)
ROOT
ATOM      1  C   UNL d   1       1.045   0.725  -0.591  0.00  0.00     0.023 A 
ATOM      2  C1  UNL d   1       1.234   1.363  -1.817  0.00  0.00     0.003 A 
ATOM      3  C2  UNL d   1       1.473   2.738  -1.861  0.00  0.00     0.048 A 
ATOM      4  C3  UNL d   1       1.521   3.469  -0.675  0.00  0.00     0.023 A 
ATOM      5  C4  UNL d   1       1.333   2.836   0.554  0.00  0.00     0.048 A 
ATOM      6  C5  UNL d   1       1.094   1.461   0.593  0.00  0.00     0.003 A 
ATOM      7  I   UNL d   1       1.876   5.516  -0.738  0.00  0.00    -0.146 I 
ENDROOT
TORSDOF 0
ENDMDL
