MODEL 1
REMARK minimizedAffinity -0.741510451
REMARK minimizedRMSD -1
REMARK  0 active torsions:
REMARK  status: ('A' for Active; 'I' for Inactive)
ROOT
ATOM      1  C   UNL d   1       0.872   0.748  -0.548  0.00  0.00     0.023 A 
ATOM      2  C1  UNL d   1       1.085   1.248  -1.833  0.00  0.00     0.003 A 
ATOM      3  C2  UNL d   1       1.392   2.597  -2.017  0.00  0.00     0.048 A 
ATOM      4  C3  UNL d   1       1.486   3.442  -0.911  0.00  0.00     0.023 A 
ATOM      5  C4  UNL d   1       1.275   2.946   0.377  0.00  0.00     0.048 A 
ATOM      6  C5  UNL d   1       0.968   1.596   0.555  0.00  0.00     0.003 A 
ATOM      7  I   UNL d   1       1.944   5.451  -1.181  0.00  0.00    -0.146 I 
ENDROOT
TORSDOF 0
ENDMDL
