MODEL 1
REMARK minimizedAffinity -3.60929704
REMARK minimizedRMSD -1
REMARK  0 active torsions:
REMARK  status: ('A' for Active; 'I' for Inactive)
ROOT
ATOM      1  C   UNL d   1       0.482   0.232  -0.613  0.00  0.00     0.023 A 
ATOM      2  C1  UNL d   1       0.301   0.815  -1.867  0.00  0.00     0.003 A 
ATOM      3  C2  UNL d   1       0.723   2.127  -2.096  0.00  0.00     0.048 A 
ATOM      4  C3  UNL d   1       1.326   2.848  -1.066  0.00  0.00     0.023 A 
ATOM      5  C4  UNL d   1       1.511   2.268   0.190  0.00  0.00     0.048 A 
ATOM      6  C5  UNL d   1       1.086   0.957   0.414  0.00  0.00     0.003 A 
ATOM      7  I   UNL d   1       1.955   4.800  -1.404  0.00  0.00    -0.146 I 
ENDROOT
TORSDOF 0
ENDMDL
