MODEL 1
REMARK minimizedAffinity -2.85264373
REMARK minimizedRMSD -1
REMARK  0 active torsions:
REMARK  status: ('A' for Active; 'I' for Inactive)
ROOT
ATOM      1  C   UNL d   1       0.858   0.043  -0.739  0.00  0.00     0.023 A 
ATOM      2  C1  UNL d   1       0.644   0.877   0.359  0.00  0.00     0.003 A 
ATOM      3  C2  UNL d   1       0.866   2.251   0.247  0.00  0.00     0.048 A 
ATOM      4  C3  UNL d   1       1.300   2.785  -0.966  0.00  0.00     0.023 A 
ATOM      5  C4  UNL d   1       1.514   1.955  -2.067  0.00  0.00     0.048 A 
ATOM      6  C5  UNL d   1       1.292   0.581  -1.950  0.00  0.00     0.003 A 
ATOM      7  I   UNL d   1       1.630   4.830  -1.134  0.00  0.00    -0.146 I 
ENDROOT
TORSDOF 0
ENDMDL
