MODEL 1
REMARK minimizedAffinity 1.53065753
REMARK minimizedRMSD -1
REMARK  0 active torsions:
REMARK  status: ('A' for Active; 'I' for Inactive)
ROOT
ATOM      1  C   UNL d   1       0.994   0.752  -0.370  0.00  0.00     0.023 A 
ATOM      2  C1  UNL d   1       1.209   1.580   0.732  0.00  0.00     0.003 A 
ATOM      3  C2  UNL d   1       1.556   2.920   0.544  0.00  0.00     0.048 A 
ATOM      4  C3  UNL d   1       1.686   3.425  -0.749  0.00  0.00     0.023 A 
ATOM      5  C4  UNL d   1       1.472   2.600  -1.855  0.00  0.00     0.048 A 
ATOM      6  C5  UNL d   1       1.126   1.262  -1.662  0.00  0.00     0.003 A 
ATOM      7  I   UNL d   1       2.202   5.418  -1.032  0.00  0.00    -0.146 I 
ENDROOT
TORSDOF 0
ENDMDL
