MODEL 1
REMARK minimizedAffinity -4.77393866
REMARK minimizedRMSD -1
REMARK  0 active torsions:
REMARK  status: ('A' for Active; 'I' for Inactive)
ROOT
ATOM      1  C   UNL d   1      -1.118   1.516   3.082  0.00  0.00     0.078 C 
ATOM      2  C1  UNL d   1      -0.646   0.819   1.841  0.00  0.00    -0.077 A 
ATOM      3  C2  UNL d   1       0.714   0.567   1.627  0.00  0.00    -0.001 A 
ATOM      4  C3  UNL d   1       1.140  -0.075   0.463  0.00  0.00     0.003 A 
ATOM      5  C4  UNL d   1       0.211  -0.469  -0.498  0.00  0.00    -0.005 A 
ATOM      6  C5  UNL d   1      -1.145  -0.220  -0.296  0.00  0.00     0.003 A 
ATOM      7  C6  UNL d   1      -1.573   0.421   0.868  0.00  0.00    -0.001 A 
ENDROOT
TORSDOF 0
ENDMDL
