MODEL 1
REMARK minimizedAffinity -4.47401619
REMARK minimizedRMSD -1
REMARK  0 active torsions:
REMARK  status: ('A' for Active; 'I' for Inactive)
ROOT
ATOM      1  C   UNL d   1       2.250  -1.842   1.066  0.00  0.00     0.020 A 
ATOM      2  C1  UNL d   1       2.611  -1.028  -0.007  0.00  0.00     0.020 A 
ATOM      3  C2  UNL d   1       1.699  -0.101  -0.517  0.00  0.00     0.034 A 
ATOM      4  C3  UNL d   1       0.423   0.014   0.045  0.00  0.00     0.017 A 
ATOM      5  C4  UNL d   1       0.062  -0.803   1.123  0.00  0.00     0.017 A 
ATOM      6  C5  UNL d   1       0.979  -1.730   1.630  0.00  0.00     0.034 A 
ATOM      7 Cl   UNL d   1      -1.494  -0.719   1.870  0.00  0.00    -0.070 Cl
ATOM      8 Cl1  UNL d   1      -0.653   1.182  -0.636  0.00  0.00    -0.070 Cl
ENDROOT
TORSDOF 0
ENDMDL
