MODEL 1
REMARK minimizedAffinity -4.87625694
REMARK minimizedRMSD -1
REMARK  0 active torsions:
REMARK  status: ('A' for Active; 'I' for Inactive)
ROOT
ATOM      1  C   UNL d   1       0.079  -2.919   0.426  0.00  0.00     0.020 A 
ATOM      2  C1  UNL d   1       1.442  -2.938   0.719  0.00  0.00     0.020 A 
ATOM      3  C2  UNL d   1       2.206  -1.780   0.560  0.00  0.00     0.034 A 
ATOM      4  C3  UNL d   1       1.608  -0.598   0.108  0.00  0.00     0.017 A 
ATOM      5  C4  UNL d   1       0.239  -0.581  -0.186  0.00  0.00     0.017 A 
ATOM      6  C5  UNL d   1      -0.521  -1.743  -0.025  0.00  0.00     0.034 A 
ATOM      7 Cl   UNL d   1      -0.570   0.839  -0.748  0.00  0.00    -0.070 Cl
ATOM      8 Cl1  UNL d   1       2.613   0.797  -0.064  0.00  0.00    -0.070 Cl
ENDROOT
TORSDOF 0
ENDMDL
