MODEL 1
REMARK minimizedAffinity -4.02708435
REMARK minimizedRMSD -1
REMARK  0 active torsions:
REMARK  status: ('A' for Active; 'I' for Inactive)
ROOT
ATOM      1  C   UNL d   1       1.107  -1.508  -1.248  0.00  0.00     0.020 A 
ATOM      2  C1  UNL d   1       0.961  -1.836   0.099  0.00  0.00     0.020 A 
ATOM      3  C2  UNL d   1       0.210  -1.012   0.941  0.00  0.00     0.034 A 
ATOM      4  C3  UNL d   1      -0.398   0.143   0.436  0.00  0.00     0.017 A 
ATOM      5  C4  UNL d   1      -0.251   0.471  -0.917  0.00  0.00     0.017 A 
ATOM      6  C5  UNL d   1       0.502  -0.358  -1.755  0.00  0.00     0.034 A 
ATOM      7 Cl   UNL d   1      -0.972   1.879  -1.613  0.00  0.00    -0.070 Cl
ATOM      8 Cl1  UNL d   1      -1.313   1.115   1.533  0.00  0.00    -0.070 Cl
ENDROOT
TORSDOF 0
ENDMDL
