MODEL 1
REMARK minimizedAffinity -3.29992151
REMARK minimizedRMSD -1
REMARK  0 active torsions:
REMARK  status: ('A' for Active; 'I' for Inactive)
ROOT
ATOM      1  C   UNL d   1       0.987   0.584  -1.087  0.00  0.00     0.020 A 
ATOM      2  C1  UNL d   1      -0.020  -0.380  -1.061  0.00  0.00     0.020 A 
ATOM      3  C2  UNL d   1       0.097  -1.488  -0.220  0.00  0.00     0.034 A 
ATOM      4  C3  UNL d   1       1.222  -1.635   0.600  0.00  0.00     0.017 A 
ATOM      5  C4  UNL d   1       2.232  -0.666   0.573  0.00  0.00     0.017 A 
ATOM      6  C5  UNL d   1       2.110   0.442  -0.271  0.00  0.00     0.034 A 
ATOM      7 Cl   UNL d   1       3.649  -0.778   1.556  0.00  0.00    -0.070 Cl
ATOM      8 Cl1  UNL d   1       1.300  -3.030   1.616  0.00  0.00    -0.070 Cl
ENDROOT
TORSDOF 0
ENDMDL
