MODEL 1
REMARK minimizedAffinity -3.4725368
REMARK minimizedRMSD -1
REMARK  0 active torsions:
REMARK  status: ('A' for Active; 'I' for Inactive)
ROOT
ATOM      1  C   UNL d   1      -0.012   1.202   0.021  0.00  0.00     0.020 A 
ATOM      2  C1  UNL d   1      -0.849   0.251   0.602  0.00  0.00     0.020 A 
ATOM      3  C2  UNL d   1      -0.360  -1.024   0.895  0.00  0.00     0.034 A 
ATOM      4  C3  UNL d   1       0.970  -1.351   0.605  0.00  0.00     0.017 A 
ATOM      5  C4  UNL d   1       1.809  -0.396   0.021  0.00  0.00     0.017 A 
ATOM      6  C5  UNL d   1       1.315   0.879  -0.269  0.00  0.00     0.034 A 
ATOM      7 Cl   UNL d   1       3.462  -0.726  -0.365  0.00  0.00    -0.070 Cl
ATOM      8 Cl1  UNL d   1       1.507  -2.947   0.994  0.00  0.00    -0.070 Cl
ENDROOT
TORSDOF 0
ENDMDL
