MODEL 1
REMARK minimizedAffinity -3.50076556
REMARK minimizedRMSD -1
REMARK  0 active torsions:
REMARK  status: ('A' for Active; 'I' for Inactive)
ROOT
ATOM      1  C   UNL d   1       2.539  -0.676  -0.450  0.00  0.00     0.020 A 
ATOM      2  C1  UNL d   1       2.386  -1.161   0.848  0.00  0.00     0.020 A 
ATOM      3  C2  UNL d   1       1.169  -1.003   1.514  0.00  0.00     0.034 A 
ATOM      4  C3  UNL d   1       0.099  -0.359   0.882  0.00  0.00     0.017 A 
ATOM      5  C4  UNL d   1       0.253   0.128  -0.421  0.00  0.00     0.017 A 
ATOM      6  C5  UNL d   1       1.474  -0.033  -1.083  0.00  0.00     0.034 A 
ATOM      7 Cl   UNL d   1      -1.021   0.933  -1.266  0.00  0.00    -0.070 Cl
ATOM      8 Cl1  UNL d   1      -1.377  -0.199   1.765  0.00  0.00    -0.070 Cl
ENDROOT
TORSDOF 0
ENDMDL
