MODEL 1
REMARK minimizedAffinity -1.85042834
REMARK minimizedRMSD -1
REMARK  0 active torsions:
REMARK  status: ('A' for Active; 'I' for Inactive)
ROOT
ATOM      1  C   UNL d   1       1.971  -1.620   1.004  0.00  0.00     0.020 A 
ATOM      2  C1  UNL d   1       2.254  -1.496  -0.355  0.00  0.00     0.020 A 
ATOM      3  C2  UNL d   1       1.501  -0.629  -1.149  0.00  0.00     0.034 A 
ATOM      4  C3  UNL d   1       0.460   0.117  -0.585  0.00  0.00     0.017 A 
ATOM      5  C4  UNL d   1       0.176  -0.008   0.780  0.00  0.00     0.017 A 
ATOM      6  C5  UNL d   1       0.933  -0.878   1.570  0.00  0.00     0.034 A 
ATOM      7 Cl   UNL d   1      -1.093   0.879   1.548  0.00  0.00    -0.070 Cl
ATOM      8 Cl1  UNL d   1      -0.431   1.170  -1.626  0.00  0.00    -0.070 Cl
ENDROOT
TORSDOF 0
ENDMDL
