MODEL 1
REMARK minimizedAffinity -2.00924706
REMARK minimizedRMSD -1
REMARK  0 active torsions:
REMARK  status: ('A' for Active; 'I' for Inactive)
ROOT
ATOM      1  C   UNL d   1       0.940  -1.251   0.961  0.00  0.00     0.020 A 
ATOM      2  C1  UNL d   1       1.315  -0.870  -0.327  0.00  0.00     0.020 A 
ATOM      3  C2  UNL d   1       0.631   0.159  -0.978  0.00  0.00     0.034 A 
ATOM      4  C3  UNL d   1      -0.432   0.810  -0.342  0.00  0.00     0.017 A 
ATOM      5  C4  UNL d   1      -0.808   0.427   0.951  0.00  0.00     0.017 A 
ATOM      6  C5  UNL d   1      -0.119  -0.604   1.598  0.00  0.00     0.034 A 
ATOM      7 Cl   UNL d   1      -2.109   1.184   1.801  0.00  0.00    -0.070 Cl
ATOM      8 Cl1  UNL d   1      -1.233   2.074  -1.206  0.00  0.00    -0.070 Cl
ENDROOT
TORSDOF 0
ENDMDL
