MODEL 1
REMARK minimizedAffinity -4.22771168
REMARK minimizedRMSD -1
REMARK  0 active torsions:
REMARK  status: ('A' for Active; 'I' for Inactive)
ROOT
ATOM      1  C   UNL d   1      -0.443  -0.130  -0.259  0.00  0.00     0.020 A 
ATOM      2  C1  UNL d   1       0.595   0.756  -0.544  0.00  0.00     0.020 A 
ATOM      3  C2  UNL d   1       1.901   0.449  -0.156  0.00  0.00     0.034 A 
ATOM      4  C3  UNL d   1       2.172  -0.747   0.519  0.00  0.00     0.017 A 
ATOM      5  C4  UNL d   1       1.129  -1.635   0.805  0.00  0.00     0.017 A 
ATOM      6  C5  UNL d   1      -0.177  -1.323   0.414  0.00  0.00     0.034 A 
ATOM      7 Cl   UNL d   1       1.386  -3.129   1.634  0.00  0.00    -0.070 Cl
ATOM      8 Cl1  UNL d   1       3.810  -1.062   0.968  0.00  0.00    -0.070 Cl
ENDROOT
TORSDOF 0
ENDMDL
