MODEL 1
REMARK minimizedAffinity -1.48112035
REMARK minimizedRMSD -1
REMARK  0 active torsions:
REMARK  status: ('A' for Active; 'I' for Inactive)
ROOT
ATOM      1  C   UNL d   1       2.519   0.035   0.055  0.00  0.00     0.020 A 
ATOM      2  C1  UNL d   1       2.323  -1.334   0.231  0.00  0.00     0.020 A 
ATOM      3  C2  UNL d   1       1.049  -1.883   0.076  0.00  0.00     0.034 A 
ATOM      4  C3  UNL d   1      -0.035  -1.063  -0.257  0.00  0.00     0.017 A 
ATOM      5  C4  UNL d   1       0.162   0.311  -0.435  0.00  0.00     0.017 A 
ATOM      6  C5  UNL d   1       1.440   0.856  -0.278  0.00  0.00     0.034 A 
ATOM      7 Cl   UNL d   1      -1.127   1.387  -0.846  0.00  0.00    -0.070 Cl
ATOM      8 Cl1  UNL d   1      -1.583  -1.810  -0.434  0.00  0.00    -0.070 Cl
ENDROOT
TORSDOF 0
ENDMDL
