MODEL 1
REMARK minimizedAffinity -1.13886154
REMARK minimizedRMSD -1
REMARK  0 active torsions:
REMARK  status: ('A' for Active; 'I' for Inactive)
ROOT
ATOM      1  C   UNL d   1       2.868  -0.433  -0.538  0.00  0.00     0.020 A 
ATOM      2  C1  UNL d   1       2.801  -1.193   0.629  0.00  0.00     0.020 A 
ATOM      3  C2  UNL d   1       1.618  -1.231   1.370  0.00  0.00     0.034 A 
ATOM      4  C3  UNL d   1       0.498  -0.507   0.946  0.00  0.00     0.017 A 
ATOM      5  C4  UNL d   1       0.566   0.256  -0.225  0.00  0.00     0.017 A 
ATOM      6  C5  UNL d   1       1.753   0.291  -0.964  0.00  0.00     0.034 A 
ATOM      7 Cl   UNL d   1      -0.774   1.176  -0.812  0.00  0.00    -0.070 Cl
ATOM      8 Cl1  UNL d   1      -0.932  -0.599   1.912  0.00  0.00    -0.070 Cl
ENDROOT
TORSDOF 0
ENDMDL
