MODEL 1
REMARK minimizedAffinity -1.86515391
REMARK minimizedRMSD -1
REMARK  0 active torsions:
REMARK  status: ('A' for Active; 'I' for Inactive)
ROOT
ATOM      1  C   UNL d   1       0.614  -0.798  -2.197  0.00  0.00     0.020 A 
ATOM      2  C1  UNL d   1       0.853  -0.884  -0.826  0.00  0.00     0.020 A 
ATOM      3  C2  UNL d   1       0.148  -0.064   0.058  0.00  0.00     0.034 A 
ATOM      4  C3  UNL d   1      -0.799   0.845  -0.428  0.00  0.00     0.017 A 
ATOM      5  C4  UNL d   1      -1.038   0.930  -1.804  0.00  0.00     0.017 A 
ATOM      6  C5  UNL d   1      -0.329   0.106  -2.685  0.00  0.00     0.034 A 
ATOM      7 Cl   UNL d   1      -2.191   2.026  -2.479  0.00  0.00    -0.070 Cl
ATOM      8 Cl1  UNL d   1      -1.633   1.827   0.722  0.00  0.00    -0.070 Cl
ENDROOT
TORSDOF 0
ENDMDL
