MODEL 1
REMARK minimizedAffinity -1.10852933
REMARK minimizedRMSD -1
REMARK  0 active torsions:
REMARK  status: ('A' for Active; 'I' for Inactive)
ROOT
ATOM      1  C   UNL d   1       0.655  -0.302  -0.924  0.00  0.00     0.020 A 
ATOM      2  C1  UNL d   1       1.658   0.665  -0.877  0.00  0.00     0.020 A 
ATOM      3  C2  UNL d   1       2.743   0.505  -0.011  0.00  0.00     0.034 A 
ATOM      4  C3  UNL d   1       2.826  -0.625   0.810  0.00  0.00     0.017 A 
ATOM      5  C4  UNL d   1       1.819  -1.596   0.762  0.00  0.00     0.017 A 
ATOM      6  C5  UNL d   1       0.736  -1.430  -0.106  0.00  0.00     0.034 A 
ATOM      7 Cl   UNL d   1       1.854  -3.017   1.745  0.00  0.00    -0.070 Cl
ATOM      8 Cl1  UNL d   1       4.195  -0.758   1.856  0.00  0.00    -0.070 Cl
ENDROOT
TORSDOF 0
ENDMDL
