MODEL 1
REMARK minimizedAffinity -1.65833247
REMARK minimizedRMSD -1
REMARK  0 active torsions:
REMARK  status: ('A' for Active; 'I' for Inactive)
ROOT
ATOM      1  C   UNL d   1       1.010  -2.049  -0.958  0.00  0.00     0.020 A 
ATOM      2  C1  UNL d   1       1.432  -2.897   0.065  0.00  0.00     0.020 A 
ATOM      3  C2  UNL d   1       2.222  -2.399   1.103  0.00  0.00     0.034 A 
ATOM      4  C3  UNL d   1       2.592  -1.050   1.121  0.00  0.00     0.017 A 
ATOM      5  C4  UNL d   1       2.168  -0.199   0.094  0.00  0.00     0.017 A 
ATOM      6  C5  UNL d   1       1.377  -0.702  -0.943  0.00  0.00     0.034 A 
ATOM      7 Cl   UNL d   1       2.584   1.478   0.048  0.00  0.00    -0.070 Cl
ATOM      8 Cl1  UNL d   1       3.569  -0.502   2.437  0.00  0.00    -0.070 Cl
ENDROOT
TORSDOF 0
ENDMDL
