MODEL 1
REMARK minimizedAffinity 1.00230098
REMARK minimizedRMSD -1
REMARK  1 active torsions:
REMARK  status: ('A' for Active; 'I' for Inactive)
REMARK    1  A    between atoms: C1_2  and  C2_3 
ROOT
ATOM      1  C2  UNL d   1       1.018  -0.761  -0.736  0.00  0.00    -0.077 A 
ATOM      2  C3  UNL d   1       0.834  -2.068  -1.210  0.00  0.00     0.002 A 
ATOM      3  C4  UNL d   1      -0.394  -2.458  -1.747  0.00  0.00     0.002 A 
ATOM      4  C5  UNL d   1      -1.446  -1.547  -1.819  0.00  0.00    -0.004 A 
ATOM      5  C6  UNL d   1      -1.273  -0.246  -1.349  0.00  0.00     0.002 A 
ATOM      6  C7  UNL d   1      -0.047   0.145  -0.810  0.00  0.00     0.002 A 
ENDROOT
BRANCH   1   7
ATOM      7  C1  UNL d   1       2.357  -0.325  -0.202  0.00  0.00     0.055 C 
ATOM      8  C   UNL d   1       2.681  -1.017   1.114  0.00  0.00     0.019 C 
ENDBRANCH   1   7
TORSDOF 1
ENDMDL
