MODEL 1
REMARK minimizedAffinity -0.930017471
REMARK minimizedRMSD -1
REMARK  1 active torsions:
REMARK  status: ('A' for Active; 'I' for Inactive)
REMARK    1  A    between atoms: C1_2  and  C2_3 
ROOT
ATOM      1  C2  UNL d   1       1.529  -4.734   5.957  0.00  0.00    -0.077 A 
ATOM      2  C3  UNL d   1       2.153  -3.478   5.980  0.00  0.00     0.002 A 
ATOM      3  C4  UNL d   1       1.388  -2.310   6.000  0.00  0.00     0.002 A 
ATOM      4  C5  UNL d   1      -0.003  -2.387   6.000  0.00  0.00    -0.004 A 
ATOM      5  C6  UNL d   1      -0.633  -3.630   5.974  0.00  0.00     0.002 A 
ATOM      6  C7  UNL d   1       0.130  -4.799   5.953  0.00  0.00     0.002 A 
ENDROOT
BRANCH   1   7
ATOM      7  C1  UNL d   1       2.352  -5.995   5.986  0.00  0.00     0.055 C 
ATOM      8  C   UNL d   1       3.407  -5.994   4.889  0.00  0.00     0.019 C 
ENDBRANCH   1   7
TORSDOF 1
ENDMDL
