MODEL 1
REMARK minimizedAffinity 6.77968836
REMARK minimizedRMSD -1
REMARK  1 active torsions:
REMARK  status: ('A' for Active; 'I' for Inactive)
REMARK    1  A    between atoms: C1_2  and  C2_3 
ROOT
ATOM      1  C2  UNL d   1       1.194   0.713   1.251  0.00  0.00    -0.077 A 
ATOM      2  C3  UNL d   1       0.417   1.014   0.124  0.00  0.00     0.002 A 
ATOM      3  C4  UNL d   1       0.344   0.116  -0.943  0.00  0.00     0.002 A 
ATOM      4  C5  UNL d   1       1.041  -1.089  -0.891  0.00  0.00    -0.004 A 
ATOM      5  C6  UNL d   1       1.818  -1.397   0.225  0.00  0.00     0.002 A 
ATOM      6  C7  UNL d   1       1.894  -0.500   1.292  0.00  0.00     0.002 A 
ENDROOT
BRANCH   1   7
ATOM      7  C1  UNL d   1       1.236   1.658   2.424  0.00  0.00     0.055 C 
ATOM      8  C   UNL d   1       0.895   3.080   2.001  0.00  0.00     0.019 C 
ENDBRANCH   1   7
TORSDOF 1
ENDMDL
