MODEL 1
REMARK minimizedAffinity -0.246212974
REMARK minimizedRMSD -1
REMARK  1 active torsions:
REMARK  status: ('A' for Active; 'I' for Inactive)
REMARK    1  A    between atoms: C1_2  and  C2_3 
ROOT
ATOM      1  C2  UNL d   1      -5.220   0.327   0.786  0.00  0.00    -0.077 A 
ATOM      2  C3  UNL d   1      -5.998   1.064   1.690  0.00  0.00     0.002 A 
ATOM      3  C4  UNL d   1      -5.459   2.172   2.346  0.00  0.00     0.002 A 
ATOM      4  C5  UNL d   1      -4.141   2.555   2.103  0.00  0.00    -0.004 A 
ATOM      5  C6  UNL d   1      -3.358   1.827   1.208  0.00  0.00     0.002 A 
ATOM      6  C7  UNL d   1      -3.896   0.718   0.552  0.00  0.00     0.002 A 
ENDROOT
BRANCH   1   7
ATOM      7  C1  UNL d   1      -5.815  -0.839   0.040  0.00  0.00     0.055 C 
ATOM      8  C   UNL d   1      -5.979  -0.523  -1.440  0.00  0.00     0.019 C 
ENDBRANCH   1   7
TORSDOF 1
ENDMDL
