MODEL 1
REMARK minimizedAffinity 1.98670542
REMARK minimizedRMSD -1
REMARK  1 active torsions:
REMARK  status: ('A' for Active; 'I' for Inactive)
REMARK    1  A    between atoms: C1_2  and  C2_3 
ROOT
ATOM      1  C2  UNL d   1       0.398  -2.644   6.000  0.00  0.00    -0.077 A 
ATOM      2  C3  UNL d   1       1.048  -3.886   5.999  0.00  0.00     0.002 A 
ATOM      3  C4  UNL d   1       0.308  -5.070   6.000  0.00  0.00     0.002 A 
ATOM      4  C5  UNL d   1      -1.084  -5.024   5.996  0.00  0.00    -0.004 A 
ATOM      5  C6  UNL d   1      -1.740  -3.793   5.998  0.00  0.00     0.002 A 
ATOM      6  C7  UNL d   1      -1.002  -2.608   5.999  0.00  0.00     0.002 A 
ENDROOT
BRANCH   1   7
ATOM      7  C1  UNL d   1       1.194  -1.366   5.949  0.00  0.00     0.055 C 
ATOM      8  C   UNL d   1       1.027  -0.662   4.610  0.00  0.00     0.019 C 
ENDBRANCH   1   7
TORSDOF 1
ENDMDL
