MODEL 1
REMARK minimizedAffinity -1.12853634
REMARK minimizedRMSD -1
REMARK  1 active torsions:
REMARK  status: ('A' for Active; 'I' for Inactive)
REMARK    1  A    between atoms: C1_2  and  C2_3 
ROOT
ATOM      1  C2  UNL d   1       1.305  -3.769   5.999  0.00  0.00    -0.077 A 
ATOM      2  C3  UNL d   1       0.182  -4.607   6.000  0.00  0.00     0.002 A 
ATOM      3  C4  UNL d   1      -1.104  -4.064   5.997  0.00  0.00     0.002 A 
ATOM      4  C5  UNL d   1      -1.279  -2.682   5.989  0.00  0.00    -0.004 A 
ATOM      5  C6  UNL d   1      -0.168  -1.840   5.990  0.00  0.00     0.002 A 
ATOM      6  C7  UNL d   1       1.118  -2.380   5.994  0.00  0.00     0.002 A 
ENDROOT
BRANCH   1   7
ATOM      7  C1  UNL d   1       2.693  -4.352   5.952  0.00  0.00     0.055 C 
ATOM      8  C   UNL d   1       2.654  -5.873   5.911  0.00  0.00     0.019 C 
ENDBRANCH   1   7
TORSDOF 1
ENDMDL
