MODEL 1
REMARK minimizedAffinity -4.81549597
REMARK minimizedRMSD -1
REMARK  3 active torsions:
REMARK  status: ('A' for Active; 'I' for Inactive)
REMARK    1  A    between atoms: C3'_2  and  C2'_3 
REMARK    2  A    between atoms: C2'_3  and  C1'_4 
REMARK    3  A    between atoms: C1'_4  and  C1_5 
ROOT
ATOM      1  C1  N4B d   1       0.309  -0.410   0.039  0.00  0.00    -0.075 A 
ATOM      2  C2  N4B d   1      -0.803  -0.236   0.891  0.00  0.00     0.002 A 
ATOM      3  C3  N4B d   1      -0.675  -0.454   2.241  0.00  0.00     0.002 A 
ATOM      4  C4  N4B d   1       0.546  -0.864   2.756  0.00  0.00    -0.004 A 
ATOM      5  C5  N4B d   1       1.622  -1.006   1.930  0.00  0.00     0.002 A 
ATOM      6  C6  N4B d   1       1.508  -0.786   0.572  0.00  0.00     0.002 A 
ENDROOT
BRANCH   1   7
ATOM      7  C1' N4B d   1       0.196  -0.267  -1.454  0.00  0.00     0.057 C 
BRANCH   7   8
ATOM      8  C2' N4B d   1      -1.008   0.611  -1.783  0.00  0.00     0.009 C 
BRANCH   8   9
ATOM      9  C3' N4B d   1      -0.605   1.875  -2.522  0.00  0.00     0.004 C 
ATOM     10  C4' N4B d   1      -1.708   2.889  -2.583  0.00  0.00     0.003 C 
ENDBRANCH   8   9
ENDBRANCH   7   8
ENDBRANCH   1   7
TORSDOF 3
ENDMDL
