MODEL 1
REMARK minimizedAffinity -4.19790125
REMARK minimizedRMSD -1
REMARK  3 active torsions:
REMARK  status: ('A' for Active; 'I' for Inactive)
REMARK    1  A    between atoms: C3'_2  and  C2'_3 
REMARK    2  A    between atoms: C2'_3  and  C1'_4 
REMARK    3  A    between atoms: C1'_4  and  C1_5 
ROOT
ATOM      1  C1  N4B d   1      -0.775   1.468  -1.857  0.00  0.00    -0.075 A 
ATOM      2  C2  N4B d   1      -2.059   1.949  -2.193  0.00  0.00     0.002 A 
ATOM      3  C3  N4B d   1      -2.227   3.263  -2.554  0.00  0.00     0.002 A 
ATOM      4  C4  N4B d   1      -1.133   4.115  -2.569  0.00  0.00    -0.004 A 
ATOM      5  C5  N4B d   1       0.108   3.637  -2.269  0.00  0.00     0.002 A 
ATOM      6  C6  N4B d   1       0.292   2.317  -1.908  0.00  0.00     0.002 A 
ENDROOT
BRANCH   1   7
ATOM      7  C1' N4B d   1      -0.555   0.060  -1.373  0.00  0.00     0.057 C 
BRANCH   7   8
ATOM      8  C2' N4B d   1       0.098   0.101   0.005  0.00  0.00     0.009 C 
BRANCH   8   9
ATOM      9  C3' N4B d   1      -0.748  -0.596   1.056  0.00  0.00     0.004 C 
ATOM     10  C4' N4B d   1      -0.050  -0.716   2.378  0.00  0.00     0.003 C 
ENDBRANCH   8   9
ENDBRANCH   7   8
ENDBRANCH   1   7
TORSDOF 3
ENDMDL
