MODEL 1
REMARK minimizedAffinity 0.519387305
REMARK minimizedRMSD -1
REMARK  3 active torsions:
REMARK  status: ('A' for Active; 'I' for Inactive)
REMARK    1  A    between atoms: C3'_2  and  C2'_3 
REMARK    2  A    between atoms: C2'_3  and  C1'_4 
REMARK    3  A    between atoms: C1'_4  and  C1_5 
ROOT
ATOM      1  C1  N4B d   1      -1.522  -0.144   2.463  0.00  0.00    -0.075 A 
ATOM      2  C2  N4B d   1      -2.652   0.617   2.838  0.00  0.00     0.002 A 
ATOM      3  C3  N4B d   1      -3.633   0.889   1.916  0.00  0.00     0.002 A 
ATOM      4  C4  N4B d   1      -3.498   0.430   0.615  0.00  0.00    -0.004 A 
ATOM      5  C5  N4B d   1      -2.416  -0.325   0.267  0.00  0.00     0.002 A 
ATOM      6  C6  N4B d   1      -1.424  -0.610   1.184  0.00  0.00     0.002 A 
ENDROOT
BRANCH   1   7
ATOM      7  C1' N4B d   1      -0.383  -0.394   3.413  0.00  0.00     0.057 C 
BRANCH   7   8
ATOM      8  C2' N4B d   1       0.549  -1.441   2.811  0.00  0.00     0.009 C 
BRANCH   8   9
ATOM      9  C3' N4B d   1       2.011  -1.108   3.055  0.00  0.00     0.004 C 
ATOM     10  C4' N4B d   1       2.807  -1.020   1.787  0.00  0.00     0.003 C 
ENDBRANCH   8   9
ENDBRANCH   7   8
ENDBRANCH   1   7
TORSDOF 3
ENDMDL
