MODEL 1
REMARK minimizedAffinity 6.95525646
REMARK minimizedRMSD -1
REMARK  0 active torsions:
REMARK  status: ('A' for Active; 'I' for Inactive)
ROOT
ATOM      1  C   UNL d   1       4.158   0.734  -0.714  0.00  0.00     0.078 C 
ATOM      2  C1  UNL d   1       3.449  -0.572  -0.914  0.00  0.00    -0.077 A 
ATOM      3  C2  UNL d   1       3.577  -1.287  -2.112  0.00  0.00    -0.001 A 
ATOM      4  C3  UNL d   1       2.903  -2.496  -2.288  0.00  0.00     0.003 A 
ATOM      5  C4  UNL d   1       2.095  -3.001  -1.272  0.00  0.00    -0.005 A 
ATOM      6  C5  UNL d   1       1.958  -2.296  -0.078  0.00  0.00     0.003 A 
ATOM      7  C6  UNL d   1       2.632  -1.086   0.100  0.00  0.00    -0.001 A 
ENDROOT
TORSDOF 0
ENDMDL
