MODEL 1
REMARK minimizedAffinity 0.467459232
REMARK minimizedRMSD -1
REMARK  0 active torsions:
REMARK  status: ('A' for Active; 'I' for Inactive)
ROOT
ATOM      1  C   UNL d   1       5.449   2.574  -0.148  0.00  0.00     0.078 C 
ATOM      2  C1  UNL d   1       4.369   1.534  -0.121  0.00  0.00    -0.077 A 
ATOM      3  C2  UNL d   1       4.581   0.260  -0.661  0.00  0.00    -0.001 A 
ATOM      4  C3  UNL d   1       3.564  -0.695  -0.637  0.00  0.00     0.003 A 
ATOM      5  C4  UNL d   1       2.327  -0.386  -0.076  0.00  0.00    -0.005 A 
ATOM      6  C5  UNL d   1       2.105   0.880   0.462  0.00  0.00     0.003 A 
ATOM      7  C6  UNL d   1       3.121   1.837   0.439  0.00  0.00    -0.001 A 
ENDROOT
TORSDOF 0
ENDMDL
