MODEL 1
REMARK minimizedAffinity 4.63877487
REMARK minimizedRMSD -1
REMARK  0 active torsions:
REMARK  status: ('A' for Active; 'I' for Inactive)
ROOT
ATOM      1  C   UNL d   1       3.947   0.530  -0.330  0.00  0.00     0.078 C 
ATOM      2  C1  UNL d   1       3.229  -0.736  -0.689  0.00  0.00    -0.077 A 
ATOM      3  C2  UNL d   1       3.233  -1.220  -2.003  0.00  0.00    -0.001 A 
ATOM      4  C3  UNL d   1       2.552  -2.395  -2.325  0.00  0.00     0.003 A 
ATOM      5  C4  UNL d   1       1.861  -3.096  -1.338  0.00  0.00    -0.005 A 
ATOM      6  C5  UNL d   1       1.849  -2.621  -0.028  0.00  0.00     0.003 A 
ATOM      7  C6  UNL d   1       2.530  -1.446   0.295  0.00  0.00    -0.001 A 
ENDROOT
TORSDOF 0
ENDMDL
