MODEL 1
REMARK minimizedAffinity -0.666623175
REMARK minimizedRMSD -1
REMARK  0 active torsions:
REMARK  status: ('A' for Active; 'I' for Inactive)
ROOT
ATOM      1  C   UNL d   1       3.245   1.471  -0.031  0.00  0.00     0.078 C 
ATOM      2  C1  UNL d   1       1.910   1.484   0.651  0.00  0.00    -0.077 A 
ATOM      3  C2  UNL d   1       1.814   1.548   2.046  0.00  0.00    -0.001 A 
ATOM      4  C3  UNL d   1       0.564   1.550   2.668  0.00  0.00     0.003 A 
ATOM      5  C4  UNL d   1      -0.598   1.485   1.903  0.00  0.00    -0.005 A 
ATOM      6  C5  UNL d   1      -0.513   1.418   0.514  0.00  0.00     0.003 A 
ATOM      7  C6  UNL d   1       0.736   1.417  -0.110  0.00  0.00    -0.001 A 
ENDROOT
TORSDOF 0
ENDMDL
