MODEL 1
REMARK minimizedAffinity 5.06491852
REMARK minimizedRMSD -1
REMARK  0 active torsions:
REMARK  status: ('A' for Active; 'I' for Inactive)
ROOT
ATOM      1  C   UNL d   1       2.285  -2.012  -0.060  0.00  0.00     0.078 C 
ATOM      2  C1  UNL d   1       3.294  -0.903  -0.086  0.00  0.00    -0.077 A 
ATOM      3  C2  UNL d   1       3.111   0.219  -0.904  0.00  0.00    -0.001 A 
ATOM      4  C3  UNL d   1       4.063   1.239  -0.926  0.00  0.00     0.003 A 
ATOM      5  C4  UNL d   1       5.205   1.148  -0.132  0.00  0.00    -0.005 A 
ATOM      6  C5  UNL d   1       5.396   0.034   0.683  0.00  0.00     0.003 A 
ATOM      7  C6  UNL d   1       4.445  -0.987   0.706  0.00  0.00    -0.001 A 
ENDROOT
TORSDOF 0
ENDMDL
