MODEL 1
REMARK minimizedAffinity 0.626495659
REMARK minimizedRMSD -1
REMARK  0 active torsions:
REMARK  status: ('A' for Active; 'I' for Inactive)
ROOT
ATOM      1  C   UNL d   1       2.246  -2.010   0.938  0.00  0.00     0.078 C 
ATOM      2  C1  UNL d   1       3.020  -1.303  -0.134  0.00  0.00    -0.077 A 
ATOM      3  C2  UNL d   1       3.659  -0.084   0.122  0.00  0.00    -0.001 A 
ATOM      4  C3  UNL d   1       4.368   0.568  -0.889  0.00  0.00     0.003 A 
ATOM      5  C4  UNL d   1       4.444   0.008  -2.163  0.00  0.00    -0.005 A 
ATOM      6  C5  UNL d   1       3.810  -1.204  -2.427  0.00  0.00     0.003 A 
ATOM      7  C6  UNL d   1       3.101  -1.857  -1.418  0.00  0.00    -0.001 A 
ENDROOT
TORSDOF 0
ENDMDL
