MODEL 1
REMARK minimizedAffinity 5.77941036
REMARK minimizedRMSD -1
REMARK  0 active torsions:
REMARK  status: ('A' for Active; 'I' for Inactive)
ROOT
ATOM      1  C   UNL d   1      -5.999   0.693  -1.072  0.00  0.00     0.078 C 
ATOM      2  C1  UNL d   1      -5.903   1.872  -1.994  0.00  0.00    -0.077 A 
ATOM      3  C2  UNL d   1      -5.999   1.713  -3.381  0.00  0.00    -0.001 A 
ATOM      4  C3  UNL d   1      -5.898   2.818  -4.228  0.00  0.00     0.003 A 
ATOM      5  C4  UNL d   1      -5.699   4.090  -3.696  0.00  0.00    -0.005 A 
ATOM      6  C5  UNL d   1      -5.601   4.259  -2.317  0.00  0.00     0.003 A 
ATOM      7  C6  UNL d   1      -5.701   3.155  -1.469  0.00  0.00    -0.001 A 
ENDROOT
TORSDOF 0
ENDMDL
