MODEL 1
REMARK minimizedAffinity 6.41373873
REMARK minimizedRMSD -1
REMARK  2 active torsions:
REMARK  status: ('A' for Active; 'I' for Inactive)
REMARK    1  A    between atoms: C2'_3  and  C1'_4 
REMARK    2  A    between atoms: C1'_4  and  C1_5 
ROOT
ATOM      1  C1  I4B d   1      -5.063  -3.555  -5.612  0.00  0.00    -0.075 A 
ATOM      2  C2  I4B d   1      -3.724  -3.314  -5.795  0.00  0.00     0.003 A 
ATOM      3  C3  I4B d   1      -2.827  -4.391  -6.000  0.00  0.00     0.002 A 
ATOM      4  C4  I4B d   1      -3.301  -5.686  -5.964  0.00  0.00    -0.004 A 
ATOM      5  C5  I4B d   1      -4.662  -5.928  -5.802  0.00  0.00     0.002 A 
ATOM      6  C6  I4B d   1      -5.551  -4.855  -5.637  0.00  0.00     0.003 A 
ENDROOT
BRANCH   1   7
ATOM      7  C1' I4B d   1      -5.977  -2.397  -5.366  0.00  0.00     0.060 C 
BRANCH   7   8
ATOM      8  C2' I4B d   1      -5.750  -1.917  -3.947  0.00  0.00    -0.013 C 
ATOM      9  C4' I4B d   1      -5.492  -3.072  -3.015  0.00  0.00     0.013 C 
ATOM     10  C3' I4B d   1      -4.592  -0.963  -3.961  0.00  0.00     0.013 C 
ENDBRANCH   7   8
ENDBRANCH   1   7
TORSDOF 2
ENDMDL
