MODEL 1
REMARK minimizedAffinity 21.4990635
REMARK minimizedRMSD -1
REMARK  2 active torsions:
REMARK  status: ('A' for Active; 'I' for Inactive)
REMARK    1  A    between atoms: C2'_3  and  C1'_4 
REMARK    2  A    between atoms: C1'_4  and  C1_5 
ROOT
ATOM      1  C1  I4B d   1      -1.013   1.339   1.837  0.00  0.00    -0.075 A 
ATOM      2  C2  I4B d   1      -0.710   0.208   2.553  0.00  0.00     0.003 A 
ATOM      3  C3  I4B d   1      -1.358  -1.016   2.260  0.00  0.00     0.002 A 
ATOM      4  C4  I4B d   1      -2.333  -1.053   1.283  0.00  0.00    -0.004 A 
ATOM      5  C5  I4B d   1      -2.622   0.090   0.543  0.00  0.00     0.002 A 
ATOM      6  C6  I4B d   1      -1.950   1.291   0.813  0.00  0.00     0.003 A 
ENDROOT
BRANCH   1   7
ATOM      7  C1' I4B d   1      -0.333   2.622   2.195  0.00  0.00     0.060 C 
BRANCH   7   8
ATOM      8  C2' I4B d   1       1.025   2.285   2.774  0.00  0.00    -0.013 C 
ATOM      9  C4' I4B d   1       2.112   3.106   2.131  0.00  0.00     0.013 C 
ATOM     10  C3' I4B d   1       0.970   2.525   4.254  0.00  0.00     0.013 C 
ENDBRANCH   7   8
ENDBRANCH   1   7
TORSDOF 2
ENDMDL
