MODEL 1
REMARK minimizedAffinity 5.45149755
REMARK minimizedRMSD -1
REMARK  2 active torsions:
REMARK  status: ('A' for Active; 'I' for Inactive)
REMARK    1  A    between atoms: C2'_3  and  C1'_4 
REMARK    2  A    between atoms: C1'_4  and  C1_5 
ROOT
ATOM      1  C1  I4B d   1      -5.625  -3.261  -4.460  0.00  0.00    -0.075 A 
ATOM      2  C2  I4B d   1      -5.077  -2.016  -4.277  0.00  0.00     0.003 A 
ATOM      3  C3  I4B d   1      -4.896  -1.501  -2.970  0.00  0.00     0.002 A 
ATOM      4  C4  I4B d   1      -5.321  -2.239  -1.884  0.00  0.00    -0.004 A 
ATOM      5  C5  I4B d   1      -5.856  -3.511  -2.070  0.00  0.00     0.002 A 
ATOM      6  C6  I4B d   1      -5.997  -4.031  -3.365  0.00  0.00     0.003 A 
ENDROOT
BRANCH   1   7
ATOM      7  C1' I4B d   1      -5.831  -3.760  -5.855  0.00  0.00     0.060 C 
BRANCH   7   8
ATOM      8  C2' I4B d   1      -5.086  -5.072  -5.996  0.00  0.00    -0.013 C 
ATOM      9  C4' I4B d   1      -3.597  -4.863  -5.923  0.00  0.00     0.013 C 
ATOM     10  C3' I4B d   1      -5.558  -5.992  -4.911  0.00  0.00     0.013 C 
ENDBRANCH   7   8
ENDBRANCH   1   7
TORSDOF 2
ENDMDL
