MODEL 1
REMARK minimizedAffinity 10.4459238
REMARK minimizedRMSD -1
REMARK  2 active torsions:
REMARK  status: ('A' for Active; 'I' for Inactive)
REMARK    1  A    between atoms: C2'_3  and  C1'_4 
REMARK    2  A    between atoms: C1'_4  and  C1_5 
ROOT
ATOM      1  C1  I4B d   1      -5.518  -3.703  -5.197  0.00  0.00    -0.075 A 
ATOM      2  C2  I4B d   1      -4.991  -2.594  -5.811  0.00  0.00     0.003 A 
ATOM      3  C3  I4B d   1      -4.849  -1.382  -5.092  0.00  0.00     0.002 A 
ATOM      4  C4  I4B d   1      -5.289  -1.310  -3.787  0.00  0.00    -0.004 A 
ATOM      5  C5  I4B d   1      -5.801  -2.442  -3.159  0.00  0.00     0.002 A 
ATOM      6  C6  I4B d   1      -5.905  -3.650  -3.864  0.00  0.00     0.003 A 
ENDROOT
BRANCH   1   7
ATOM      7  C1' I4B d   1      -5.684  -4.957  -5.995  0.00  0.00     0.060 C 
BRANCH   7   8
ATOM      8  C2' I4B d   1      -4.668  -5.965  -5.498  0.00  0.00    -0.013 C 
ATOM      9  C4' I4B d   1      -3.285  -5.634  -5.993  0.00  0.00     0.013 C 
ATOM     10  C3' I4B d   1      -4.719  -5.974  -3.999  0.00  0.00     0.013 C 
ENDBRANCH   7   8
ENDBRANCH   1   7
TORSDOF 2
ENDMDL
