MODEL 1
REMARK minimizedAffinity 3.824754
REMARK minimizedRMSD -1
REMARK  2 active torsions:
REMARK  status: ('A' for Active; 'I' for Inactive)
REMARK    1  A    between atoms: C2'_3  and  C1'_4 
REMARK    2  A    between atoms: C1'_4  and  C1_5 
ROOT
ATOM      1  C1  I4B d   1      -5.545  -4.237   0.415  0.00  0.00    -0.075 A 
ATOM      2  C2  I4B d   1      -5.816  -3.701   1.650  0.00  0.00     0.003 A 
ATOM      3  C3  I4B d   1      -5.997  -2.304   1.796  0.00  0.00     0.002 A 
ATOM      4  C4  I4B d   1      -5.850  -1.481   0.698  0.00  0.00    -0.004 A 
ATOM      5  C5  I4B d   1      -5.599  -2.029  -0.557  0.00  0.00     0.002 A 
ATOM      6  C6  I4B d   1      -5.457  -3.417  -0.702  0.00  0.00     0.003 A 
ENDROOT
BRANCH   1   7
ATOM      7  C1' I4B d   1      -5.327  -5.713   0.303  0.00  0.00     0.060 C 
BRANCH   7   8
ATOM      8  C2' I4B d   1      -3.883  -6.000   0.663  0.00  0.00    -0.013 C 
ATOM      9  C4' I4B d   1      -2.956  -4.987   0.046  0.00  0.00     0.013 C 
ATOM     10  C3' I4B d   1      -3.770  -5.998   2.158  0.00  0.00     0.013 C 
ENDBRANCH   7   8
ENDBRANCH   1   7
TORSDOF 2
ENDMDL
