MODEL 1
REMARK minimizedAffinity 15.7909575
REMARK minimizedRMSD -1
REMARK  2 active torsions:
REMARK  status: ('A' for Active; 'I' for Inactive)
REMARK    1  A    between atoms: C2'_3  and  C1'_4 
REMARK    2  A    between atoms: C1'_4  and  C1_5 
ROOT
ATOM      1  C1  I4B d   1       3.340   1.291  -5.617  0.00  0.00    -0.075 A 
ATOM      2  C2  I4B d   1       4.239   0.326  -6.000  0.00  0.00     0.003 A 
ATOM      3  C3  I4B d   1       4.037  -1.025  -5.627  0.00  0.00     0.002 A 
ATOM      4  C4  I4B d   1       2.958  -1.357  -4.834  0.00  0.00    -0.004 A 
ATOM      5  C5  I4B d   1       2.035  -0.382  -4.465  0.00  0.00     0.002 A 
ATOM      6  C6  I4B d   1       2.221   0.948  -4.869  0.00  0.00     0.003 A 
ENDROOT
BRANCH   1   7
ATOM      7  C1' I4B d   1       3.602   2.713  -6.000  0.00  0.00     0.060 C 
BRANCH   7   8
ATOM      8  C2' I4B d   1       4.300   3.388  -4.838  0.00  0.00    -0.013 C 
ATOM      9  C4' I4B d   1       5.729   3.721  -5.179  0.00  0.00     0.013 C 
ATOM     10  C3' I4B d   1       3.525   4.623  -4.487  0.00  0.00     0.013 C 
ENDBRANCH   7   8
ENDBRANCH   1   7
TORSDOF 2
ENDMDL
