MODEL 1
REMARK minimizedAffinity 5.91374063
REMARK minimizedRMSD -1
REMARK  2 active torsions:
REMARK  status: ('A' for Active; 'I' for Inactive)
REMARK    1  A    between atoms: C2'_3  and  C1'_4 
REMARK    2  A    between atoms: C1'_4  and  C1_5 
ROOT
ATOM      1  C1  I4B d   1      -5.225  -4.548   0.869  0.00  0.00    -0.075 A 
ATOM      2  C2  I4B d   1      -5.577  -4.026   2.088  0.00  0.00     0.003 A 
ATOM      3  C3  I4B d   1      -5.996  -2.677   2.191  0.00  0.00     0.002 A 
ATOM      4  C4  I4B d   1      -6.000  -1.878   1.066  0.00  0.00    -0.004 A 
ATOM      5  C5  I4B d   1      -5.664  -2.416  -0.173  0.00  0.00     0.002 A 
ATOM      6  C6  I4B d   1      -5.287  -3.763  -0.275  0.00  0.00     0.003 A 
ENDROOT
BRANCH   1   7
ATOM      7  C1' I4B d   1      -4.756  -5.967   0.801  0.00  0.00     0.060 C 
BRANCH   7   8
ATOM      8  C2' I4B d   1      -3.482  -5.999  -0.017  0.00  0.00    -0.013 C 
ATOM      9  C4' I4B d   1      -3.782  -5.998  -1.493  0.00  0.00     0.013 C 
ATOM     10  C3' I4B d   1      -2.654  -4.809   0.368  0.00  0.00     0.013 C 
ENDBRANCH   7   8
ENDBRANCH   1   7
TORSDOF 2
ENDMDL
