MODEL 1
REMARK minimizedAffinity 15.9668665
REMARK minimizedRMSD -1
REMARK  2 active torsions:
REMARK  status: ('A' for Active; 'I' for Inactive)
REMARK    1  A    between atoms: C2'_3  and  C1'_4 
REMARK    2  A    between atoms: C1'_4  and  C1_5 
ROOT
ATOM      1  C1  I4B d   1       1.758   3.706  -3.274  0.00  0.00    -0.075 A 
ATOM      2  C2  I4B d   1       1.666   5.071  -3.380  0.00  0.00     0.003 A 
ATOM      3  C3  I4B d   1       2.500   5.774  -4.283  0.00  0.00     0.002 A 
ATOM      4  C4  I4B d   1       3.440   5.082  -5.019  0.00  0.00    -0.004 A 
ATOM      5  C5  I4B d   1       3.516   3.695  -4.927  0.00  0.00     0.002 A 
ATOM      6  C6  I4B d   1       2.662   3.001  -4.059  0.00  0.00     0.003 A 
ENDROOT
BRANCH   1   7
ATOM      7  C1' I4B d   1       0.885   2.999  -2.286  0.00  0.00     0.060 C 
BRANCH   7   8
ATOM      8  C2' I4B d   1       1.777   2.171  -1.384  0.00  0.00    -0.013 C 
ATOM      9  C4' I4B d   1       1.236   2.121   0.021  0.00  0.00     0.013 C 
ATOM     10  C3' I4B d   1       1.883   0.795  -1.972  0.00  0.00     0.013 C 
ENDBRANCH   7   8
ENDBRANCH   1   7
TORSDOF 2
ENDMDL
