MODEL 1
REMARK minimizedAffinity 15.4030132
REMARK minimizedRMSD -1
REMARK  2 active torsions:
REMARK  status: ('A' for Active; 'I' for Inactive)
REMARK    1  A    between atoms: C2'_3  and  C1'_4 
REMARK    2  A    between atoms: C1'_4  and  C1_5 
ROOT
ATOM      1  C1  I4B d   1       2.462   0.247  -4.424  0.00  0.00    -0.075 A 
ATOM      2  C2  I4B d   1       3.029   0.732  -5.576  0.00  0.00     0.003 A 
ATOM      3  C3  I4B d   1       3.650   2.004  -5.585  0.00  0.00     0.002 A 
ATOM      4  C4  I4B d   1       3.637   2.775  -4.440  0.00  0.00    -0.004 A 
ATOM      5  C5  I4B d   1       3.082   2.272  -3.267  0.00  0.00     0.002 A 
ATOM      6  C6  I4B d   1       2.501   0.996  -3.255  0.00  0.00     0.003 A 
ENDROOT
BRANCH   1   7
ATOM      7  C1' I4B d   1       1.785  -1.086  -4.459  0.00  0.00     0.060 C 
BRANCH   7   8
ATOM      8  C2' I4B d   1       1.067  -1.211  -5.787  0.00  0.00    -0.013 C 
ATOM      9  C4' I4B d   1       0.234  -2.464  -5.841  0.00  0.00     0.013 C 
ATOM     10  C3' I4B d   1       0.218   0.012  -5.970  0.00  0.00     0.013 C 
ENDBRANCH   7   8
ENDBRANCH   1   7
TORSDOF 2
ENDMDL
