MODEL 1
REMARK minimizedAffinity 16.237236
REMARK minimizedRMSD -1
REMARK  2 active torsions:
REMARK  status: ('A' for Active; 'I' for Inactive)
REMARK    1  A    between atoms: C2'_3  and  C1'_4 
REMARK    2  A    between atoms: C1'_4  and  C1_5 
ROOT
ATOM      1  C1  I4B d   1       3.325   1.643  -4.866  0.00  0.00    -0.075 A 
ATOM      2  C2  I4B d   1       3.128   0.414  -5.446  0.00  0.00     0.003 A 
ATOM      3  C3  I4B d   1       2.771  -0.701  -4.649  0.00  0.00     0.002 A 
ATOM      4  C4  I4B d   1       2.672  -0.554  -3.281  0.00  0.00    -0.004 A 
ATOM      5  C5  I4B d   1       2.850   0.697  -2.697  0.00  0.00     0.002 A 
ATOM      6  C6  I4B d   1       3.167   1.805  -3.496  0.00  0.00     0.003 A 
ENDROOT
BRANCH   1   7
ATOM      7  C1' I4B d   1       3.734   2.791  -5.733  0.00  0.00     0.060 C 
BRANCH   7   8
ATOM      8  C2' I4B d   1       4.232   3.902  -4.831  0.00  0.00    -0.013 C 
ATOM      9  C4' I4B d   1       5.639   4.305  -5.189  0.00  0.00     0.013 C 
ATOM     10  C3' I4B d   1       3.288   5.061  -4.959  0.00  0.00     0.013 C 
ENDBRANCH   7   8
ENDBRANCH   1   7
TORSDOF 2
ENDMDL
