MODEL 1
REMARK minimizedAffinity 9.50975132
REMARK minimizedRMSD -1
REMARK  2 active torsions:
REMARK  status: ('A' for Active; 'I' for Inactive)
REMARK    1  A    between atoms: C2'_3  and  C1'_4 
REMARK    2  A    between atoms: C1'_4  and  C1_5 
ROOT
ATOM      1  C1  I4B d   1      -3.598  -0.424   1.094  0.00  0.00    -0.075 A 
ATOM      2  C2  I4B d   1      -4.334   0.732   1.167  0.00  0.00     0.003 A 
ATOM      3  C3  I4B d   1      -3.688   1.977   1.366  0.00  0.00     0.002 A 
ATOM      4  C4  I4B d   1      -2.320   2.013   1.536  0.00  0.00    -0.004 A 
ATOM      5  C5  I4B d   1      -1.573   0.842   1.440  0.00  0.00     0.002 A 
ATOM      6  C6  I4B d   1      -2.214  -0.383   1.205  0.00  0.00     0.003 A 
ENDROOT
BRANCH   1   7
ATOM      7  C1' I4B d   1      -4.315  -1.725   0.916  0.00  0.00     0.060 C 
BRANCH   7   8
ATOM      8  C2' I4B d   1      -3.664  -2.463  -0.236  0.00  0.00    -0.013 C 
ATOM      9  C4' I4B d   1      -3.150  -3.810   0.199  0.00  0.00     0.013 C 
ATOM     10  C3' I4B d   1      -4.680  -2.599  -1.331  0.00  0.00     0.013 C 
ENDBRANCH   7   8
ENDBRANCH   1   7
TORSDOF 2
ENDMDL
