MODEL 1
REMARK minimizedAffinity 15.2075853
REMARK minimizedRMSD -1
REMARK  2 active torsions:
REMARK  status: ('A' for Active; 'I' for Inactive)
REMARK    1  A    between atoms: C2'_3  and  C1'_4 
REMARK    2  A    between atoms: C1'_4  and  C1_5 
ROOT
ATOM      1  C1  I4B d   1      -1.944   0.979   2.328  0.00  0.00    -0.075 A 
ATOM      2  C2  I4B d   1      -2.694   2.127   2.385  0.00  0.00     0.003 A 
ATOM      3  C3  I4B d   1      -2.062   3.383   2.556  0.00  0.00     0.002 A 
ATOM      4  C4  I4B d   1      -0.693   3.439   2.715  0.00  0.00    -0.004 A 
ATOM      5  C5  I4B d   1       0.068   2.276   2.634  0.00  0.00     0.002 A 
ATOM      6  C6  I4B d   1      -0.560   1.039   2.427  0.00  0.00     0.003 A 
ENDROOT
BRANCH   1   7
ATOM      7  C1' I4B d   1      -2.646  -0.334   2.180  0.00  0.00     0.060 C 
BRANCH   7   8
ATOM      8  C2' I4B d   1      -2.855  -0.587   0.701  0.00  0.00    -0.013 C 
ATOM      9  C4' I4B d   1      -4.057  -1.462   0.462  0.00  0.00     0.013 C 
ATOM     10  C3' I4B d   1      -3.007   0.741   0.021  0.00  0.00     0.013 C 
ENDBRANCH   7   8
ENDBRANCH   1   7
TORSDOF 2
ENDMDL
