MODEL 1
REMARK minimizedAffinity 17.16185
REMARK minimizedRMSD -1
REMARK  2 active torsions:
REMARK  status: ('A' for Active; 'I' for Inactive)
REMARK    1  A    between atoms: C2'_3  and  C1'_4 
REMARK    2  A    between atoms: C1'_4  and  C1_5 
ROOT
ATOM      1  C1  I4B d   1       2.488   4.171  -2.508  0.00  0.00    -0.075 A 
ATOM      2  C2  I4B d   1       2.467   5.401  -3.117  0.00  0.00     0.003 A 
ATOM      3  C3  I4B d   1       3.297   5.656  -4.235  0.00  0.00     0.002 A 
ATOM      4  C4  I4B d   1       4.164   4.677  -4.676  0.00  0.00    -0.004 A 
ATOM      5  C5  I4B d   1       4.167   3.423  -4.071  0.00  0.00     0.002 A 
ATOM      6  C6  I4B d   1       3.315   3.164  -2.988  0.00  0.00     0.003 A 
ENDROOT
BRANCH   1   7
ATOM      7  C1' I4B d   1       1.622   3.946  -1.309  0.00  0.00     0.060 C 
BRANCH   7   8
ATOM      8  C2' I4B d   1       1.989   2.602  -0.714  0.00  0.00    -0.013 C 
ATOM      9  C4' I4B d   1       1.714   2.568   0.767  0.00  0.00     0.013 C 
ATOM     10  C3' I4B d   1       1.204   1.547  -1.434  0.00  0.00     0.013 C 
ENDBRANCH   7   8
ENDBRANCH   1   7
TORSDOF 2
ENDMDL
