MODEL 1
REMARK minimizedAffinity 14.031559
REMARK minimizedRMSD -1
REMARK  2 active torsions:
REMARK  status: ('A' for Active; 'I' for Inactive)
REMARK    1  A    between atoms: C2'_3  and  C1'_4 
REMARK    2  A    between atoms: C1'_4  and  C1_5 
ROOT
ATOM      1  C1  I4B d   1      -3.698   0.697   2.257  0.00  0.00    -0.075 A 
ATOM      2  C2  I4B d   1      -3.708   0.923   3.611  0.00  0.00     0.003 A 
ATOM      3  C3  I4B d   1      -4.866   0.633   4.373  0.00  0.00     0.002 A 
ATOM      4  C4  I4B d   1      -6.000   0.170   3.737  0.00  0.00    -0.004 A 
ATOM      5  C5  I4B d   1      -5.980  -0.079   2.368  0.00  0.00     0.002 A 
ATOM      6  C6  I4B d   1      -4.818   0.174   1.625  0.00  0.00     0.003 A 
ENDROOT
BRANCH   1   7
ATOM      7  C1' I4B d   1      -2.469   1.045   1.478  0.00  0.00     0.060 C 
BRANCH   7   8
ATOM      8  C2' I4B d   1      -1.264   0.618   2.290  0.00  0.00    -0.013 C 
ATOM      9  C4' I4B d   1      -1.102  -0.880   2.277  0.00  0.00     0.013 C 
ATOM     10  C3' I4B d   1      -0.056   1.299   1.720  0.00  0.00     0.013 C 
ENDBRANCH   7   8
ENDBRANCH   1   7
TORSDOF 2
ENDMDL
