MODEL 1
REMARK minimizedAffinity -4.07460737
REMARK minimizedRMSD -1
REMARK  0 active torsions:
REMARK  status: ('A' for Active; 'I' for Inactive)
ROOT
ATOM      1  C1  DEN d   1       3.783  -1.739   4.500  0.00  0.00     0.130 A 
ATOM      2  C2  DEN d   1       4.932  -0.867   4.727  0.00  0.00    -0.031 A 
ATOM      3  C3  DEN d   1       6.000  -1.671   5.354  0.00  0.00     0.027 A 
ATOM      4  C4  DEN d   1       5.987  -4.172   5.988  0.00  0.00     0.027 A 
ATOM      5  C5  DEN d   1       5.232  -5.323   5.999  0.00  0.00    -0.003 A 
ATOM      6  C6  DEN d   1       3.939  -5.352   5.547  0.00  0.00     0.001 A 
ATOM      7  C7  DEN d   1       3.378  -4.219   5.022  0.00  0.00     0.017 A 
ATOM      8  C8  DEN d   1       4.131  -3.052   5.014  0.00  0.00    -0.094 A 
ATOM      9  C9  DEN d   1       5.440  -3.045   5.464  0.00  0.00    -0.072 A 
ENDROOT
TORSDOF 0
ENDMDL
