MODEL 1
REMARK minimizedAffinity -1.94592726
REMARK minimizedRMSD -1
REMARK  0 active torsions:
REMARK  status: ('A' for Active; 'I' for Inactive)
ROOT
ATOM      1  C1  DEN d   1      -2.218   5.977   4.993  0.00  0.00     0.130 A 
ATOM      2  C2  DEN d   1      -3.276   6.000   6.000  0.00  0.00    -0.031 A 
ATOM      3  C3  DEN d   1      -4.574   5.939   5.299  0.00  0.00     0.027 A 
ATOM      4  C4  DEN d   1      -5.048   5.807   2.767  0.00  0.00     0.027 A 
ATOM      5  C5  DEN d   1      -4.470   5.774   1.517  0.00  0.00    -0.003 A 
ATOM      6  C6  DEN d   1      -3.113   5.840   1.338  0.00  0.00     0.001 A 
ATOM      7  C7  DEN d   1      -2.287   5.897   2.429  0.00  0.00     0.017 A 
ATOM      8  C8  DEN d   1      -2.862   5.938   3.692  0.00  0.00    -0.094 A 
ATOM      9  C9  DEN d   1      -4.235   5.858   3.853  0.00  0.00    -0.072 A 
ENDROOT
TORSDOF 0
ENDMDL
