MODEL 1
REMARK minimizedAffinity 11.4286814
REMARK minimizedRMSD -1
REMARK  0 active torsions:
REMARK  status: ('A' for Active; 'I' for Inactive)
ROOT
ATOM      1  C1  DEN d   1      -4.346   2.263   2.387  0.00  0.00     0.130 A 
ATOM      2  C2  DEN d   1      -3.743   1.400   3.399  0.00  0.00    -0.031 A 
ATOM      3  C3  DEN d   1      -3.229   2.260   4.484  0.00  0.00     0.027 A 
ATOM      4  C4  DEN d   1      -3.311   4.829   4.696  0.00  0.00     0.027 A 
ATOM      5  C5  DEN d   1      -3.713   5.994   4.080  0.00  0.00    -0.003 A 
ATOM      6  C6  DEN d   1      -4.318   5.999   2.851  0.00  0.00     0.001 A 
ATOM      7  C7  DEN d   1      -4.580   4.813   2.219  0.00  0.00     0.017 A 
ATOM      8  C8  DEN d   1      -4.172   3.635   2.830  0.00  0.00    -0.094 A 
ATOM      9  C9  DEN d   1      -3.572   3.649   4.078  0.00  0.00    -0.072 A 
ENDROOT
TORSDOF 0
ENDMDL
