MODEL 1
REMARK minimizedAffinity 17.0576
REMARK minimizedRMSD -1
REMARK  0 active torsions:
REMARK  status: ('A' for Active; 'I' for Inactive)
ROOT
ATOM      1  C1  DEN d   1       0.564   0.376  -2.595  0.00  0.00     0.130 A 
ATOM      2  C2  DEN d   1       1.537  -0.211  -1.678  0.00  0.00    -0.031 A 
ATOM      3  C3  DEN d   1       2.602   0.784  -1.444  0.00  0.00     0.027 A 
ATOM      4  C4  DEN d   1       2.837   3.166  -2.406  0.00  0.00     0.027 A 
ATOM      5  C5  DEN d   1       2.264   4.102  -3.239  0.00  0.00    -0.003 A 
ATOM      6  C6  DEN d   1       1.112   3.851  -3.936  0.00  0.00     0.001 A 
ATOM      7  C7  DEN d   1       0.471   2.651  -3.778  0.00  0.00     0.017 A 
ATOM      8  C8  DEN d   1       1.046   1.699  -2.946  0.00  0.00    -0.094 A 
ATOM      9  C9  DEN d   1       2.205   1.977  -2.241  0.00  0.00    -0.072 A 
ENDROOT
TORSDOF 0
ENDMDL
