MODEL 1
REMARK minimizedAffinity -1.16076446
REMARK minimizedRMSD -1
REMARK  0 active torsions:
REMARK  status: ('A' for Active; 'I' for Inactive)
ROOT
ATOM      1  C1  DEN d   1      -2.736   6.000   2.246  0.00  0.00     0.130 A 
ATOM      2  C2  DEN d   1      -3.923   6.000   1.395  0.00  0.00    -0.031 A 
ATOM      3  C3  DEN d   1      -5.111   5.925   2.269  0.00  0.00     0.027 A 
ATOM      4  C4  DEN d   1      -5.228   5.815   4.843  0.00  0.00     0.027 A 
ATOM      5  C5  DEN d   1      -4.481   5.778   6.000  0.00  0.00    -0.003 A 
ATOM      6  C6  DEN d   1      -3.111   5.777   5.985  0.00  0.00     0.001 A 
ATOM      7  C7  DEN d   1      -2.445   5.861   4.791  0.00  0.00     0.017 A 
ATOM      8  C8  DEN d   1      -3.191   5.892   3.620  0.00  0.00    -0.094 A 
ATOM      9  C9  DEN d   1      -4.575   5.904   3.656  0.00  0.00    -0.072 A 
ENDROOT
TORSDOF 0
ENDMDL
