MODEL 1
REMARK minimizedAffinity -1.72785378
REMARK minimizedRMSD -1
REMARK  0 active torsions:
REMARK  status: ('A' for Active; 'I' for Inactive)
ROOT
ATOM      1  C1  DEN d   1      -4.501   5.872   5.384  0.00  0.00     0.130 A 
ATOM      2  C2  DEN d   1      -3.164   5.940   5.968  0.00  0.00    -0.031 A 
ATOM      3  C3  DEN d   1      -2.186   5.999   4.863  0.00  0.00     0.027 A 
ATOM      4  C4  DEN d   1      -2.609   5.997   2.319  0.00  0.00     0.027 A 
ATOM      5  C5  DEN d   1      -3.579   5.940   1.343  0.00  0.00    -0.003 A 
ATOM      6  C6  DEN d   1      -4.911   5.823   1.642  0.00  0.00     0.001 A 
ATOM      7  C7  DEN d   1      -5.313   5.805   2.951  0.00  0.00     0.017 A 
ATOM      8  C8  DEN d   1      -4.341   5.854   3.941  0.00  0.00    -0.094 A 
ATOM      9  C9  DEN d   1      -3.001   5.985   3.618  0.00  0.00    -0.072 A 
ENDROOT
TORSDOF 0
ENDMDL
