MODEL 1
REMARK minimizedAffinity 0.908960462
REMARK minimizedRMSD -1
REMARK  0 active torsions:
REMARK  status: ('A' for Active; 'I' for Inactive)
ROOT
ATOM      1  C1  DEN d   1      -3.555   5.999   5.998  0.00  0.00     0.130 A 
ATOM      2  C2  DEN d   1      -2.100   5.984   5.874  0.00  0.00    -0.031 A 
ATOM      3  C3  DEN d   1      -1.764   5.970   4.436  0.00  0.00     0.027 A 
ATOM      4  C4  DEN d   1      -3.348   5.975   2.400  0.00  0.00     0.027 A 
ATOM      5  C5  DEN d   1      -4.667   5.973   2.004  0.00  0.00    -0.003 A 
ATOM      6  C6  DEN d   1      -5.699   5.946   2.904  0.00  0.00     0.001 A 
ATOM      7  C7  DEN d   1      -5.430   5.965   4.247  0.00  0.00     0.017 A 
ATOM      8  C8  DEN d   1      -4.102   5.959   4.654  0.00  0.00    -0.094 A 
ATOM      9  C9  DEN d   1      -3.073   5.999   3.729  0.00  0.00    -0.072 A 
ENDROOT
TORSDOF 0
ENDMDL
