MODEL 1
REMARK minimizedAffinity 2.26492214
REMARK minimizedRMSD -1
REMARK  0 active torsions:
REMARK  status: ('A' for Active; 'I' for Inactive)
ROOT
ATOM      1  C1  DEN d   1      -4.124   5.915   5.731  0.00  0.00     0.130 A 
ATOM      2  C2  DEN d   1      -2.688   5.956   5.992  0.00  0.00    -0.031 A 
ATOM      3  C3  DEN d   1      -1.989   5.994   4.692  0.00  0.00     0.027 A 
ATOM      4  C4  DEN d   1      -2.985   5.998   2.313  0.00  0.00     0.027 A 
ATOM      5  C5  DEN d   1      -4.154   5.960   1.586  0.00  0.00    -0.003 A 
ATOM      6  C6  DEN d   1      -5.384   5.870   2.183  0.00  0.00     0.001 A 
ATOM      7  C7  DEN d   1      -5.475   5.862   3.550  0.00  0.00     0.017 A 
ATOM      8  C8  DEN d   1      -4.300   5.892   4.290  0.00  0.00    -0.094 A 
ATOM      9  C9  DEN d   1      -3.068   5.995   3.668  0.00  0.00    -0.072 A 
ENDROOT
TORSDOF 0
ENDMDL
