MODEL 1
REMARK minimizedAffinity 7.47155857
REMARK minimizedRMSD -1
REMARK  0 active torsions:
REMARK  status: ('A' for Active; 'I' for Inactive)
ROOT
ATOM      1  C1  DEN d   1      -3.345   5.292   1.953  0.00  0.00     0.130 A 
ATOM      2  C2  DEN d   1      -4.718   5.221   1.460  0.00  0.00    -0.031 A 
ATOM      3  C3  DEN d   1      -5.626   5.431   2.605  0.00  0.00     0.027 A 
ATOM      4  C4  DEN d   1      -5.043   5.862   5.080  0.00  0.00     0.027 A 
ATOM      5  C5  DEN d   1      -4.012   5.997   5.984  0.00  0.00    -0.003 A 
ATOM      6  C6  DEN d   1      -2.699   5.873   5.616  0.00  0.00     0.001 A 
ATOM      7  C7  DEN d   1      -2.379   5.652   4.303  0.00  0.00     0.017 A 
ATOM      8  C8  DEN d   1      -3.413   5.507   3.387  0.00  0.00    -0.094 A 
ATOM      9  C9  DEN d   1      -4.735   5.648   3.776  0.00  0.00    -0.072 A 
ENDROOT
TORSDOF 0
ENDMDL
