MODEL 1
REMARK minimizedAffinity 8.27453613
REMARK minimizedRMSD -1
REMARK  0 active torsions:
REMARK  status: ('A' for Active; 'I' for Inactive)
ROOT
ATOM      1  C1  DEN d   1      -5.135   5.900   2.940  0.00  0.00     0.130 A 
ATOM      2  C2  DEN d   1      -4.609   5.929   1.578  0.00  0.00    -0.031 A 
ATOM      3  C3  DEN d   1      -3.135   5.974   1.659  0.00  0.00     0.027 A 
ATOM      4  C4  DEN d   1      -1.625   5.998   3.750  0.00  0.00     0.027 A 
ATOM      5  C5  DEN d   1      -1.615   5.997   5.127  0.00  0.00    -0.003 A 
ATOM      6  C6  DEN d   1      -2.768   5.997   5.866  0.00  0.00     0.001 A 
ATOM      7  C7  DEN d   1      -3.981   5.954   5.231  0.00  0.00     0.017 A 
ATOM      8  C8  DEN d   1      -4.000   5.962   3.843  0.00  0.00    -0.094 A 
ATOM      9  C9  DEN d   1      -2.823   5.949   3.113  0.00  0.00    -0.072 A 
ENDROOT
TORSDOF 0
ENDMDL
