MODEL 1
REMARK minimizedAffinity -1.23577964
REMARK minimizedRMSD -1
REMARK  0 active torsions:
REMARK  status: ('A' for Active; 'I' for Inactive)
ROOT
ATOM      1  C1  DEN d   1      -4.238   5.999   2.324  0.00  0.00     0.130 A 
ATOM      2  C2  DEN d   1      -5.635   5.962   2.749  0.00  0.00    -0.031 A 
ATOM      3  C3  DEN d   1      -5.662   5.946   4.225  0.00  0.00     0.027 A 
ATOM      4  C4  DEN d   1      -3.689   5.980   5.885  0.00  0.00     0.027 A 
ATOM      5  C5  DEN d   1      -2.316   6.000   5.997  0.00  0.00    -0.003 A 
ATOM      6  C6  DEN d   1      -1.494   5.987   4.902  0.00  0.00     0.001 A 
ATOM      7  C7  DEN d   1      -2.038   5.999   3.644  0.00  0.00     0.017 A 
ATOM      8  C8  DEN d   1      -3.421   5.971   3.524  0.00  0.00    -0.094 A 
ATOM      9  C9  DEN d   1      -4.235   5.997   4.643  0.00  0.00    -0.072 A 
ENDROOT
TORSDOF 0
ENDMDL
