MODEL 1
REMARK minimizedAffinity 1.98677826
REMARK minimizedRMSD -1
REMARK  0 active torsions:
REMARK  status: ('A' for Active; 'I' for Inactive)
ROOT
ATOM      1  C1  DEN d   1      -2.386   5.992   4.644  0.00  0.00     0.130 A 
ATOM      2  C2  DEN d   1      -2.956   5.999   5.988  0.00  0.00    -0.031 A 
ATOM      3  C3  DEN d   1      -4.413   5.794   5.867  0.00  0.00     0.027 A 
ATOM      4  C4  DEN d   1      -5.835   5.464   3.740  0.00  0.00     0.027 A 
ATOM      5  C5  DEN d   1      -5.798   5.395   2.365  0.00  0.00    -0.003 A 
ATOM      6  C6  DEN d   1      -4.636   5.552   1.657  0.00  0.00     0.001 A 
ATOM      7  C7  DEN d   1      -3.455   5.742   2.324  0.00  0.00     0.017 A 
ATOM      8  C8  DEN d   1      -3.485   5.821   3.711  0.00  0.00    -0.094 A 
ATOM      9  C9  DEN d   1      -4.668   5.647   4.409  0.00  0.00    -0.072 A 
ENDROOT
TORSDOF 0
ENDMDL
