MODEL 1
REMARK minimizedAffinity 11.3279762
REMARK minimizedRMSD -1
REMARK  0 active torsions:
REMARK  status: ('A' for Active; 'I' for Inactive)
ROOT
ATOM      1  C1  DEN d   1       2.873  -0.185  -1.784  0.00  0.00     0.130 A 
ATOM      2  C2  DEN d   1       1.630  -0.760  -1.279  0.00  0.00    -0.031 A 
ATOM      3  C3  DEN d   1       0.505  -0.018  -1.884  0.00  0.00     0.027 A 
ATOM      4  C4  DEN d   1       0.569   1.951  -3.549  0.00  0.00     0.027 A 
ATOM      5  C5  DEN d   1       1.395   2.795  -4.258  0.00  0.00    -0.003 A 
ATOM      6  C6  DEN d   1       2.760   2.727  -4.167  0.00  0.00     0.001 A 
ATOM      7  C7  DEN d   1       3.341   1.766  -3.383  0.00  0.00     0.017 A 
ATOM      8  C8  DEN d   1       2.515   0.917  -2.659  0.00  0.00    -0.094 A 
ATOM      9  C9  DEN d   1       1.137   0.993  -2.774  0.00  0.00    -0.072 A 
ENDROOT
TORSDOF 0
ENDMDL
