MODEL 1
REMARK minimizedAffinity 10.937438
REMARK minimizedRMSD -1
REMARK  0 active torsions:
REMARK  status: ('A' for Active; 'I' for Inactive)
ROOT
ATOM      1  C1  DEN d   1      -4.173   4.499   1.406  0.00  0.00     0.130 A 
ATOM      2  C2  DEN d   1      -5.605   4.780   1.345  0.00  0.00    -0.031 A 
ATOM      3  C3  DEN d   1      -5.999   5.418   2.617  0.00  0.00     0.027 A 
ATOM      4  C4  DEN d   1      -4.539   6.000   4.662  0.00  0.00     0.027 A 
ATOM      5  C5  DEN d   1      -3.266   5.942   5.185  0.00  0.00    -0.003 A 
ATOM      6  C6  DEN d   1      -2.222   5.374   4.505  0.00  0.00     0.001 A 
ATOM      7  C7  DEN d   1      -2.423   4.881   3.243  0.00  0.00     0.017 A 
ATOM      8  C8  DEN d   1      -3.705   4.928   2.712  0.00  0.00    -0.094 A 
ATOM      9  C9  DEN d   1      -4.745   5.518   3.410  0.00  0.00    -0.072 A 
ENDROOT
TORSDOF 0
ENDMDL
