MODEL 1
REMARK minimizedAffinity 1.11313319
REMARK minimizedRMSD -1
REMARK  1 active torsions:
REMARK  status: ('A' for Active; 'I' for Inactive)
REMARK    1  A    between atoms: C1_2  and  C2_3 
ROOT
ATOM      1  C2  UNL d   1      -1.906   4.365  -4.897  0.00  0.00    -0.073 A 
ATOM      2  C3  UNL d   1      -2.237   3.017  -4.715  0.00  0.00    -0.002 A 
ATOM      3  C4  UNL d   1      -3.111   2.637  -3.696  0.00  0.00     0.004 A 
ATOM      4  C5  UNL d   1      -3.669   3.599  -2.855  0.00  0.00    -0.004 A 
ATOM      5  C6  UNL d   1      -3.361   4.952  -3.028  0.00  0.00    -0.075 A 
ATOM      6  C7  UNL d   1      -3.951   6.000  -2.130  0.00  0.00     0.076 C 
ATOM      7  C8  UNL d   1      -2.479   5.326  -4.052  0.00  0.00     0.001 A 
ENDROOT
BRANCH   1   8
ATOM      8  C1  UNL d   1      -0.967   4.780  -6.000  0.00  0.00     0.053 C 
ATOM      9  C   UNL d   1       0.189   5.619  -5.478  0.00  0.00     0.018 C 
ENDBRANCH   1   8
TORSDOF 1
ENDMDL
