MODEL 1
REMARK minimizedAffinity 1.57091236
REMARK minimizedRMSD -1
REMARK  1 active torsions:
REMARK  status: ('A' for Active; 'I' for Inactive)
REMARK    1  A    between atoms: C1_2  and  C2_3 
ROOT
ATOM      1  C2  UNL d   1      -3.181  -0.225   3.426  0.00  0.00    -0.073 A 
ATOM      2  C3  UNL d   1      -2.229  -0.545   4.400  0.00  0.00    -0.002 A 
ATOM      3  C4  UNL d   1      -1.033  -1.166   4.039  0.00  0.00     0.004 A 
ATOM      4  C5  UNL d   1      -0.773  -1.466   2.702  0.00  0.00    -0.004 A 
ATOM      5  C6  UNL d   1      -1.707  -1.143   1.712  0.00  0.00    -0.075 A 
ATOM      6  C7  UNL d   1      -1.443  -1.462   0.270  0.00  0.00     0.076 C 
ATOM      7  C8  UNL d   1      -2.907  -0.522   2.083  0.00  0.00     0.001 A 
ENDROOT
BRANCH   1   8
ATOM      8  C1  UNL d   1      -4.472   0.451   3.810  0.00  0.00     0.053 C 
ATOM      9  C   UNL d   1      -4.767   0.315   5.295  0.00  0.00     0.018 C 
ENDBRANCH   1   8
TORSDOF 1
ENDMDL
