MODEL 1
REMARK minimizedAffinity 3.11497307
REMARK minimizedRMSD -1
REMARK  1 active torsions:
REMARK  status: ('A' for Active; 'I' for Inactive)
REMARK    1  A    between atoms: C1_2  and  C2_3 
ROOT
ATOM      1  C2  UNL d   1      -3.217   3.844  -3.054  0.00  0.00    -0.073 A 
ATOM      2  C3  UNL d   1      -2.125   3.113  -2.572  0.00  0.00    -0.002 A 
ATOM      3  C4  UNL d   1      -2.286   2.224  -1.508  0.00  0.00     0.004 A 
ATOM      4  C5  UNL d   1      -3.540   2.051  -0.922  0.00  0.00    -0.004 A 
ATOM      5  C6  UNL d   1      -4.645   2.763  -1.397  0.00  0.00    -0.075 A 
ATOM      6  C7  UNL d   1      -6.000   2.591  -0.775  0.00  0.00     0.076 C 
ATOM      7  C8  UNL d   1      -4.475   3.656  -2.464  0.00  0.00     0.001 A 
ENDROOT
BRANCH   1   8
ATOM      8  C1  UNL d   1      -3.049   4.800  -4.206  0.00  0.00     0.053 C 
ATOM      9  C   UNL d   1      -3.976   5.999  -4.091  0.00  0.00     0.018 C 
ENDBRANCH   1   8
TORSDOF 1
ENDMDL
