MODEL 1
REMARK minimizedAffinity 3.39311242
REMARK minimizedRMSD -1
REMARK  1 active torsions:
REMARK  status: ('A' for Active; 'I' for Inactive)
REMARK    1  A    between atoms: C1_2  and  C2_3 
ROOT
ATOM      1  C2  UNL d   1      -0.569  -1.681  -0.678  0.00  0.00    -0.073 A 
ATOM      2  C3  UNL d   1       0.707  -2.160  -0.994  0.00  0.00    -0.002 A 
ATOM      3  C4  UNL d   1       1.644  -2.388   0.015  0.00  0.00     0.004 A 
ATOM      4  C5  UNL d   1       1.313  -2.147   1.348  0.00  0.00    -0.004 A 
ATOM      5  C6  UNL d   1       0.039  -1.679   1.685  0.00  0.00    -0.075 A 
ATOM      6  C7  UNL d   1      -0.332  -1.412   3.114  0.00  0.00     0.076 C 
ATOM      7  C8  UNL d   1      -0.896  -1.450   0.666  0.00  0.00     0.001 A 
ENDROOT
BRANCH   1   8
ATOM      8  C1  UNL d   1      -1.586  -1.439  -1.763  0.00  0.00     0.053 C 
ATOM      9  C   UNL d   1      -1.024  -1.727  -3.146  0.00  0.00     0.018 C 
ENDBRANCH   1   8
TORSDOF 1
ENDMDL
