MODEL 1
REMARK minimizedAffinity 4.98009777
REMARK minimizedRMSD -1
REMARK  1 active torsions:
REMARK  status: ('A' for Active; 'I' for Inactive)
REMARK    1  A    between atoms: C1_2  and  C2_3 
ROOT
ATOM      1  C2  UNL d   1      -3.779   3.111  -1.295  0.00  0.00    -0.073 A 
ATOM      2  C3  UNL d   1      -3.448   2.040  -2.133  0.00  0.00    -0.002 A 
ATOM      3  C4  UNL d   1      -2.677   2.253  -3.277  0.00  0.00     0.004 A 
ATOM      4  C5  UNL d   1      -2.223   3.534  -3.590  0.00  0.00    -0.004 A 
ATOM      5  C6  UNL d   1      -2.533   4.615  -2.758  0.00  0.00    -0.075 A 
ATOM      6  C7  UNL d   1      -2.055   5.999  -3.081  0.00  0.00     0.076 C 
ATOM      7  C8  UNL d   1      -3.310   4.394  -1.612  0.00  0.00     0.001 A 
ENDROOT
BRANCH   1   8
ATOM      8  C1  UNL d   1      -4.606   2.886  -0.055  0.00  0.00     0.053 C 
ATOM      9  C   UNL d   1      -5.994   3.492  -0.178  0.00  0.00     0.018 C 
ENDBRANCH   1   8
TORSDOF 1
ENDMDL
