MODEL 1
REMARK minimizedAffinity 5.55810118
REMARK minimizedRMSD -1
REMARK  1 active torsions:
REMARK  status: ('A' for Active; 'I' for Inactive)
REMARK    1  A    between atoms: C1_2  and  C2_3 
ROOT
ATOM      1  C2  UNL d   1       0.402  -1.667   1.875  0.00  0.00    -0.073 A 
ATOM      2  C3  UNL d   1      -0.238  -1.101   2.984  0.00  0.00    -0.002 A 
ATOM      3  C4  UNL d   1      -1.464  -0.451   2.834  0.00  0.00     0.004 A 
ATOM      4  C5  UNL d   1      -2.065  -0.366   1.579  0.00  0.00    -0.004 A 
ATOM      5  C6  UNL d   1      -1.447  -0.936   0.461  0.00  0.00    -0.075 A 
ATOM      6  C7  UNL d   1      -2.080  -0.851  -0.897  0.00  0.00     0.076 C 
ATOM      7  C8  UNL d   1      -0.215  -1.585   0.619  0.00  0.00     0.001 A 
ENDROOT
BRANCH   1   8
ATOM      8  C1  UNL d   1       1.722  -2.375   2.033  0.00  0.00     0.053 C 
ATOM      9  C   UNL d   1       2.130  -3.110   0.765  0.00  0.00     0.018 C 
ENDBRANCH   1   8
TORSDOF 1
ENDMDL
