MODEL 1
REMARK minimizedAffinity -3.78343105
REMARK minimizedRMSD -1
REMARK  1 active torsions:
REMARK  status: ('A' for Active; 'I' for Inactive)
REMARK    1  A    between atoms: C1_2  and  C2_3 
ROOT
ATOM      1  C2  UNL d   1      -1.679   3.613  -3.728  0.00  0.00    -0.073 A 
ATOM      2  C3  UNL d   1      -2.580   4.386  -2.987  0.00  0.00    -0.002 A 
ATOM      3  C4  UNL d   1      -3.226   3.843  -1.875  0.00  0.00     0.004 A 
ATOM      4  C5  UNL d   1      -2.974   2.527  -1.490  0.00  0.00    -0.004 A 
ATOM      5  C6  UNL d   1      -2.068   1.742  -2.211  0.00  0.00    -0.075 A 
ATOM      6  C7  UNL d   1      -1.787   0.323  -1.811  0.00  0.00     0.076 C 
ATOM      7  C8  UNL d   1      -1.425   2.293  -3.328  0.00  0.00     0.001 A 
ENDROOT
BRANCH   1   8
ATOM      8  C1  UNL d   1      -0.975   4.197  -4.925  0.00  0.00     0.053 C 
ATOM      9  C   UNL d   1       0.536   4.069  -4.815  0.00  0.00     0.018 C 
ENDBRANCH   1   8
TORSDOF 1
ENDMDL
