MODEL 1
REMARK minimizedAffinity -2.54862404
REMARK minimizedRMSD -1
REMARK  1 active torsions:
REMARK  status: ('A' for Active; 'I' for Inactive)
REMARK    1  A    between atoms: C1_2  and  C2_3 
ROOT
ATOM      1  C2  UNL d   1      -2.623   3.187  -2.950  0.00  0.00    -0.073 A 
ATOM      2  C3  UNL d   1      -3.368   4.353  -2.737  0.00  0.00    -0.002 A 
ATOM      3  C4  UNL d   1      -3.046   5.528  -3.416  0.00  0.00     0.004 A 
ATOM      4  C5  UNL d   1      -1.983   5.549  -4.320  0.00  0.00    -0.004 A 
ATOM      5  C6  UNL d   1      -1.235   4.391  -4.555  0.00  0.00    -0.075 A 
ATOM      6  C7  UNL d   1      -0.088   4.397  -5.522  0.00  0.00     0.076 C 
ATOM      7  C8  UNL d   1      -1.563   3.215  -3.867  0.00  0.00     0.001 A 
ENDROOT
BRANCH   1   8
ATOM      8  C1  UNL d   1      -2.971   1.913  -2.224  0.00  0.00     0.053 C 
ATOM      9  C   UNL d   1      -1.981   0.798  -2.522  0.00  0.00     0.018 C 
ENDBRANCH   1   8
TORSDOF 1
ENDMDL
