MODEL 1
REMARK minimizedAffinity -2.60924387
REMARK minimizedRMSD -1
REMARK  0 active torsions:
REMARK  status: ('A' for Active; 'I' for Inactive)
ROOT
ATOM      1  C   UNL d   1       2.714   0.426  -0.593  0.00  0.00     0.172 C 
ATOM      2  N   UNL d   1       1.533   0.824   0.137  0.00  0.00    -0.070 N 
ATOM      3  C1  UNL d   1       0.361   0.119   0.205  0.00  0.00    -0.004 A 
ATOM      4  C2  UNL d   1      -0.514   0.831   0.995  0.00  0.00    -0.047 A 
ATOM      5  C3  UNL d   1       0.154   2.005   1.417  0.00  0.00    -0.047 A 
ATOM      6  C4  UNL d   1       1.420   1.975   0.871  0.00  0.00    -0.004 A 
ENDROOT
TORSDOF 0
ENDMDL
