MODEL 1
REMARK minimizedAffinity -3.97888517
REMARK minimizedRMSD -1
REMARK  0 active torsions:
REMARK  status: ('A' for Active; 'I' for Inactive)
ROOT
ATOM      1  C   UNL d   1      -1.309   0.209   1.481  0.00  0.00     0.172 C 
ATOM      2  N   UNL d   1      -0.143   0.956   1.072  0.00  0.00    -0.070 N 
ATOM      3  C1  UNL d   1       0.298   2.121   1.640  0.00  0.00    -0.004 A 
ATOM      4  C2  UNL d   1       1.435   2.515   0.967  0.00  0.00    -0.047 A 
ATOM      5  C3  UNL d   1       1.684   1.554  -0.041  0.00  0.00    -0.047 A 
ATOM      6  C4  UNL d   1       0.692   0.600   0.046  0.00  0.00    -0.004 A 
ENDROOT
TORSDOF 0
ENDMDL
