MODEL 1
REMARK minimizedAffinity -2.87007976
REMARK minimizedRMSD -1
REMARK  0 active torsions:
REMARK  status: ('A' for Active; 'I' for Inactive)
ROOT
ATOM      1  C   UNL d   1      -2.286  -1.739  -2.287  0.00  0.00     0.172 C 
ATOM      2  N   UNL d   1      -0.987  -1.130  -2.120  0.00  0.00    -0.070 N 
ATOM      3  C1  UNL d   1      -0.291  -0.458  -3.089  0.00  0.00    -0.004 A 
ATOM      4  C2  UNL d   1       0.897  -0.031  -2.536  0.00  0.00    -0.047 A 
ATOM      5  C3  UNL d   1       0.916  -0.462  -1.188  0.00  0.00    -0.047 A 
ATOM      6  C4  UNL d   1      -0.263  -1.140  -0.958  0.00  0.00    -0.004 A 
ENDROOT
TORSDOF 0
ENDMDL
