MODEL 1
REMARK minimizedAffinity -3.47992039
REMARK minimizedRMSD -1
REMARK  0 active torsions:
REMARK  status: ('A' for Active; 'I' for Inactive)
ROOT
ATOM      1  C   UNL d   1      -0.596  -0.713  -0.601  0.00  0.00     0.172 C 
ATOM      2  N   UNL d   1      -0.111   0.465   0.079  0.00  0.00    -0.070 N 
ATOM      3  C1  UNL d   1       1.045   1.137  -0.216  0.00  0.00    -0.004 A 
ATOM      4  C2  UNL d   1       1.149   2.200   0.656  0.00  0.00    -0.047 A 
ATOM      5  C3  UNL d   1       0.017   2.163   1.505  0.00  0.00    -0.047 A 
ATOM      6  C4  UNL d   1      -0.746   1.079   1.126  0.00  0.00    -0.004 A 
ENDROOT
TORSDOF 0
ENDMDL
