MODEL 1
REMARK minimizedAffinity -3.72506118
REMARK minimizedRMSD -1
REMARK  0 active torsions:
REMARK  status: ('A' for Active; 'I' for Inactive)
ROOT
ATOM      1  C   UNL d   1      -0.411   0.092  -0.750  0.00  0.00     0.172 C 
ATOM      2  N   UNL d   1       0.102   0.924   0.313  0.00  0.00    -0.070 N 
ATOM      3  C1  UNL d   1       1.280   1.621   0.283  0.00  0.00    -0.004 A 
ATOM      4  C2  UNL d   1       1.406   2.288   1.482  0.00  0.00    -0.047 A 
ATOM      5  C3  UNL d   1       0.265   1.980   2.260  0.00  0.00    -0.047 A 
ATOM      6  C4  UNL d   1      -0.526   1.133   1.512  0.00  0.00    -0.004 A 
ENDROOT
TORSDOF 0
ENDMDL
