MODEL 1
REMARK minimizedAffinity -3.78405356
REMARK minimizedRMSD -1
REMARK  0 active torsions:
REMARK  status: ('A' for Active; 'I' for Inactive)
ROOT
ATOM      1  C   UNL d   1      -1.389   0.822   1.117  0.00  0.00     0.172 C 
ATOM      2  N   UNL d   1      -0.100   1.460   0.993  0.00  0.00    -0.070 N 
ATOM      3  C1  UNL d   1       0.778   1.292  -0.045  0.00  0.00    -0.004 A 
ATOM      4  C2  UNL d   1       1.886   2.070   0.210  0.00  0.00    -0.047 A 
ATOM      5  C3  UNL d   1       1.668   2.728   1.444  0.00  0.00    -0.047 A 
ATOM      6  C4  UNL d   1       0.431   2.332   1.907  0.00  0.00    -0.004 A 
ENDROOT
TORSDOF 0
ENDMDL
