MODEL 1
REMARK minimizedAffinity -3.20109725
REMARK minimizedRMSD -1
REMARK  0 active torsions:
REMARK  status: ('A' for Active; 'I' for Inactive)
ROOT
ATOM      1  C   UNL d   1      -0.098  -0.794  -0.745  0.00  0.00     0.172 C 
ATOM      2  N   UNL d   1       0.129   0.296   0.175  0.00  0.00    -0.070 N 
ATOM      3  C1  UNL d   1       1.231   1.108   0.195  0.00  0.00    -0.004 A 
ATOM      4  C2  UNL d   1       1.067   2.018   1.217  0.00  0.00    -0.047 A 
ATOM      5  C3  UNL d   1      -0.177   1.742   1.833  0.00  0.00    -0.047 A 
ATOM      6  C4  UNL d   1      -0.736   0.671   1.169  0.00  0.00    -0.004 A 
ENDROOT
TORSDOF 0
ENDMDL
