MODEL 1
REMARK minimizedAffinity -3.56198835
REMARK minimizedRMSD -1
REMARK  0 active torsions:
REMARK  status: ('A' for Active; 'I' for Inactive)
ROOT
ATOM      1  C   UNL d   1      -1.276   0.132   1.347  0.00  0.00     0.172 C 
ATOM      2  N   UNL d   1      -0.177   0.948   0.888  0.00  0.00    -0.070 N 
ATOM      3  C1  UNL d   1       0.693   0.623  -0.119  0.00  0.00    -0.004 A 
ATOM      4  C2  UNL d   1       1.592   1.660  -0.250  0.00  0.00    -0.047 A 
ATOM      5  C3  UNL d   1       1.251   2.640   0.711  0.00  0.00    -0.047 A 
ATOM      6  C4  UNL d   1       0.153   2.174   1.402  0.00  0.00    -0.004 A 
ENDROOT
TORSDOF 0
ENDMDL
