MODEL 1
REMARK minimizedAffinity -2.94620299
REMARK minimizedRMSD -1
REMARK  0 active torsions:
REMARK  status: ('A' for Active; 'I' for Inactive)
ROOT
ATOM      1  C   UNL d   1      -0.383  -1.087  -0.177  0.00  0.00     0.172 C 
ATOM      2  N   UNL d   1      -1.325  -1.387  -1.229  0.00  0.00    -0.070 N 
ATOM      3  C1  UNL d   1      -1.230  -0.966  -2.529  0.00  0.00    -0.004 A 
ATOM      4  C2  UNL d   1      -2.319  -1.461  -3.213  0.00  0.00    -0.047 A 
ATOM      5  C3  UNL d   1      -3.095  -2.206  -2.293  0.00  0.00    -0.047 A 
ATOM      6  C4  UNL d   1      -2.456  -2.143  -1.073  0.00  0.00    -0.004 A 
ENDROOT
TORSDOF 0
ENDMDL
