MODEL 1
REMARK minimizedAffinity -1.76264
REMARK minimizedRMSD -1
REMARK  0 active torsions:
REMARK  status: ('A' for Active; 'I' for Inactive)
ROOT
ATOM      1  C   UNL d   1      -0.090  -1.237  -0.584  0.00  0.00     0.172 C 
ATOM      2  N   UNL d   1      -1.000  -1.424  -1.689  0.00  0.00    -0.070 N 
ATOM      3  C1  UNL d   1      -0.867  -0.873  -2.935  0.00  0.00    -0.004 A 
ATOM      4  C2  UNL d   1      -1.936  -1.292  -3.698  0.00  0.00    -0.047 A 
ATOM      5  C3  UNL d   1      -2.740  -2.122  -2.882  0.00  0.00    -0.047 A 
ATOM      6  C4  UNL d   1      -2.138  -2.187  -1.643  0.00  0.00    -0.004 A 
ENDROOT
TORSDOF 0
ENDMDL
