MODEL 1
REMARK minimizedAffinity -3.68504024
REMARK minimizedRMSD -1
REMARK  0 active torsions:
REMARK  status: ('A' for Active; 'I' for Inactive)
ROOT
ATOM      1  C   UNL d   1      -0.142   0.195   0.003  0.00  0.00     0.172 C 
ATOM      2  N   UNL d   1       0.952   1.032   0.439  0.00  0.00    -0.070 N 
ATOM      3  C1  UNL d   1       2.161   1.157  -0.192  0.00  0.00    -0.004 A 
ATOM      4  C2  UNL d   1       2.925   2.045   0.534  0.00  0.00    -0.047 A 
ATOM      5  C3  UNL d   1       2.149   2.467   1.639  0.00  0.00    -0.047 A 
ATOM      6  C4  UNL d   1       0.932   1.824   1.556  0.00  0.00    -0.004 A 
ENDROOT
TORSDOF 0
ENDMDL
