MODEL 1
REMARK minimizedAffinity -0.839170396
REMARK minimizedRMSD -1
REMARK  0 active torsions:
REMARK  status: ('A' for Active; 'I' for Inactive)
ROOT
ATOM      1  C   UNL d   1      -0.079  -1.447  -0.714  0.00  0.00     0.172 C 
ATOM      2  N   UNL d   1       0.646  -0.233  -0.425  0.00  0.00    -0.070 N 
ATOM      3  C1  UNL d   1       1.812   0.163  -1.023  0.00  0.00    -0.004 A 
ATOM      4  C2  UNL d   1       2.180   1.371  -0.473  0.00  0.00    -0.047 A 
ATOM      5  C3  UNL d   1       1.202   1.714   0.490  0.00  0.00    -0.047 A 
ATOM      6  C4  UNL d   1       0.263   0.703   0.499  0.00  0.00    -0.004 A 
ENDROOT
TORSDOF 0
ENDMDL
