MODEL 1
REMARK minimizedAffinity -3.66513371
REMARK minimizedRMSD -1
REMARK  0 active torsions:
REMARK  status: ('A' for Active; 'I' for Inactive)
ROOT
ATOM      1  C   UNL d   1      -0.731  -0.815  -0.793  0.00  0.00     0.172 C 
ATOM      2  N   UNL d   1      -0.204   0.286  -0.021  0.00  0.00    -0.070 N 
ATOM      3  C1  UNL d   1      -0.710   0.743   1.166  0.00  0.00    -0.004 A 
ATOM      4  C2  UNL d   1       0.073   1.800   1.579  0.00  0.00    -0.047 A 
ATOM      5  C3  UNL d   1       1.083   1.984   0.606  0.00  0.00    -0.047 A 
ATOM      6  C4  UNL d   1       0.889   1.034  -0.373  0.00  0.00    -0.004 A 
ENDROOT
TORSDOF 0
ENDMDL
