MODEL 1
REMARK minimizedAffinity -0.874686897
REMARK minimizedRMSD -1
REMARK  0 active torsions:
REMARK  status: ('A' for Active; 'I' for Inactive)
ROOT
ATOM      1  C   UNL d   1      -1.776  -2.193  -1.617  0.00  0.00     0.172 C 
ATOM      2  N   UNL d   1      -1.008  -1.340  -0.741  0.00  0.00    -0.070 N 
ATOM      3  C1  UNL d   1      -1.407  -0.894   0.491  0.00  0.00    -0.004 A 
ATOM      4  C2  UNL d   1      -0.396  -0.110   1.004  0.00  0.00    -0.047 A 
ATOM      5  C3  UNL d   1       0.646  -0.084   0.047  0.00  0.00    -0.047 A 
ATOM      6  C4  UNL d   1       0.241  -0.853  -1.023  0.00  0.00    -0.004 A 
ENDROOT
TORSDOF 0
ENDMDL
