MODEL 1
REMARK minimizedAffinity -3.17406416
REMARK minimizedRMSD -1
REMARK  0 active torsions:
REMARK  status: ('A' for Active; 'I' for Inactive)
ROOT
ATOM      1  C   UNL d   1       0.728   2.977   1.092  0.00  0.00     0.172 C 
ATOM      2  N   UNL d   1      -0.106   1.805   0.962  0.00  0.00    -0.070 N 
ATOM      3  C1  UNL d   1      -1.197   1.512   1.736  0.00  0.00    -0.004 A 
ATOM      4  C2  UNL d   1      -1.715   0.312   1.298  0.00  0.00    -0.047 A 
ATOM      5  C3  UNL d   1      -0.907  -0.131   0.224  0.00  0.00    -0.047 A 
ATOM      6  C4  UNL d   1       0.082   0.812   0.037  0.00  0.00    -0.004 A 
ENDROOT
TORSDOF 0
ENDMDL
