MODEL 1
REMARK minimizedAffinity -3.16468787
REMARK minimizedRMSD -1
REMARK  0 active torsions:
REMARK  status: ('A' for Active; 'I' for Inactive)
ROOT
ATOM      1  C   UNL d   1       0.429   0.069  -0.779  0.00  0.00     0.172 C 
ATOM      2  N   UNL d   1       1.309   0.981  -0.086  0.00  0.00    -0.070 N 
ATOM      3  C1  UNL d   1       2.671   1.032  -0.218  0.00  0.00    -0.004 A 
ATOM      4  C2  UNL d   1       3.138   2.033   0.606  0.00  0.00    -0.047 A 
ATOM      5  C3  UNL d   1       2.018   2.603   1.256  0.00  0.00    -0.047 A 
ATOM      6  C4  UNL d   1       0.898   1.933   0.809  0.00  0.00    -0.004 A 
ENDROOT
TORSDOF 0
ENDMDL
