MODEL 1
REMARK minimizedAffinity -2.29283166
REMARK minimizedRMSD -1
REMARK  0 active torsions:
REMARK  status: ('A' for Active; 'I' for Inactive)
ROOT
ATOM      1  C   UNL d   1       0.462  -1.462  -0.799  0.00  0.00     0.172 C 
ATOM      2  N   UNL d   1      -0.669  -1.685  -1.669  0.00  0.00    -0.070 N 
ATOM      3  C1  UNL d   1      -0.718  -1.390  -3.006  0.00  0.00    -0.004 A 
ATOM      4  C2  UNL d   1      -1.964  -1.752  -3.472  0.00  0.00    -0.047 A 
ATOM      5  C3  UNL d   1      -2.688  -2.282  -2.378  0.00  0.00    -0.047 A 
ATOM      6  C4  UNL d   1      -1.863  -2.229  -1.274  0.00  0.00    -0.004 A 
ENDROOT
TORSDOF 0
ENDMDL
