MODEL 1
REMARK minimizedAffinity 2.84330297
REMARK minimizedRMSD -1
REMARK  0 active torsions:
REMARK  status: ('A' for Active; 'I' for Inactive)
ROOT
ATOM      1  C   UNL d   1      -1.607  -3.774   4.187  0.00  0.00     0.172 C 
ATOM      2  N   UNL d   1      -2.679  -2.925   4.651  0.00  0.00    -0.070 N 
ATOM      3  C1  UNL d   1      -3.775  -3.337   5.361  0.00  0.00    -0.004 A 
ATOM      4  C2  UNL d   1      -4.557  -2.231   5.610  0.00  0.00    -0.047 A 
ATOM      5  C3  UNL d   1      -3.910  -1.115   5.029  0.00  0.00    -0.047 A 
ATOM      6  C4  UNL d   1      -2.750  -1.573   4.442  0.00  0.00    -0.004 A 
ENDROOT
TORSDOF 0
ENDMDL
