MODEL 1
REMARK minimizedAffinity 4.39436722
REMARK minimizedRMSD -1
REMARK  2 active torsions:
REMARK  status: ('A' for Active; 'I' for Inactive)
REMARK    1  A    between atoms: C1_2  and  C2_3 
REMARK    2  A    between atoms: C2_3  and  C3_4 
ROOT
ATOM      1  C3  UNL d   1      -0.261   3.963  -0.547  0.00  0.00    -0.075 A 
ATOM      2  C4  UNL d   1      -0.458   2.964  -1.512  0.00  0.00     0.002 A 
ATOM      3  C5  UNL d   1      -0.576   1.627  -1.133  0.00  0.00     0.002 A 
ATOM      4  C6  UNL d   1      -0.489   1.270   0.211  0.00  0.00    -0.004 A 
ATOM      5  C7  UNL d   1      -0.277   2.252   1.176  0.00  0.00     0.002 A 
ATOM      6  C8  UNL d   1      -0.163   3.591   0.801  0.00  0.00     0.002 A 
ENDROOT
BRANCH   1   7
ATOM      7  C2  UNL d   1      -0.162   5.415  -0.947  0.00  0.00     0.056 C 
BRANCH   7   8
ATOM      8  C1  UNL d   1      -1.464   5.999  -1.505  0.00  0.00     0.007 C 
ATOM      9  C   UNL d   1      -1.518   6.000  -3.027  0.00  0.00     0.009 C 
ENDBRANCH   7   8
ENDBRANCH   1   7
TORSDOF 2
ENDMDL
