MODEL 1
REMARK minimizedAffinity -1.19164109
REMARK minimizedRMSD -1
REMARK  2 active torsions:
REMARK  status: ('A' for Active; 'I' for Inactive)
REMARK    1  A    between atoms: C1_2  and  C2_3 
REMARK    2  A    between atoms: C2_3  and  C3_4 
ROOT
ATOM      1  C3  UNL d   1      -5.807  -1.617   3.517  0.00  0.00    -0.075 A 
ATOM      2  C4  UNL d   1      -6.000  -1.162   4.830  0.00  0.00     0.002 A 
ATOM      3  C5  UNL d   1      -5.999  -2.060   5.898  0.00  0.00     0.002 A 
ATOM      4  C6  UNL d   1      -5.817  -3.421   5.668  0.00  0.00    -0.004 A 
ATOM      5  C7  UNL d   1      -5.641  -3.887   4.366  0.00  0.00     0.002 A 
ATOM      6  C8  UNL d   1      -5.637  -2.991   3.296  0.00  0.00     0.002 A 
ENDROOT
BRANCH   1   7
ATOM      7  C2  UNL d   1      -5.777  -0.648   2.360  0.00  0.00     0.056 C 
BRANCH   7   8
ATOM      8  C1  UNL d   1      -5.244  -1.250   1.056  0.00  0.00     0.007 C 
ATOM      9  C   UNL d   1      -5.416  -0.329  -0.145  0.00  0.00     0.009 C 
ENDBRANCH   7   8
ENDBRANCH   1   7
TORSDOF 2
ENDMDL
