MODEL 1
REMARK minimizedAffinity -4.3985424
REMARK minimizedRMSD -1
REMARK  2 active torsions:
REMARK  status: ('A' for Active; 'I' for Inactive)
REMARK    1  A    between atoms: C1_2  and  C2_3 
REMARK    2  A    between atoms: C2_3  and  C3_4 
ROOT
ATOM      1  C3  UNL d   1       3.949  -3.847  -1.227  0.00  0.00    -0.075 A 
ATOM      2  C4  UNL d   1       2.848  -3.388  -0.490  0.00  0.00     0.002 A 
ATOM      3  C5  UNL d   1       2.938  -2.216   0.262  0.00  0.00     0.002 A 
ATOM      4  C6  UNL d   1       4.130  -1.496   0.296  0.00  0.00    -0.004 A 
ATOM      5  C7  UNL d   1       5.235  -1.952  -0.419  0.00  0.00     0.002 A 
ATOM      6  C8  UNL d   1       5.147  -3.121  -1.176  0.00  0.00     0.002 A 
ENDROOT
BRANCH   1   7
ATOM      7  C2  UNL d   1       3.849  -5.098  -2.066  0.00  0.00     0.056 C 
BRANCH   7   8
ATOM      8  C1  UNL d   1       3.844  -4.837  -3.576  0.00  0.00     0.007 C 
ATOM      9  C   UNL d   1       2.824  -3.789  -4.001  0.00  0.00     0.009 C 
ENDBRANCH   7   8
ENDBRANCH   1   7
TORSDOF 2
ENDMDL
