MODEL 1
REMARK minimizedAffinity 0.334246814
REMARK minimizedRMSD -1
REMARK  2 active torsions:
REMARK  status: ('A' for Active; 'I' for Inactive)
REMARK    1  A    between atoms: C1_2  and  C2_3 
REMARK    2  A    between atoms: C2_3  and  C3_4 
ROOT
ATOM      1  C3  UNL d   1       4.458  -3.425  -1.535  0.00  0.00    -0.075 A 
ATOM      2  C4  UNL d   1       3.598  -3.094  -2.591  0.00  0.00     0.002 A 
ATOM      3  C5  UNL d   1       3.326  -4.019  -3.600  0.00  0.00     0.002 A 
ATOM      4  C6  UNL d   1       3.916  -5.281  -3.570  0.00  0.00    -0.004 A 
ATOM      5  C7  UNL d   1       4.785  -5.615  -2.533  0.00  0.00     0.002 A 
ATOM      6  C8  UNL d   1       5.056  -4.692  -1.521  0.00  0.00     0.002 A 
ENDROOT
BRANCH   1   7
ATOM      7  C2  UNL d   1       4.734  -2.439  -0.425  0.00  0.00     0.056 C 
BRANCH   7   8
ATOM      8  C1  UNL d   1       3.472  -1.845   0.209  0.00  0.00     0.007 C 
ATOM      9  C   UNL d   1       2.591  -2.888   0.883  0.00  0.00     0.009 C 
ENDBRANCH   7   8
ENDBRANCH   1   7
TORSDOF 2
ENDMDL
