MODEL 1
REMARK minimizedAffinity 1.11236727
REMARK minimizedRMSD -1
REMARK  0 active torsions:
REMARK  status: ('A' for Active; 'I' for Inactive)
ROOT
ATOM      1  C   UNL d   1       3.352   3.096   4.033  0.00  0.00     0.124 A 
ATOM      2  C1  UNL d   1       2.486   2.741   3.008  0.00  0.00     0.062 A 
ATOM      3  C2  UNL d   1       2.800   3.050   1.688  0.00  0.00     0.162 A 
ATOM      4  C3  UNL d   1       3.986   3.719   1.384  0.00  0.00    -0.034 A 
ATOM      5  C4  UNL d   1       4.851   4.074   2.421  0.00  0.00     0.162 A 
ATOM      6  C5  UNL d   1       4.533   3.763   3.739  0.00  0.00     0.062 A 
ATOM      7  F   UNL d   1       5.371   4.107   4.728  0.00  0.00    -0.097 F 
ATOM      8  F1  UNL d   1       6.000   4.718   2.165  0.00  0.00    -0.096 F 
ATOM      9  I   UNL d   1       4.459   4.184  -0.588  0.00  0.00    -0.060 I 
ATOM     10  F2  UNL d   1       1.945   2.694   0.717  0.00  0.00    -0.096 F 
ATOM     11  F3  UNL d   1       1.344   2.098   3.290  0.00  0.00    -0.097 F 
ATOM     12  F4  UNL d   1       3.047   2.798   5.302  0.00  0.00    -0.092 F 
ENDROOT
TORSDOF 0
ENDMDL
