MODEL 1
REMARK minimizedAffinity -3.41722322
REMARK minimizedRMSD -1
REMARK  0 active torsions:
REMARK  status: ('A' for Active; 'I' for Inactive)
ROOT
ATOM      1  C   UNL d   1       1.550  -0.161   1.814  0.00  0.00     0.124 A 
ATOM      2  C1  UNL d   1       1.044   0.775   0.924  0.00  0.00     0.062 A 
ATOM      3  C2  UNL d   1      -0.073   0.474   0.150  0.00  0.00     0.162 A 
ATOM      4  C3  UNL d   1      -0.693  -0.771   0.265  0.00  0.00    -0.034 A 
ATOM      5  C4  UNL d   1      -0.178  -1.708   1.162  0.00  0.00     0.162 A 
ATOM      6  C5  UNL d   1       0.939  -1.401   1.933  0.00  0.00     0.062 A 
ATOM      7  F   UNL d   1       1.426  -2.307   2.793  0.00  0.00    -0.097 F 
ATOM      8  F1  UNL d   1      -0.750  -2.914   1.298  0.00  0.00    -0.096 F 
ATOM      9  I   UNL d   1      -2.364  -1.226  -0.889  0.00  0.00    -0.060 I 
ATOM     10  F2  UNL d   1      -0.541   1.398  -0.702  0.00  0.00    -0.096 F 
ATOM     11  F3  UNL d   1       1.633   1.974   0.806  0.00  0.00    -0.097 F 
ATOM     12  F4  UNL d   1       2.626   0.131   2.556  0.00  0.00    -0.092 F 
ENDROOT
TORSDOF 0
ENDMDL
