MODEL 1
REMARK minimizedAffinity -6.65487051
REMARK minimizedRMSD -1
REMARK  0 active torsions:
REMARK  status: ('A' for Active; 'I' for Inactive)
ROOT
ATOM      1  C   UNL d   1      -1.668  -1.157   0.199  0.00  0.00     0.124 A 
ATOM      2  C1  UNL d   1      -0.570  -1.460   0.991  0.00  0.00     0.062 A 
ATOM      3  C2  UNL d   1       0.485  -0.558   1.099  0.00  0.00     0.162 A 
ATOM      4  C3  UNL d   1       0.446   0.657   0.415  0.00  0.00    -0.034 A 
ATOM      5  C4  UNL d   1      -0.662   0.954  -0.381  0.00  0.00     0.162 A 
ATOM      6  C5  UNL d   1      -1.714   0.050  -0.486  0.00  0.00     0.062 A 
ATOM      7  F   UNL d   1      -2.775   0.344  -1.252  0.00  0.00    -0.097 F 
ATOM      8  F1  UNL d   1      -0.733   2.113  -1.053  0.00  0.00    -0.096 F 
ATOM      9  I   UNL d   1       2.020   2.008   0.574  0.00  0.00    -0.060 I 
ATOM     10  F2  UNL d   1       1.534  -0.877   1.872  0.00  0.00    -0.096 F 
ATOM     11  F3  UNL d   1      -0.523  -2.625   1.653  0.00  0.00    -0.097 F 
ATOM     12  F4  UNL d   1      -2.681  -2.027   0.095  0.00  0.00    -0.092 F 
ENDROOT
TORSDOF 0
ENDMDL
