MODEL 1
REMARK minimizedAffinity 13.0257053
REMARK minimizedRMSD -1
REMARK  0 active torsions:
REMARK  status: ('A' for Active; 'I' for Inactive)
ROOT
ATOM      1  C   UNL d   1       1.455  -1.775   2.627  0.00  0.00     0.124 A 
ATOM      2  C1  UNL d   1       0.152  -2.254   2.625  0.00  0.00     0.062 A 
ATOM      3  C2  UNL d   1      -0.895  -1.438   3.043  0.00  0.00     0.162 A 
ATOM      4  C3  UNL d   1      -0.644  -0.133   3.466  0.00  0.00    -0.034 A 
ATOM      5  C4  UNL d   1       0.669   0.343   3.466  0.00  0.00     0.162 A 
ATOM      6  C5  UNL d   1       1.712  -0.477   3.047  0.00  0.00     0.062 A 
ATOM      7  F   UNL d   1       2.970  -0.012   3.049  0.00  0.00    -0.097 F 
ATOM      8  F1  UNL d   1       0.946   1.593   3.866  0.00  0.00    -0.096 F 
ATOM      9  I   UNL d   1      -2.207   1.091   4.092  0.00  0.00    -0.060 I 
ATOM     10  F2  UNL d   1      -2.143  -1.928   3.031  0.00  0.00    -0.096 F 
ATOM     11  F3  UNL d   1      -0.098  -3.508   2.221  0.00  0.00    -0.097 F 
ATOM     12  F4  UNL d   1       2.461  -2.562   2.225  0.00  0.00    -0.092 F 
ENDROOT
TORSDOF 0
ENDMDL
