MODEL 1
REMARK minimizedAffinity 18.1495495
REMARK minimizedRMSD -1
REMARK  0 active torsions:
REMARK  status: ('A' for Active; 'I' for Inactive)
ROOT
ATOM      1  C   UNL d   1      -2.593   1.432  -1.662  0.00  0.00     0.124 A 
ATOM      2  C1  UNL d   1      -3.452   0.578  -0.985  0.00  0.00     0.062 A 
ATOM      3  C2  UNL d   1      -3.178  -0.785  -0.921  0.00  0.00     0.162 A 
ATOM      4  C3  UNL d   1      -2.037  -1.303  -1.534  0.00  0.00    -0.034 A 
ATOM      5  C4  UNL d   1      -1.178  -0.438  -2.214  0.00  0.00     0.162 A 
ATOM      6  C5  UNL d   1      -1.457   0.923  -2.276  0.00  0.00     0.062 A 
ATOM      7  F   UNL d   1      -0.625   1.746  -2.930  0.00  0.00    -0.097 F 
ATOM      8  F1  UNL d   1      -0.072  -0.903  -2.815  0.00  0.00    -0.096 F 
ATOM      9  I   UNL d   1      -1.623  -3.341  -1.440  0.00  0.00    -0.060 I 
ATOM     10  F2  UNL d   1      -4.026  -1.587  -0.260  0.00  0.00    -0.096 F 
ATOM     11  F3  UNL d   1      -4.551   1.066  -0.393  0.00  0.00    -0.097 F 
ATOM     12  F4  UNL d   1      -2.860   2.742  -1.724  0.00  0.00    -0.092 F 
ENDROOT
TORSDOF 0
ENDMDL
