MODEL 1
REMARK minimizedAffinity 10.9749365
REMARK minimizedRMSD -1
REMARK  0 active torsions:
REMARK  status: ('A' for Active; 'I' for Inactive)
ROOT
ATOM      1  C   UNL d   1       0.447  -1.594   2.155  0.00  0.00     0.124 A 
ATOM      2  C1  UNL d   1      -0.806  -2.106   1.847  0.00  0.00     0.062 A 
ATOM      3  C2  UNL d   1      -1.336  -1.939   0.571  0.00  0.00     0.162 A 
ATOM      4  C3  UNL d   1      -0.613  -1.257  -0.408  0.00  0.00    -0.034 A 
ATOM      5  C4  UNL d   1       0.646  -0.744  -0.090  0.00  0.00     0.162 A 
ATOM      6  C5  UNL d   1       1.172  -0.914   1.187  0.00  0.00     0.062 A 
ATOM      7  F   UNL d   1       2.382  -0.418   1.482  0.00  0.00    -0.097 F 
ATOM      8  F1  UNL d   1       1.368  -0.082  -1.007  0.00  0.00    -0.096 F 
ATOM      9  I   UNL d   1      -1.402  -1.004  -2.317  0.00  0.00    -0.060 I 
ATOM     10  F2  UNL d   1      -2.549  -2.444   0.301  0.00  0.00    -0.096 F 
ATOM     11  F3  UNL d   1      -1.508  -2.764   2.781  0.00  0.00    -0.097 F 
ATOM     12  F4  UNL d   1       0.955  -1.756   3.384  0.00  0.00    -0.092 F 
ENDROOT
TORSDOF 0
ENDMDL
