MODEL 1
REMARK minimizedAffinity 15.5444269
REMARK minimizedRMSD -1
REMARK  0 active torsions:
REMARK  status: ('A' for Active; 'I' for Inactive)
ROOT
ATOM      1  C   UNL d   1      -1.282  -1.849   0.223  0.00  0.00     0.124 A 
ATOM      2  C1  UNL d   1      -2.473  -1.476  -0.384  0.00  0.00     0.062 A 
ATOM      3  C2  UNL d   1      -2.460  -0.636  -1.494  0.00  0.00     0.162 A 
ATOM      4  C3  UNL d   1      -1.250  -0.164  -2.004  0.00  0.00    -0.034 A 
ATOM      5  C4  UNL d   1      -0.057  -0.543  -1.388  0.00  0.00     0.162 A 
ATOM      6  C5  UNL d   1      -0.075  -1.383  -0.279  0.00  0.00     0.062 A 
ATOM      7  F   UNL d   1       1.076  -1.742   0.307  0.00  0.00    -0.097 F 
ATOM      8  F1  UNL d   1       1.123  -0.107  -1.853  0.00  0.00    -0.096 F 
ATOM      9  I   UNL d   1      -1.226   1.093  -3.663  0.00  0.00    -0.060 I 
ATOM     10  F2  UNL d   1      -3.625  -0.292  -2.061  0.00  0.00    -0.096 F 
ATOM     11  F3  UNL d   1      -3.640  -1.925   0.099  0.00  0.00    -0.097 F 
ATOM     12  F4  UNL d   1      -1.298  -2.657   1.291  0.00  0.00    -0.092 F 
ENDROOT
TORSDOF 0
ENDMDL
