MODEL 1
REMARK minimizedAffinity -5.66958475
REMARK minimizedRMSD -1
REMARK  0 active torsions:
REMARK  status: ('A' for Active; 'I' for Inactive)
ROOT
ATOM      1  C   UNL d   1      -2.000  -0.914   0.090  0.00  0.00     0.124 A 
ATOM      2  C1  UNL d   1      -1.666  -0.143  -1.014  0.00  0.00     0.062 A 
ATOM      3  C2  UNL d   1      -0.473   0.574  -1.032  0.00  0.00     0.162 A 
ATOM      4  C3  UNL d   1       0.395   0.524   0.059  0.00  0.00    -0.034 A 
ATOM      5  C4  UNL d   1       0.051  -0.253   1.167  0.00  0.00     0.162 A 
ATOM      6  C5  UNL d   1      -1.142  -0.968   1.180  0.00  0.00     0.062 A 
ATOM      7  F   UNL d   1      -1.464  -1.713   2.248  0.00  0.00    -0.097 F 
ATOM      8  F1  UNL d   1       0.862  -0.324   2.233  0.00  0.00    -0.096 F 
ATOM      9  I   UNL d   1       2.179   1.595   0.038  0.00  0.00    -0.060 I 
ATOM     10  F2  UNL d   1      -0.175   1.311  -2.112  0.00  0.00    -0.096 F 
ATOM     11  F3  UNL d   1      -2.493  -0.089  -2.068  0.00  0.00    -0.097 F 
ATOM     12  F4  UNL d   1      -3.149  -1.603   0.105  0.00  0.00    -0.092 F 
ENDROOT
TORSDOF 0
ENDMDL
