MODEL 1
REMARK minimizedAffinity 2.69455576
REMARK minimizedRMSD -1
REMARK  0 active torsions:
REMARK  status: ('A' for Active; 'I' for Inactive)
ROOT
ATOM      1  C   UNL d   1      -0.190  -0.135  -0.224  0.00  0.00     0.124 A 
ATOM      2  C1  UNL d   1      -0.762  -0.613  -1.395  0.00  0.00     0.062 A 
ATOM      3  C2  UNL d   1      -1.749  -1.593  -1.344  0.00  0.00     0.162 A 
ATOM      4  C3  UNL d   1      -2.172  -2.102  -0.116  0.00  0.00    -0.034 A 
ATOM      5  C4  UNL d   1      -1.591  -1.617   1.058  0.00  0.00     0.162 A 
ATOM      6  C5  UNL d   1      -0.605  -0.638   1.001  0.00  0.00     0.062 A 
ATOM      7  F   UNL d   1      -0.054  -0.178   2.134  0.00  0.00    -0.097 F 
ATOM      8  F1  UNL d   1      -1.975  -2.085   2.255  0.00  0.00    -0.096 F 
ATOM      9  I   UNL d   1      -3.647  -3.567  -0.035  0.00  0.00    -0.060 I 
ATOM     10  F2  UNL d   1      -2.284  -2.035  -2.492  0.00  0.00    -0.096 F 
ATOM     11  F3  UNL d   1      -0.362  -0.129  -2.580  0.00  0.00    -0.097 F 
ATOM     12  F4  UNL d   1       0.760   0.807  -0.277  0.00  0.00    -0.092 F 
ENDROOT
TORSDOF 0
ENDMDL
