MODEL 1
REMARK minimizedAffinity 10.8246422
REMARK minimizedRMSD -1
REMARK  0 active torsions:
REMARK  status: ('A' for Active; 'I' for Inactive)
ROOT
ATOM      1  C   UNL d   1      -0.760   0.872  -1.446  0.00  0.00     0.124 A 
ATOM      2  C1  UNL d   1      -2.103   0.601  -1.225  0.00  0.00     0.062 A 
ATOM      3  C2  UNL d   1      -2.752  -0.378  -1.973  0.00  0.00     0.162 A 
ATOM      4  C3  UNL d   1      -2.057  -1.094  -2.948  0.00  0.00    -0.034 A 
ATOM      5  C4  UNL d   1      -0.706  -0.815  -3.164  0.00  0.00     0.162 A 
ATOM      6  C5  UNL d   1      -0.063   0.164  -2.414  0.00  0.00     0.062 A 
ATOM      7  F   UNL d   1       1.235   0.424  -2.629  0.00  0.00    -0.097 F 
ATOM      8  F1  UNL d   1      -0.009  -1.485  -4.093  0.00  0.00    -0.096 F 
ATOM      9  I   UNL d   1      -3.023  -2.559  -4.068  0.00  0.00    -0.060 I 
ATOM     10  F2  UNL d   1      -4.050  -0.619  -1.739  0.00  0.00    -0.096 F 
ATOM     11  F3  UNL d   1      -2.779   1.284  -0.290  0.00  0.00    -0.097 F 
ATOM     12  F4  UNL d   1      -0.139   1.815  -0.726  0.00  0.00    -0.092 F 
ENDROOT
TORSDOF 0
ENDMDL
