MODEL 1
REMARK minimizedAffinity 13.3929949
REMARK minimizedRMSD -1
REMARK  0 active torsions:
REMARK  status: ('A' for Active; 'I' for Inactive)
ROOT
ATOM      1  C   UNL d   1      -0.234   0.020  -2.594  0.00  0.00     0.124 A 
ATOM      2  C1  UNL d   1      -1.518  -0.487  -2.444  0.00  0.00     0.062 A 
ATOM      3  C2  UNL d   1      -2.048  -0.681  -1.172  0.00  0.00     0.162 A 
ATOM      4  C3  UNL d   1      -1.296  -0.369  -0.040  0.00  0.00    -0.034 A 
ATOM      5  C4  UNL d   1      -0.005   0.139  -0.199  0.00  0.00     0.162 A 
ATOM      6  C5  UNL d   1       0.521   0.332  -1.473  0.00  0.00     0.062 A 
ATOM      7  F   UNL d   1       1.761   0.821  -1.616  0.00  0.00    -0.097 F 
ATOM      8  F1  UNL d   1       0.746   0.450   0.868  0.00  0.00    -0.096 F 
ATOM      9  I   UNL d   1      -2.086  -0.659   1.864  0.00  0.00    -0.060 I 
ATOM     10  F2  UNL d   1      -3.291  -1.172  -1.056  0.00  0.00    -0.096 F 
ATOM     11  F3  UNL d   1      -2.248  -0.790  -3.526  0.00  0.00    -0.097 F 
ATOM     12  F4  UNL d   1       0.275   0.205  -3.819  0.00  0.00    -0.092 F 
ENDROOT
TORSDOF 0
ENDMDL
