MODEL 1
REMARK minimizedAffinity 22.4946079
REMARK minimizedRMSD -1
REMARK  0 active torsions:
REMARK  status: ('A' for Active; 'I' for Inactive)
ROOT
ATOM      1  C   UNL d   1      -2.879  -3.430  -1.245  0.00  0.00     0.124 A 
ATOM      2  C1  UNL d   1      -2.748  -2.600  -2.349  0.00  0.00     0.062 A 
ATOM      3  C2  UNL d   1      -1.976  -1.445  -2.269  0.00  0.00     0.162 A 
ATOM      4  C3  UNL d   1      -1.326  -1.114  -1.080  0.00  0.00    -0.034 A 
ATOM      5  C4  UNL d   1      -1.463  -1.953   0.027  0.00  0.00     0.162 A 
ATOM      6  C5  UNL d   1      -2.237  -3.106  -0.058  0.00  0.00     0.062 A 
ATOM      7  F   UNL d   1      -2.362  -3.908   1.010  0.00  0.00    -0.097 F 
ATOM      8  F1  UNL d   1      -0.853  -1.665   1.186  0.00  0.00    -0.096 F 
ATOM      9  I   UNL d   1      -0.170   0.612  -0.956  0.00  0.00    -0.060 I 
ATOM     10  F2  UNL d   1      -1.867  -0.661  -3.352  0.00  0.00    -0.096 F 
ATOM     11  F3  UNL d   1      -3.369  -2.910  -3.497  0.00  0.00    -0.097 F 
ATOM     12  F4  UNL d   1      -3.624  -4.540  -1.324  0.00  0.00    -0.092 F 
ENDROOT
TORSDOF 0
ENDMDL
