MODEL 1
REMARK minimizedAffinity 11.4406586
REMARK minimizedRMSD -1
REMARK  0 active torsions:
REMARK  status: ('A' for Active; 'I' for Inactive)
ROOT
ATOM      1  C   UNL d   1      -0.019   0.514  -1.171  0.00  0.00     0.124 A 
ATOM      2  C1  UNL d   1      -1.138  -0.307  -1.145  0.00  0.00     0.062 A 
ATOM      3  C2  UNL d   1      -1.764  -0.599   0.063  0.00  0.00     0.162 A 
ATOM      4  C3  UNL d   1      -1.274  -0.068   1.256  0.00  0.00    -0.034 A 
ATOM      5  C4  UNL d   1      -0.148   0.756   1.223  0.00  0.00     0.162 A 
ATOM      6  C5  UNL d   1       0.475   1.045   0.013  0.00  0.00     0.062 A 
ATOM      7  F   UNL d   1       1.556   1.838  -0.010  0.00  0.00    -0.097 F 
ATOM      8  F1  UNL d   1       0.349   1.284   2.351  0.00  0.00    -0.096 F 
ATOM      9  I   UNL d   1      -2.209  -0.501   3.065  0.00  0.00    -0.060 I 
ATOM     10  F2  UNL d   1      -2.844  -1.395   0.058  0.00  0.00    -0.096 F 
ATOM     11  F3  UNL d   1      -1.616  -0.822  -2.287  0.00  0.00    -0.097 F 
ATOM     12  F4  UNL d   1       0.583   0.792  -2.334  0.00  0.00    -0.092 F 
ENDROOT
TORSDOF 0
ENDMDL
