MODEL 1
REMARK minimizedAffinity 12.181386
REMARK minimizedRMSD -1
REMARK  0 active torsions:
REMARK  status: ('A' for Active; 'I' for Inactive)
ROOT
ATOM      1  C   UNL d   1      -5.201   3.764   0.498  0.00  0.00     0.124 A 
ATOM      2  C1  UNL d   1      -5.605   4.893   1.196  0.00  0.00     0.062 A 
ATOM      3  C2  UNL d   1      -5.604   4.893   2.588  0.00  0.00     0.162 A 
ATOM      4  C3  UNL d   1      -5.196   3.760   3.292  0.00  0.00    -0.034 A 
ATOM      5  C4  UNL d   1      -4.792   2.627   2.582  0.00  0.00     0.162 A 
ATOM      6  C5  UNL d   1      -4.795   2.632   1.191  0.00  0.00     0.062 A 
ATOM      7  F   UNL d   1      -4.405   1.540   0.518  0.00  0.00    -0.097 F 
ATOM      8  F1  UNL d   1      -4.394   1.520   3.227  0.00  0.00    -0.096 F 
ATOM      9  I   UNL d   1      -5.193   3.756   5.373  0.00  0.00    -0.060 I 
ATOM     10  F2  UNL d   1      -5.999   5.999   3.237  0.00  0.00    -0.096 F 
ATOM     11  F3  UNL d   1      -5.999   5.987   0.529  0.00  0.00    -0.097 F 
ATOM     12  F4  UNL d   1      -5.204   3.766  -0.841  0.00  0.00    -0.092 F 
ENDROOT
TORSDOF 0
ENDMDL
