MODEL 1
REMARK minimizedAffinity -0.765097618
REMARK minimizedRMSD -1
REMARK  0 active torsions:
REMARK  status: ('A' for Active; 'I' for Inactive)
ROOT
ATOM      1  C   UNL d   1      -1.851  -1.414  -2.040  0.00  0.00     0.124 A 
ATOM      2  C1  UNL d   1      -2.108  -2.348  -1.046  0.00  0.00     0.062 A 
ATOM      3  C2  UNL d   1      -1.372  -2.333   0.136  0.00  0.00     0.162 A 
ATOM      4  C3  UNL d   1      -0.372  -1.380   0.330  0.00  0.00    -0.034 A 
ATOM      5  C4  UNL d   1      -0.119  -0.445  -0.675  0.00  0.00     0.162 A 
ATOM      6  C5  UNL d   1      -0.857  -0.464  -1.854  0.00  0.00     0.062 A 
ATOM      7  F   UNL d   1      -0.608   0.439  -2.813  0.00  0.00    -0.097 F 
ATOM      8  F1  UNL d   1       0.835   0.485  -0.521  0.00  0.00    -0.096 F 
ATOM      9  I   UNL d   1       0.731  -1.355   2.095  0.00  0.00    -0.060 I 
ATOM     10  F2  UNL d   1      -1.642  -3.248   1.079  0.00  0.00    -0.096 F 
ATOM     11  F3  UNL d   1      -3.067  -3.268  -1.224  0.00  0.00    -0.097 F 
ATOM     12  F4  UNL d   1      -2.560  -1.431  -3.176  0.00  0.00    -0.092 F 
ENDROOT
TORSDOF 0
ENDMDL
