MODEL 1
REMARK minimizedAffinity -3.4034152
REMARK minimizedRMSD -1
REMARK  0 active torsions:
REMARK  status: ('A' for Active; 'I' for Inactive)
ROOT
ATOM      1  C   UNL d   1      -0.598   0.385  -1.139  0.00  0.00     0.124 A 
ATOM      2  C1  UNL d   1       0.455   0.159  -0.263  0.00  0.00     0.062 A 
ATOM      3  C2  UNL d   1       0.362  -0.840   0.701  0.00  0.00     0.162 A 
ATOM      4  C3  UNL d   1      -0.789  -1.622   0.795  0.00  0.00    -0.034 A 
ATOM      5  C4  UNL d   1      -1.845  -1.388  -0.088  0.00  0.00     0.162 A 
ATOM      6  C5  UNL d   1      -1.746  -0.389  -1.051  0.00  0.00     0.062 A 
ATOM      7  F   UNL d   1      -2.765  -0.172  -1.896  0.00  0.00    -0.097 F 
ATOM      8  F1  UNL d   1      -2.966  -2.122  -0.026  0.00  0.00    -0.096 F 
ATOM      9  I   UNL d   1      -0.933  -3.117   2.236  0.00  0.00    -0.060 I 
ATOM     10  F2  UNL d   1       1.395  -1.036   1.534  0.00  0.00    -0.096 F 
ATOM     11  F3  UNL d   1       1.566   0.906  -0.346  0.00  0.00    -0.097 F 
ATOM     12  F4  UNL d   1      -0.505   1.348  -2.065  0.00  0.00    -0.092 F 
ENDROOT
TORSDOF 0
ENDMDL
