MODEL 1
REMARK minimizedAffinity -3.16814995
REMARK minimizedRMSD -1
REMARK  0 active torsions:
REMARK  status: ('A' for Active; 'I' for Inactive)
ROOT
ATOM      1  C   UNL d   1       2.493   2.366   1.562  0.00  0.00     0.124 A 
ATOM      2  C1  UNL d   1       1.670   2.007   2.621  0.00  0.00     0.062 A 
ATOM      3  C2  UNL d   1       0.851   0.886   2.522  0.00  0.00     0.162 A 
ATOM      4  C3  UNL d   1       0.851   0.115   1.360  0.00  0.00    -0.034 A 
ATOM      5  C4  UNL d   1       1.680   0.483   0.299  0.00  0.00     0.162 A 
ATOM      6  C5  UNL d   1       2.496   1.604   0.402  0.00  0.00     0.062 A 
ATOM      7  F   UNL d   1       3.290   1.949  -0.622  0.00  0.00    -0.097 F 
ATOM      8  F1  UNL d   1       1.704  -0.236  -0.833  0.00  0.00    -0.096 F 
ATOM      9  I   UNL d   1      -0.372  -1.562   1.208  0.00  0.00    -0.060 I 
ATOM     10  F2  UNL d   1       0.067   0.562   3.561  0.00  0.00    -0.096 F 
ATOM     11  F3  UNL d   1       1.664   2.742   3.742  0.00  0.00    -0.097 F 
ATOM     12  F4  UNL d   1       3.279   3.446   1.659  0.00  0.00    -0.092 F 
ENDROOT
TORSDOF 0
ENDMDL
