MODEL 1
REMARK minimizedAffinity 3.98697114
REMARK minimizedRMSD -1
REMARK  0 active torsions:
REMARK  status: ('A' for Active; 'I' for Inactive)
ROOT
ATOM      1  C   UNL d   1      -0.975  -1.258   2.472  0.00  0.00     0.124 A 
ATOM      2  C1  UNL d   1       0.073  -1.805   1.745  0.00  0.00     0.062 A 
ATOM      3  C2  UNL d   1       1.120  -0.997   1.310  0.00  0.00     0.162 A 
ATOM      4  C3  UNL d   1       1.124   0.367   1.602  0.00  0.00    -0.034 A 
ATOM      5  C4  UNL d   1       0.066   0.910   2.333  0.00  0.00     0.162 A 
ATOM      6  C5  UNL d   1      -0.978   0.098   2.765  0.00  0.00     0.062 A 
ATOM      7  F   UNL d   1      -1.990   0.628   3.467  0.00  0.00    -0.097 F 
ATOM      8  F1  UNL d   1       0.038   2.217   2.631  0.00  0.00    -0.096 F 
ATOM      9  I   UNL d   1       2.687   1.578   0.954  0.00  0.00    -0.060 I 
ATOM     10  F2  UNL d   1       2.120  -1.553   0.610  0.00  0.00    -0.096 F 
ATOM     11  F3  UNL d   1       0.078  -3.115   1.460  0.00  0.00    -0.097 F 
ATOM     12  F4  UNL d   1      -1.982  -2.038   2.888  0.00  0.00    -0.092 F 
ENDROOT
TORSDOF 0
ENDMDL
