MODEL 1
REMARK minimizedAffinity 0.725916088
REMARK minimizedRMSD -1
REMARK  0 active torsions:
REMARK  status: ('A' for Active; 'I' for Inactive)
ROOT
ATOM      1  C1  DEN d   1      -2.629   3.555  -3.282  0.00  0.00     0.130 A 
ATOM      2  C2  DEN d   1      -1.852   2.532  -3.976  0.00  0.00    -0.031 A 
ATOM      3  C3  DEN d   1      -2.620   2.100  -5.161  0.00  0.00     0.027 A 
ATOM      4  C4  DEN d   1      -4.922   2.917  -5.988  0.00  0.00     0.027 A 
ATOM      5  C5  DEN d   1      -5.973   3.766  -5.723  0.00  0.00    -0.003 A 
ATOM      6  C6  DEN d   1      -5.999   4.574  -4.617  0.00  0.00     0.001 A 
ATOM      7  C7  DEN d   1      -4.932   4.582  -3.758  0.00  0.00     0.017 A 
ATOM      8  C8  DEN d   1      -3.871   3.723  -4.014  0.00  0.00    -0.094 A 
ATOM      9  C9  DEN d   1      -3.859   2.923  -5.144  0.00  0.00    -0.072 A 
ENDROOT
TORSDOF 0
ENDMDL
