MODEL 1
REMARK minimizedAffinity 10.9601088
REMARK minimizedRMSD -1
REMARK  0 active torsions:
REMARK  status: ('A' for Active; 'I' for Inactive)
ROOT
ATOM      1  C1  DEN d   1      -2.126   3.820  -4.818  0.00  0.00     0.130 A 
ATOM      2  C2  DEN d   1      -1.630   3.046  -3.684  0.00  0.00    -0.031 A 
ATOM      3  C3  DEN d   1      -2.719   2.162  -3.223  0.00  0.00     0.027 A 
ATOM      4  C4  DEN d   1      -5.112   1.916  -4.153  0.00  0.00     0.027 A 
ATOM      5  C5  DEN d   1      -6.000   2.372  -5.103  0.00  0.00    -0.003 A 
ATOM      6  C6  DEN d   1      -5.672   3.358  -5.995  0.00  0.00     0.001 A 
ATOM      7  C7  DEN d   1      -4.410   3.890  -5.985  0.00  0.00     0.017 A 
ATOM      8  C8  DEN d   1      -3.512   3.441  -5.026  0.00  0.00    -0.094 A 
ATOM      9  C9  DEN d   1      -3.858   2.434  -4.141  0.00  0.00    -0.072 A 
ENDROOT
TORSDOF 0
ENDMDL
