MODEL 1
REMARK minimizedAffinity 4.69705629
REMARK minimizedRMSD -1
REMARK  0 active torsions:
REMARK  status: ('A' for Active; 'I' for Inactive)
ROOT
ATOM      1  C1  DEN d   1       4.677   2.564   0.850  0.00  0.00     0.130 A 
ATOM      2  C2  DEN d   1       4.635   1.958  -0.478  0.00  0.00    -0.031 A 
ATOM      3  C3  DEN d   1       3.337   1.268  -0.624  0.00  0.00     0.027 A 
ATOM      4  C4  DEN d   1       1.397   1.086   1.065  0.00  0.00     0.027 A 
ATOM      5  C5  DEN d   1       0.975   1.429   2.331  0.00  0.00    -0.003 A 
ATOM      6  C6  DEN d   1       1.763   2.139   3.196  0.00  0.00     0.001 A 
ATOM      7  C7  DEN d   1       3.000   2.569   2.791  0.00  0.00     0.017 A 
ATOM      8  C8  DEN d   1       3.435   2.221   1.520  0.00  0.00    -0.094 A 
ATOM      9  C9  DEN d   1       2.618   1.513   0.655  0.00  0.00    -0.072 A 
ENDROOT
TORSDOF 0
ENDMDL
