MODEL 1
REMARK minimizedAffinity 2.73935461
REMARK minimizedRMSD -1
REMARK  0 active torsions:
REMARK  status: ('A' for Active; 'I' for Inactive)
ROOT
ATOM      1  C1  DEN d   1       4.789   2.729   1.146  0.00  0.00     0.130 A 
ATOM      2  C2  DEN d   1       5.999   2.257   0.478  0.00  0.00    -0.031 A 
ATOM      3  C3  DEN d   1       5.639   1.084  -0.344  0.00  0.00     0.027 A 
ATOM      4  C4  DEN d   1       3.336  -0.038  -0.650  0.00  0.00     0.027 A 
ATOM      5  C5  DEN d   1       2.011  -0.000  -0.277  0.00  0.00    -0.003 A 
ATOM      6  C6  DEN d   1       1.529   0.920   0.616  0.00  0.00     0.001 A 
ATOM      7  C7  DEN d   1       2.371   1.871   1.131  0.00  0.00     0.017 A 
ATOM      8  C8  DEN d   1       3.710   1.835   0.765  0.00  0.00    -0.094 A 
ATOM      9  C9  DEN d   1       4.175   0.904  -0.148  0.00  0.00    -0.072 A 
ENDROOT
TORSDOF 0
ENDMDL
