MODEL 1
REMARK minimizedAffinity -0.612401009
REMARK minimizedRMSD -1
REMARK  0 active torsions:
REMARK  status: ('A' for Active; 'I' for Inactive)
ROOT
ATOM      1  C1  DEN d   1      -3.908   3.625  -2.217  0.00  0.00     0.130 A 
ATOM      2  C2  DEN d   1      -5.341   3.902  -2.231  0.00  0.00    -0.031 A 
ATOM      3  C3  DEN d   1      -5.998   2.866  -3.054  0.00  0.00     0.027 A 
ATOM      4  C4  DEN d   1      -4.941   0.869  -4.296  0.00  0.00     0.027 A 
ATOM      5  C5  DEN d   1      -3.757   0.228  -4.588  0.00  0.00    -0.003 A 
ATOM      6  C6  DEN d   1      -2.547   0.689  -4.142  0.00  0.00     0.001 A 
ATOM      7  C7  DEN d   1      -2.498   1.799  -3.341  0.00  0.00     0.017 A 
ATOM      8  C8  DEN d   1      -3.686   2.456  -3.049  0.00  0.00    -0.094 A 
ATOM      9  C9  DEN d   1      -4.900   1.967  -3.499  0.00  0.00    -0.072 A 
ENDROOT
TORSDOF 0
ENDMDL
