MODEL 1
REMARK minimizedAffinity 3.50067925
REMARK minimizedRMSD -1
REMARK  0 active torsions:
REMARK  status: ('A' for Active; 'I' for Inactive)
ROOT
ATOM      1  C1  DEN d   1      -3.719   1.387  -3.726  0.00  0.00     0.130 A 
ATOM      2  C2  DEN d   1      -3.152   0.043  -3.800  0.00  0.00    -0.031 A 
ATOM      3  C3  DEN d   1      -3.659  -0.731  -2.650  0.00  0.00     0.027 A 
ATOM      4  C4  DEN d   1      -5.263   0.014  -0.773  0.00  0.00     0.027 A 
ATOM      5  C5  DEN d   1      -5.999   1.068  -0.278  0.00  0.00    -0.003 A 
ATOM      6  C6  DEN d   1      -6.000   2.302  -0.873  0.00  0.00     0.001 A 
ATOM      7  C7  DEN d   1      -5.285   2.500  -2.025  0.00  0.00     0.017 A 
ATOM      8  C8  DEN d   1      -4.535   1.444  -2.526  0.00  0.00    -0.094 A 
ATOM      9  C9  DEN d   1      -4.557   0.201  -1.916  0.00  0.00    -0.072 A 
ENDROOT
TORSDOF 0
ENDMDL
