MODEL 1
REMARK minimizedAffinity -1.49217212
REMARK minimizedRMSD -1
REMARK  0 active torsions:
REMARK  status: ('A' for Active; 'I' for Inactive)
ROOT
ATOM      1  C1  DEN d   1      -5.248  -0.103  -1.075  0.00  0.00     0.130 A 
ATOM      2  C2  DEN d   1      -5.999   0.986  -0.457  0.00  0.00    -0.031 A 
ATOM      3  C3  DEN d   1      -5.999   2.128  -1.393  0.00  0.00     0.027 A 
ATOM      4  C4  DEN d   1      -4.919   2.314  -3.728  0.00  0.00     0.027 A 
ATOM      5  C5  DEN d   1      -4.165   1.651  -4.672  0.00  0.00    -0.003 A 
ATOM      6  C6  DEN d   1      -3.695   0.381  -4.470  0.00  0.00     0.001 A 
ATOM      7  C7  DEN d   1      -4.012  -0.285  -3.316  0.00  0.00     0.017 A 
ATOM      8  C8  DEN d   1      -4.765   0.378  -2.356  0.00  0.00    -0.094 A 
ATOM      9  C9  DEN d   1      -5.241   1.658  -2.584  0.00  0.00    -0.072 A 
ENDROOT
TORSDOF 0
ENDMDL
