MODEL 1
REMARK minimizedAffinity -1.67931151
REMARK minimizedRMSD -1
REMARK  0 active torsions:
REMARK  status: ('A' for Active; 'I' for Inactive)
ROOT
ATOM      1  C4' PXY d   1      -2.013  -3.012  -4.872  0.00  0.00     0.077 C 
ATOM      2  C1' PXY d   1      -0.522  -2.270   0.664  0.00  0.00     0.077 C 
ATOM      3  C1  PXY d   1      -0.903  -2.472  -0.789  0.00  0.00    -0.082 A 
ATOM      4  C2  PXY d   1      -1.666  -1.578  -1.397  0.00  0.00     0.003 A 
ATOM      5  C3  PXY d   1      -2.046  -1.761  -2.701  0.00  0.00     0.003 A 
ATOM      6  C4  PXY d   1      -1.596  -2.844  -3.408  0.00  0.00    -0.082 A 
ATOM      7  C5  PXY d   1      -0.809  -3.756  -2.799  0.00  0.00     0.003 A 
ATOM      8  C6  PXY d   1      -0.468  -3.573  -1.462  0.00  0.00     0.003 A 
ENDROOT
TORSDOF 0
ENDMDL
