MODEL 1
REMARK minimizedAffinity 13.1323633
REMARK minimizedRMSD -1
REMARK  0 active torsions:
REMARK  status: ('A' for Active; 'I' for Inactive)
ROOT
ATOM      1  C4' PXY d   1      -3.364   3.227   3.173  0.00  0.00     0.077 C 
ATOM      2  C1' PXY d   1       2.183   3.718   1.624  0.00  0.00     0.077 C 
ATOM      3  C1  PXY d   1       0.726   3.601   2.026  0.00  0.00    -0.082 A 
ATOM      4  C2  PXY d   1       0.372   2.725   2.952  0.00  0.00     0.003 A 
ATOM      5  C3  PXY d   1      -0.946   2.584   3.305  0.00  0.00     0.003 A 
ATOM      6  C4  PXY d   1      -1.903   3.385   2.742  0.00  0.00    -0.082 A 
ATOM      7  C5  PXY d   1      -1.548   4.289   1.804  0.00  0.00     0.003 A 
ATOM      8  C6  PXY d   1      -0.211   4.388   1.431  0.00  0.00     0.003 A 
ENDROOT
TORSDOF 0
ENDMDL
