MODEL 1
REMARK minimizedAffinity 6.98889494
REMARK minimizedRMSD -1
REMARK  0 active torsions:
REMARK  status: ('A' for Active; 'I' for Inactive)
ROOT
ATOM      1  C4' PXY d   1      -2.260  -3.270  -6.000  0.00  0.00     0.077 C 
ATOM      2  C1' PXY d   1      -1.789  -1.506  -0.515  0.00  0.00     0.077 C 
ATOM      3  C1  PXY d   1      -1.906  -1.980  -1.951  0.00  0.00    -0.082 A 
ATOM      4  C2  PXY d   1      -2.110  -1.098  -2.916  0.00  0.00     0.003 A 
ATOM      5  C3  PXY d   1      -2.250  -1.512  -4.215  0.00  0.00     0.003 A 
ATOM      6  C4  PXY d   1      -2.126  -2.837  -4.537  0.00  0.00    -0.082 A 
ATOM      7  C5  PXY d   1      -1.908  -3.742  -3.560  0.00  0.00     0.003 A 
ATOM      8  C6  PXY d   1      -1.810  -3.305  -2.242  0.00  0.00     0.003 A 
ENDROOT
TORSDOF 0
ENDMDL
