MODEL 1
REMARK minimizedAffinity 9.18900871
REMARK minimizedRMSD -1
REMARK  0 active torsions:
REMARK  status: ('A' for Active; 'I' for Inactive)
ROOT
ATOM      1  C4' PXY d   1       2.971   1.984  -5.808  0.00  0.00     0.077 C 
ATOM      2  C1' PXY d   1       3.958  -3.474  -4.181  0.00  0.00     0.077 C 
ATOM      3  C1  PXY d   1       3.704  -2.038  -4.597  0.00  0.00    -0.082 A 
ATOM      4  C2  PXY d   1       2.735  -1.767  -5.456  0.00  0.00     0.003 A 
ATOM      5  C3  PXY d   1       2.513  -0.478  -5.867  0.00  0.00     0.003 A 
ATOM      6  C4  PXY d   1       3.256   0.551  -5.353  0.00  0.00    -0.082 A 
ATOM      7  C5  PXY d   1       4.240   0.283  -4.468  0.00  0.00     0.003 A 
ATOM      8  C6  PXY d   1       4.476  -1.037  -4.095  0.00  0.00     0.003 A 
ENDROOT
TORSDOF 0
ENDMDL
