MODEL 1
REMARK minimizedAffinity 7.08097887
REMARK minimizedRMSD -1
REMARK  0 active torsions:
REMARK  status: ('A' for Active; 'I' for Inactive)
ROOT
ATOM      1  C4' PXY d   1      -2.087  -2.252  -2.875  0.00  0.00     0.077 C 
ATOM      2  C1' PXY d   1      -1.536  -2.175   2.879  0.00  0.00     0.077 C 
ATOM      3  C1  PXY d   1      -1.694  -2.196   1.371  0.00  0.00    -0.082 A 
ATOM      4  C2  PXY d   1      -0.708  -2.653   0.617  0.00  0.00     0.003 A 
ATOM      5  C3  PXY d   1      -0.821  -2.649  -0.750  0.00  0.00     0.003 A 
ATOM      6  C4  PXY d   1      -1.976  -2.222  -1.348  0.00  0.00    -0.082 A 
ATOM      7  C5  PXY d   1      -2.991  -1.763  -0.584  0.00  0.00     0.003 A 
ATOM      8  C6  PXY d   1      -2.840  -1.738   0.799  0.00  0.00     0.003 A 
ENDROOT
TORSDOF 0
ENDMDL
