MODEL 1
REMARK minimizedAffinity 6.07962608
REMARK minimizedRMSD -1
REMARK  0 active torsions:
REMARK  status: ('A' for Active; 'I' for Inactive)
ROOT
ATOM      1  C4' PXY d   1       1.174   6.000  -5.950  0.00  0.00     0.077 C 
ATOM      2  C1' PXY d   1       3.429   0.677  -5.992  0.00  0.00     0.077 C 
ATOM      3  C1  PXY d   1       2.849   2.078  -5.976  0.00  0.00    -0.082 A 
ATOM      4  C2  PXY d   1       1.536   2.242  -5.974  0.00  0.00     0.003 A 
ATOM      5  C3  PXY d   1       0.994   3.501  -5.992  0.00  0.00     0.003 A 
ATOM      6  C4  PXY d   1       1.804   4.604  -5.957  0.00  0.00    -0.082 A 
ATOM      7  C5  PXY d   1       3.145   4.445  -5.947  0.00  0.00     0.003 A 
ATOM      8  C6  PXY d   1       3.675   3.159  -5.971  0.00  0.00     0.003 A 
ENDROOT
TORSDOF 0
ENDMDL
