MODEL 1
REMARK minimizedAffinity 7.83819485
REMARK minimizedRMSD -1
REMARK  0 active torsions:
REMARK  status: ('A' for Active; 'I' for Inactive)
ROOT
ATOM      1  C4' PXY d   1       2.886   6.000  -6.000  0.00  0.00     0.077 C 
ATOM      2  C1' PXY d   1       0.874   1.817  -2.555  0.00  0.00     0.077 C 
ATOM      3  C1  PXY d   1       1.407   2.905  -3.466  0.00  0.00    -0.082 A 
ATOM      4  C2  PXY d   1       1.531   4.139  -3.007  0.00  0.00     0.003 A 
ATOM      5  C3  PXY d   1       1.982   5.142  -3.826  0.00  0.00     0.003 A 
ATOM      6  C4  PXY d   1       2.360   4.867  -5.113  0.00  0.00    -0.082 A 
ATOM      7  C5  PXY d   1       2.247   3.608  -5.586  0.00  0.00     0.003 A 
ATOM      8  C6  PXY d   1       1.748   2.613  -4.750  0.00  0.00     0.003 A 
ENDROOT
TORSDOF 0
ENDMDL
