MODEL 1
REMARK minimizedAffinity -1.69132614
REMARK minimizedRMSD -1
REMARK  0 active torsions:
REMARK  status: ('A' for Active; 'I' for Inactive)
ROOT
ATOM      1  C4' PXY d   1       5.989   2.063  -5.794  0.00  0.00     0.077 C 
ATOM      2  C1' PXY d   1       3.500  -3.115  -5.154  0.00  0.00     0.077 C 
ATOM      3  C1  PXY d   1       4.144  -1.754  -5.331  0.00  0.00    -0.082 A 
ATOM      4  C2  PXY d   1       5.411  -1.581  -4.992  0.00  0.00     0.003 A 
ATOM      5  C3  PXY d   1       6.000  -0.349  -5.115  0.00  0.00     0.003 A 
ATOM      6  C4  PXY d   1       5.300   0.704  -5.641  0.00  0.00    -0.082 A 
ATOM      7  C5  PXY d   1       4.010   0.532  -6.000  0.00  0.00     0.003 A 
ATOM      8  C6  PXY d   1       3.419  -0.716  -5.828  0.00  0.00     0.003 A 
ENDROOT
TORSDOF 0
ENDMDL
