MODEL 1
REMARK minimizedAffinity 4.65520573
REMARK minimizedRMSD -1
REMARK  0 active torsions:
REMARK  status: ('A' for Active; 'I' for Inactive)
ROOT
ATOM      1  C4' PXY d   1      -1.098   5.888  -5.913  0.00  0.00     0.077 C 
ATOM      2  C1' PXY d   1       4.086   3.331  -5.992  0.00  0.00     0.077 C 
ATOM      3  C1  PXY d   1       2.732   4.012  -5.966  0.00  0.00    -0.082 A 
ATOM      4  C2  PXY d   1       1.631   3.279  -5.934  0.00  0.00     0.003 A 
ATOM      5  C3  PXY d   1       0.398   3.878  -5.942  0.00  0.00     0.003 A 
ATOM      6  C4  PXY d   1       0.291   5.243  -5.930  0.00  0.00    -0.082 A 
ATOM      7  C5  PXY d   1       1.409   5.998  -5.953  0.00  0.00     0.003 A 
ATOM      8  C6  PXY d   1       2.651   5.370  -5.985  0.00  0.00     0.003 A 
ENDROOT
TORSDOF 0
ENDMDL
