MODEL 1
REMARK minimizedAffinity 9.58628559
REMARK minimizedRMSD -1
REMARK  0 active torsions:
REMARK  status: ('A' for Active; 'I' for Inactive)
ROOT
ATOM      1  C4' PXY d   1       0.140   3.192  -2.891  0.00  0.00     0.077 C 
ATOM      2  C1' PXY d   1       4.181   5.920  -5.995  0.00  0.00     0.077 C 
ATOM      3  C1  PXY d   1       3.114   5.204  -5.192  0.00  0.00    -0.082 A 
ATOM      4  C2  PXY d   1       3.046   5.388  -3.883  0.00  0.00     0.003 A 
ATOM      5  C3  PXY d   1       2.107   4.723  -3.137  0.00  0.00     0.003 A 
ATOM      6  C4  PXY d   1       1.195   3.902  -3.743  0.00  0.00    -0.082 A 
ATOM      7  C5  PXY d   1       1.251   3.717  -5.079  0.00  0.00     0.003 A 
ATOM      8  C6  PXY d   1       2.237   4.369  -5.813  0.00  0.00     0.003 A 
ENDROOT
TORSDOF 0
ENDMDL
