MODEL 1
REMARK minimizedAffinity 7.01651525
REMARK minimizedRMSD -1
REMARK  0 active torsions:
REMARK  status: ('A' for Active; 'I' for Inactive)
ROOT
ATOM      1  C4' PXY d   1       3.806   0.509  -5.924  0.00  0.00     0.077 C 
ATOM      2  C1' PXY d   1       1.885   5.961  -5.990  0.00  0.00     0.077 C 
ATOM      3  C1  PXY d   1       2.400   4.535  -5.978  0.00  0.00    -0.082 A 
ATOM      4  C2  PXY d   1       1.541   3.529  -5.982  0.00  0.00     0.003 A 
ATOM      5  C3  PXY d   1       1.989   2.234  -5.939  0.00  0.00     0.003 A 
ATOM      6  C4  PXY d   1       3.331   1.965  -5.945  0.00  0.00    -0.082 A 
ATOM      7  C5  PXY d   1       4.214   2.985  -5.951  0.00  0.00     0.003 A 
ATOM      8  C6  PXY d   1       3.739   4.294  -5.953  0.00  0.00     0.003 A 
ENDROOT
TORSDOF 0
ENDMDL
