MODEL 1
REMARK minimizedAffinity 3.28992057
REMARK minimizedRMSD -1
REMARK  0 active torsions:
REMARK  status: ('A' for Active; 'I' for Inactive)
ROOT
ATOM      1  C4' PXY d   1      -1.448  -2.401   2.279  0.00  0.00     0.077 C 
ATOM      2  C1' PXY d   1      -1.885  -3.208  -3.428  0.00  0.00     0.077 C 
ATOM      3  C1  PXY d   1      -1.764  -3.007  -1.930  0.00  0.00    -0.082 A 
ATOM      4  C2  PXY d   1      -2.667  -2.281  -1.292  0.00  0.00     0.003 A 
ATOM      5  C3  PXY d   1      -2.555  -2.063   0.057  0.00  0.00     0.003 A 
ATOM      6  C4  PXY d   1      -1.537  -2.638   0.769  0.00  0.00    -0.082 A 
ATOM      7  C5  PXY d   1      -0.617  -3.389   0.127  0.00  0.00     0.003 A 
ATOM      8  C6  PXY d   1      -0.726  -3.564  -1.250  0.00  0.00     0.003 A 
ENDROOT
TORSDOF 0
ENDMDL
