MODEL 1
REMARK minimizedAffinity 5.16122246
REMARK minimizedRMSD -1
REMARK  0 active torsions:
REMARK  status: ('A' for Active; 'I' for Inactive)
ROOT
ATOM      1  C4' PXY d   1      -2.238  -2.968  -5.996  0.00  0.00     0.077 C 
ATOM      2  C1' PXY d   1      -4.618  -3.064  -0.729  0.00  0.00     0.077 C 
ATOM      3  C1  PXY d   1      -3.999  -3.051  -2.113  0.00  0.00    -0.082 A 
ATOM      4  C2  PXY d   1      -2.938  -2.296  -2.347  0.00  0.00     0.003 A 
ATOM      5  C3  PXY d   1      -2.385  -2.247  -3.601  0.00  0.00     0.003 A 
ATOM      6  C4  PXY d   1      -2.890  -3.020  -4.612  0.00  0.00    -0.082 A 
ATOM      7  C5  PXY d   1      -3.966  -3.801  -4.378  0.00  0.00     0.003 A 
ATOM      8  C6  PXY d   1      -4.538  -3.805  -3.109  0.00  0.00     0.003 A 
ENDROOT
TORSDOF 0
ENDMDL
