MODEL 1
REMARK minimizedAffinity 6.6440053
REMARK minimizedRMSD -1
REMARK  0 active torsions:
REMARK  status: ('A' for Active; 'I' for Inactive)
ROOT
ATOM      1  C4' PXY d   1      -2.363  -2.963   3.493  0.00  0.00     0.077 C 
ATOM      2  C1' PXY d   1       1.639   0.608   1.339  0.00  0.00     0.077 C 
ATOM      3  C1  PXY d   1       0.595  -0.327   1.915  0.00  0.00    -0.082 A 
ATOM      4  C2  PXY d   1      -0.038  -1.173   1.118  0.00  0.00     0.003 A 
ATOM      5  C3  PXY d   1      -1.007  -2.004   1.617  0.00  0.00     0.003 A 
ATOM      6  C4  PXY d   1      -1.295  -2.007   2.956  0.00  0.00    -0.082 A 
ATOM      7  C5  PXY d   1      -0.646  -1.155   3.778  0.00  0.00     0.003 A 
ATOM      8  C6  PXY d   1       0.305  -0.290   3.244  0.00  0.00     0.003 A 
ENDROOT
TORSDOF 0
ENDMDL
