MODEL 1
REMARK minimizedAffinity 9.01785088
REMARK minimizedRMSD -1
REMARK  0 active torsions:
REMARK  status: ('A' for Active; 'I' for Inactive)
ROOT
ATOM      1  C4' PXY d   1      -0.311  -2.622  -6.000  0.00  0.00     0.077 C 
ATOM      2  C1' PXY d   1      -5.224  -4.156  -3.369  0.00  0.00     0.077 C 
ATOM      3  C1  PXY d   1      -3.932  -3.746  -4.049  0.00  0.00    -0.082 A 
ATOM      4  C2  PXY d   1      -3.851  -3.772  -5.369  0.00  0.00     0.003 A 
ATOM      5  C3  PXY d   1      -2.680  -3.436  -5.999  0.00  0.00     0.003 A 
ATOM      6  C4  PXY d   1      -1.598  -3.018  -5.271  0.00  0.00    -0.082 A 
ATOM      7  C5  PXY d   1      -1.676  -2.979  -3.924  0.00  0.00     0.003 A 
ATOM      8  C6  PXY d   1      -2.861  -3.364  -3.303  0.00  0.00     0.003 A 
ENDROOT
TORSDOF 0
ENDMDL
