MODEL 1
REMARK minimizedAffinity 10.5247955
REMARK minimizedRMSD -1
REMARK  0 active torsions:
REMARK  status: ('A' for Active; 'I' for Inactive)
ROOT
ATOM      1  C4' PXY d   1      -0.244   0.225   5.389  0.00  0.00     0.077 C 
ATOM      2  C1' PXY d   1      -1.573  -1.643   0.083  0.00  0.00     0.077 C 
ATOM      3  C1  PXY d   1      -1.235  -1.159   1.479  0.00  0.00    -0.082 A 
ATOM      4  C2  PXY d   1      -0.515  -0.060   1.634  0.00  0.00     0.003 A 
ATOM      5  C3  PXY d   1      -0.173   0.374   2.889  0.00  0.00     0.003 A 
ATOM      6  C4  PXY d   1      -0.617  -0.295   3.998  0.00  0.00    -0.082 A 
ATOM      7  C5  PXY d   1      -1.361  -1.411   3.849  0.00  0.00     0.003 A 
ATOM      8  C6  PXY d   1      -1.663  -1.858   2.566  0.00  0.00     0.003 A 
ENDROOT
TORSDOF 0
ENDMDL
