MODEL 1
REMARK minimizedAffinity 4.51919317
REMARK minimizedRMSD -1
REMARK  0 active torsions:
REMARK  status: ('A' for Active; 'I' for Inactive)
ROOT
ATOM      1  C4' PXY d   1       1.436   6.000  -5.864  0.00  0.00     0.077 C 
ATOM      2  C1' PXY d   1       3.602   0.642  -5.999  0.00  0.00     0.077 C 
ATOM      3  C1  PXY d   1       3.045   2.051  -5.958  0.00  0.00    -0.082 A 
ATOM      4  C2  PXY d   1       1.735   2.238  -5.989  0.00  0.00     0.003 A 
ATOM      5  C3  PXY d   1       1.216   3.507  -5.985  0.00  0.00     0.003 A 
ATOM      6  C4  PXY d   1       2.043   4.594  -5.894  0.00  0.00    -0.082 A 
ATOM      7  C5  PXY d   1       3.380   4.411  -5.851  0.00  0.00     0.003 A 
ATOM      8  C6  PXY d   1       3.889   3.117  -5.897  0.00  0.00     0.003 A 
ENDROOT
TORSDOF 0
ENDMDL
