MODEL 1
REMARK minimizedAffinity 3.32154655
REMARK minimizedRMSD -1
REMARK  0 active torsions:
REMARK  status: ('A' for Active; 'I' for Inactive)
ROOT
ATOM      1  C4' PXY d   1       0.374   4.437   1.597  0.00  0.00     0.077 C 
ATOM      2  C1' PXY d   1       4.133   0.123   0.772  0.00  0.00     0.077 C 
ATOM      3  C1  PXY d   1       3.152   1.261   0.978  0.00  0.00    -0.082 A 
ATOM      4  C2  PXY d   1       2.586   1.430   2.162  0.00  0.00     0.003 A 
ATOM      5  C3  PXY d   1       1.673   2.434   2.358  0.00  0.00     0.003 A 
ATOM      6  C4  PXY d   1       1.377   3.307   1.346  0.00  0.00    -0.082 A 
ATOM      7  C5  PXY d   1       1.958   3.148   0.138  0.00  0.00     0.003 A 
ATOM      8  C6  PXY d   1       2.851   2.098  -0.052  0.00  0.00     0.003 A 
ENDROOT
TORSDOF 0
ENDMDL
