MODEL 1
REMARK minimizedAffinity 11.168046
REMARK minimizedRMSD -1
REMARK  0 active torsions:
REMARK  status: ('A' for Active; 'I' for Inactive)
ROOT
ATOM      1  C4' PXY d   1       2.361   3.416   1.006  0.00  0.00     0.077 C 
ATOM      2  C1' PXY d   1      -3.012   3.615   3.127  0.00  0.00     0.077 C 
ATOM      3  C1  PXY d   1      -1.599   3.556   2.581  0.00  0.00    -0.082 A 
ATOM      4  C2  PXY d   1      -1.186   4.485   1.735  0.00  0.00     0.003 A 
ATOM      5  C3  PXY d   1       0.078   4.428   1.206  0.00  0.00     0.003 A 
ATOM      6  C4  PXY d   1       0.946   3.441   1.590  0.00  0.00    -0.082 A 
ATOM      7  C5  PXY d   1       0.535   2.496   2.461  0.00  0.00     0.003 A 
ATOM      8  C6  PXY d   1      -0.766   2.547   2.954  0.00  0.00     0.003 A 
ENDROOT
TORSDOF 0
ENDMDL
