MODEL 1
REMARK minimizedAffinity 1.74765241
REMARK minimizedRMSD -1
REMARK  0 active torsions:
REMARK  status: ('A' for Active; 'I' for Inactive)
ROOT
ATOM      1  C4' PXY d   1      -2.426   6.000  -1.238  0.00  0.00     0.077 C 
ATOM      2  C1' PXY d   1       2.486   3.535   0.555  0.00  0.00     0.077 C 
ATOM      3  C1  PXY d   1       1.201   4.180   0.072  0.00  0.00    -0.082 A 
ATOM      4  C2  PXY d   1       0.536   4.995   0.875  0.00  0.00     0.003 A 
ATOM      5  C3  PXY d   1      -0.644   5.561   0.466  0.00  0.00     0.003 A 
ATOM      6  C4  PXY d   1      -1.120   5.334  -0.797  0.00  0.00    -0.082 A 
ATOM      7  C5  PXY d   1      -0.442   4.512  -1.626  0.00  0.00     0.003 A 
ATOM      8  C6  PXY d   1       0.732   3.915  -1.177  0.00  0.00     0.003 A 
ENDROOT
TORSDOF 0
ENDMDL
