MODEL 1
REMARK minimizedAffinity 7.62502003
REMARK minimizedRMSD -1
REMARK  0 active torsions:
REMARK  status: ('A' for Active; 'I' for Inactive)
ROOT
ATOM      1  C   UNL d   1      -3.425   0.660   1.231  0.00  0.00     0.023 A 
ATOM      2  C1  UNL d   1      -2.981  -0.584   0.783  0.00  0.00     0.003 A 
ATOM      3  C2  UNL d   1      -1.833  -1.157   1.334  0.00  0.00     0.048 A 
ATOM      4  C3  UNL d   1      -1.133  -0.480   2.333  0.00  0.00     0.023 A 
ATOM      5  C4  UNL d   1      -1.574   0.765   2.784  0.00  0.00     0.048 A 
ATOM      6  C5  UNL d   1      -2.722   1.334   2.230  0.00  0.00     0.003 A 
ATOM      7  I   UNL d   1       0.576  -1.331   3.154  0.00  0.00    -0.146 I 
ENDROOT
TORSDOF 0
ENDMDL
