MODEL 1
REMARK minimizedAffinity 13.7446032
REMARK minimizedRMSD -1
REMARK  0 active torsions:
REMARK  status: ('A' for Active; 'I' for Inactive)
ROOT
ATOM      1  C   UNL d   1       4.916  -5.999   0.415  0.00  0.00     0.023 A 
ATOM      2  C1  UNL d   1       5.991  -5.132   0.610  0.00  0.00     0.003 A 
ATOM      3  C2  UNL d   1       5.884  -3.790   0.239  0.00  0.00     0.048 A 
ATOM      4  C3  UNL d   1       4.698  -3.322  -0.326  0.00  0.00     0.023 A 
ATOM      5  C4  UNL d   1       3.619  -4.186  -0.523  0.00  0.00     0.048 A 
ATOM      6  C5  UNL d   1       3.732  -5.527  -0.151  0.00  0.00     0.003 A 
ATOM      7  I   UNL d   1       4.536  -1.325  -0.880  0.00  0.00    -0.146 I 
ENDROOT
TORSDOF 0
ENDMDL
