MODEL 1
REMARK minimizedAffinity 16.6648903
REMARK minimizedRMSD -1
REMARK  0 active torsions:
REMARK  status: ('A' for Active; 'I' for Inactive)
ROOT
ATOM      1  C   UNL d   1       5.991   4.157  -4.851  0.00  0.00     0.023 A 
ATOM      2  C1  UNL d   1       4.997   3.492  -5.569  0.00  0.00     0.003 A 
ATOM      3  C2  UNL d   1       3.839   3.057  -4.922  0.00  0.00     0.048 A 
ATOM      4  C3  UNL d   1       3.681   3.289  -3.556  0.00  0.00     0.023 A 
ATOM      5  C4  UNL d   1       4.672   3.955  -2.833  0.00  0.00     0.048 A 
ATOM      6  C5  UNL d   1       5.829   4.387  -3.485  0.00  0.00     0.003 A 
ATOM      7  I   UNL d   1       1.958   2.642  -2.591  0.00  0.00    -0.146 I 
ENDROOT
TORSDOF 0
ENDMDL
