MODEL 1
REMARK minimizedAffinity 5.5031786
REMARK minimizedRMSD -1
REMARK  0 active torsions:
REMARK  status: ('A' for Active; 'I' for Inactive)
ROOT
ATOM      1  C   UNL d   1      -1.248  -1.095   2.026  0.00  0.00     0.023 A 
ATOM      2  C1  UNL d   1      -2.381  -0.452   1.528  0.00  0.00     0.003 A 
ATOM      3  C2  UNL d   1      -3.102   0.424   2.342  0.00  0.00     0.048 A 
ATOM      4  C3  UNL d   1      -2.684   0.652   3.653  0.00  0.00     0.023 A 
ATOM      5  C4  UNL d   1      -1.551   0.011   4.155  0.00  0.00     0.048 A 
ATOM      6  C5  UNL d   1      -0.833  -0.864   3.338  0.00  0.00     0.003 A 
ATOM      7  I   UNL d   1      -3.756   1.955   4.866  0.00  0.00    -0.146 I 
ENDROOT
TORSDOF 0
ENDMDL
