MODEL 1
REMARK minimizedAffinity 13.4315414
REMARK minimizedRMSD -1
REMARK  0 active torsions:
REMARK  status: ('A' for Active; 'I' for Inactive)
ROOT
ATOM      1  C   UNL d   1       6.000   3.856   1.347  0.00  0.00     0.023 A 
ATOM      2  C1  UNL d   1       5.960   2.999   0.247  0.00  0.00     0.003 A 
ATOM      3  C2  UNL d   1       4.783   2.317  -0.066  0.00  0.00     0.048 A 
ATOM      4  C3  UNL d   1       3.648   2.497   0.724  0.00  0.00     0.023 A 
ATOM      5  C4  UNL d   1       3.683   3.354   1.825  0.00  0.00     0.048 A 
ATOM      6  C5  UNL d   1       4.862   4.034   2.135  0.00  0.00     0.003 A 
ATOM      7  I   UNL d   1       1.894   1.483   0.259  0.00  0.00    -0.146 I 
ENDROOT
TORSDOF 0
ENDMDL
