MODEL 1
REMARK minimizedAffinity 14.4435558
REMARK minimizedRMSD -1
REMARK  0 active torsions:
REMARK  status: ('A' for Active; 'I' for Inactive)
ROOT
ATOM      1  C   UNL d   1      -0.735  -0.354   3.543  0.00  0.00     0.023 A 
ATOM      2  C1  UNL d   1      -1.577   0.374   2.702  0.00  0.00     0.003 A 
ATOM      3  C2  UNL d   1      -2.486   1.286   3.242  0.00  0.00     0.048 A 
ATOM      4  C3  UNL d   1      -2.547   1.466   4.624  0.00  0.00     0.023 A 
ATOM      5  C4  UNL d   1      -1.705   0.741   5.468  0.00  0.00     0.048 A 
ATOM      6  C5  UNL d   1      -0.799  -0.171   4.924  0.00  0.00     0.003 A 
ATOM      7  I   UNL d   1      -3.898   2.824   5.430  0.00  0.00    -0.146 I 
ENDROOT
TORSDOF 0
ENDMDL
