MODEL 1
REMARK minimizedAffinity 15.6418047
REMARK minimizedRMSD -1
REMARK  0 active torsions:
REMARK  status: ('A' for Active; 'I' for Inactive)
ROOT
ATOM      1  C   UNL d   1      -4.703  -5.999   4.082  0.00  0.00     0.023 A 
ATOM      2  C1  UNL d   1      -5.131  -5.747   5.385  0.00  0.00     0.003 A 
ATOM      3  C2  UNL d   1      -4.981  -4.474   5.937  0.00  0.00     0.048 A 
ATOM      4  C3  UNL d   1      -4.402  -3.456   5.180  0.00  0.00     0.023 A 
ATOM      5  C4  UNL d   1      -3.973  -3.703   3.875  0.00  0.00     0.048 A 
ATOM      6  C5  UNL d   1      -4.124  -4.978   3.327  0.00  0.00     0.003 A 
ATOM      7  I   UNL d   1      -4.177  -1.559   5.999  0.00  0.00    -0.146 I 
ENDROOT
TORSDOF 0
ENDMDL
