MODEL 1
REMARK minimizedAffinity 14.1150074
REMARK minimizedRMSD -1
REMARK  0 active torsions:
REMARK  status: ('A' for Active; 'I' for Inactive)
ROOT
ATOM      1  C   UNL d   1      -3.609   5.555  -1.051  0.00  0.00     0.023 A 
ATOM      2  C1  UNL d   1      -4.398   5.571  -2.201  0.00  0.00     0.003 A 
ATOM      3  C2  UNL d   1      -3.798   5.529  -3.462  0.00  0.00     0.048 A 
ATOM      4  C3  UNL d   1      -2.409   5.470  -3.564  0.00  0.00     0.023 A 
ATOM      5  C4  UNL d   1      -1.615   5.452  -2.416  0.00  0.00     0.048 A 
ATOM      6  C5  UNL d   1      -2.219   5.496  -1.158  0.00  0.00     0.003 A 
ATOM      7  I   UNL d   1      -1.513   5.407  -5.439  0.00  0.00    -0.146 I 
ENDROOT
TORSDOF 0
ENDMDL
