MODEL 1
REMARK minimizedAffinity 5.00925875
REMARK minimizedRMSD -1
REMARK  0 active torsions:
REMARK  status: ('A' for Active; 'I' for Inactive)
ROOT
ATOM      1  C   UNL d   1      -1.285  -0.643   2.946  0.00  0.00     0.023 A 
ATOM      2  C1  UNL d   1      -1.604  -1.488   1.883  0.00  0.00     0.003 A 
ATOM      3  C2  UNL d   1      -2.682  -1.187   1.048  0.00  0.00     0.048 A 
ATOM      4  C3  UNL d   1      -3.437  -0.038   1.282  0.00  0.00     0.023 A 
ATOM      5  C4  UNL d   1      -3.122   0.811   2.344  0.00  0.00     0.048 A 
ATOM      6  C5  UNL d   1      -2.043   0.505   3.176  0.00  0.00     0.003 A 
ATOM      7  I   UNL d   1      -5.043   0.413   0.041  0.00  0.00    -0.146 I 
ENDROOT
TORSDOF 0
ENDMDL
