MODEL 1
REMARK minimizedAffinity 13.4940872
REMARK minimizedRMSD -1
REMARK  0 active torsions:
REMARK  status: ('A' for Active; 'I' for Inactive)
ROOT
ATOM      1  C   UNL d   1      -2.847   0.264   2.004  0.00  0.00     0.023 A 
ATOM      2  C1  UNL d   1      -2.261  -0.623   1.101  0.00  0.00     0.003 A 
ATOM      3  C2  UNL d   1      -1.018  -1.192   1.385  0.00  0.00     0.048 A 
ATOM      4  C3  UNL d   1      -0.367  -0.871   2.575  0.00  0.00     0.023 A 
ATOM      5  C4  UNL d   1      -0.949   0.016   3.483  0.00  0.00     0.048 A 
ATOM      6  C5  UNL d   1      -2.192   0.583   3.194  0.00  0.00     0.003 A 
ATOM      7  I   UNL d   1       1.484  -1.716   3.001  0.00  0.00    -0.146 I 
ENDROOT
TORSDOF 0
ENDMDL
