MODEL 1
REMARK minimizedAffinity 15.3633814
REMARK minimizedRMSD -1
REMARK  0 active torsions:
REMARK  status: ('A' for Active; 'I' for Inactive)
ROOT
ATOM      1  C   UNL d   1       2.602   0.713  -0.329  0.00  0.00     0.023 A 
ATOM      2  C1  UNL d   1       3.935   0.574  -0.715  0.00  0.00     0.003 A 
ATOM      3  C2  UNL d   1       4.911   1.413  -0.173  0.00  0.00     0.048 A 
ATOM      4  C3  UNL d   1       4.548   2.388   0.754  0.00  0.00     0.023 A 
ATOM      5  C4  UNL d   1       3.215   2.531   1.144  0.00  0.00     0.048 A 
ATOM      6  C5  UNL d   1       2.242   1.690   0.599  0.00  0.00     0.003 A 
ATOM      7  I   UNL d   1       5.999   3.638   1.561  0.00  0.00    -0.146 I 
ENDROOT
TORSDOF 0
ENDMDL
