MODEL 1
REMARK minimizedAffinity 12.0234919
REMARK minimizedRMSD -1
REMARK  0 active torsions:
REMARK  status: ('A' for Active; 'I' for Inactive)
ROOT
ATOM      1  C   UNL d   1       4.137   3.013  -4.509  0.00  0.00     0.023 A 
ATOM      2  C1  UNL d   1       5.365   3.673  -4.481  0.00  0.00     0.003 A 
ATOM      3  C2  UNL d   1       5.901   4.103  -3.266  0.00  0.00     0.048 A 
ATOM      4  C3  UNL d   1       5.204   3.869  -2.081  0.00  0.00     0.023 A 
ATOM      5  C4  UNL d   1       3.975   3.207  -2.103  0.00  0.00     0.048 A 
ATOM      6  C5  UNL d   1       3.442   2.780  -3.321  0.00  0.00     0.003 A 
ATOM      7  I   UNL d   1       6.000   4.508  -0.271  0.00  0.00    -0.146 I 
ENDROOT
TORSDOF 0
ENDMDL
