MODEL 1
REMARK minimizedAffinity 14.3692484
REMARK minimizedRMSD -1
REMARK  0 active torsions:
REMARK  status: ('A' for Active; 'I' for Inactive)
ROOT
ATOM      1  C   UNL d   1       5.993   4.826   0.637  0.00  0.00     0.023 A 
ATOM      2  C1  UNL d   1       5.993   3.581   0.008  0.00  0.00     0.003 A 
ATOM      3  C2  UNL d   1       5.990   3.502  -1.386  0.00  0.00     0.048 A 
ATOM      4  C3  UNL d   1       5.987   4.672  -2.145  0.00  0.00     0.023 A 
ATOM      5  C4  UNL d   1       5.987   5.920  -1.520  0.00  0.00     0.048 A 
ATOM      6  C5  UNL d   1       5.990   5.994  -0.126  0.00  0.00     0.003 A 
ATOM      7  I   UNL d   1       5.981   4.556  -4.220  0.00  0.00    -0.146 I 
ENDROOT
TORSDOF 0
ENDMDL
