MODEL 1
REMARK minimizedAffinity 12.1690283
REMARK minimizedRMSD -1
REMARK  0 active torsions:
REMARK  status: ('A' for Active; 'I' for Inactive)
ROOT
ATOM      1  C   UNL d   1      -5.886  -5.166  -5.280  0.00  0.00     0.023 A 
ATOM      2  C1  UNL d   1      -5.003  -5.975  -5.995  0.00  0.00     0.003 A 
ATOM      3  C2  UNL d   1      -3.646  -5.993  -5.664  0.00  0.00     0.048 A 
ATOM      4  C3  UNL d   1      -3.180  -5.201  -4.616  0.00  0.00     0.023 A 
ATOM      5  C4  UNL d   1      -4.060  -4.390  -3.897  0.00  0.00     0.048 A 
ATOM      6  C5  UNL d   1      -5.415  -4.375  -4.232  0.00  0.00     0.003 A 
ATOM      7  I   UNL d   1      -1.161  -5.226  -4.121  0.00  0.00    -0.146 I 
ENDROOT
TORSDOF 0
ENDMDL
