MODEL 1
REMARK minimizedAffinity 11.9925852
REMARK minimizedRMSD -1
REMARK  0 active torsions:
REMARK  status: ('A' for Active; 'I' for Inactive)
ROOT
ATOM      1  C   UNL d   1      -5.839   1.064  -0.264  0.00  0.00     0.023 A 
ATOM      2  C1  UNL d   1      -4.570   1.124  -0.841  0.00  0.00     0.003 A 
ATOM      3  C2  UNL d   1      -3.458   0.661  -0.134  0.00  0.00     0.048 A 
ATOM      4  C3  UNL d   1      -3.622   0.138   1.149  0.00  0.00     0.023 A 
ATOM      5  C4  UNL d   1      -4.890   0.075   1.729  0.00  0.00     0.048 A 
ATOM      6  C5  UNL d   1      -5.999   0.540   1.019  0.00  0.00     0.003 A 
ATOM      7  I   UNL d   1      -1.969  -0.552   2.202  0.00  0.00    -0.146 I 
ENDROOT
TORSDOF 0
ENDMDL
