MODEL 1
REMARK minimizedAffinity 12.3500729
REMARK minimizedRMSD -1
REMARK  2 active torsions:
REMARK  status: ('A' for Active; 'I' for Inactive)
REMARK    1  A    between atoms: C2'_3  and  C1'_4 
REMARK    2  A    between atoms: C1'_4  and  C1_5 
ROOT
ATOM      1  C1  I4B d   1       3.527   3.310  -2.927  0.00  0.00    -0.075 A 
ATOM      2  C2  I4B d   1       3.474   2.300  -2.000  0.00  0.00     0.003 A 
ATOM      3  C3  I4B d   1       2.229   1.885  -1.468  0.00  0.00     0.002 A 
ATOM      4  C4  I4B d   1       1.075   2.539  -1.850  0.00  0.00    -0.004 A 
ATOM      5  C5  I4B d   1       1.128   3.548  -2.807  0.00  0.00     0.002 A 
ATOM      6  C6  I4B d   1       2.360   3.928  -3.359  0.00  0.00     0.003 A 
ENDROOT
BRANCH   1   7
ATOM      7  C1' I4B d   1       4.862   3.745  -3.444  0.00  0.00     0.060 C 
BRANCH   7   8
ATOM      8  C2' I4B d   1       5.213   5.061  -2.781  0.00  0.00    -0.013 C 
ATOM      9  C4' I4B d   1       5.991   4.840  -1.510  0.00  0.00     0.013 C 
ATOM     10  C3' I4B d   1       6.000   5.878  -3.762  0.00  0.00     0.013 C 
ENDBRANCH   7   8
ENDBRANCH   1   7
TORSDOF 2
ENDMDL
