MODEL 1
REMARK minimizedAffinity 11.7571926
REMARK minimizedRMSD -1
REMARK  2 active torsions:
REMARK  status: ('A' for Active; 'I' for Inactive)
REMARK    1  A    between atoms: C2'_3  and  C1'_4 
REMARK    2  A    between atoms: C1'_4  and  C1_5 
ROOT
ATOM      1  C1  I4B d   1      -3.375   5.799  -4.127  0.00  0.00    -0.075 A 
ATOM      2  C2  I4B d   1      -4.435   5.737  -3.257  0.00  0.00     0.003 A 
ATOM      3  C3  I4B d   1      -5.763   5.793  -3.745  0.00  0.00     0.002 A 
ATOM      4  C4  I4B d   1      -5.983   5.960  -5.098  0.00  0.00    -0.004 A 
ATOM      5  C5  I4B d   1      -4.907   5.999  -5.980  0.00  0.00     0.002 A 
ATOM      6  C6  I4B d   1      -3.595   5.905  -5.494  0.00  0.00     0.003 A 
ENDROOT
BRANCH   1   7
ATOM      7  C1' I4B d   1      -1.986   5.770  -3.573  0.00  0.00     0.060 C 
BRANCH   7   8
ATOM      8  C2' I4B d   1      -1.092   5.089  -4.590  0.00  0.00    -0.013 C 
ATOM      9  C4' I4B d   1      -1.113   5.816  -5.908  0.00  0.00     0.013 C 
ATOM     10  C3' I4B d   1       0.295   5.034  -4.024  0.00  0.00     0.013 C 
ENDBRANCH   7   8
ENDBRANCH   1   7
TORSDOF 2
ENDMDL
