MODEL 1
REMARK minimizedAffinity 16.9808826
REMARK minimizedRMSD -1
REMARK  2 active torsions:
REMARK  status: ('A' for Active; 'I' for Inactive)
REMARK    1  A    between atoms: C2'_3  and  C1'_4 
REMARK    2  A    between atoms: C1'_4  and  C1_5 
ROOT
ATOM      1  C1  I4B d   1       3.611   3.856  -2.945  0.00  0.00    -0.075 A 
ATOM      2  C2  I4B d   1       3.747   3.228  -4.158  0.00  0.00     0.003 A 
ATOM      3  C3  I4B d   1       4.967   3.315  -4.872  0.00  0.00     0.002 A 
ATOM      4  C4  I4B d   1       5.999   4.077  -4.365  0.00  0.00    -0.004 A 
ATOM      5  C5  I4B d   1       5.868   4.694  -3.124  0.00  0.00     0.002 A 
ATOM      6  C6  I4B d   1       4.671   4.573  -2.403  0.00  0.00     0.003 A 
ENDROOT
BRANCH   1   7
ATOM      7  C1' I4B d   1       2.299   3.771  -2.232  0.00  0.00     0.060 C 
BRANCH   7   8
ATOM      8  C2' I4B d   1       1.893   2.312  -2.174  0.00  0.00    -0.013 C 
ATOM      9  C4' I4B d   1       1.874   1.808  -0.755  0.00  0.00     0.013 C 
ATOM     10  C3' I4B d   1       0.543   2.181  -2.814  0.00  0.00     0.013 C 
ENDBRANCH   7   8
ENDBRANCH   1   7
TORSDOF 2
ENDMDL
