MODEL 1
REMARK minimizedAffinity 13.1360912
REMARK minimizedRMSD -1
REMARK  2 active torsions:
REMARK  status: ('A' for Active; 'I' for Inactive)
REMARK    1  A    between atoms: C2'_3  and  C1'_4 
REMARK    2  A    between atoms: C1'_4  and  C1_5 
ROOT
ATOM      1  C1  I4B d   1       1.799   2.111  -1.169  0.00  0.00    -0.075 A 
ATOM      2  C2  I4B d   1       3.075   1.605  -1.150  0.00  0.00     0.003 A 
ATOM      3  C3  I4B d   1       3.823   1.605   0.052  0.00  0.00     0.002 A 
ATOM      4  C4  I4B d   1       3.280   2.164   1.191  0.00  0.00    -0.004 A 
ATOM      5  C5  I4B d   1       1.978   2.655   1.175  0.00  0.00     0.002 A 
ATOM      6  C6  I4B d   1       1.228   2.617  -0.010  0.00  0.00     0.003 A 
ENDROOT
BRANCH   1   7
ATOM      7  C1' I4B d   1       1.049   2.124  -2.464  0.00  0.00     0.060 C 
BRANCH   7   8
ATOM      8  C2' I4B d   1       1.338   3.440  -3.157  0.00  0.00    -0.013 C 
ATOM      9  C4' I4B d   1       2.513   3.318  -4.091  0.00  0.00     0.013 C 
ATOM     10  C3' I4B d   1       0.101   3.857  -3.895  0.00  0.00     0.013 C 
ENDBRANCH   7   8
ENDBRANCH   1   7
TORSDOF 2
ENDMDL
