MODEL 1
REMARK minimizedAffinity 16.9345512
REMARK minimizedRMSD -1
REMARK  2 active torsions:
REMARK  status: ('A' for Active; 'I' for Inactive)
REMARK    1  A    between atoms: C2'_3  and  C1'_4 
REMARK    2  A    between atoms: C1'_4  and  C1_5 
ROOT
ATOM      1  C1  I4B d   1      -1.945  -1.695   2.156  0.00  0.00    -0.075 A 
ATOM      2  C2  I4B d   1      -0.768  -1.366   2.781  0.00  0.00     0.003 A 
ATOM      3  C3  I4B d   1       0.420  -2.075   2.482  0.00  0.00     0.002 A 
ATOM      4  C4  I4B d   1       0.376  -3.132   1.595  0.00  0.00    -0.004 A 
ATOM      5  C5  I4B d   1      -0.813  -3.448   0.945  0.00  0.00     0.002 A 
ATOM      6  C6  I4B d   1      -1.978  -2.718   1.217  0.00  0.00     0.003 A 
ENDROOT
BRANCH   1   7
ATOM      7  C1' I4B d   1      -3.188  -0.947   2.520  0.00  0.00     0.060 C 
BRANCH   7   8
ATOM      8  C2' I4B d   1      -4.315  -1.950   2.653  0.00  0.00    -0.013 C 
ATOM      9  C4' I4B d   1      -4.503  -2.372   4.086  0.00  0.00     0.013 C 
ATOM     10  C3' I4B d   1      -5.562  -1.322   2.105  0.00  0.00     0.013 C 
ENDBRANCH   7   8
ENDBRANCH   1   7
TORSDOF 2
ENDMDL
