MODEL 1
REMARK minimizedAffinity 16.9059639
REMARK minimizedRMSD -1
REMARK  2 active torsions:
REMARK  status: ('A' for Active; 'I' for Inactive)
REMARK    1  A    between atoms: C2'_3  and  C1'_4 
REMARK    2  A    between atoms: C1'_4  and  C1_5 
ROOT
ATOM      1  C1  I4B d   1       2.611   2.793  -2.760  0.00  0.00    -0.075 A 
ATOM      2  C2  I4B d   1       3.644   2.074  -2.212  0.00  0.00     0.003 A 
ATOM      3  C3  I4B d   1       3.415   1.241  -1.090  0.00  0.00     0.002 A 
ATOM      4  C4  I4B d   1       2.159   1.196  -0.521  0.00  0.00    -0.004 A 
ATOM      5  C5  I4B d   1       1.108   1.908  -1.092  0.00  0.00     0.002 A 
ATOM      6  C6  I4B d   1       1.332   2.702  -2.226  0.00  0.00     0.003 A 
ENDROOT
BRANCH   1   7
ATOM      7  C1' I4B d   1       2.894   3.688  -3.924  0.00  0.00     0.060 C 
BRANCH   7   8
ATOM      8  C2' I4B d   1       4.236   3.289  -4.504  0.00  0.00    -0.013 C 
ATOM      9  C4' I4B d   1       4.157   3.127  -5.999  0.00  0.00     0.013 C 
ATOM     10  C3' I4B d   1       5.236   4.341  -4.125  0.00  0.00     0.013 C 
ENDBRANCH   7   8
ENDBRANCH   1   7
TORSDOF 2
ENDMDL
