MODEL 1
REMARK minimizedAffinity 19.2493858
REMARK minimizedRMSD -1
REMARK  2 active torsions:
REMARK  status: ('A' for Active; 'I' for Inactive)
REMARK    1  A    between atoms: C2'_3  and  C1'_4 
REMARK    2  A    between atoms: C1'_4  and  C1_5 
ROOT
ATOM      1  C1  I4B d   1       4.292   3.209  -0.027  0.00  0.00    -0.075 A 
ATOM      2  C2  I4B d   1       3.625   2.204  -0.681  0.00  0.00     0.003 A 
ATOM      3  C3  I4B d   1       2.469   1.623  -0.105  0.00  0.00     0.002 A 
ATOM      4  C4  I4B d   1       2.048   2.040   1.141  0.00  0.00    -0.004 A 
ATOM      5  C5  I4B d   1       2.713   3.074   1.793  0.00  0.00     0.002 A 
ATOM      6  C6  I4B d   1       3.835   3.672   1.200  0.00  0.00     0.003 A 
ENDROOT
BRANCH   1   7
ATOM      7  C1' I4B d   1       5.528   3.777  -0.649  0.00  0.00     0.060 C 
BRANCH   7   8
ATOM      8  C2' I4B d   1       5.102   4.787  -1.695  0.00  0.00    -0.013 C 
ATOM      9  C4' I4B d   1       5.998   5.997  -1.681  0.00  0.00     0.013 C 
ATOM     10  C3' I4B d   1       5.130   4.108  -3.032  0.00  0.00     0.013 C 
ENDBRANCH   7   8
ENDBRANCH   1   7
TORSDOF 2
ENDMDL
