MODEL 1
REMARK minimizedAffinity 12.8013296
REMARK minimizedRMSD -1
REMARK  2 active torsions:
REMARK  status: ('A' for Active; 'I' for Inactive)
REMARK    1  A    between atoms: C2'_3  and  C1'_4 
REMARK    2  A    between atoms: C1'_4  and  C1_5 
ROOT
ATOM      1  C1  I4B d   1       4.669   4.553  -2.122  0.00  0.00    -0.075 A 
ATOM      2  C2  I4B d   1       5.808   5.031  -2.721  0.00  0.00     0.003 A 
ATOM      3  C3  I4B d   1       5.996   4.883  -4.116  0.00  0.00     0.002 A 
ATOM      4  C4  I4B d   1       5.050   4.210  -4.862  0.00  0.00    -0.004 A 
ATOM      5  C5  I4B d   1       3.885   3.746  -4.257  0.00  0.00     0.002 A 
ATOM      6  C6  I4B d   1       3.687   3.929  -2.881  0.00  0.00     0.003 A 
ENDROOT
BRANCH   1   7
ATOM      7  C1' I4B d   1       4.518   4.697  -0.641  0.00  0.00     0.060 C 
BRANCH   7   8
ATOM      8  C2' I4B d   1       4.759   3.340  -0.013  0.00  0.00    -0.013 C 
ATOM      9  C4' I4B d   1       5.976   3.359   0.875  0.00  0.00     0.013 C 
ATOM     10  C3' I4B d   1       3.531   2.963   0.760  0.00  0.00     0.013 C 
ENDBRANCH   7   8
ENDBRANCH   1   7
TORSDOF 2
ENDMDL
