MODEL 1
REMARK minimizedAffinity 16.497839
REMARK minimizedRMSD -1
REMARK  2 active torsions:
REMARK  status: ('A' for Active; 'I' for Inactive)
REMARK    1  A    between atoms: C2'_3  and  C1'_4 
REMARK    2  A    between atoms: C1'_4  and  C1_5 
ROOT
ATOM      1  C1  I4B d   1      -5.954   0.149  -3.482  0.00  0.00    -0.075 A 
ATOM      2  C2  I4B d   1      -5.996  -1.222  -3.518  0.00  0.00     0.003 A 
ATOM      3  C3  I4B d   1      -5.993  -1.903  -4.760  0.00  0.00     0.002 A 
ATOM      4  C4  I4B d   1      -5.999  -1.177  -5.933  0.00  0.00    -0.004 A 
ATOM      5  C5  I4B d   1      -5.933   0.212  -5.895  0.00  0.00     0.002 A 
ATOM      6  C6  I4B d   1      -5.898   0.880  -4.662  0.00  0.00     0.003 A 
ENDROOT
BRANCH   1   7
ATOM      7  C1' I4B d   1      -5.991   0.837  -2.154  0.00  0.00     0.060 C 
BRANCH   7   8
ATOM      8  C2' I4B d   1      -5.410  -0.108  -1.123  0.00  0.00    -0.013 C 
ATOM      9  C4' I4B d   1      -3.917  -0.233  -1.278  0.00  0.00     0.013 C 
ATOM     10  C3' I4B d   1      -5.771   0.411   0.237  0.00  0.00     0.013 C 
ENDBRANCH   7   8
ENDBRANCH   1   7
TORSDOF 2
ENDMDL
