MODEL 1
REMARK minimizedAffinity 14.7182283
REMARK minimizedRMSD -1
REMARK  2 active torsions:
REMARK  status: ('A' for Active; 'I' for Inactive)
REMARK    1  A    between atoms: C2'_3  and  C1'_4 
REMARK    2  A    between atoms: C1'_4  and  C1_5 
ROOT
ATOM      1  C1  I4B d   1      -5.831   1.466  -1.654  0.00  0.00    -0.075 A 
ATOM      2  C2  I4B d   1      -5.620   0.142  -1.361  0.00  0.00     0.003 A 
ATOM      3  C3  I4B d   1      -5.582  -0.821  -2.399  0.00  0.00     0.002 A 
ATOM      4  C4  I4B d   1      -5.809  -0.425  -3.701  0.00  0.00    -0.004 A 
ATOM      5  C5  I4B d   1      -6.000   0.921  -3.999  0.00  0.00     0.002 A 
ATOM      6  C6  I4B d   1      -5.999   1.875  -2.970  0.00  0.00     0.003 A 
ENDROOT
BRANCH   1   7
ATOM      7  C1' I4B d   1      -5.898   2.451  -0.530  0.00  0.00     0.060 C 
BRANCH   7   8
ATOM      8  C2' I4B d   1      -5.324   3.763  -1.025  0.00  0.00    -0.013 C 
ATOM      9  C4' I4B d   1      -5.999   4.937  -0.365  0.00  0.00     0.013 C 
ATOM     10  C3' I4B d   1      -3.851   3.759  -0.744  0.00  0.00     0.013 C 
ENDBRANCH   7   8
ENDBRANCH   1   7
TORSDOF 2
ENDMDL
