MODEL 1
REMARK minimizedAffinity 13.3981695
REMARK minimizedRMSD -1
REMARK  2 active torsions:
REMARK  status: ('A' for Active; 'I' for Inactive)
REMARK    1  A    between atoms: C2'_3  and  C1'_4 
REMARK    2  A    between atoms: C1'_4  and  C1_5 
ROOT
ATOM      1  C1  I4B d   1      -3.418   0.792   3.274  0.00  0.00    -0.075 A 
ATOM      2  C2  I4B d   1      -4.428   0.440   2.415  0.00  0.00     0.003 A 
ATOM      3  C3  I4B d   1      -4.305  -0.714   1.605  0.00  0.00     0.002 A 
ATOM      4  C4  I4B d   1      -3.142  -1.455   1.649  0.00  0.00    -0.004 A 
ATOM      5  C5  I4B d   1      -2.127  -1.109   2.537  0.00  0.00     0.002 A 
ATOM      6  C6  I4B d   1      -2.271   0.014   3.364  0.00  0.00     0.003 A 
ENDROOT
BRANCH   1   7
ATOM      7  C1' I4B d   1      -3.567   2.037   4.091  0.00  0.00     0.060 C 
BRANCH   7   8
ATOM      8  C2' I4B d   1      -4.787   1.872   4.974  0.00  0.00    -0.013 C 
ATOM      9  C4' I4B d   1      -4.870   2.971   5.999  0.00  0.00     0.013 C 
ATOM     10  C3' I4B d   1      -5.999   1.861   4.091  0.00  0.00     0.013 C 
ENDBRANCH   7   8
ENDBRANCH   1   7
TORSDOF 2
ENDMDL
