MODEL 1
REMARK minimizedAffinity 11.5462761
REMARK minimizedRMSD -1
REMARK  2 active torsions:
REMARK  status: ('A' for Active; 'I' for Inactive)
REMARK    1  A    between atoms: C2'_3  and  C1'_4 
REMARK    2  A    between atoms: C1'_4  and  C1_5 
ROOT
ATOM      1  C1  I4B d   1      -4.498  -4.586   3.630  0.00  0.00    -0.075 A 
ATOM      2  C2  I4B d   1      -4.337  -3.771   4.723  0.00  0.00     0.003 A 
ATOM      3  C3  I4B d   1      -5.002  -4.068   5.937  0.00  0.00     0.002 A 
ATOM      4  C4  I4B d   1      -5.852  -5.154   5.999  0.00  0.00    -0.004 A 
ATOM      5  C5  I4B d   1      -5.996  -5.992   4.897  0.00  0.00     0.002 A 
ATOM      6  C6  I4B d   1      -5.305  -5.713   3.709  0.00  0.00     0.003 A 
ENDROOT
BRANCH   1   7
ATOM      7  C1' I4B d   1      -3.806  -4.224   2.354  0.00  0.00     0.060 C 
BRANCH   7   8
ATOM      8  C2' I4B d   1      -3.349  -2.784   2.463  0.00  0.00    -0.013 C 
ATOM      9  C4' I4B d   1      -1.961  -2.609   1.904  0.00  0.00     0.013 C 
ATOM     10  C3' I4B d   1      -4.339  -1.927   1.732  0.00  0.00     0.013 C 
ENDBRANCH   7   8
ENDBRANCH   1   7
TORSDOF 2
ENDMDL
