MODEL 1
REMARK minimizedAffinity -2.778301
REMARK minimizedRMSD -1
REMARK  0 active torsions:
REMARK  status: ('A' for Active; 'I' for Inactive)
ROOT
ATOM      1  N1  IND d   1      -0.426   1.279   0.070  0.00  0.00    -0.196 N 
ATOM      2  C2  IND d   1      -1.443   0.622   0.706  0.00  0.00     0.054 A 
ATOM      3  C3  IND d   1      -1.197  -0.707   0.739  0.00  0.00    -0.031 A 
ATOM      4  C4  IND d   1       0.858  -2.010  -0.101  0.00  0.00     0.051 A 
ATOM      5  C5  IND d   1       2.030  -1.849  -0.786  0.00  0.00    -0.031 A 
ATOM      6  C6  IND d   1       2.453  -0.612  -1.227  0.00  0.00     0.015 A 
ATOM      7  C7  IND d   1       1.722   0.517  -0.989  0.00  0.00    -0.016 A 
ATOM      8  C8  IND d   1       0.528   0.356  -0.300  0.00  0.00    -0.047 A 
ATOM      9  C9  IND d   1       0.073  -0.902   0.113  0.00  0.00    -0.096 A 
ATOM     10  HN1 IND d   1      -0.390   2.126  -0.076  0.00  0.00     0.298 HD
ENDROOT
TORSDOF 0
ENDMDL
