MODEL 1
REMARK minimizedAffinity -5.49107313
REMARK minimizedRMSD -1
REMARK  0 active torsions:
REMARK  status: ('A' for Active; 'I' for Inactive)
ROOT
ATOM      1  N1  IND d   1      -0.247   0.692  -0.622  0.00  0.00    -0.196 N 
ATOM      2  C2  IND d   1      -0.186  -0.557  -0.071  0.00  0.00     0.054 A 
ATOM      3  C3  IND d   1       0.886  -1.229  -0.546  0.00  0.00    -0.031 A 
ATOM      4  C4  IND d   1       2.731  -0.436  -2.157  0.00  0.00     0.051 A 
ATOM      5  C5  IND d   1       3.086   0.617  -2.953  0.00  0.00    -0.031 A 
ATOM      6  C6  IND d   1       2.335   1.773  -3.012  0.00  0.00     0.015 A 
ATOM      7  C7  IND d   1       1.201   1.924  -2.265  0.00  0.00    -0.016 A 
ATOM      8  C8  IND d   1       0.833   0.854  -1.461  0.00  0.00    -0.047 A 
ATOM      9  C9  IND d   1       1.569  -0.338  -1.429  0.00  0.00    -0.096 A 
ATOM     10  HN1 IND d   1      -0.858   1.278  -0.471  0.00  0.00     0.298 HD
ENDROOT
TORSDOF 0
ENDMDL
