MODEL 1
REMARK minimizedAffinity -4.87940645
REMARK minimizedRMSD -1
REMARK  0 active torsions:
REMARK  status: ('A' for Active; 'I' for Inactive)
ROOT
ATOM      1  N1  IND d   1      -0.592   1.207  -0.464  0.00  0.00    -0.196 N 
ATOM      2  C2  IND d   1      -0.810   0.285   0.521  0.00  0.00     0.054 A 
ATOM      3  C3  IND d   1       0.266  -0.522   0.658  0.00  0.00    -0.031 A 
ATOM      4  C4  IND d   1       2.532  -0.444  -0.561  0.00  0.00     0.051 A 
ATOM      5  C5  IND d   1       3.191   0.199  -1.571  0.00  0.00    -0.031 A 
ATOM      6  C6  IND d   1       2.611   1.234  -2.277  0.00  0.00     0.015 A 
ATOM      7  C7  IND d   1       1.350   1.673  -1.989  0.00  0.00    -0.016 A 
ATOM      8  C8  IND d   1       0.676   1.018  -0.969  0.00  0.00    -0.047 A 
ATOM      9  C9  IND d   1       1.243  -0.061  -0.278  0.00  0.00    -0.096 A 
ATOM     10  HN1 IND d   1      -1.153   1.804  -0.726  0.00  0.00     0.298 HD
ENDROOT
TORSDOF 0
ENDMDL
