MODEL 1
REMARK minimizedAffinity -3.37304831
REMARK minimizedRMSD -1
REMARK  0 active torsions:
REMARK  status: ('A' for Active; 'I' for Inactive)
ROOT
ATOM      1  N1  IND d   1      -0.778  -0.288  -0.535  0.00  0.00    -0.196 N 
ATOM      2  C2  IND d   1       0.475  -0.748  -0.238  0.00  0.00     0.054 A 
ATOM      3  C3  IND d   1       0.826  -0.379   1.015  0.00  0.00    -0.031 A 
ATOM      4  C4  IND d   1      -0.538   0.892   2.789  0.00  0.00     0.051 A 
ATOM      5  C5  IND d   1      -1.723   1.549   2.970  0.00  0.00    -0.031 A 
ATOM      6  C6  IND d   1      -2.673   1.627   1.973  0.00  0.00     0.015 A 
ATOM      7  C7  IND d   1      -2.478   1.038   0.755  0.00  0.00    -0.016 A 
ATOM      8  C8  IND d   1      -1.274   0.376   0.566  0.00  0.00    -0.047 A 
ATOM      9  C9  IND d   1      -0.287   0.330   1.560  0.00  0.00    -0.096 A 
ATOM     10  HN1 IND d   1      -1.187  -0.395  -1.284  0.00  0.00     0.298 HD
ENDROOT
TORSDOF 0
ENDMDL
