MODEL 1
REMARK minimizedAffinity -6.01166582
REMARK minimizedRMSD -1
REMARK  0 active torsions:
REMARK  status: ('A' for Active; 'I' for Inactive)
ROOT
ATOM      1  N1  IND d   1      -0.218   2.136  -1.663  0.00  0.00    -0.196 N 
ATOM      2  C2  IND d   1      -1.126   1.810  -0.695  0.00  0.00     0.054 A 
ATOM      3  C3  IND d   1      -0.759   0.667  -0.072  0.00  0.00    -0.031 A 
ATOM      4  C4  IND d   1       1.345  -0.777  -0.409  0.00  0.00     0.051 A 
ATOM      5  C5  IND d   1       2.450  -0.902  -1.204  0.00  0.00    -0.031 A 
ATOM      6  C6  IND d   1       2.729  -0.001  -2.211  0.00  0.00     0.015 A 
ATOM      7  C7  IND d   1       1.916   1.070  -2.455  0.00  0.00    -0.016 A 
ATOM      8  C8  IND d   1       0.790   1.196  -1.654  0.00  0.00    -0.047 A 
ATOM      9  C9  IND d   1       0.479   0.261  -0.658  0.00  0.00    -0.096 A 
ATOM     10  HN1 IND d   1      -0.267   2.814  -2.190  0.00  0.00     0.298 HD
ENDROOT
TORSDOF 0
ENDMDL
