MODEL 1
REMARK minimizedAffinity -4.99838543
REMARK minimizedRMSD -1
REMARK  0 active torsions:
REMARK  status: ('A' for Active; 'I' for Inactive)
ROOT
ATOM      1  N1  IND d   1      -0.529   0.757  -0.455  0.00  0.00    -0.196 N 
ATOM      2  C2  IND d   1      -0.661  -0.288   0.416  0.00  0.00     0.054 A 
ATOM      3  C3  IND d   1       0.407  -1.113   0.325  0.00  0.00    -0.031 A 
ATOM      4  C4  IND d   1       2.531  -0.887  -1.111  0.00  0.00     0.051 A 
ATOM      5  C5  IND d   1       3.092  -0.117  -2.091  0.00  0.00    -0.031 A 
ATOM      6  C6  IND d   1       2.463   1.007  -2.584  0.00  0.00     0.015 A 
ATOM      7  C7  IND d   1       1.249   1.413  -2.105  0.00  0.00    -0.016 A 
ATOM      8  C8  IND d   1       0.674   0.629  -1.114  0.00  0.00    -0.047 A 
ATOM      9  C9  IND d   1       1.288  -0.537  -0.640  0.00  0.00    -0.096 A 
ATOM     10  HN1 IND d   1      -1.101   1.388  -0.571  0.00  0.00     0.298 HD
ENDROOT
TORSDOF 0
ENDMDL
