MODEL 1
REMARK minimizedAffinity -2.46359873
REMARK minimizedRMSD -1
REMARK  0 active torsions:
REMARK  status: ('A' for Active; 'I' for Inactive)
ROOT
ATOM      1  N1  IND d   1      -0.537   0.817  -0.742  0.00  0.00    -0.196 N 
ATOM      2  C2  IND d   1      -1.518   0.544   0.169  0.00  0.00     0.054 A 
ATOM      3  C3  IND d   1      -1.255  -0.617   0.809  0.00  0.00    -0.031 A 
ATOM      4  C4  IND d   1       0.778  -2.182   0.591  0.00  0.00     0.051 A 
ATOM      5  C5  IND d   1       1.918  -2.370  -0.138  0.00  0.00    -0.031 A 
ATOM      6  C6  IND d   1       2.308  -1.487  -1.124  0.00  0.00     0.015 A 
ATOM      7  C7  IND d   1       1.574  -0.371  -1.411  0.00  0.00    -0.016 A 
ATOM      8  C8  IND d   1       0.412  -0.180  -0.677  0.00  0.00    -0.047 A 
ATOM      9  C9  IND d   1      -0.011  -1.095   0.295  0.00  0.00    -0.096 A 
ATOM     10  HN1 IND d   1      -0.515   1.497  -1.268  0.00  0.00     0.298 HD
ENDROOT
TORSDOF 0
ENDMDL
