MODEL 1
REMARK minimizedAffinity -2.81441355
REMARK minimizedRMSD -1
REMARK  0 active torsions:
REMARK  status: ('A' for Active; 'I' for Inactive)
ROOT
ATOM      1  N1  IND d   1      -0.017   0.552   0.808  0.00  0.00    -0.196 N 
ATOM      2  C2  IND d   1      -0.947  -0.359   0.391  0.00  0.00     0.054 A 
ATOM      3  C3  IND d   1      -0.389  -1.241  -0.468  0.00  0.00    -0.031 A 
ATOM      4  C4  IND d   1       2.055  -1.437  -1.253  0.00  0.00     0.051 A 
ATOM      5  C5  IND d   1       3.266  -0.808  -1.173  0.00  0.00    -0.031 A 
ATOM      6  C6  IND d   1       3.449   0.328  -0.412  0.00  0.00     0.015 A 
ATOM      7  C7  IND d   1       2.426   0.873   0.311  0.00  0.00    -0.016 A 
ATOM      8  C8  IND d   1       1.193   0.241   0.227  0.00  0.00    -0.047 A 
ATOM      9  C9  IND d   1       0.991  -0.887  -0.578  0.00  0.00    -0.096 A 
ATOM     10  HN1 IND d   1      -0.163   1.210   1.342  0.00  0.00     0.298 HD
ENDROOT
TORSDOF 0
ENDMDL
