MODEL 1
REMARK minimizedAffinity -4.98774147
REMARK minimizedRMSD -1
REMARK  0 active torsions:
REMARK  status: ('A' for Active; 'I' for Inactive)
ROOT
ATOM      1  N1  IND d   1      -0.775   1.877  -1.356  0.00  0.00    -0.196 N 
ATOM      2  C2  IND d   1      -1.693   1.525  -0.406  0.00  0.00     0.054 A 
ATOM      3  C3  IND d   1      -1.295   0.405   0.239  0.00  0.00    -0.031 A 
ATOM      4  C4  IND d   1       0.873  -0.956  -0.030  0.00  0.00     0.051 A 
ATOM      5  C5  IND d   1       2.001  -1.044  -0.797  0.00  0.00    -0.031 A 
ATOM      6  C6  IND d   1       2.268  -0.144  -1.808  0.00  0.00     0.015 A 
ATOM      7  C7  IND d   1       1.418   0.890  -2.084  0.00  0.00    -0.016 A 
ATOM      8  C8  IND d   1       0.269   0.979  -1.312  0.00  0.00    -0.047 A 
ATOM      9  C9  IND d   1      -0.028   0.043  -0.313  0.00  0.00    -0.096 A 
ATOM     10  HN1 IND d   1      -0.839   2.547  -1.892  0.00  0.00     0.298 HD
ENDROOT
TORSDOF 0
ENDMDL
