MODEL 1
REMARK minimizedAffinity -5.86376429
REMARK minimizedRMSD -1
REMARK  0 active torsions:
REMARK  status: ('A' for Active; 'I' for Inactive)
ROOT
ATOM      1  N1  IND d   1      -0.151   1.188  -0.110  0.00  0.00    -0.196 N 
ATOM      2  C2  IND d   1      -0.222   0.229   0.862  0.00  0.00     0.054 A 
ATOM      3  C3  IND d   1       0.753  -0.690   0.688  0.00  0.00    -0.031 A 
ATOM      4  C4  IND d   1       2.638  -0.763  -1.064  0.00  0.00     0.051 A 
ATOM      5  C5  IND d   1       3.094  -0.124  -2.183  0.00  0.00    -0.031 A 
ATOM      6  C6  IND d   1       2.481   1.009  -2.676  0.00  0.00     0.015 A 
ATOM      7  C7  IND d   1       1.391   1.555  -2.060  0.00  0.00    -0.016 A 
ATOM      8  C8  IND d   1       0.921   0.905  -0.928  0.00  0.00    -0.047 A 
ATOM      9  C9  IND d   1       1.513  -0.270  -0.446  0.00  0.00    -0.096 A 
ATOM     10  HN1 IND d   1      -0.686   1.856  -0.196  0.00  0.00     0.298 HD
ENDROOT
TORSDOF 0
ENDMDL
