MODEL 1
REMARK minimizedAffinity -3.91691041
REMARK minimizedRMSD -1
REMARK  0 active torsions:
REMARK  status: ('A' for Active; 'I' for Inactive)
ROOT
ATOM      1  N1  IND d   1       0.610   1.844  -1.757  0.00  0.00    -0.196 N 
ATOM      2  C2  IND d   1       1.650   1.907  -2.642  0.00  0.00     0.054 A 
ATOM      3  C3  IND d   1       2.400   0.785  -2.567  0.00  0.00    -0.031 A 
ATOM      4  C4  IND d   1       2.046  -1.326  -1.136  0.00  0.00     0.051 A 
ATOM      5  C5  IND d   1       1.253  -1.836  -0.147  0.00  0.00    -0.031 A 
ATOM      6  C6  IND d   1       0.182  -1.133   0.365  0.00  0.00     0.015 A 
ATOM      7  C7  IND d   1      -0.144   0.108  -0.104  0.00  0.00    -0.016 A 
ATOM      8  C8  IND d   1       0.663   0.633  -1.103  0.00  0.00    -0.047 A 
ATOM      9  C9  IND d   1       1.777  -0.059  -1.597  0.00  0.00    -0.096 A 
ATOM     10  HN1 IND d   1       0.022   2.459  -1.629  0.00  0.00     0.298 HD
ENDROOT
TORSDOF 0
ENDMDL
