MODEL 1
REMARK minimizedAffinity -6.32637787
REMARK minimizedRMSD -1
REMARK  0 active torsions:
REMARK  status: ('A' for Active; 'I' for Inactive)
ROOT
ATOM      1  N1  IND d   1      -0.364   0.623  -0.160  0.00  0.00    -0.196 N 
ATOM      2  C2  IND d   1      -0.597  -0.560   0.484  0.00  0.00     0.054 A 
ATOM      3  C3  IND d   1       0.421  -1.423   0.266  0.00  0.00    -0.031 A 
ATOM      4  C4  IND d   1       2.616  -1.069  -1.032  0.00  0.00     0.051 A 
ATOM      5  C5  IND d   1       3.264  -0.165  -1.825  0.00  0.00    -0.031 A 
ATOM      6  C6  IND d   1       2.727   1.075  -2.107  0.00  0.00     0.015 A 
ATOM      7  C7  IND d   1       1.521   1.462  -1.595  0.00  0.00    -0.016 A 
ATOM      8  C8  IND d   1       0.856   0.543  -0.795  0.00  0.00    -0.047 A 
ATOM      9  C9  IND d   1       1.377  -0.732  -0.540  0.00  0.00    -0.096 A 
ATOM     10  HN1 IND d   1      -0.890   1.302  -0.168  0.00  0.00     0.298 HD
ENDROOT
TORSDOF 0
ENDMDL
