MODEL 1
REMARK minimizedAffinity -4.59917831
REMARK minimizedRMSD -1
REMARK  0 active torsions:
REMARK  status: ('A' for Active; 'I' for Inactive)
ROOT
ATOM      1  N1  IND d   1      -1.042   1.358  -0.584  0.00  0.00    -0.196 N 
ATOM      2  C2  IND d   1      -1.496   0.349   0.218  0.00  0.00     0.054 A 
ATOM      3  C3  IND d   1      -0.559  -0.620   0.331  0.00  0.00    -0.031 A 
ATOM      4  C4  IND d   1       1.826  -0.708  -0.632  0.00  0.00     0.051 A 
ATOM      5  C5  IND d   1       2.680  -0.034  -1.459  0.00  0.00    -0.031 A 
ATOM      6  C6  IND d   1       2.330   1.165  -2.047  0.00  0.00     0.015 A 
ATOM      7  C7  IND d   1       1.113   1.742  -1.819  0.00  0.00    -0.016 A 
ATOM      8  C8  IND d   1       0.241   1.056  -0.985  0.00  0.00    -0.047 A 
ATOM      9  C9  IND d   1       0.574  -0.182  -0.420  0.00  0.00    -0.096 A 
ATOM     10  HN1 IND d   1      -1.483   2.063  -0.802  0.00  0.00     0.298 HD
ENDROOT
TORSDOF 0
ENDMDL
