MODEL 1
REMARK minimizedAffinity -3.32935715
REMARK minimizedRMSD -1
REMARK  0 active torsions:
REMARK  status: ('A' for Active; 'I' for Inactive)
ROOT
ATOM      1  N1  IND d   1       0.643   0.545   0.902  0.00  0.00    -0.196 N 
ATOM      2  C2  IND d   1       0.437  -0.338  -0.121  0.00  0.00     0.054 A 
ATOM      3  C3  IND d   1      -0.830  -0.809  -0.086  0.00  0.00    -0.031 A 
ATOM      4  C4  IND d   1      -2.763  -0.191   1.498  0.00  0.00     0.051 A 
ATOM      5  C5  IND d   1      -3.047   0.543   2.615  0.00  0.00    -0.031 A 
ATOM      6  C6  IND d   1      -2.098   1.334   3.229  0.00  0.00     0.015 A 
ATOM      7  C7  IND d   1      -0.826   1.429   2.740  0.00  0.00    -0.016 A 
ATOM      8  C8  IND d   1      -0.531   0.679   1.610  0.00  0.00    -0.047 A 
ATOM      9  C9  IND d   1      -1.479  -0.158   1.007  0.00  0.00    -0.096 A 
ATOM     10  HN1 IND d   1       1.382   0.949   1.075  0.00  0.00     0.298 HD
ENDROOT
TORSDOF 0
ENDMDL
