MODEL 1
REMARK minimizedAffinity -4.92294741
REMARK minimizedRMSD -1
REMARK  0 active torsions:
REMARK  status: ('A' for Active; 'I' for Inactive)
ROOT
ATOM      1  N1  IND d   1       0.223   2.211  -1.624  0.00  0.00    -0.196 N 
ATOM      2  C2  IND d   1       0.957   2.738  -2.650  0.00  0.00     0.054 A 
ATOM      3  C3  IND d   1       2.011   1.940  -2.933  0.00  0.00    -0.031 A 
ATOM      4  C4  IND d   1       2.665  -0.329  -1.907  0.00  0.00     0.051 A 
ATOM      5  C5  IND d   1       2.321  -1.202  -0.913  0.00  0.00    -0.031 A 
ATOM      6  C6  IND d   1       1.235  -0.978  -0.091  0.00  0.00     0.015 A 
ATOM      7  C7  IND d   1       0.444   0.126  -0.239  0.00  0.00    -0.016 A 
ATOM      8  C8  IND d   1       0.796   1.018  -1.243  0.00  0.00    -0.047 A 
ATOM      9  C9  IND d   1       1.921   0.817  -2.053  0.00  0.00    -0.096 A 
ATOM     10  HN1 IND d   1      -0.478   2.566  -1.275  0.00  0.00     0.298 HD
ENDROOT
TORSDOF 0
ENDMDL
