MODEL 1
REMARK minimizedAffinity 13.3665285
REMARK minimizedRMSD -1
REMARK  0 active torsions:
REMARK  status: ('A' for Active; 'I' for Inactive)
ROOT
ATOM      1  C1  DEN d   1      -0.406   0.932   0.929  0.00  0.00     0.130 A 
ATOM      2  C2  DEN d   1      -0.963  -0.029  -0.020  0.00  0.00    -0.031 A 
ATOM      3  C3  DEN d   1       0.146  -0.551  -0.844  0.00  0.00     0.027 A 
ATOM      4  C4  DEN d   1       2.657   0.029  -0.742  0.00  0.00     0.027 A 
ATOM      5  C5  DEN d   1       3.606   0.800  -0.108  0.00  0.00    -0.003 A 
ATOM      6  C6  DEN d   1       3.282   1.687   0.885  0.00  0.00     0.001 A 
ATOM      7  C7  DEN d   1       1.982   1.791   1.304  0.00  0.00     0.017 A 
ATOM      8  C8  DEN d   1       1.019   1.023   0.664  0.00  0.00    -0.094 A 
ATOM      9  C9  DEN d   1       1.368   0.123  -0.329  0.00  0.00    -0.072 A 
ENDROOT
TORSDOF 0
ENDMDL
