MODEL 1
REMARK minimizedAffinity 7.63611078
REMARK minimizedRMSD -1
REMARK  0 active torsions:
REMARK  status: ('A' for Active; 'I' for Inactive)
ROOT
ATOM      1  C1  DEN d   1      -1.204   1.052   0.535  0.00  0.00     0.130 A 
ATOM      2  C2  DEN d   1      -2.569   0.974   1.050  0.00  0.00    -0.031 A 
ATOM      3  C3  DEN d   1      -2.524   0.300   2.363  0.00  0.00     0.027 A 
ATOM      4  C4  DEN d   1      -0.484  -0.624   3.644  0.00  0.00     0.027 A 
ATOM      5  C5  DEN d   1       0.881  -0.800   3.603  0.00  0.00    -0.003 A 
ATOM      6  C6  DEN d   1       1.637  -0.406   2.530  0.00  0.00     0.001 A 
ATOM      7  C7  DEN d   1       1.037   0.226   1.473  0.00  0.00     0.017 A 
ATOM      8  C8  DEN d   1      -0.340   0.401   1.504  0.00  0.00    -0.094 A 
ATOM      9  C9  DEN d   1      -1.085   0.007   2.603  0.00  0.00    -0.072 A 
ENDROOT
TORSDOF 0
ENDMDL
