MODEL 1
REMARK minimizedAffinity 0.850515187
REMARK minimizedRMSD -1
REMARK  0 active torsions:
REMARK  status: ('A' for Active; 'I' for Inactive)
ROOT
ATOM      1  C1  DEN d   1      -2.049  -0.825   3.226  0.00  0.00     0.130 A 
ATOM      2  C2  DEN d   1      -2.249  -1.526   4.491  0.00  0.00    -0.031 A 
ATOM      3  C3  DEN d   1      -0.921  -1.849   5.049  0.00  0.00     0.027 A 
ATOM      4  C4  DEN d   1       1.414  -1.328   4.085  0.00  0.00     0.027 A 
ATOM      5  C5  DEN d   1       2.091  -0.759   3.029  0.00  0.00    -0.003 A 
ATOM      6  C6  DEN d   1       1.441  -0.207   1.957  0.00  0.00     0.001 A 
ATOM      7  C7  DEN d   1       0.072  -0.172   1.938  0.00  0.00     0.017 A 
ATOM      8  C8  DEN d   1      -0.618  -0.750   2.996  0.00  0.00    -0.094 A 
ATOM      9  C9  DEN d   1       0.058  -1.292   4.076  0.00  0.00    -0.072 A 
ENDROOT
TORSDOF 0
ENDMDL
