MODEL 1
REMARK minimizedAffinity 10.8996096
REMARK minimizedRMSD -1
REMARK  0 active torsions:
REMARK  status: ('A' for Active; 'I' for Inactive)
ROOT
ATOM      1  C1  DEN d   1       1.109   0.473   1.522  0.00  0.00     0.130 A 
ATOM      2  C2  DEN d   1       2.261  -0.147   0.873  0.00  0.00    -0.031 A 
ATOM      3  C3  DEN d   1       1.768  -0.948  -0.265  0.00  0.00     0.027 A 
ATOM      4  C4  DEN d   1      -0.654  -1.283  -1.085  0.00  0.00     0.027 A 
ATOM      5  C5  DEN d   1      -1.974  -0.967  -0.846  0.00  0.00    -0.003 A 
ATOM      6  C6  DEN d   1      -2.358  -0.184   0.209  0.00  0.00     0.001 A 
ATOM      7  C7  DEN d   1      -1.408   0.349   1.040  0.00  0.00     0.017 A 
ATOM      8  C8  DEN d   1      -0.076   0.029   0.811  0.00  0.00    -0.094 A 
ATOM      9  C9  DEN d   1       0.293  -0.756  -0.269  0.00  0.00    -0.072 A 
ENDROOT
TORSDOF 0
ENDMDL
