MODEL 1
REMARK minimizedAffinity -1.24021423
REMARK minimizedRMSD -1
REMARK  0 active torsions:
REMARK  status: ('A' for Active; 'I' for Inactive)
ROOT
ATOM      1  C1  DEN d   1      -2.278  -0.287   2.874  0.00  0.00     0.130 A 
ATOM      2  C2  DEN d   1      -2.707   0.199   1.566  0.00  0.00    -0.031 A 
ATOM      3  C3  DEN d   1      -1.505   0.355   0.721  0.00  0.00     0.027 A 
ATOM      4  C4  DEN d   1       0.963  -0.111   1.307  0.00  0.00     0.027 A 
ATOM      5  C5  DEN d   1       1.821  -0.526   2.301  0.00  0.00    -0.003 A 
ATOM      6  C6  DEN d   1       1.381  -0.855   3.556  0.00  0.00     0.001 A 
ATOM      7  C7  DEN d   1       0.040  -0.818   3.836  0.00  0.00     0.017 A 
ATOM      8  C8  DEN d   1      -0.831  -0.394   2.841  0.00  0.00    -0.094 A 
ATOM      9  C9  DEN d   1      -0.367  -0.077   1.576  0.00  0.00    -0.072 A 
ENDROOT
TORSDOF 0
ENDMDL
