MODEL 1
REMARK minimizedAffinity 2.52684784
REMARK minimizedRMSD -1
REMARK  0 active torsions:
REMARK  status: ('A' for Active; 'I' for Inactive)
ROOT
ATOM      1  C1  DEN d   1       0.869  -0.198   0.413  0.00  0.00     0.130 A 
ATOM      2  C2  DEN d   1      -0.225   0.251  -0.444  0.00  0.00    -0.031 A 
ATOM      3  C3  DEN d   1      -1.425   0.424   0.400  0.00  0.00     0.027 A 
ATOM      4  C4  DEN d   1      -1.691   0.049   2.938  0.00  0.00     0.027 A 
ATOM      5  C5  DEN d   1      -1.043  -0.343   4.089  0.00  0.00    -0.003 A 
ATOM      6  C6  DEN d   1       0.267  -0.743   4.090  0.00  0.00     0.001 A 
ATOM      7  C7  DEN d   1       0.985  -0.717   2.923  0.00  0.00     0.017 A 
ATOM      8  C8  DEN d   1       0.337  -0.330   1.757  0.00  0.00    -0.094 A 
ATOM      9  C9  DEN d   1      -0.985   0.082   1.780  0.00  0.00    -0.072 A 
ENDROOT
TORSDOF 0
ENDMDL
