MODEL 1
REMARK minimizedAffinity 2.38284111
REMARK minimizedRMSD -1
REMARK  0 active torsions:
REMARK  status: ('A' for Active; 'I' for Inactive)
ROOT
ATOM      1  C1  DEN d   1       0.039  -0.928   4.506  0.00  0.00     0.130 A 
ATOM      2  C2  DEN d   1      -0.594  -1.501   5.691  0.00  0.00    -0.031 A 
ATOM      3  C3  DEN d   1      -2.047  -1.584   5.437  0.00  0.00     0.027 A 
ATOM      4  C4  DEN d   1      -3.369  -0.889   3.335  0.00  0.00     0.027 A 
ATOM      5  C5  DEN d   1      -3.268  -0.342   2.075  0.00  0.00    -0.003 A 
ATOM      6  C6  DEN d   1      -2.071   0.076   1.554  0.00  0.00     0.001 A 
ATOM      7  C7  DEN d   1      -0.921  -0.088   2.280  0.00  0.00     0.017 A 
ATOM      8  C8  DEN d   1      -1.017  -0.632   3.554  0.00  0.00    -0.094 A 
ATOM      9  C9  DEN d   1      -2.233  -1.060   4.057  0.00  0.00    -0.072 A 
ENDROOT
TORSDOF 0
ENDMDL
