MODEL 1
REMARK minimizedAffinity 2.63941932
REMARK minimizedRMSD -1
REMARK  0 active torsions:
REMARK  status: ('A' for Active; 'I' for Inactive)
ROOT
ATOM      1  C1  DEN d   1      -0.871  -0.960   3.115  0.00  0.00     0.130 A 
ATOM      2  C2  DEN d   1       0.466  -1.280   3.610  0.00  0.00    -0.031 A 
ATOM      3  C3  DEN d   1       1.434  -0.974   2.538  0.00  0.00     0.027 A 
ATOM      4  C4  DEN d   1       0.997  -0.036   0.175  0.00  0.00     0.027 A 
ATOM      5  C5  DEN d   1       0.022   0.381  -0.705  0.00  0.00    -0.003 A 
ATOM      6  C6  DEN d   1      -1.310   0.348  -0.388  0.00  0.00     0.001 A 
ATOM      7  C7  DEN d   1      -1.701  -0.069   0.857  0.00  0.00     0.017 A 
ATOM      8  C8  DEN d   1      -0.725  -0.498   1.747  0.00  0.00    -0.094 A 
ATOM      9  C9  DEN d   1       0.617  -0.445   1.412  0.00  0.00    -0.072 A 
ENDROOT
TORSDOF 0
ENDMDL
