MODEL 1
REMARK minimizedAffinity -2.82678604
REMARK minimizedRMSD -1
REMARK  0 active torsions:
REMARK  status: ('A' for Active; 'I' for Inactive)
ROOT
ATOM      1  C   UNL d   1       4.583  -4.077   5.999  0.00  0.00     0.172 C 
ATOM      2  N   UNL d   1       4.914  -2.818   5.372  0.00  0.00    -0.070 N 
ATOM      3  C1  UNL d   1       4.210  -2.222   4.360  0.00  0.00    -0.004 A 
ATOM      4  C2  UNL d   1       4.846  -1.041   4.043  0.00  0.00    -0.047 A 
ATOM      5  C3  UNL d   1       5.971  -0.924   4.894  0.00  0.00    -0.047 A 
ATOM      6  C4  UNL d   1       5.989  -2.038   5.707  0.00  0.00    -0.004 A 
ENDROOT
TORSDOF 0
ENDMDL
