MODEL 1
REMARK minimizedAffinity -2.32186723
REMARK minimizedRMSD -1
REMARK  0 active torsions:
REMARK  status: ('A' for Active; 'I' for Inactive)
ROOT
ATOM      1  C   UNL d   1       5.323  -2.254   4.899  0.00  0.00     0.172 C 
ATOM      2  N   UNL d   1       5.396  -0.812   4.901  0.00  0.00    -0.070 N 
ATOM      3  C1  UNL d   1       5.254  -0.006   5.999  0.00  0.00    -0.004 A 
ATOM      4  C2  UNL d   1       5.390   1.301   5.584  0.00  0.00    -0.047 A 
ATOM      5  C3  UNL d   1       5.622   1.280   4.189  0.00  0.00    -0.047 A 
ATOM      6  C4  UNL d   1       5.621  -0.040   3.791  0.00  0.00    -0.004 A 
ENDROOT
TORSDOF 0
ENDMDL
