MODEL 1
REMARK minimizedAffinity 0.582138538
REMARK minimizedRMSD -1
REMARK  0 active torsions:
REMARK  status: ('A' for Active; 'I' for Inactive)
ROOT
ATOM      1  C   UNL d   1       5.732  -2.826   4.933  0.00  0.00     0.172 C 
ATOM      2  N   UNL d   1       5.526  -1.398   5.002  0.00  0.00    -0.070 N 
ATOM      3  C1  UNL d   1       4.834  -0.647   4.090  0.00  0.00    -0.004 A 
ATOM      4  C2  UNL d   1       4.865   0.665   4.513  0.00  0.00    -0.047 A 
ATOM      5  C3  UNL d   1       5.603   0.703   5.720  0.00  0.00    -0.047 A 
ATOM      6  C4  UNL d   1       6.000  -0.588   6.000  0.00  0.00    -0.004 A 
ENDROOT
TORSDOF 0
ENDMDL
