MODEL 1
REMARK minimizedAffinity -2.20766544
REMARK minimizedRMSD -1
REMARK  0 active torsions:
REMARK  status: ('A' for Active; 'I' for Inactive)
ROOT
ATOM      1  C   UNL d   1       5.999  -2.654   4.928  0.00  0.00     0.172 C 
ATOM      2  N   UNL d   1       5.872  -1.215   4.911  0.00  0.00    -0.070 N 
ATOM      3  C1  UNL d   1       5.626  -0.422   6.000  0.00  0.00    -0.004 A 
ATOM      4  C2  UNL d   1       5.579   0.885   5.567  0.00  0.00    -0.047 A 
ATOM      5  C3  UNL d   1       5.803   0.878   4.170  0.00  0.00    -0.047 A 
ATOM      6  C4  UNL d   1       5.982  -0.435   3.790  0.00  0.00    -0.004 A 
ENDROOT
TORSDOF 0
ENDMDL
