MODEL 1
REMARK minimizedAffinity -2.35235429
REMARK minimizedRMSD -1
REMARK  0 active torsions:
REMARK  status: ('A' for Active; 'I' for Inactive)
ROOT
ATOM      1  C   UNL d   1       5.549  -0.507   5.250  0.00  0.00     0.172 C 
ATOM      2  N   UNL d   1       5.560   0.894   4.899  0.00  0.00    -0.070 N 
ATOM      3  C1  UNL d   1       5.142   1.421   3.706  0.00  0.00    -0.004 A 
ATOM      4  C2  UNL d   1       5.313   2.787   3.766  0.00  0.00    -0.047 A 
ATOM      5  C3  UNL d   1       5.855   3.091   5.037  0.00  0.00    -0.047 A 
ATOM      6  C4  UNL d   1       5.997   1.901   5.718  0.00  0.00    -0.004 A 
ENDROOT
TORSDOF 0
ENDMDL
