MODEL 1
REMARK minimizedAffinity -2.49255872
REMARK minimizedRMSD -1
REMARK  0 active torsions:
REMARK  status: ('A' for Active; 'I' for Inactive)
ROOT
ATOM      1  C   UNL d   1       5.888   0.733   5.301  0.00  0.00     0.172 C 
ATOM      2  N   UNL d   1       5.915  -0.689   5.047  0.00  0.00    -0.070 N 
ATOM      3  C1  UNL d   1       5.863  -1.671   5.999  0.00  0.00    -0.004 A 
ATOM      4  C2  UNL d   1       5.912  -2.888   5.354  0.00  0.00    -0.047 A 
ATOM      5  C3  UNL d   1       5.998  -2.627   3.966  0.00  0.00    -0.047 A 
ATOM      6  C4  UNL d   1       5.998  -1.258   3.804  0.00  0.00    -0.004 A 
ENDROOT
TORSDOF 0
ENDMDL
