MODEL 1
REMARK minimizedAffinity -0.642485857
REMARK minimizedRMSD -1
REMARK  0 active torsions:
REMARK  status: ('A' for Active; 'I' for Inactive)
ROOT
ATOM      1  C   UNL d   1       5.857  -3.348   5.956  0.00  0.00     0.172 C 
ATOM      2  N   UNL d   1       5.869  -2.047   5.330  0.00  0.00    -0.070 N 
ATOM      3  C1  UNL d   1       5.755  -1.807   3.987  0.00  0.00    -0.004 A 
ATOM      4  C2  UNL d   1       5.811  -0.443   3.796  0.00  0.00    -0.047 A 
ATOM      5  C3  UNL d   1       5.965   0.157   5.068  0.00  0.00    -0.047 A 
ATOM      6  C4  UNL d   1       5.998  -0.859   6.000  0.00  0.00    -0.004 A 
ENDROOT
TORSDOF 0
ENDMDL
