MODEL 1
REMARK minimizedAffinity 2.82346201
REMARK minimizedRMSD -1
REMARK  0 active torsions:
REMARK  status: ('A' for Active; 'I' for Inactive)
ROOT
ATOM      1  C   UNL d   1       5.723  -4.068   5.830  0.00  0.00     0.172 C 
ATOM      2  N   UNL d   1       5.802  -2.737   5.278  0.00  0.00    -0.070 N 
ATOM      3  C1  UNL d   1       5.929  -1.579   5.999  0.00  0.00    -0.004 A 
ATOM      4  C2  UNL d   1       5.970  -0.529   5.108  0.00  0.00    -0.047 A 
ATOM      5  C3  UNL d   1       5.864  -1.074   3.806  0.00  0.00    -0.047 A 
ATOM      6  C4  UNL d   1       5.762  -2.442   3.940  0.00  0.00    -0.004 A 
ENDROOT
TORSDOF 0
ENDMDL
