MODEL 1
REMARK minimizedAffinity 5.93153095
REMARK minimizedRMSD -1
REMARK  0 active torsions:
REMARK  status: ('A' for Active; 'I' for Inactive)
ROOT
ATOM      1  C   UNL d   1       5.704  -2.937   5.944  0.00  0.00     0.172 C 
ATOM      2  N   UNL d   1       5.218  -1.577   5.945  0.00  0.00    -0.070 N 
ATOM      3  C1  UNL d   1       5.997  -0.452   5.905  0.00  0.00    -0.004 A 
ATOM      4  C2  UNL d   1       5.158   0.642   5.920  0.00  0.00    -0.047 A 
ATOM      5  C3  UNL d   1       3.830   0.157   5.972  0.00  0.00    -0.047 A 
ATOM      6  C4  UNL d   1       3.896  -1.220   5.986  0.00  0.00    -0.004 A 
ENDROOT
TORSDOF 0
ENDMDL
