MODEL 1
REMARK minimizedAffinity 0.224725679
REMARK minimizedRMSD -1
REMARK  0 active torsions:
REMARK  status: ('A' for Active; 'I' for Inactive)
ROOT
ATOM      1  C   UNL d   1       2.349  -1.871  -1.667  0.00  0.00     0.172 C 
ATOM      2  N   UNL d   1       1.101  -1.427  -1.092  0.00  0.00    -0.070 N 
ATOM      3  C1  UNL d   1       0.580  -0.164  -1.193  0.00  0.00    -0.004 A 
ATOM      4  C2  UNL d   1      -0.618  -0.146  -0.513  0.00  0.00    -0.047 A 
ATOM      5  C3  UNL d   1      -0.824  -1.443   0.016  0.00  0.00    -0.047 A 
ATOM      6  C4  UNL d   1       0.255  -2.215  -0.357  0.00  0.00    -0.004 A 
ENDROOT
TORSDOF 0
ENDMDL
