MODEL 1
REMARK minimizedAffinity 2.45412731
REMARK minimizedRMSD -1
REMARK  0 active torsions:
REMARK  status: ('A' for Active; 'I' for Inactive)
ROOT
ATOM      1  C   UNL d   1       2.237  -2.391  -1.857  0.00  0.00     0.172 C 
ATOM      2  N   UNL d   1       1.081  -1.785  -1.239  0.00  0.00    -0.070 N 
ATOM      3  C1  UNL d   1       0.219  -2.407  -0.375  0.00  0.00    -0.004 A 
ATOM      4  C2  UNL d   1      -0.746  -1.493  -0.012  0.00  0.00    -0.047 A 
ATOM      5  C3  UNL d   1      -0.455  -0.281  -0.682  0.00  0.00    -0.047 A 
ATOM      6  C4  UNL d   1       0.681  -0.490  -1.435  0.00  0.00    -0.004 A 
ENDROOT
TORSDOF 0
ENDMDL
