MODEL 1
REMARK minimizedAffinity 0.32510367
REMARK minimizedRMSD -1
REMARK  0 active torsions:
REMARK  status: ('A' for Active; 'I' for Inactive)
ROOT
ATOM      1  C   UNL d   1       5.651   0.659   5.614  0.00  0.00     0.172 C 
ATOM      2  N   UNL d   1       5.623  -0.730   5.219  0.00  0.00    -0.070 N 
ATOM      3  C1  UNL d   1       6.000  -1.790   6.000  0.00  0.00    -0.004 A 
ATOM      4  C2  UNL d   1       5.826  -2.941   5.262  0.00  0.00    -0.047 A 
ATOM      5  C3  UNL d   1       5.329  -2.559   3.993  0.00  0.00    -0.047 A 
ATOM      6  C4  UNL d   1       5.213  -1.185   3.994  0.00  0.00    -0.004 A 
ENDROOT
TORSDOF 0
ENDMDL
