MODEL 1
REMARK minimizedAffinity -2.01713514
REMARK minimizedRMSD -1
REMARK  0 active torsions:
REMARK  status: ('A' for Active; 'I' for Inactive)
ROOT
ATOM      1  C   UNL d   1       5.998   2.453   5.299  0.00  0.00     0.172 C 
ATOM      2  N   UNL d   1       5.975   3.782   4.734  0.00  0.00    -0.070 N 
ATOM      3  C1  UNL d   1       5.999   4.082   3.398  0.00  0.00    -0.004 A 
ATOM      4  C2  UNL d   1       5.963   5.454   3.273  0.00  0.00    -0.047 A 
ATOM      5  C3  UNL d   1       5.917   5.997   4.579  0.00  0.00    -0.047 A 
ATOM      6  C4  UNL d   1       5.925   4.940   5.464  0.00  0.00    -0.004 A 
ENDROOT
TORSDOF 0
ENDMDL
