MODEL 1
REMARK minimizedAffinity -2.80821228
REMARK minimizedRMSD -1
REMARK  0 active torsions:
REMARK  status: ('A' for Active; 'I' for Inactive)
ROOT
ATOM      1  C   UNL d   1       5.264   1.945   4.842  0.00  0.00     0.172 C 
ATOM      2  N   UNL d   1       5.418   0.511   4.917  0.00  0.00    -0.070 N 
ATOM      3  C1  UNL d   1       5.908  -0.184   5.991  0.00  0.00    -0.004 A 
ATOM      4  C2  UNL d   1       5.893  -1.523   5.668  0.00  0.00    -0.047 A 
ATOM      5  C3  UNL d   1       5.377  -1.637   4.355  0.00  0.00    -0.047 A 
ATOM      6  C4  UNL d   1       5.091  -0.363   3.914  0.00  0.00    -0.004 A 
ENDROOT
TORSDOF 0
ENDMDL
