MODEL 1
REMARK minimizedAffinity 1.62997317
REMARK minimizedRMSD -1
REMARK  0 active torsions:
REMARK  status: ('A' for Active; 'I' for Inactive)
ROOT
ATOM      1  C   UNL d   1      -1.570  -4.445   0.197  0.00  0.00     0.023 A 
ATOM      2  C1  UNL d   1      -0.204  -4.640  -0.011  0.00  0.00     0.003 A 
ATOM      3  C2  UNL d   1       0.727  -3.920   0.739  0.00  0.00     0.048 A 
ATOM      4  C3  UNL d   1       0.287  -3.007   1.697  0.00  0.00     0.023 A 
ATOM      5  C4  UNL d   1      -1.079  -2.809   1.909  0.00  0.00     0.048 A 
ATOM      6  C5  UNL d   1      -2.007  -3.531   1.156  0.00  0.00     0.003 A 
ATOM      7  I   UNL d   1       1.671  -1.933   2.815  0.00  0.00    -0.146 I 
ENDROOT
TORSDOF 0
ENDMDL
