MODEL 1
REMARK minimizedAffinity 5.29584789
REMARK minimizedRMSD -1
REMARK  0 active torsions:
REMARK  status: ('A' for Active; 'I' for Inactive)
ROOT
ATOM      1  C   UNL d   1      -0.597   5.999  -5.881  0.00  0.00     0.023 A 
ATOM      2  C1  UNL d   1       0.742   5.625  -6.000  0.00  0.00     0.003 A 
ATOM      3  C2  UNL d   1       1.349   4.872  -4.993  0.00  0.00     0.048 A 
ATOM      4  C3  UNL d   1       0.612   4.495  -3.871  0.00  0.00     0.023 A 
ATOM      5  C4  UNL d   1      -0.728   4.867  -3.748  0.00  0.00     0.048 A 
ATOM      6  C5  UNL d   1      -1.331   5.621  -4.757  0.00  0.00     0.003 A 
ATOM      7  I   UNL d   1       1.514   3.374  -2.372  0.00  0.00    -0.146 I 
ENDROOT
TORSDOF 0
ENDMDL
