MODEL 1
REMARK minimizedAffinity -1.21440899
REMARK minimizedRMSD -1
REMARK  0 active torsions:
REMARK  status: ('A' for Active; 'I' for Inactive)
ROOT
ATOM      1  C   UNL d   1      -5.979   0.983  -1.135  0.00  0.00     0.023 A 
ATOM      2  C1  UNL d   1      -5.974   2.161  -1.883  0.00  0.00     0.003 A 
ATOM      3  C2  UNL d   1      -5.964   2.103  -3.278  0.00  0.00     0.048 A 
ATOM      4  C3  UNL d   1      -5.959   0.864  -3.918  0.00  0.00     0.023 A 
ATOM      5  C4  UNL d   1      -5.965  -0.316  -3.174  0.00  0.00     0.048 A 
ATOM      6  C5  UNL d   1      -5.975  -0.254  -1.779  0.00  0.00     0.003 A 
ATOM      7  I   UNL d   1      -5.944   0.776  -5.995  0.00  0.00    -0.146 I 
ENDROOT
TORSDOF 0
ENDMDL
