MODEL 1
REMARK minimizedAffinity -1.35962057
REMARK minimizedRMSD -1
REMARK  0 active torsions:
REMARK  status: ('A' for Active; 'I' for Inactive)
ROOT
ATOM      1  C   UNL d   1      -1.476  -5.555  -4.082  0.00  0.00     0.023 A 
ATOM      2  C1  UNL d   1      -2.582  -5.212  -3.304  0.00  0.00     0.003 A 
ATOM      3  C2  UNL d   1      -3.865  -5.260  -3.854  0.00  0.00     0.048 A 
ATOM      4  C3  UNL d   1      -4.035  -5.654  -5.180  0.00  0.00     0.023 A 
ATOM      5  C4  UNL d   1      -2.931  -6.000  -5.962  0.00  0.00     0.048 A 
ATOM      6  C5  UNL d   1      -1.650  -5.949  -5.409  0.00  0.00     0.003 A 
ATOM      7  I   UNL d   1      -5.943  -5.728  -6.000  0.00  0.00    -0.146 I 
ENDROOT
TORSDOF 0
ENDMDL
