MODEL 1
REMARK minimizedAffinity 5.88632059
REMARK minimizedRMSD -1
REMARK  0 active torsions:
REMARK  status: ('A' for Active; 'I' for Inactive)
ROOT
ATOM      1  C   UNL d   1      -1.135  -5.411  -4.805  0.00  0.00     0.023 A 
ATOM      2  C1  UNL d   1      -1.890  -5.117  -3.669  0.00  0.00     0.003 A 
ATOM      3  C2  UNL d   1      -3.278  -5.262  -3.695  0.00  0.00     0.048 A 
ATOM      4  C3  UNL d   1      -3.906  -5.703  -4.859  0.00  0.00     0.023 A 
ATOM      5  C4  UNL d   1      -3.156  -5.999  -5.998  0.00  0.00     0.048 A 
ATOM      6  C5  UNL d   1      -1.768  -5.851  -5.968  0.00  0.00     0.003 A 
ATOM      7  I   UNL d   1      -5.973  -5.920  -4.899  0.00  0.00    -0.146 I 
ENDROOT
TORSDOF 0
ENDMDL
