MODEL 1
REMARK minimizedAffinity 2.26315689
REMARK minimizedRMSD -1
REMARK  0 active torsions:
REMARK  status: ('A' for Active; 'I' for Inactive)
ROOT
ATOM      1  C   UNL d   1      -0.258   5.996  -5.998  0.00  0.00     0.023 A 
ATOM      2  C1  UNL d   1      -1.118   5.473  -5.033  0.00  0.00     0.003 A 
ATOM      3  C2  UNL d   1      -0.632   4.590  -4.067  0.00  0.00     0.048 A 
ATOM      4  C3  UNL d   1       0.716   4.235  -4.070  0.00  0.00     0.023 A 
ATOM      5  C4  UNL d   1       1.582   4.757  -5.033  0.00  0.00     0.048 A 
ATOM      6  C5  UNL d   1       1.091   5.638  -5.998  0.00  0.00     0.003 A 
ATOM      7  I   UNL d   1       1.443   2.922  -2.633  0.00  0.00    -0.146 I 
ENDROOT
TORSDOF 0
ENDMDL
