MODEL 1
REMARK minimizedAffinity 2.57603765
REMARK minimizedRMSD -1
REMARK  0 active torsions:
REMARK  status: ('A' for Active; 'I' for Inactive)
ROOT
ATOM      1  C   UNL d   1       2.046   3.033  -2.733  0.00  0.00     0.023 A 
ATOM      2  C1  UNL d   1       0.731   2.677  -3.031  0.00  0.00     0.003 A 
ATOM      3  C2  UNL d   1       0.002   3.412  -3.968  0.00  0.00     0.048 A 
ATOM      4  C3  UNL d   1       0.595   4.502  -4.604  0.00  0.00     0.023 A 
ATOM      5  C4  UNL d   1       1.911   4.862  -4.310  0.00  0.00     0.048 A 
ATOM      6  C5  UNL d   1       2.636   4.124  -3.372  0.00  0.00     0.003 A 
ATOM      7  I   UNL d   1      -0.488   5.598  -6.000  0.00  0.00    -0.146 I 
ENDROOT
TORSDOF 0
ENDMDL
