MODEL 1
REMARK minimizedAffinity 8.39477253
REMARK minimizedRMSD -1
REMARK  0 active torsions:
REMARK  status: ('A' for Active; 'I' for Inactive)
ROOT
ATOM      1  C   UNL d   1      -5.942   2.723  -4.193  0.00  0.00     0.023 A 
ATOM      2  C1  UNL d   1      -5.911   2.440  -5.559  0.00  0.00     0.003 A 
ATOM      3  C2  UNL d   1      -5.923   1.115  -5.999  0.00  0.00     0.048 A 
ATOM      4  C3  UNL d   1      -5.967   0.077  -5.069  0.00  0.00     0.023 A 
ATOM      5  C4  UNL d   1      -5.999   0.355  -3.701  0.00  0.00     0.048 A 
ATOM      6  C5  UNL d   1      -5.986   1.682  -3.266  0.00  0.00     0.003 A 
ATOM      7  I   UNL d   1      -5.986  -1.895  -5.722  0.00  0.00    -0.146 I 
ENDROOT
TORSDOF 0
ENDMDL
