MODEL 1
REMARK minimizedAffinity 2.59597731
REMARK minimizedRMSD -1
REMARK  0 active torsions:
REMARK  status: ('A' for Active; 'I' for Inactive)
ROOT
ATOM      1  C   UNL d   1       0.038   5.179  -5.142  0.00  0.00     0.023 A 
ATOM      2  C1  UNL d   1      -0.852   4.199  -4.702  0.00  0.00     0.003 A 
ATOM      3  C2  UNL d   1      -0.513   3.378  -3.625  0.00  0.00     0.048 A 
ATOM      4  C3  UNL d   1       0.718   3.544  -2.990  0.00  0.00     0.023 A 
ATOM      5  C4  UNL d   1       1.612   4.524  -3.426  0.00  0.00     0.048 A 
ATOM      6  C5  UNL d   1       1.268   5.341  -4.504  0.00  0.00     0.003 A 
ATOM      7  I   UNL d   1       1.225   2.323  -1.386  0.00  0.00    -0.146 I 
ENDROOT
TORSDOF 0
ENDMDL
