MODEL 1
REMARK minimizedAffinity 8.67331409
REMARK minimizedRMSD -1
REMARK  0 active torsions:
REMARK  status: ('A' for Active; 'I' for Inactive)
ROOT
ATOM      1  C   UNL d   1      -0.566   5.668  -5.925  0.00  0.00     0.023 A 
ATOM      2  C1  UNL d   1      -1.253   5.329  -4.759  0.00  0.00     0.003 A 
ATOM      3  C2  UNL d   1      -0.559   4.807  -3.666  0.00  0.00     0.048 A 
ATOM      4  C3  UNL d   1       0.821   4.626  -3.744  0.00  0.00     0.023 A 
ATOM      5  C4  UNL d   1       1.513   4.964  -4.909  0.00  0.00     0.048 A 
ATOM      6  C5  UNL d   1       0.815   5.486  -6.000  0.00  0.00     0.003 A 
ATOM      7  I   UNL d   1       1.855   3.849  -2.118  0.00  0.00    -0.146 I 
ENDROOT
TORSDOF 0
ENDMDL
