MODEL 1
REMARK minimizedAffinity 9.62441826
REMARK minimizedRMSD -1
REMARK  0 active torsions:
REMARK  status: ('A' for Active; 'I' for Inactive)
ROOT
ATOM      1  C   UNL d   1       3.588  -2.228   3.377  0.00  0.00     0.023 A 
ATOM      2  C1  UNL d   1       4.374  -1.479   2.501  0.00  0.00     0.003 A 
ATOM      3  C2  UNL d   1       3.826  -0.380   1.836  0.00  0.00     0.048 A 
ATOM      4  C3  UNL d   1       2.492  -0.036   2.051  0.00  0.00     0.023 A 
ATOM      5  C4  UNL d   1       1.703  -0.782   2.928  0.00  0.00     0.048 A 
ATOM      6  C5  UNL d   1       2.254  -1.881   3.590  0.00  0.00     0.003 A 
ATOM      7  I   UNL d   1       1.675   1.599   1.062  0.00  0.00    -0.146 I 
ENDROOT
TORSDOF 0
ENDMDL
