MODEL 1
REMARK minimizedAffinity 0.441763431
REMARK minimizedRMSD -1
REMARK  0 active torsions:
REMARK  status: ('A' for Active; 'I' for Inactive)
ROOT
ATOM      1  C   UNL d   1       2.468  -0.679   0.326  0.00  0.00     0.078 C 
ATOM      2  C1  UNL d   1       1.179  -0.846  -0.423  0.00  0.00    -0.077 A 
ATOM      3  C2  UNL d   1       0.266   0.211  -0.530  0.00  0.00    -0.001 A 
ATOM      4  C3  UNL d   1      -0.934   0.039  -1.222  0.00  0.00     0.003 A 
ATOM      5  C4  UNL d   1      -1.232  -1.189  -1.810  0.00  0.00    -0.005 A 
ATOM      6  C5  UNL d   1      -0.331  -2.246  -1.706  0.00  0.00     0.003 A 
ATOM      7  C6  UNL d   1       0.869  -2.076  -1.015  0.00  0.00    -0.001 A 
ENDROOT
TORSDOF 0
ENDMDL
