MODEL 1
REMARK minimizedAffinity 3.54012394
REMARK minimizedRMSD -1
REMARK  0 active torsions:
REMARK  status: ('A' for Active; 'I' for Inactive)
ROOT
ATOM      1  C   UNL d   1      -4.140   1.852   1.860  0.00  0.00     0.078 C 
ATOM      2  C1  UNL d   1      -4.544   0.823   0.847  0.00  0.00    -0.077 A 
ATOM      3  C2  UNL d   1      -5.628   1.043  -0.012  0.00  0.00    -0.001 A 
ATOM      4  C3  UNL d   1      -5.999   0.073  -0.944  0.00  0.00     0.003 A 
ATOM      5  C4  UNL d   1      -5.293  -1.126  -1.025  0.00  0.00    -0.005 A 
ATOM      6  C5  UNL d   1      -4.215  -1.355  -0.173  0.00  0.00     0.003 A 
ATOM      7  C6  UNL d   1      -3.842  -0.386   0.759  0.00  0.00    -0.001 A 
ENDROOT
TORSDOF 0
ENDMDL
