MODEL 1
REMARK minimizedAffinity 0.4631868
REMARK minimizedRMSD -1
REMARK  0 active torsions:
REMARK  status: ('A' for Active; 'I' for Inactive)
ROOT
ATOM      1  C   UNL d   1      -0.747  -2.277  -1.868  0.00  0.00     0.078 C 
ATOM      2  C1  UNL d   1      -0.021  -1.344  -0.944  0.00  0.00    -0.077 A 
ATOM      3  C2  UNL d   1      -0.712  -0.366  -0.218  0.00  0.00    -0.001 A 
ATOM      4  C3  UNL d   1      -0.022   0.501   0.630  0.00  0.00     0.003 A 
ATOM      5  C4  UNL d   1       1.361   0.400   0.761  0.00  0.00    -0.005 A 
ATOM      6  C5  UNL d   1       2.057  -0.569   0.041  0.00  0.00     0.003 A 
ATOM      7  C6  UNL d   1       1.370  -1.437  -0.809  0.00  0.00    -0.001 A 
ENDROOT
TORSDOF 0
ENDMDL
