MODEL 1
REMARK minimizedAffinity -0.594913304
REMARK minimizedRMSD -1
REMARK  0 active torsions:
REMARK  status: ('A' for Active; 'I' for Inactive)
ROOT
ATOM      1  C   UNL d   1      -5.837  -0.804  -0.003  0.00  0.00     0.078 C 
ATOM      2  C1  UNL d   1      -5.241   0.349   0.748  0.00  0.00    -0.077 A 
ATOM      3  C2  UNL d   1      -6.000   1.077   1.672  0.00  0.00    -0.001 A 
ATOM      4  C3  UNL d   1      -5.435   2.155   2.357  0.00  0.00     0.003 A 
ATOM      5  C4  UNL d   1      -4.109   2.515   2.122  0.00  0.00    -0.005 A 
ATOM      6  C5  UNL d   1      -3.347   1.798   1.202  0.00  0.00     0.003 A 
ATOM      7  C6  UNL d   1      -3.910   0.720   0.517  0.00  0.00    -0.001 A 
ENDROOT
TORSDOF 0
ENDMDL
