MODEL 1
REMARK minimizedAffinity 9.11147022
REMARK minimizedRMSD -1
REMARK  1 active torsions:
REMARK  status: ('A' for Active; 'I' for Inactive)
REMARK    1  A    between atoms: C1_2  and  C2_3 
ROOT
ATOM      1  C2  UNL d   1       1.544  -1.782   2.753  0.00  0.00    -0.077 A 
ATOM      2  C3  UNL d   1       2.712  -1.927   1.991  0.00  0.00     0.002 A 
ATOM      3  C4  UNL d   1       3.012  -1.012   0.979  0.00  0.00     0.002 A 
ATOM      4  C5  UNL d   1       2.153   0.054   0.724  0.00  0.00    -0.004 A 
ATOM      5  C6  UNL d   1       0.988   0.205   1.475  0.00  0.00     0.002 A 
ATOM      6  C7  UNL d   1       0.685  -0.708   2.485  0.00  0.00     0.002 A 
ENDROOT
BRANCH   1   7
ATOM      7  C1  UNL d   1       1.243  -2.739   3.877  0.00  0.00     0.055 C 
ATOM      8  C   UNL d   1       1.169  -2.016   5.214  0.00  0.00     0.019 C 
ENDBRANCH   1   7
TORSDOF 1
ENDMDL
