MODEL 1
REMARK minimizedAffinity 9.67951012
REMARK minimizedRMSD -1
REMARK  1 active torsions:
REMARK  status: ('A' for Active; 'I' for Inactive)
REMARK    1  A    between atoms: C1_2  and  C2_3 
ROOT
ATOM      1  C2  UNL d   1       1.227   0.702   2.102  0.00  0.00    -0.077 A 
ATOM      2  C3  UNL d   1       0.431  -0.243   2.765  0.00  0.00     0.002 A 
ATOM      3  C4  UNL d   1       0.690  -1.608   2.625  0.00  0.00     0.002 A 
ATOM      4  C5  UNL d   1       1.747  -2.040   1.826  0.00  0.00    -0.004 A 
ATOM      5  C6  UNL d   1       2.543  -1.108   1.162  0.00  0.00     0.002 A 
ATOM      6  C7  UNL d   1       2.285   0.256   1.299  0.00  0.00     0.002 A 
ENDROOT
BRANCH   1   7
ATOM      7  C1  UNL d   1       0.981   2.175   2.291  0.00  0.00     0.055 C 
ATOM      8  C   UNL d   1       1.895   2.757   3.359  0.00  0.00     0.019 C 
ENDBRANCH   1   7
TORSDOF 1
ENDMDL
