MODEL 1
REMARK minimizedAffinity 11.2611465
REMARK minimizedRMSD -1
REMARK  1 active torsions:
REMARK  status: ('A' for Active; 'I' for Inactive)
REMARK    1  A    between atoms: C1_2  and  C2_3 
ROOT
ATOM      1  C2  UNL d   1       1.545  -0.226   2.475  0.00  0.00    -0.077 A 
ATOM      2  C3  UNL d   1       1.685  -1.250   1.529  0.00  0.00     0.002 A 
ATOM      3  C4  UNL d   1       1.296  -2.555   1.838  0.00  0.00     0.002 A 
ATOM      4  C5  UNL d   1       0.760  -2.846   3.091  0.00  0.00    -0.004 A 
ATOM      5  C6  UNL d   1       0.618  -1.834   4.039  0.00  0.00     0.002 A 
ATOM      6  C7  UNL d   1       1.008  -0.530   3.733  0.00  0.00     0.002 A 
ENDROOT
BRANCH   1   7
ATOM      7  C1  UNL d   1       1.918   1.192   2.127  0.00  0.00     0.055 C 
ATOM      8  C   UNL d   1       1.487   2.162   3.218  0.00  0.00     0.019 C 
ENDBRANCH   1   7
TORSDOF 1
ENDMDL
