MODEL 1
REMARK minimizedAffinity 7.49939299
REMARK minimizedRMSD -1
REMARK  1 active torsions:
REMARK  status: ('A' for Active; 'I' for Inactive)
REMARK    1  A    between atoms: C1_2  and  C2_3 
ROOT
ATOM      1  C2  UNL d   1      -2.933   1.538  -1.124  0.00  0.00    -0.077 A 
ATOM      2  C3  UNL d   1      -3.802   2.573  -1.498  0.00  0.00     0.002 A 
ATOM      3  C4  UNL d   1      -4.516   2.497  -2.695  0.00  0.00     0.002 A 
ATOM      4  C5  UNL d   1      -4.372   1.388  -3.525  0.00  0.00    -0.004 A 
ATOM      5  C6  UNL d   1      -3.509   0.354  -3.163  0.00  0.00     0.002 A 
ATOM      6  C7  UNL d   1      -2.794   0.429  -1.967  0.00  0.00     0.002 A 
ENDROOT
BRANCH   1   7
ATOM      7  C1  UNL d   1      -2.199   1.595   0.191  0.00  0.00     0.055 C 
ATOM      8  C   UNL d   1      -2.609   2.817   1.001  0.00  0.00     0.019 C 
ENDBRANCH   1   7
TORSDOF 1
ENDMDL
