MODEL 1
REMARK minimizedAffinity 4.45107174
REMARK minimizedRMSD -1
REMARK  1 active torsions:
REMARK  status: ('A' for Active; 'I' for Inactive)
REMARK    1  A    between atoms: C1_2  and  C2_3 
ROOT
ATOM      1  C2  UNL d   1       2.487  -1.038   0.905  0.00  0.00    -0.077 A 
ATOM      2  C3  UNL d   1       3.173  -1.732   1.911  0.00  0.00     0.002 A 
ATOM      3  C4  UNL d   1       2.506  -2.141   3.067  0.00  0.00     0.002 A 
ATOM      4  C5  UNL d   1       1.150  -1.865   3.226  0.00  0.00    -0.004 A 
ATOM      5  C6  UNL d   1       0.459  -1.173   2.232  0.00  0.00     0.002 A 
ATOM      6  C7  UNL d   1       1.124  -0.763   1.076  0.00  0.00     0.002 A 
ENDROOT
BRANCH   1   7
ATOM      7  C1  UNL d   1       3.193  -0.639  -0.365  0.00  0.00     0.055 C 
ATOM      8  C   UNL d   1       2.458  -1.158  -1.593  0.00  0.00     0.019 C 
ENDBRANCH   1   7
TORSDOF 1
ENDMDL
