MODEL 1
REMARK minimizedAffinity 3.78177667
REMARK minimizedRMSD -1
REMARK  1 active torsions:
REMARK  status: ('A' for Active; 'I' for Inactive)
REMARK    1  A    between atoms: C1_2  and  C2_3 
ROOT
ATOM      1  C2  UNL d   1       0.957  -5.127   1.283  0.00  0.00    -0.077 A 
ATOM      2  C3  UNL d   1      -0.372  -5.481   1.009  0.00  0.00     0.002 A 
ATOM      3  C4  UNL d   1      -0.739  -5.913  -0.267  0.00  0.00     0.002 A 
ATOM      4  C5  UNL d   1       0.217  -6.000  -1.277  0.00  0.00    -0.004 A 
ATOM      5  C6  UNL d   1       1.541  -5.648  -1.015  0.00  0.00     0.002 A 
ATOM      6  C7  UNL d   1       1.909  -5.214   0.260  0.00  0.00     0.002 A 
ENDROOT
BRANCH   1   7
ATOM      7  C1  UNL d   1       1.364  -4.707   2.671  0.00  0.00     0.055 C 
ATOM      8  C   UNL d   1       1.102  -3.226   2.901  0.00  0.00     0.019 C 
ENDBRANCH   1   7
TORSDOF 1
ENDMDL
