MODEL 1
REMARK minimizedAffinity 12.706665
REMARK minimizedRMSD -1
REMARK  1 active torsions:
REMARK  status: ('A' for Active; 'I' for Inactive)
REMARK    1  A    between atoms: C1_2  and  C2_3 
ROOT
ATOM      1  C2  UNL d   1      -5.233   1.563  -3.524  0.00  0.00    -0.077 A 
ATOM      2  C3  UNL d   1      -4.504   0.374  -3.667  0.00  0.00     0.002 A 
ATOM      3  C4  UNL d   1      -4.524  -0.592  -2.659  0.00  0.00     0.002 A 
ATOM      4  C5  UNL d   1      -5.274  -0.380  -1.503  0.00  0.00    -0.004 A 
ATOM      5  C6  UNL d   1      -6.000   0.801  -1.351  0.00  0.00     0.002 A 
ATOM      6  C7  UNL d   1      -5.980   1.767  -2.357  0.00  0.00     0.002 A 
ENDROOT
BRANCH   1   7
ATOM      7  C1  UNL d   1      -5.252   2.584  -4.632  0.00  0.00     0.055 C 
ATOM      8  C   UNL d   1      -5.248   1.917  -6.000  0.00  0.00     0.019 C 
ENDBRANCH   1   7
TORSDOF 1
ENDMDL
