MODEL 1
REMARK minimizedAffinity 12.1548195
REMARK minimizedRMSD -1
REMARK  1 active torsions:
REMARK  status: ('A' for Active; 'I' for Inactive)
REMARK    1  A    between atoms: C1_2  and  C2_3 
ROOT
ATOM      1  C2  UNL d   1       1.294  -0.719   3.091  0.00  0.00    -0.077 A 
ATOM      2  C3  UNL d   1       2.086  -1.350   2.121  0.00  0.00     0.002 A 
ATOM      3  C4  UNL d   1       2.871  -0.593   1.249  0.00  0.00     0.002 A 
ATOM      4  C5  UNL d   1       2.874   0.797   1.340  0.00  0.00    -0.004 A 
ATOM      5  C6  UNL d   1       2.088   1.434   2.300  0.00  0.00     0.002 A 
ATOM      6  C7  UNL d   1       1.302   0.679   3.172  0.00  0.00     0.002 A 
ENDROOT
BRANCH   1   7
ATOM      7  C1  UNL d   1       0.485  -1.536   4.065  0.00  0.00     0.055 C 
ATOM      8  C   UNL d   1       0.860  -1.212   5.504  0.00  0.00     0.019 C 
ENDBRANCH   1   7
TORSDOF 1
ENDMDL
