MODEL 1
REMARK minimizedAffinity -4.07574034
REMARK minimizedRMSD -1
REMARK  1 active torsions:
REMARK  status: ('A' for Active; 'I' for Inactive)
REMARK    1  A    between atoms: C1_2  and  C2_3 
ROOT
ATOM      1  C2  UNL d   1       1.276  -0.734   0.993  0.00  0.00    -0.077 A 
ATOM      2  C3  UNL d   1       0.840   0.597   0.949  0.00  0.00     0.002 A 
ATOM      3  C4  UNL d   1      -0.148   0.988   0.044  0.00  0.00     0.002 A 
ATOM      4  C5  UNL d   1      -0.711   0.052  -0.822  0.00  0.00    -0.004 A 
ATOM      5  C6  UNL d   1      -0.283  -1.274  -0.788  0.00  0.00     0.002 A 
ATOM      6  C7  UNL d   1       0.706  -1.666   0.116  0.00  0.00     0.002 A 
ENDROOT
BRANCH   1   7
ATOM      7  C1  UNL d   1       2.307  -1.168   2.003  0.00  0.00     0.055 C 
ATOM      8  C   UNL d   1       3.479  -1.869   1.332  0.00  0.00     0.019 C 
ENDBRANCH   1   7
TORSDOF 1
ENDMDL
