MODEL 1
REMARK minimizedAffinity -4.63553858
REMARK minimizedRMSD -1
REMARK  1 active torsions:
REMARK  status: ('A' for Active; 'I' for Inactive)
REMARK    1  A    between atoms: C1_2  and  C2_3 
ROOT
ATOM      1  C2  UNL d   1      -0.425  -0.040  -0.111  0.00  0.00    -0.077 A 
ATOM      2  C3  UNL d   1       0.709   0.539   0.475  0.00  0.00     0.002 A 
ATOM      3  C4  UNL d   1       1.879  -0.206   0.637  0.00  0.00     0.002 A 
ATOM      4  C5  UNL d   1       1.926  -1.532   0.213  0.00  0.00    -0.004 A 
ATOM      5  C6  UNL d   1       0.803  -2.118  -0.369  0.00  0.00     0.002 A 
ATOM      6  C7  UNL d   1      -0.367  -1.375  -0.531  0.00  0.00     0.002 A 
ENDROOT
BRANCH   1   7
ATOM      7  C1  UNL d   1      -1.672   0.776  -0.331  0.00  0.00     0.055 C 
ATOM      8  C   UNL d   1      -2.600   0.706   0.873  0.00  0.00     0.019 C 
ENDBRANCH   1   7
TORSDOF 1
ENDMDL
