MODEL 1
REMARK minimizedAffinity -5.51832438
REMARK minimizedRMSD -1
REMARK  1 active torsions:
REMARK  status: ('A' for Active; 'I' for Inactive)
REMARK    1  A    between atoms: C1_2  and  C2_3 
ROOT
ATOM      1  C2  UNL d   1       0.640  -0.118  -0.235  0.00  0.00    -0.077 A 
ATOM      2  C3  UNL d   1       1.161  -1.384  -0.538  0.00  0.00     0.002 A 
ATOM      3  C4  UNL d   1       2.511  -1.663  -0.316  0.00  0.00     0.002 A 
ATOM      4  C5  UNL d   1       3.349  -0.684   0.214  0.00  0.00    -0.004 A 
ATOM      5  C6  UNL d   1       2.841   0.578   0.516  0.00  0.00     0.002 A 
ATOM      6  C7  UNL d   1       1.492   0.860   0.293  0.00  0.00     0.002 A 
ENDROOT
BRANCH   1   7
ATOM      7  C1  UNL d   1      -0.826   0.170  -0.428  0.00  0.00     0.055 C 
ATOM      8  C   UNL d   1      -1.517   0.436   0.901  0.00  0.00     0.019 C 
ENDBRANCH   1   7
TORSDOF 1
ENDMDL
