MODEL 1
REMARK minimizedAffinity -2.64806247
REMARK minimizedRMSD -1
REMARK  1 active torsions:
REMARK  status: ('A' for Active; 'I' for Inactive)
REMARK    1  A    between atoms: C1_2  and  C2_3 
ROOT
ATOM      1  C2  UNL d   1      -0.752   0.768  -0.234  0.00  0.00    -0.077 A 
ATOM      2  C3  UNL d   1      -0.205  -0.370   0.375  0.00  0.00     0.002 A 
ATOM      3  C4  UNL d   1       1.104  -0.350   0.862  0.00  0.00     0.002 A 
ATOM      4  C5  UNL d   1       1.873   0.806   0.750  0.00  0.00    -0.004 A 
ATOM      5  C6  UNL d   1       1.338   1.942   0.144  0.00  0.00     0.002 A 
ATOM      6  C7  UNL d   1       0.031   1.923  -0.344  0.00  0.00     0.002 A 
ENDROOT
BRANCH   1   7
ATOM      7  C1  UNL d   1      -2.180   0.763  -0.716  0.00  0.00     0.055 C 
ATOM      8  C   UNL d   1      -3.145   1.103   0.410  0.00  0.00     0.019 C 
ENDBRANCH   1   7
TORSDOF 1
ENDMDL
