MODEL 1
REMARK minimizedAffinity -4.50413847
REMARK minimizedRMSD -1
REMARK  1 active torsions:
REMARK  status: ('A' for Active; 'I' for Inactive)
REMARK    1  A    between atoms: C1_2  and  C2_3 
ROOT
ATOM      1  C2  UNL d   1       0.153   0.084   0.165  0.00  0.00    -0.077 A 
ATOM      2  C3  UNL d   1       1.125   0.693   0.971  0.00  0.00     0.002 A 
ATOM      3  C4  UNL d   1       2.255  -0.021   1.375  0.00  0.00     0.002 A 
ATOM      4  C5  UNL d   1       2.425  -1.345   0.975  0.00  0.00    -0.004 A 
ATOM      5  C6  UNL d   1       1.462  -1.960   0.175  0.00  0.00     0.002 A 
ATOM      6  C7  UNL d   1       0.332  -1.248  -0.229  0.00  0.00     0.002 A 
ENDROOT
BRANCH   1   7
ATOM      7  C1  UNL d   1      -1.042   0.868  -0.312  0.00  0.00     0.055 C 
ATOM      8  C   UNL d   1      -2.129   0.922   0.751  0.00  0.00     0.019 C 
ENDBRANCH   1   7
TORSDOF 1
ENDMDL
