MODEL 1
REMARK minimizedAffinity 7.89832687
REMARK minimizedRMSD -1
REMARK  1 active torsions:
REMARK  status: ('A' for Active; 'I' for Inactive)
REMARK    1  A    between atoms: C1_2  and  C2_3 
ROOT
ATOM      1  C2  UNL d   1       4.175  -4.516  -2.733  0.00  0.00    -0.081 A 
ATOM      2  C3  UNL d   1       4.755  -4.809  -1.492  0.00  0.00     0.006 A 
ATOM      3  C4  UNL d   1       4.921  -3.807  -0.533  0.00  0.00     0.002 A 
ATOM      4  C5  UNL d   1       4.502  -2.498  -0.795  0.00  0.00    -0.080 A 
ATOM      5  C6  UNL d   1       4.647  -1.419   0.237  0.00  0.00     0.076 C 
ATOM      6  C7  UNL d   1       3.939  -2.201  -2.041  0.00  0.00     0.002 A 
ATOM      7  C8  UNL d   1       3.774  -3.202  -3.000  0.00  0.00     0.006 A 
ENDROOT
BRANCH   1   8
ATOM      8  C1  UNL d   1       3.936  -5.608  -3.744  0.00  0.00     0.054 C 
ATOM      9  C   UNL d   1       2.474  -5.661  -4.166  0.00  0.00     0.018 C 
ENDBRANCH   1   8
TORSDOF 1
ENDMDL
