MODEL 1
REMARK minimizedAffinity 1.95899081
REMARK minimizedRMSD -1
REMARK  1 active torsions:
REMARK  status: ('A' for Active; 'I' for Inactive)
REMARK    1  A    between atoms: C1_2  and  C2_3 
ROOT
ATOM      1  C2  UNL d   1       3.989  -3.732  -3.026  0.00  0.00    -0.081 A 
ATOM      2  C3  UNL d   1       4.708  -3.067  -2.026  0.00  0.00     0.006 A 
ATOM      3  C4  UNL d   1       5.315  -3.785  -0.993  0.00  0.00     0.002 A 
ATOM      4  C5  UNL d   1       5.219  -5.180  -0.946  0.00  0.00    -0.080 A 
ATOM      5  C6  UNL d   1       5.891  -5.965   0.140  0.00  0.00     0.076 C 
ATOM      6  C7  UNL d   1       4.485  -5.844  -1.935  0.00  0.00     0.002 A 
ATOM      7  C8  UNL d   1       3.878  -5.126  -2.968  0.00  0.00     0.006 A 
ENDROOT
BRANCH   1   8
ATOM      8  C1  UNL d   1       3.388  -2.966  -4.177  0.00  0.00     0.054 C 
ATOM      9  C   UNL d   1       4.158  -1.682  -4.449  0.00  0.00     0.018 C 
ENDBRANCH   1   8
TORSDOF 1
ENDMDL
