MODEL 1
REMARK minimizedAffinity -0.325148642
REMARK minimizedRMSD -1
REMARK  1 active torsions:
REMARK  status: ('A' for Active; 'I' for Inactive)
REMARK    1  A    between atoms: C1_2  and  C2_3 
ROOT
ATOM      1  C2  UNL d   1       4.158  -2.510  -1.616  0.00  0.00    -0.081 A 
ATOM      2  C3  UNL d   1       3.531  -2.812  -2.831  0.00  0.00     0.006 A 
ATOM      3  C4  UNL d   1       3.989  -3.870  -3.620  0.00  0.00     0.002 A 
ATOM      4  C5  UNL d   1       5.076  -4.647  -3.205  0.00  0.00    -0.080 A 
ATOM      5  C6  UNL d   1       5.559  -5.804  -4.028  0.00  0.00     0.076 C 
ATOM      6  C7  UNL d   1       5.713  -4.334  -1.999  0.00  0.00     0.002 A 
ATOM      7  C8  UNL d   1       5.256  -3.276  -1.210  0.00  0.00     0.006 A 
ENDROOT
BRANCH   1   8
ATOM      8  C1  UNL d   1       3.626  -1.411  -0.732  0.00  0.00     0.054 C 
ATOM      9  C   UNL d   1       2.282  -1.789  -0.127  0.00  0.00     0.018 C 
ENDBRANCH   1   8
TORSDOF 1
ENDMDL
