MODEL 1
REMARK minimizedAffinity 6.33962536
REMARK minimizedRMSD -1
REMARK  1 active torsions:
REMARK  status: ('A' for Active; 'I' for Inactive)
REMARK    1  A    between atoms: C1_2  and  C2_3 
ROOT
ATOM      1  C2  UNL d   1       4.725  -3.166  -1.305  0.00  0.00    -0.081 A 
ATOM      2  C3  UNL d   1       5.138  -4.297  -0.589  0.00  0.00     0.006 A 
ATOM      3  C4  UNL d   1       4.359  -4.796   0.458  0.00  0.00     0.002 A 
ATOM      4  C5  UNL d   1       3.152  -4.178   0.802  0.00  0.00    -0.080 A 
ATOM      5  C6  UNL d   1       2.292  -4.721   1.904  0.00  0.00     0.076 C 
ATOM      6  C7  UNL d   1       2.749  -3.037   0.099  0.00  0.00     0.002 A 
ATOM      7  C8  UNL d   1       3.527  -2.538  -0.948  0.00  0.00     0.006 A 
ENDROOT
BRANCH   1   8
ATOM      8  C1  UNL d   1       5.530  -2.664  -2.476  0.00  0.00     0.054 C 
ATOM      9  C   UNL d   1       4.657  -2.478  -3.709  0.00  0.00     0.018 C 
ENDBRANCH   1   8
TORSDOF 1
ENDMDL
