MODEL 1
REMARK minimizedAffinity -4.84049082
REMARK minimizedRMSD -1
REMARK  1 active torsions:
REMARK  status: ('A' for Active; 'I' for Inactive)
REMARK    1  A    between atoms: C3_4  and  O_7 
ROOT
ATOM      1  C   UNL d   1       0.074   3.040  -0.264  0.00  0.00    -0.033 A 
ATOM      2  C1  UNL d   1       1.155   2.256  -0.668  0.00  0.00     0.039 A 
ATOM      3  C2  UNL d   1       1.137   0.876  -0.456  0.00  0.00    -0.080 A 
ATOM      4  C3  UNL d   1       0.033   0.294   0.159  0.00  0.00     0.150 A 
ATOM      5  C4  UNL d   1      -1.050   1.068   0.561  0.00  0.00    -0.007 A 
ATOM      6  C5  UNL d   1      -1.030   2.446   0.350  0.00  0.00     0.039 A 
ENDROOT
BRANCH   4   7
ATOM      7  O   UNL d   1      -0.028  -1.048   0.391  0.00  0.00    -0.526 OA
ATOM      8  H5  UNL d   1       0.802  -1.451   0.087  0.00  0.00     0.418 HD
ENDBRANCH   4   7
TORSDOF 1
ENDMDL
