MODEL 1
REMARK minimizedAffinity -3.10689116
REMARK minimizedRMSD -1
REMARK  1 active torsions:
REMARK  status: ('A' for Active; 'I' for Inactive)
REMARK    1  A    between atoms: C3_4  and  O_7 
ROOT
ATOM      1  C   UNL d   1       0.422   3.091   0.469  0.00  0.00    -0.033 A 
ATOM      2  C1  UNL d   1      -0.321   2.306   1.353  0.00  0.00     0.039 A 
ATOM      3  C2  UNL d   1      -0.538   0.955   1.077  0.00  0.00    -0.080 A 
ATOM      4  C3  UNL d   1      -0.007   0.401  -0.084  0.00  0.00     0.150 A 
ATOM      5  C4  UNL d   1       0.737   1.176  -0.968  0.00  0.00    -0.007 A 
ATOM      6  C5  UNL d   1       0.952   2.525  -0.691  0.00  0.00     0.039 A 
ENDROOT
BRANCH   4   7
ATOM      7  O   UNL d   1      -0.197  -0.912  -0.399  0.00  0.00    -0.526 OA
ATOM      8  H5  UNL d   1      -0.753  -1.315   0.288  0.00  0.00     0.418 HD
ENDBRANCH   4   7
TORSDOF 1
ENDMDL
