MODEL 1
REMARK minimizedAffinity -4.97730446
REMARK minimizedRMSD -1
REMARK  1 active torsions:
REMARK  status: ('A' for Active; 'I' for Inactive)
REMARK    1  A    between atoms: C3_4  and  O_7 
ROOT
ATOM      1  C   UNL d   1       0.982   3.423   0.402  0.00  0.00    -0.033 A 
ATOM      2  C1  UNL d   1       2.098   2.585   0.348  0.00  0.00     0.039 A 
ATOM      3  C2  UNL d   1       1.939   1.223   0.084  0.00  0.00    -0.080 A 
ATOM      4  C3  UNL d   1       0.661   0.713  -0.125  0.00  0.00     0.150 A 
ATOM      5  C4  UNL d   1      -0.455   1.542  -0.077  0.00  0.00    -0.007 A 
ATOM      6  C5  UNL d   1      -0.294   2.901   0.188  0.00  0.00     0.039 A 
ENDROOT
BRANCH   4   7
ATOM      7  O   UNL d   1       0.455  -0.610  -0.382  0.00  0.00    -0.526 OA
ATOM      8  H5  UNL d   1       1.314  -1.066  -0.356  0.00  0.00     0.418 HD
ENDBRANCH   4   7
TORSDOF 1
ENDMDL
