MODEL 1
REMARK minimizedAffinity -5.40259647
REMARK minimizedRMSD -1
REMARK  1 active torsions:
REMARK  status: ('A' for Active; 'I' for Inactive)
REMARK    1  A    between atoms: C3_4  and  O_7 
ROOT
ATOM      1  C   UNL d   1       2.205   0.995   1.018  0.00  0.00    -0.033 A 
ATOM      2  C1  UNL d   1       0.948   0.513   0.647  0.00  0.00     0.039 A 
ATOM      3  C2  UNL d   1       0.057   1.339  -0.041  0.00  0.00    -0.080 A 
ATOM      4  C3  UNL d   1       0.435   2.643  -0.351  0.00  0.00     0.150 A 
ATOM      5  C4  UNL d   1       1.687   3.128   0.012  0.00  0.00    -0.007 A 
ATOM      6  C5  UNL d   1       2.575   2.302   0.699  0.00  0.00     0.039 A 
ENDROOT
BRANCH   4   7
ATOM      7  O   UNL d   1      -0.403   3.488  -1.017  0.00  0.00    -0.526 OA
ATOM      8  H5  UNL d   1      -1.242   3.025  -1.178  0.00  0.00     0.418 HD
ENDBRANCH   4   7
TORSDOF 1
ENDMDL
