MODEL 1
REMARK minimizedAffinity -5.74305534
REMARK minimizedRMSD -1
REMARK  1 active torsions:
REMARK  status: ('A' for Active; 'I' for Inactive)
REMARK    1  A    between atoms: C3_4  and  O_7 
ROOT
ATOM      1  C   UNL d   1      -0.548  -0.013   0.462  0.00  0.00    -0.033 A 
ATOM      2  C1  UNL d   1       0.590   0.264  -0.299  0.00  0.00     0.039 A 
ATOM      3  C2  UNL d   1       0.968   1.587  -0.538  0.00  0.00    -0.080 A 
ATOM      4  C3  UNL d   1       0.202   2.622  -0.011  0.00  0.00     0.150 A 
ATOM      5  C4  UNL d   1      -0.931   2.354   0.751  0.00  0.00    -0.007 A 
ATOM      6  C5  UNL d   1      -1.307   1.033   0.988  0.00  0.00     0.039 A 
ENDROOT
BRANCH   4   7
ATOM      7  O   UNL d   1       0.528   3.929  -0.221  0.00  0.00    -0.526 OA
ATOM      8  H5  UNL d   1       1.316   3.962  -0.788  0.00  0.00     0.418 HD
ENDBRANCH   4   7
TORSDOF 1
ENDMDL
