MODEL 1
REMARK minimizedAffinity -5.447824
REMARK minimizedRMSD -1
REMARK  1 active torsions:
REMARK  status: ('A' for Active; 'I' for Inactive)
REMARK    1  A    between atoms: C3_4  and  O_7 
ROOT
ATOM      1  C   UNL d   1       0.772   3.007   0.228  0.00  0.00    -0.033 A 
ATOM      2  C1  UNL d   1       1.778   2.039   0.210  0.00  0.00     0.039 A 
ATOM      3  C2  UNL d   1       1.445   0.684   0.171  0.00  0.00    -0.080 A 
ATOM      4  C3  UNL d   1       0.104   0.311   0.150  0.00  0.00     0.150 A 
ATOM      5  C4  UNL d   1      -0.904   1.270   0.164  0.00  0.00    -0.007 A 
ATOM      6  C5  UNL d   1      -0.569   2.623   0.204  0.00  0.00     0.039 A 
ENDROOT
BRANCH   4   7
ATOM      7  O   UNL d   1      -0.271  -1.000   0.118  0.00  0.00    -0.526 OA
ATOM      8  H5  UNL d   1       0.530  -1.549   0.140  0.00  0.00     0.418 HD
ENDBRANCH   4   7
TORSDOF 1
ENDMDL
