MODEL 1
REMARK minimizedAffinity -3.02617025
REMARK minimizedRMSD -1
REMARK  1 active torsions:
REMARK  status: ('A' for Active; 'I' for Inactive)
REMARK    1  A    between atoms: C3_4  and  O_7 
ROOT
ATOM      1  C   UNL d   1      -0.480  -0.181   0.609  0.00  0.00    -0.033 A 
ATOM      2  C1  UNL d   1      -1.449   0.777   0.914  0.00  0.00     0.039 A 
ATOM      3  C2  UNL d   1      -1.260   2.108   0.539  0.00  0.00    -0.080 A 
ATOM      4  C3  UNL d   1      -0.100   2.468  -0.142  0.00  0.00     0.150 A 
ATOM      5  C4  UNL d   1       0.868   1.519  -0.453  0.00  0.00    -0.007 A 
ATOM      6  C5  UNL d   1       0.678   0.190  -0.076  0.00  0.00     0.039 A 
ENDROOT
BRANCH   4   7
ATOM      7  O   UNL d   1       0.131   3.756  -0.524  0.00  0.00    -0.526 OA
ATOM      8  H5  UNL d   1      -0.609   4.306  -0.217  0.00  0.00     0.418 HD
ENDBRANCH   4   7
TORSDOF 1
ENDMDL
