MODEL 1
REMARK minimizedAffinity -2.09081578
REMARK minimizedRMSD -1
REMARK  1 active torsions:
REMARK  status: ('A' for Active; 'I' for Inactive)
REMARK    1  A    between atoms: C3_4  and  O_7 
ROOT
ATOM      1  C   UNL d   1      -0.111  -0.955   0.069  0.00  0.00    -0.033 A 
ATOM      2  C1  UNL d   1      -1.173  -0.059  -0.061  0.00  0.00     0.039 A 
ATOM      3  C2  UNL d   1      -0.997   1.287   0.264  0.00  0.00    -0.080 A 
ATOM      4  C3  UNL d   1       0.246   1.724   0.716  0.00  0.00     0.150 A 
ATOM      5  C4  UNL d   1       1.310   0.837   0.844  0.00  0.00    -0.007 A 
ATOM      6  C5  UNL d   1       1.131  -0.507   0.520  0.00  0.00     0.039 A 
ENDROOT
BRANCH   4   7
ATOM      7  O   UNL d   1       0.465   3.028   1.050  0.00  0.00    -0.526 OA
ATOM      8  H5  UNL d   1      -0.367   3.518   0.939  0.00  0.00     0.418 HD
ENDBRANCH   4   7
TORSDOF 1
ENDMDL
