MODEL 1
REMARK minimizedAffinity -4.61748886
REMARK minimizedRMSD -1
REMARK  1 active torsions:
REMARK  status: ('A' for Active; 'I' for Inactive)
REMARK    1  A    between atoms: C3_4  and  O_7 
ROOT
ATOM      1  C   UNL d   1      -0.010   3.221   0.184  0.00  0.00    -0.033 A 
ATOM      2  C1  UNL d   1       1.176   2.531  -0.076  0.00  0.00     0.039 A 
ATOM      3  C2  UNL d   1       1.175   1.136  -0.140  0.00  0.00    -0.080 A 
ATOM      4  C3  UNL d   1      -0.017   0.444   0.057  0.00  0.00     0.150 A 
ATOM      5  C4  UNL d   1      -1.203   1.125   0.313  0.00  0.00    -0.007 A 
ATOM      6  C5  UNL d   1      -1.199   2.518   0.377  0.00  0.00     0.039 A 
ENDROOT
BRANCH   4   7
ATOM      7  O   UNL d   1      -0.067  -0.917   0.010  0.00  0.00    -0.526 OA
ATOM      8  H5  UNL d   1       0.832  -1.253  -0.147  0.00  0.00     0.418 HD
ENDBRANCH   4   7
TORSDOF 1
ENDMDL
