MODEL 1
REMARK minimizedAffinity -4.47676182
REMARK minimizedRMSD -1
REMARK  1 active torsions:
REMARK  status: ('A' for Active; 'I' for Inactive)
REMARK    1  A    between atoms: C3_4  and  O_7 
ROOT
ATOM      1  C   UNL d   1       0.373   3.225  -0.340  0.00  0.00    -0.033 A 
ATOM      2  C1  UNL d   1      -0.891   2.711  -0.046  0.00  0.00     0.039 A 
ATOM      3  C2  UNL d   1      -1.046   1.352   0.236  0.00  0.00    -0.080 A 
ATOM      4  C3  UNL d   1       0.070   0.520   0.223  0.00  0.00     0.150 A 
ATOM      5  C4  UNL d   1       1.334   1.027  -0.065  0.00  0.00    -0.007 A 
ATOM      6  C5  UNL d   1       1.486   2.383  -0.347  0.00  0.00     0.039 A 
ENDROOT
BRANCH   4   7
ATOM      7  O   UNL d   1      -0.032  -0.813   0.487  0.00  0.00    -0.526 OA
ATOM      8  H5  UNL d   1      -0.967  -1.026   0.640  0.00  0.00     0.418 HD
ENDBRANCH   4   7
TORSDOF 1
ENDMDL
