MODEL 1
REMARK minimizedAffinity -1.69888532
REMARK minimizedRMSD -1
REMARK  1 active torsions:
REMARK  status: ('A' for Active; 'I' for Inactive)
REMARK    1  A    between atoms: C3_4  and  O_7 
ROOT
ATOM      1  C   UNL d   1      -0.522  -4.029  -2.623  0.00  0.00    -0.033 A 
ATOM      2  C1  UNL d   1      -1.385  -4.026  -1.525  0.00  0.00     0.039 A 
ATOM      3  C2  UNL d   1      -1.285  -3.022  -0.560  0.00  0.00    -0.080 A 
ATOM      4  C3  UNL d   1      -0.320  -2.028  -0.705  0.00  0.00     0.150 A 
ATOM      5  C4  UNL d   1       0.539  -2.023  -1.798  0.00  0.00    -0.007 A 
ATOM      6  C5  UNL d   1       0.439  -3.027  -2.760  0.00  0.00     0.039 A 
ENDROOT
BRANCH   4   7
ATOM      7  O   UNL d   1      -0.182  -1.030   0.214  0.00  0.00    -0.526 OA
ATOM      8  H5  UNL d   1      -0.824  -1.178   0.928  0.00  0.00     0.418 HD
ENDBRANCH   4   7
TORSDOF 1
ENDMDL
