MODEL 1
REMARK minimizedAffinity -5.19366693
REMARK minimizedRMSD -1
REMARK  1 active torsions:
REMARK  status: ('A' for Active; 'I' for Inactive)
REMARK    1  A    between atoms: C3_4  and  O_7 
ROOT
ATOM      1  C   UNL d   1      -0.532   0.210   0.581  0.00  0.00    -0.033 A 
ATOM      2  C1  UNL d   1       0.827   0.473   0.398  0.00  0.00     0.039 A 
ATOM      3  C2  UNL d   1       1.264   1.781   0.184  0.00  0.00    -0.080 A 
ATOM      4  C3  UNL d   1       0.333   2.817   0.157  0.00  0.00     0.150 A 
ATOM      5  C4  UNL d   1      -1.022   2.562   0.342  0.00  0.00    -0.007 A 
ATOM      6  C5  UNL d   1      -1.456   1.255   0.554  0.00  0.00     0.039 A 
ENDROOT
BRANCH   4   7
ATOM      7  O   UNL d   1       0.712   4.109  -0.053  0.00  0.00    -0.526 OA
ATOM      8  H5  UNL d   1       1.673   4.130  -0.193  0.00  0.00     0.418 HD
ENDBRANCH   4   7
TORSDOF 1
ENDMDL
