MODEL 1
REMARK minimizedAffinity -5.52366543
REMARK minimizedRMSD -1
REMARK  1 active torsions:
REMARK  status: ('A' for Active; 'I' for Inactive)
REMARK    1  A    between atoms: C3_4  and  O_7 
ROOT
ATOM      1  C   UNL d   1       0.322   2.980   0.068  0.00  0.00    -0.033 A 
ATOM      2  C1  UNL d   1       0.045   1.611   0.065  0.00  0.00     0.039 A 
ATOM      3  C2  UNL d   1       1.038   0.696   0.422  0.00  0.00    -0.080 A 
ATOM      4  C3  UNL d   1       2.300   1.162   0.779  0.00  0.00     0.150 A 
ATOM      5  C4  UNL d   1       2.581   2.524   0.788  0.00  0.00    -0.007 A 
ATOM      6  C5  UNL d   1       1.589   3.436   0.430  0.00  0.00     0.039 A 
ENDROOT
BRANCH   4   7
ATOM      7  O   UNL d   1       3.302   0.307   1.130  0.00  0.00    -0.526 OA
ATOM      8  H5  UNL d   1       2.971  -0.604   1.051  0.00  0.00     0.418 HD
ENDBRANCH   4   7
TORSDOF 1
ENDMDL
