MODEL 1
REMARK minimizedAffinity -3.74725413
REMARK minimizedRMSD -1
REMARK  1 active torsions:
REMARK  status: ('A' for Active; 'I' for Inactive)
REMARK    1  A    between atoms: C3_4  and  O_7 
ROOT
ATOM      1  C   UNL d   1      -0.305  -0.266   0.095  0.00  0.00    -0.033 A 
ATOM      2  C1  UNL d   1      -0.962   0.582   0.988  0.00  0.00     0.039 A 
ATOM      3  C2  UNL d   1      -0.825   1.967   0.868  0.00  0.00    -0.080 A 
ATOM      4  C3  UNL d   1      -0.029   2.489  -0.148  0.00  0.00     0.150 A 
ATOM      5  C4  UNL d   1       0.625   1.649  -1.044  0.00  0.00    -0.007 A 
ATOM      6  C5  UNL d   1       0.488   0.267  -0.922  0.00  0.00     0.039 A 
ENDROOT
BRANCH   4   7
ATOM      7  O   UNL d   1       0.139   3.833  -0.302  0.00  0.00    -0.526 OA
ATOM      8  H5  UNL d   1      -0.349   4.287   0.405  0.00  0.00     0.418 HD
ENDBRANCH   4   7
TORSDOF 1
ENDMDL
