MODEL 1
REMARK minimizedAffinity -2.13965988
REMARK minimizedRMSD -1
REMARK  1 active torsions:
REMARK  status: ('A' for Active; 'I' for Inactive)
REMARK    1  A    between atoms: C3_4  and  O_7 
ROOT
ATOM      1  C   UNL d   1      -0.628  -3.965  -2.020  0.00  0.00    -0.033 A 
ATOM      2  C1  UNL d   1      -1.450  -3.747  -0.913  0.00  0.00     0.039 A 
ATOM      3  C2  UNL d   1      -1.245  -2.633  -0.096  0.00  0.00    -0.080 A 
ATOM      4  C3  UNL d   1      -0.216  -1.746  -0.398  0.00  0.00     0.150 A 
ATOM      5  C4  UNL d   1       0.605  -1.954  -1.502  0.00  0.00    -0.007 A 
ATOM      6  C5  UNL d   1       0.399  -3.068  -2.315  0.00  0.00     0.039 A 
ENDROOT
BRANCH   4   7
ATOM      7  O   UNL d   1       0.027  -0.647   0.371  0.00  0.00    -0.526 OA
ATOM      8  H5  UNL d   1      -0.600  -0.648   1.114  0.00  0.00     0.418 HD
ENDBRANCH   4   7
TORSDOF 1
ENDMDL
