MODEL 1
REMARK minimizedAffinity -4.50395584
REMARK minimizedRMSD -1
REMARK  1 active torsions:
REMARK  status: ('A' for Active; 'I' for Inactive)
REMARK    1  A    between atoms: C3_4  and  O_7 
ROOT
ATOM      1  C   UNL d   1      -0.582   0.205   0.132  0.00  0.00    -0.033 A 
ATOM      2  C1  UNL d   1       0.573   0.686  -0.488  0.00  0.00     0.039 A 
ATOM      3  C2  UNL d   1       0.815   2.060  -0.549  0.00  0.00    -0.080 A 
ATOM      4  C3  UNL d   1      -0.104   2.941   0.013  0.00  0.00     0.150 A 
ATOM      5  C4  UNL d   1      -1.255   2.469   0.636  0.00  0.00    -0.007 A 
ATOM      6  C5  UNL d   1      -1.495   1.097   0.696  0.00  0.00     0.039 A 
ENDROOT
BRANCH   4   7
ATOM      7  O   UNL d   1       0.086   4.290  -0.026  0.00  0.00    -0.526 OA
ATOM      8  H5  UNL d   1       0.908   4.471  -0.512  0.00  0.00     0.418 HD
ENDBRANCH   4   7
TORSDOF 1
ENDMDL
