MODEL 1
REMARK minimizedAffinity -2.26680398
REMARK minimizedRMSD -1
REMARK  1 active torsions:
REMARK  status: ('A' for Active; 'I' for Inactive)
REMARK    1  A    between atoms: C3_4  and  O_7 
ROOT
ATOM      1  C   UNL d   1      -0.480  -1.107   0.380  0.00  0.00    -0.033 A 
ATOM      2  C1  UNL d   1      -1.511  -0.205   0.651  0.00  0.00     0.039 A 
ATOM      3  C2  UNL d   1      -1.269   1.169   0.605  0.00  0.00    -0.080 A 
ATOM      4  C3  UNL d   1       0.006   1.628   0.285  0.00  0.00     0.150 A 
ATOM      5  C4  UNL d   1       1.037   0.735   0.010  0.00  0.00    -0.007 A 
ATOM      6  C5  UNL d   1       0.793  -0.637   0.057  0.00  0.00     0.039 A 
ENDROOT
BRANCH   4   7
ATOM      7  O   UNL d   1       0.292   2.960   0.232  0.00  0.00    -0.526 OA
ATOM      8  H5  UNL d   1      -0.508   3.456   0.473  0.00  0.00     0.418 HD
ENDBRANCH   4   7
TORSDOF 1
ENDMDL
