MODEL 1
REMARK minimizedAffinity -1.36481595
REMARK minimizedRMSD -1
REMARK  0 active torsions:
REMARK  status: ('A' for Active; 'I' for Inactive)
ROOT
ATOM      1  C   UNL d   1       0.733  -1.449  -0.207  0.00  0.00     0.023 A 
ATOM      2  C1  UNL d   1       0.612  -0.071  -0.028  0.00  0.00     0.003 A 
ATOM      3  C2  UNL d   1       1.703   0.765  -0.273  0.00  0.00     0.048 A 
ATOM      4  C3  UNL d   1       2.912   0.217  -0.697  0.00  0.00     0.023 A 
ATOM      5  C4  UNL d   1       3.039  -1.161  -0.879  0.00  0.00     0.048 A 
ATOM      6  C5  UNL d   1       1.945  -1.994  -0.632  0.00  0.00     0.003 A 
ATOM      7  I   UNL d   1       4.538   1.459  -1.063  0.00  0.00    -0.146 I 
ENDROOT
TORSDOF 0
ENDMDL
