MODEL 1
REMARK minimizedAffinity 1.95312536
REMARK minimizedRMSD -1
REMARK  0 active torsions:
REMARK  status: ('A' for Active; 'I' for Inactive)
ROOT
ATOM      1  C   UNL d   1       4.276  -1.056  -2.329  0.00  0.00     0.023 A 
ATOM      2  C1  UNL d   1       3.595  -2.247  -2.582  0.00  0.00     0.003 A 
ATOM      3  C2  UNL d   1       2.439  -2.559  -1.863  0.00  0.00     0.048 A 
ATOM      4  C3  UNL d   1       1.969  -1.675  -0.893  0.00  0.00     0.023 A 
ATOM      5  C4  UNL d   1       2.647  -0.482  -0.637  0.00  0.00     0.048 A 
ATOM      6  C5  UNL d   1       3.802  -0.175  -1.357  0.00  0.00     0.003 A 
ATOM      7  I   UNL d   1       0.249  -2.136   0.178  0.00  0.00    -0.146 I 
ENDROOT
TORSDOF 0
ENDMDL
