MODEL 1
REMARK minimizedAffinity 3.22222733
REMARK minimizedRMSD -1
REMARK  0 active torsions:
REMARK  status: ('A' for Active; 'I' for Inactive)
ROOT
ATOM      1  C   UNL d   1       0.373  -1.624   0.085  0.00  0.00     0.023 A 
ATOM      2  C1  UNL d   1       1.547  -2.306  -0.236  0.00  0.00     0.003 A 
ATOM      3  C2  UNL d   1       2.720  -1.595  -0.498  0.00  0.00     0.048 A 
ATOM      4  C3  UNL d   1       2.712  -0.202  -0.436  0.00  0.00     0.023 A 
ATOM      5  C4  UNL d   1       1.540   0.485  -0.114  0.00  0.00     0.048 A 
ATOM      6  C5  UNL d   1       0.370  -0.231   0.146  0.00  0.00     0.003 A 
ATOM      7  I   UNL d   1       4.457   0.859  -0.825  0.00  0.00    -0.146 I 
ENDROOT
TORSDOF 0
ENDMDL
