MODEL 1
REMARK minimizedAffinity -1.91683865
REMARK minimizedRMSD -1
REMARK  0 active torsions:
REMARK  status: ('A' for Active; 'I' for Inactive)
ROOT
ATOM      1  C   UNL d   1       3.589  -1.600  -1.171  0.00  0.00     0.023 A 
ATOM      2  C1  UNL d   1       2.338  -2.049  -0.747  0.00  0.00     0.003 A 
ATOM      3  C2  UNL d   1       1.366  -1.131  -0.344  0.00  0.00     0.048 A 
ATOM      4  C3  UNL d   1       1.650   0.234  -0.369  0.00  0.00     0.023 A 
ATOM      5  C4  UNL d   1       2.900   0.687  -0.794  0.00  0.00     0.048 A 
ATOM      6  C5  UNL d   1       3.870  -0.233  -1.195  0.00  0.00     0.003 A 
ATOM      7  I   UNL d   1       0.204   1.601   0.230  0.00  0.00    -0.146 I 
ENDROOT
TORSDOF 0
ENDMDL
