MODEL 1
REMARK minimizedAffinity 2.88840628
REMARK minimizedRMSD -1
REMARK  0 active torsions:
REMARK  status: ('A' for Active; 'I' for Inactive)
ROOT
ATOM      1  C   UNL d   1       3.114  -0.107  -0.705  0.00  0.00     0.023 A 
ATOM      2  C1  UNL d   1       3.038  -1.490  -0.868  0.00  0.00     0.003 A 
ATOM      3  C2  UNL d   1       1.798  -2.132  -0.826  0.00  0.00     0.048 A 
ATOM      4  C3  UNL d   1       0.639  -1.384  -0.620  0.00  0.00     0.023 A 
ATOM      5  C4  UNL d   1       0.711   0.000  -0.457  0.00  0.00     0.048 A 
ATOM      6  C5  UNL d   1       1.953   0.637  -0.500  0.00  0.00     0.003 A 
ATOM      7  I   UNL d   1      -1.207  -2.337  -0.557  0.00  0.00    -0.146 I 
ENDROOT
TORSDOF 0
ENDMDL
