MODEL 1
REMARK minimizedAffinity -3.51047611
REMARK minimizedRMSD -1
REMARK  1 active torsions:
REMARK  status: ('A' for Active; 'I' for Inactive)
REMARK    1  A    between atoms: C3_4  and  O_7 
ROOT
ATOM      1  C   UNL d   1      -1.558   0.697   0.453  0.00  0.00    -0.033 A 
ATOM      2  C1  UNL d   1      -0.967   1.922   0.766  0.00  0.00     0.039 A 
ATOM      3  C2  UNL d   1       0.414   2.005   0.953  0.00  0.00    -0.080 A 
ATOM      4  C3  UNL d   1       1.192   0.858   0.823  0.00  0.00     0.150 A 
ATOM      5  C4  UNL d   1       0.610  -0.366   0.508  0.00  0.00    -0.007 A 
ATOM      6  C5  UNL d   1      -0.770  -0.447   0.322  0.00  0.00     0.039 A 
ENDROOT
BRANCH   4   7
ATOM      7  O   UNL d   1       2.543   0.889   1.001  0.00  0.00    -0.526 OA
ATOM      8  H5  UNL d   1       2.801   1.794   1.243  0.00  0.00     0.418 HD
ENDBRANCH   4   7
TORSDOF 1
ENDMDL
