MODEL 1
REMARK minimizedAffinity -2.91306853
REMARK minimizedRMSD -1
REMARK  1 active torsions:
REMARK  status: ('A' for Active; 'I' for Inactive)
REMARK    1  A    between atoms: C3_4  and  O_7 
ROOT
ATOM      1  C   UNL d   1      -1.267  -0.012   0.320  0.00  0.00    -0.033 A 
ATOM      2  C1  UNL d   1      -0.821   1.240   0.749  0.00  0.00     0.039 A 
ATOM      3  C2  UNL d   1       0.546   1.489   0.879  0.00  0.00    -0.080 A 
ATOM      4  C3  UNL d   1       1.457   0.480   0.578  0.00  0.00     0.150 A 
ATOM      5  C4  UNL d   1       1.020  -0.768   0.146  0.00  0.00    -0.007 A 
ATOM      6  C5  UNL d   1      -0.346  -1.016   0.017  0.00  0.00     0.039 A 
ENDROOT
BRANCH   4   7
ATOM      7  O   UNL d   1       2.801   0.674   0.695  0.00  0.00    -0.526 OA
ATOM      8  H5  UNL d   1       2.954   1.574   1.030  0.00  0.00     0.418 HD
ENDBRANCH   4   7
TORSDOF 1
ENDMDL
