MODEL 1
REMARK minimizedAffinity 2.53103423
REMARK minimizedRMSD -1
REMARK  1 active torsions:
REMARK  status: ('A' for Active; 'I' for Inactive)
REMARK    1  A    between atoms: C3_4  and  O_7 
ROOT
ATOM      1  C   UNL d   1      -1.575  -0.476  -0.349  0.00  0.00    -0.033 A 
ATOM      2  C1  UNL d   1      -2.158   0.741  -0.707  0.00  0.00     0.039 A 
ATOM      3  C2  UNL d   1      -1.930   1.881   0.066  0.00  0.00    -0.080 A 
ATOM      4  C3  UNL d   1      -1.118   1.791   1.194  0.00  0.00     0.150 A 
ATOM      5  C4  UNL d   1      -0.531   0.583   1.554  0.00  0.00    -0.007 A 
ATOM      6  C5  UNL d   1      -0.760  -0.555   0.781  0.00  0.00     0.039 A 
ENDROOT
BRANCH   4   7
ATOM      7  O   UNL d   1      -0.871   2.875   1.982  0.00  0.00    -0.526 OA
ATOM      8  H5  UNL d   1      -1.365   3.633   1.627  0.00  0.00     0.418 HD
ENDBRANCH   4   7
TORSDOF 1
ENDMDL
