MODEL 1
REMARK minimizedAffinity -5.15093184
REMARK minimizedRMSD -1
REMARK  1 active torsions:
REMARK  status: ('A' for Active; 'I' for Inactive)
REMARK    1  A    between atoms: C3_4  and  O_7 
ROOT
ATOM      1  C   UNL d   1       1.733   3.021   0.180  0.00  0.00    -0.033 A 
ATOM      2  C1  UNL d   1       0.344   2.914   0.094  0.00  0.00     0.039 A 
ATOM      3  C2  UNL d   1      -0.255   1.661  -0.042  0.00  0.00    -0.080 A 
ATOM      4  C3  UNL d   1       0.545   0.523  -0.090  0.00  0.00     0.150 A 
ATOM      5  C4  UNL d   1       1.930   0.621  -0.002  0.00  0.00    -0.007 A 
ATOM      6  C5  UNL d   1       2.526   1.874   0.133  0.00  0.00     0.039 A 
ENDROOT
BRANCH   4   7
ATOM      7  O   UNL d   1       0.007  -0.722  -0.227  0.00  0.00    -0.526 OA
ATOM      8  H5  UNL d   1      -0.958  -0.633  -0.305  0.00  0.00     0.418 HD
ENDBRANCH   4   7
TORSDOF 1
ENDMDL
