MODEL 1
REMARK minimizedAffinity -0.44301945
REMARK minimizedRMSD -1
REMARK  1 active torsions:
REMARK  status: ('A' for Active; 'I' for Inactive)
REMARK    1  A    between atoms: C3_4  and  O_7 
ROOT
ATOM      1  C   UNL d   1      -1.627   1.604   0.333  0.00  0.00    -0.033 A 
ATOM      2  C1  UNL d   1      -1.070   2.647   1.076  0.00  0.00     0.039 A 
ATOM      3  C2  UNL d   1       0.284   2.617   1.418  0.00  0.00    -0.080 A 
ATOM      4  C3  UNL d   1       1.068   1.541   1.011  0.00  0.00     0.150 A 
ATOM      5  C4  UNL d   1       0.520   0.501   0.268  0.00  0.00    -0.007 A 
ATOM      6  C5  UNL d   1      -0.832   0.532  -0.072  0.00  0.00     0.039 A 
ENDROOT
BRANCH   4   7
ATOM      7  O   UNL d   1       2.392   1.466   1.325  0.00  0.00    -0.526 OA
ATOM      8  H5  UNL d   1       2.625   2.239   1.866  0.00  0.00     0.418 HD
ENDBRANCH   4   7
TORSDOF 1
ENDMDL
