MODEL 1
REMARK minimizedAffinity -3.81041622
REMARK minimizedRMSD -1
REMARK  1 active torsions:
REMARK  status: ('A' for Active; 'I' for Inactive)
REMARK    1  A    between atoms: C3_4  and  O_7 
ROOT
ATOM      1  C   UNL d   1      -0.709  -3.513  -2.225  0.00  0.00    -0.033 A 
ATOM      2  C1  UNL d   1       0.079  -2.394  -2.500  0.00  0.00     0.039 A 
ATOM      3  C2  UNL d   1       0.510  -1.568  -1.460  0.00  0.00    -0.080 A 
ATOM      4  C3  UNL d   1       0.147  -1.873  -0.151  0.00  0.00     0.150 A 
ATOM      5  C4  UNL d   1      -0.635  -2.988   0.131  0.00  0.00    -0.007 A 
ATOM      6  C5  UNL d   1      -1.065  -3.811  -0.909  0.00  0.00     0.039 A 
ENDROOT
BRANCH   4   7
ATOM      7  O   UNL d   1       0.540  -1.094   0.897  0.00  0.00    -0.526 OA
ATOM      8  H5  UNL d   1       1.050  -0.344   0.549  0.00  0.00     0.418 HD
ENDBRANCH   4   7
TORSDOF 1
ENDMDL
