MODEL 1
REMARK minimizedAffinity -3.30163932
REMARK minimizedRMSD -1
REMARK  1 active torsions:
REMARK  status: ('A' for Active; 'I' for Inactive)
REMARK    1  A    between atoms: C3_4  and  O_7 
ROOT
ATOM      1  C   UNL d   1      -1.172   1.122   0.415  0.00  0.00    -0.033 A 
ATOM      2  C1  UNL d   1      -0.437   2.254   0.770  0.00  0.00     0.039 A 
ATOM      3  C2  UNL d   1       0.950   2.173   0.911  0.00  0.00    -0.080 A 
ATOM      4  C3  UNL d   1       1.589   0.955   0.692  0.00  0.00     0.150 A 
ATOM      5  C4  UNL d   1       0.863  -0.176   0.334  0.00  0.00    -0.007 A 
ATOM      6  C5  UNL d   1      -0.522  -0.093   0.196  0.00  0.00     0.039 A 
ENDROOT
BRANCH   4   7
ATOM      7  O   UNL d   1       2.940   0.826   0.822  0.00  0.00    -0.526 OA
ATOM      8  H5  UNL d   1       3.306   1.682   1.101  0.00  0.00     0.418 HD
ENDBRANCH   4   7
TORSDOF 1
ENDMDL
