MODEL 1
REMARK minimizedAffinity -1.2689569
REMARK minimizedRMSD -1
REMARK  1 active torsions:
REMARK  status: ('A' for Active; 'I' for Inactive)
REMARK    1  A    between atoms: C3_4  and  O_7 
ROOT
ATOM      1  C   UNL d   1      -0.191  -1.153  -0.483  0.00  0.00    -0.033 A 
ATOM      2  C1  UNL d   1      -1.395  -0.492  -0.735  0.00  0.00     0.039 A 
ATOM      3  C2  UNL d   1      -1.569   0.828  -0.317  0.00  0.00    -0.080 A 
ATOM      4  C3  UNL d   1      -0.533   1.477   0.349  0.00  0.00     0.150 A 
ATOM      5  C4  UNL d   1       0.670   0.826   0.600  0.00  0.00    -0.007 A 
ATOM      6  C5  UNL d   1       0.842  -0.493   0.184  0.00  0.00     0.039 A 
ENDROOT
BRANCH   4   7
ATOM      7  O   UNL d   1      -0.658   2.764   0.780  0.00  0.00    -0.526 OA
ATOM      8  H5  UNL d   1      -1.553   3.076   0.562  0.00  0.00     0.418 HD
ENDBRANCH   4   7
TORSDOF 1
ENDMDL
