MODEL 1
REMARK minimizedAffinity -4.42451715
REMARK minimizedRMSD -1
REMARK  1 active torsions:
REMARK  status: ('A' for Active; 'I' for Inactive)
REMARK    1  A    between atoms: C3_4  and  O_7 
ROOT
ATOM      1  C   UNL d   1       0.670  -0.873   0.565  0.00  0.00    -0.033 A 
ATOM      2  C1  UNL d   1       1.661   0.110   0.587  0.00  0.00     0.039 A 
ATOM      3  C2  UNL d   1       1.308   1.459   0.665  0.00  0.00    -0.080 A 
ATOM      4  C3  UNL d   1      -0.038   1.811   0.721  0.00  0.00     0.150 A 
ATOM      5  C4  UNL d   1      -1.031   0.836   0.704  0.00  0.00    -0.007 A 
ATOM      6  C5  UNL d   1      -0.676  -0.510   0.625  0.00  0.00     0.039 A 
ENDROOT
BRANCH   4   7
ATOM      7  O   UNL d   1      -0.432   3.114   0.794  0.00  0.00    -0.526 OA
ATOM      8  H5  UNL d   1       0.360   3.676   0.768  0.00  0.00     0.418 HD
ENDBRANCH   4   7
TORSDOF 1
ENDMDL
