MODEL 1
REMARK minimizedAffinity -5.34270239
REMARK minimizedRMSD -1
REMARK  1 active torsions:
REMARK  status: ('A' for Active; 'I' for Inactive)
REMARK    1  A    between atoms: C3_4  and  O_7 
ROOT
ATOM      1  C   UNL d   1       0.363   3.188  -0.255  0.00  0.00    -0.033 A 
ATOM      2  C1  UNL d   1       1.656   3.395   0.228  0.00  0.00     0.039 A 
ATOM      3  C2  UNL d   1       2.527   2.314   0.382  0.00  0.00    -0.080 A 
ATOM      4  C3  UNL d   1       2.093   1.034   0.049  0.00  0.00     0.150 A 
ATOM      5  C4  UNL d   1       0.807   0.821  -0.436  0.00  0.00    -0.007 A 
ATOM      6  C5  UNL d   1      -0.062   1.902  -0.589  0.00  0.00     0.039 A 
ENDROOT
BRANCH   4   7
ATOM      7  O   UNL d   1       2.905  -0.052   0.187  0.00  0.00    -0.526 OA
ATOM      8  H5  UNL d   1       3.752   0.242   0.560  0.00  0.00     0.418 HD
ENDBRANCH   4   7
TORSDOF 1
ENDMDL
