MODEL 1
REMARK minimizedAffinity -4.85208702
REMARK minimizedRMSD -1
REMARK  1 active torsions:
REMARK  status: ('A' for Active; 'I' for Inactive)
REMARK    1  A    between atoms: C3_4  and  O_7 
ROOT
ATOM      1  C   UNL d   1       1.047   3.518   0.166  0.00  0.00    -0.033 A 
ATOM      2  C1  UNL d   1       2.065   2.569   0.277  0.00  0.00     0.039 A 
ATOM      3  C2  UNL d   1       1.749   1.212   0.378  0.00  0.00    -0.080 A 
ATOM      4  C3  UNL d   1       0.413   0.819   0.366  0.00  0.00     0.150 A 
ATOM      5  C4  UNL d   1      -0.605   1.759   0.252  0.00  0.00    -0.007 A 
ATOM      6  C5  UNL d   1      -0.288   3.113   0.152  0.00  0.00     0.039 A 
ENDROOT
BRANCH   4   7
ATOM      7  O   UNL d   1       0.056  -0.492   0.468  0.00  0.00    -0.526 OA
ATOM      8  H5  UNL d   1       0.863  -1.024   0.569  0.00  0.00     0.418 HD
ENDBRANCH   4   7
TORSDOF 1
ENDMDL
