MODEL 1
REMARK minimizedAffinity 0.638988376
REMARK minimizedRMSD -1
REMARK  1 active torsions:
REMARK  status: ('A' for Active; 'I' for Inactive)
REMARK    1  A    between atoms: C3_4  and  O_7 
ROOT
ATOM      1  C   UNL d   1       1.302  -0.323   0.905  0.00  0.00    -0.033 A 
ATOM      2  C1  UNL d   1       2.551  -0.287   0.282  0.00  0.00     0.039 A 
ATOM      3  C2  UNL d   1       2.699  -0.773  -1.019  0.00  0.00    -0.080 A 
ATOM      4  C3  UNL d   1       1.591  -1.290  -1.685  0.00  0.00     0.150 A 
ATOM      5  C4  UNL d   1       0.343  -1.324  -1.072  0.00  0.00    -0.007 A 
ATOM      6  C5  UNL d   1       0.198  -0.840   0.227  0.00  0.00     0.039 A 
ENDROOT
BRANCH   4   7
ATOM      7  O   UNL d   1       1.686  -1.779  -2.954  0.00  0.00    -0.526 OA
ATOM      8  H5  UNL d   1       2.613  -1.717  -3.239  0.00  0.00     0.418 HD
ENDBRANCH   4   7
TORSDOF 1
ENDMDL
