MODEL 1
REMARK minimizedAffinity -3.92635322
REMARK minimizedRMSD -1
REMARK  1 active torsions:
REMARK  status: ('A' for Active; 'I' for Inactive)
REMARK    1  A    between atoms: C3_4  and  O_7 
ROOT
ATOM      1  C   UNL d   1      -1.204   0.253   0.755  0.00  0.00    -0.033 A 
ATOM      2  C1  UNL d   1      -0.775  -1.007   1.174  0.00  0.00     0.039 A 
ATOM      3  C2  UNL d   1       0.588  -1.312   1.192  0.00  0.00    -0.080 A 
ATOM      4  C3  UNL d   1       1.509  -0.348   0.791  0.00  0.00     0.150 A 
ATOM      5  C4  UNL d   1       1.088   0.911   0.376  0.00  0.00    -0.007 A 
ATOM      6  C5  UNL d   1      -0.273   1.213   0.357  0.00  0.00     0.039 A 
ENDROOT
BRANCH   4   7
ATOM      7  O   UNL d   1       2.849  -0.601   0.787  0.00  0.00    -0.526 OA
ATOM      8  H5  UNL d   1       2.989  -1.520   1.070  0.00  0.00     0.418 HD
ENDBRANCH   4   7
TORSDOF 1
ENDMDL
