MODEL 1
REMARK minimizedAffinity -4.63333464
REMARK minimizedRMSD -1
REMARK  1 active torsions:
REMARK  status: ('A' for Active; 'I' for Inactive)
REMARK    1  A    between atoms: C3_4  and  O_7 
ROOT
ATOM      1  C   UNL d   1       0.332  -0.164   0.341  0.00  0.00    -0.033 A 
ATOM      2  C1  UNL d   1      -0.930   0.427   0.425  0.00  0.00     0.039 A 
ATOM      3  C2  UNL d   1      -1.068   1.807   0.267  0.00  0.00    -0.080 A 
ATOM      4  C3  UNL d   1       0.061   2.584   0.026  0.00  0.00     0.150 A 
ATOM      5  C4  UNL d   1       1.321   2.001  -0.063  0.00  0.00    -0.007 A 
ATOM      6  C5  UNL d   1       1.457   0.623   0.095  0.00  0.00     0.039 A 
ENDROOT
BRANCH   4   7
ATOM      7  O   UNL d   1      -0.023   3.935  -0.130  0.00  0.00    -0.526 OA
ATOM      8  H5  UNL d   1      -0.951   4.201  -0.015  0.00  0.00     0.418 HD
ENDBRANCH   4   7
TORSDOF 1
ENDMDL
