MODEL 1
REMARK minimizedAffinity -2.97220683
REMARK minimizedRMSD -1
REMARK  1 active torsions:
REMARK  status: ('A' for Active; 'I' for Inactive)
REMARK    1  A    between atoms: C3_4  and  O_7 
ROOT
ATOM      1  C   UNL d   1      -0.815   2.097   0.296  0.00  0.00    -0.033 A 
ATOM      2  C1  UNL d   1      -0.651   1.062   1.219  0.00  0.00     0.039 A 
ATOM      3  C2  UNL d   1      -0.210  -0.192   0.792  0.00  0.00    -0.080 A 
ATOM      4  C3  UNL d   1       0.065  -0.398  -0.557  0.00  0.00     0.150 A 
ATOM      5  C4  UNL d   1      -0.093   0.630  -1.481  0.00  0.00    -0.007 A 
ATOM      6  C5  UNL d   1      -0.535   1.881  -1.054  0.00  0.00     0.039 A 
ENDROOT
BRANCH   4   7
ATOM      7  O   UNL d   1       0.493  -1.606  -1.021  0.00  0.00    -0.526 OA
ATOM      8  H5  UNL d   1       0.528  -2.228  -0.275  0.00  0.00     0.418 HD
ENDBRANCH   4   7
TORSDOF 1
ENDMDL
