MODEL 1
REMARK minimizedAffinity -3.51001143
REMARK minimizedRMSD -1
REMARK  1 active torsions:
REMARK  status: ('A' for Active; 'I' for Inactive)
REMARK    1  A    between atoms: C3_4  and  O_7 
ROOT
ATOM      1  C   UNL d   1       0.680  -0.064  -1.886  0.00  0.00    -0.033 A 
ATOM      2  C1  UNL d   1       0.837  -0.681  -0.643  0.00  0.00     0.039 A 
ATOM      3  C2  UNL d   1       0.235  -0.133   0.491  0.00  0.00    -0.080 A 
ATOM      4  C3  UNL d   1      -0.522   1.029   0.369  0.00  0.00     0.150 A 
ATOM      5  C4  UNL d   1      -0.687   1.646  -0.867  0.00  0.00    -0.007 A 
ATOM      6  C5  UNL d   1      -0.083   1.098  -1.998  0.00  0.00     0.039 A 
ENDROOT
BRANCH   4   7
ATOM      7  O   UNL d   1      -1.126   1.603   1.448  0.00  0.00    -0.526 OA
ATOM      8  H5  UNL d   1      -0.901   1.084   2.238  0.00  0.00     0.418 HD
ENDBRANCH   4   7
TORSDOF 1
ENDMDL
