MODEL 1
REMARK minimizedAffinity -1.18797123
REMARK minimizedRMSD -1
REMARK  1 active torsions:
REMARK  status: ('A' for Active; 'I' for Inactive)
REMARK    1  A    between atoms: C3_4  and  O_7 
ROOT
ATOM      1  C   UNL d   1       0.237   1.481   0.414  0.00  0.00    -0.033 A 
ATOM      2  C1  UNL d   1      -0.011   1.427  -0.959  0.00  0.00     0.039 A 
ATOM      3  C2  UNL d   1      -0.075   0.194  -1.610  0.00  0.00    -0.080 A 
ATOM      4  C3  UNL d   1       0.111  -0.976  -0.879  0.00  0.00     0.150 A 
ATOM      5  C4  UNL d   1       0.354  -0.929   0.490  0.00  0.00    -0.007 A 
ATOM      6  C5  UNL d   1       0.418   0.303   1.139  0.00  0.00     0.039 A 
ENDROOT
BRANCH   4   7
ATOM      7  O   UNL d   1       0.063  -2.202  -1.472  0.00  0.00    -0.526 OA
ATOM      8  H5  UNL d   1      -0.084  -2.078  -2.425  0.00  0.00     0.418 HD
ENDBRANCH   4   7
TORSDOF 1
ENDMDL
