MODEL 1
REMARK minimizedAffinity -5.85274744
REMARK minimizedRMSD -1
REMARK  1 active torsions:
REMARK  status: ('A' for Active; 'I' for Inactive)
REMARK    1  A    between atoms: C3_4  and  O_7 
ROOT
ATOM      1  C   UNL d   1       0.241   0.231  -0.957  0.00  0.00    -0.033 A 
ATOM      2  C1  UNL d   1       0.489  -0.025   0.393  0.00  0.00     0.039 A 
ATOM      3  C2  UNL d   1      -0.045   0.812   1.374  0.00  0.00    -0.080 A 
ATOM      4  C3  UNL d   1      -0.826   1.900   0.993  0.00  0.00     0.150 A 
ATOM      5  C4  UNL d   1      -1.081   2.159  -0.349  0.00  0.00    -0.007 A 
ATOM      6  C5  UNL d   1      -0.546   1.322  -1.328  0.00  0.00     0.039 A 
ENDROOT
BRANCH   4   7
ATOM      7  O   UNL d   1      -1.366   2.747   1.915  0.00  0.00    -0.526 OA
ATOM      8  H5  UNL d   1      -1.082   2.461   2.799  0.00  0.00     0.418 HD
ENDBRANCH   4   7
TORSDOF 1
ENDMDL
