MODEL 1
REMARK minimizedAffinity -1.38133121
REMARK minimizedRMSD -1
REMARK  1 active torsions:
REMARK  status: ('A' for Active; 'I' for Inactive)
REMARK    1  A    between atoms: C3_4  and  O_7 
ROOT
ATOM      1  C   UNL d   1       0.689  -0.714  -1.779  0.00  0.00    -0.033 A 
ATOM      2  C1  UNL d   1       1.051  -1.510  -0.691  0.00  0.00     0.039 A 
ATOM      3  C2  UNL d   1       0.844  -1.052   0.612  0.00  0.00    -0.080 A 
ATOM      4  C3  UNL d   1       0.275   0.203   0.812  0.00  0.00     0.150 A 
ATOM      5  C4  UNL d   1      -0.091   1.000  -0.268  0.00  0.00    -0.007 A 
ATOM      6  C5  UNL d   1       0.117   0.541  -1.567  0.00  0.00     0.039 A 
ENDROOT
BRANCH   4   7
ATOM      7  O   UNL d   1       0.058   0.695   2.065  0.00  0.00    -0.526 OA
ATOM      8  H5  UNL d   1       0.387   0.048   2.711  0.00  0.00     0.418 HD
ENDBRANCH   4   7
TORSDOF 1
ENDMDL
