MODEL 1
REMARK minimizedAffinity -4.40584517
REMARK minimizedRMSD -1
REMARK  0 active torsions:
REMARK  status: ('A' for Active; 'I' for Inactive)
ROOT
ATOM      1  C1  DEN d   1      -0.206   1.010  -0.199  0.00  0.00     0.130 A 
ATOM      2  C2  DEN d   1      -0.792   0.347  -1.360  0.00  0.00    -0.031 A 
ATOM      3  C3  DEN d   1      -0.171  -0.986  -1.487  0.00  0.00     0.027 A 
ATOM      4  C4  DEN d   1       1.630  -2.085  -0.003  0.00  0.00     0.027 A 
ATOM      5  C5  DEN d   1       2.443  -1.905   1.095  0.00  0.00    -0.003 A 
ATOM      6  C6  DEN d   1       2.454  -0.738   1.812  0.00  0.00     0.001 A 
ATOM      7  C7  DEN d   1       1.604   0.279   1.467  0.00  0.00     0.017 A 
ATOM      8  C8  DEN d   1       0.787   0.108   0.357  0.00  0.00    -0.094 A 
ATOM      9  C9  DEN d   1       0.781  -1.084  -0.348  0.00  0.00    -0.072 A 
ENDROOT
TORSDOF 0
ENDMDL
