MODEL 1
REMARK minimizedAffinity -2.40933228
REMARK minimizedRMSD -1
REMARK  0 active torsions:
REMARK  status: ('A' for Active; 'I' for Inactive)
ROOT
ATOM      1  C1  DEN d   1      -1.023  -0.433  -0.635  0.00  0.00     0.130 A 
ATOM      2  C2  DEN d   1      -1.093  -1.163  -1.898  0.00  0.00    -0.031 A 
ATOM      3  C3  DEN d   1       0.137  -1.970  -2.028  0.00  0.00     0.027 A 
ATOM      4  C4  DEN d   1       2.131  -2.162  -0.404  0.00  0.00     0.027 A 
ATOM      5  C5  DEN d   1       2.649  -1.722   0.794  0.00  0.00    -0.003 A 
ATOM      6  C6  DEN d   1       2.001  -0.803   1.577  0.00  0.00     0.001 A 
ATOM      7  C7  DEN d   1       0.775  -0.328   1.192  0.00  0.00     0.017 A 
ATOM      8  C8  DEN d   1       0.250  -0.762  -0.018  0.00  0.00    -0.094 A 
ATOM      9  C9  DEN d   1       0.914  -1.700  -0.789  0.00  0.00    -0.072 A 
ENDROOT
TORSDOF 0
ENDMDL
