MODEL 1
REMARK minimizedAffinity -5.72468138
REMARK minimizedRMSD -1
REMARK  0 active torsions:
REMARK  status: ('A' for Active; 'I' for Inactive)
ROOT
ATOM      1  C1  DEN d   1       2.331  -1.645   0.879  0.00  0.00     0.130 A 
ATOM      2  C2  DEN d   1       3.066  -0.435   1.236  0.00  0.00    -0.031 A 
ATOM      3  C3  DEN d   1       2.312   0.726   0.721  0.00  0.00     0.027 A 
ATOM      4  C4  DEN d   1       0.088   0.767  -0.585  0.00  0.00     0.027 A 
ATOM      5  C5  DEN d   1      -0.906  -0.013  -1.134  0.00  0.00    -0.003 A 
ATOM      6  C6  DEN d   1      -0.874  -1.381  -1.080  0.00  0.00     0.001 A 
ATOM      7  C7  DEN d   1       0.151  -2.011  -0.425  0.00  0.00     0.017 A 
ATOM      8  C8  DEN d   1       1.161  -1.232   0.124  0.00  0.00    -0.094 A 
ATOM      9  C9  DEN d   1       1.104   0.150   0.071  0.00  0.00    -0.072 A 
ENDROOT
TORSDOF 0
ENDMDL
