MODEL 1
REMARK minimizedAffinity -6.35301352
REMARK minimizedRMSD -1
REMARK  0 active torsions:
REMARK  status: ('A' for Active; 'I' for Inactive)
ROOT
ATOM      1  C1  DEN d   1       3.365   0.516   0.191  0.00  0.00     0.130 A 
ATOM      2  C2  DEN d   1       3.831  -0.868   0.202  0.00  0.00    -0.031 A 
ATOM      3  C3  DEN d   1       2.668  -1.743  -0.047  0.00  0.00     0.027 A 
ATOM      4  C4  DEN d   1       0.205  -1.093  -0.454  0.00  0.00     0.027 A 
ATOM      5  C5  DEN d   1      -0.677  -0.040  -0.545  0.00  0.00    -0.003 A 
ATOM      6  C6  DEN d   1      -0.284   1.260  -0.365  0.00  0.00     0.001 A 
ATOM      7  C7  DEN d   1       1.035   1.543  -0.129  0.00  0.00     0.017 A 
ATOM      8  C8  DEN d   1       1.930   0.486  -0.029  0.00  0.00    -0.094 A 
ATOM      9  C9  DEN d   1       1.515  -0.820  -0.226  0.00  0.00    -0.072 A 
ENDROOT
TORSDOF 0
ENDMDL
