MODEL 1
REMARK minimizedAffinity -4.00386429
REMARK minimizedRMSD -1
REMARK  0 active torsions:
REMARK  status: ('A' for Active; 'I' for Inactive)
ROOT
ATOM      1  C1  DEN d   1       2.209   0.074   1.001  0.00  0.00     0.130 A 
ATOM      2  C2  DEN d   1       2.797  -1.250   0.813  0.00  0.00    -0.031 A 
ATOM      3  C3  DEN d   1       1.870  -2.048  -0.014  0.00  0.00     0.027 A 
ATOM      4  C4  DEN d   1      -0.404  -1.365  -1.022  0.00  0.00     0.027 A 
ATOM      5  C5  DEN d   1      -1.325  -0.347  -1.125  0.00  0.00    -0.003 A 
ATOM      6  C6  DEN d   1      -1.151   0.862  -0.504  0.00  0.00     0.001 A 
ATOM      7  C7  DEN d   1      -0.007   1.098   0.212  0.00  0.00     0.017 A 
ATOM      8  C8  DEN d   1       0.923   0.073   0.327  0.00  0.00    -0.094 A 
ATOM      9  C9  DEN d   1       0.734  -1.137  -0.318  0.00  0.00    -0.072 A 
ENDROOT
TORSDOF 0
ENDMDL
