MODEL 1
REMARK minimizedAffinity -4.5234561
REMARK minimizedRMSD -1
REMARK  2 active torsions:
REMARK  status: ('A' for Active; 'I' for Inactive)
REMARK    1  A    between atoms: C1_2  and  C2_3 
REMARK    2  A    between atoms: C2_3  and  C3_4 
ROOT
ATOM      1  C3  UNL d   1       0.272   0.075   0.077  0.00  0.00    -0.075 A 
ATOM      2  C4  UNL d   1      -0.811   0.943  -0.127  0.00  0.00     0.002 A 
ATOM      3  C5  UNL d   1      -1.194   1.842   0.869  0.00  0.00     0.002 A 
ATOM      4  C6  UNL d   1      -0.509   1.878   2.081  0.00  0.00    -0.004 A 
ATOM      5  C7  UNL d   1       0.558   1.009   2.300  0.00  0.00     0.002 A 
ATOM      6  C8  UNL d   1       0.947   0.111   1.304  0.00  0.00     0.002 A 
ENDROOT
BRANCH   1   7
ATOM      7  C2  UNL d   1       0.710  -0.880  -1.008  0.00  0.00     0.056 C 
BRANCH   7   8
ATOM      8  C1  UNL d   1      -0.164  -2.133  -1.126  0.00  0.00     0.007 C 
ATOM      9  C   UNL d   1       0.614  -3.369  -1.559  0.00  0.00     0.009 C 
ENDBRANCH   7   8
ENDBRANCH   1   7
TORSDOF 2
ENDMDL
