MODEL 1
REMARK minimizedAffinity -6.22609234
REMARK minimizedRMSD -1
REMARK  2 active torsions:
REMARK  status: ('A' for Active; 'I' for Inactive)
REMARK    1  A    between atoms: C1_2  and  C2_3 
REMARK    2  A    between atoms: C2_3  and  C3_4 
ROOT
ATOM      1  C3  UNL d   1      -0.157   0.506  -0.457  0.00  0.00    -0.075 A 
ATOM      2  C4  UNL d   1      -0.555   1.569  -1.279  0.00  0.00     0.002 A 
ATOM      3  C5  UNL d   1      -1.058   2.745  -0.723  0.00  0.00     0.002 A 
ATOM      4  C6  UNL d   1      -1.180   2.869   0.659  0.00  0.00    -0.004 A 
ATOM      5  C7  UNL d   1      -0.804   1.813   1.486  0.00  0.00     0.002 A 
ATOM      6  C8  UNL d   1      -0.295   0.636   0.932  0.00  0.00     0.002 A 
ENDROOT
BRANCH   1   7
ATOM      7  C2  UNL d   1       0.417  -0.758  -1.051  0.00  0.00     0.056 C 
BRANCH   7   8
ATOM      8  C1  UNL d   1      -0.451  -2.002  -0.829  0.00  0.00     0.007 C 
ATOM      9  C   UNL d   1       0.043  -3.223  -1.593  0.00  0.00     0.009 C 
ENDBRANCH   7   8
ENDBRANCH   1   7
TORSDOF 2
ENDMDL
