MODEL 1
REMARK minimizedAffinity -5.45057201
REMARK minimizedRMSD -1
REMARK  2 active torsions:
REMARK  status: ('A' for Active; 'I' for Inactive)
REMARK    1  A    between atoms: C1_2  and  C2_3 
REMARK    2  A    between atoms: C2_3  and  C3_4 
ROOT
ATOM      1  C3  UNL d   1       0.104  -0.234   0.228  0.00  0.00    -0.075 A 
ATOM      2  C4  UNL d   1       0.707  -0.025   1.477  0.00  0.00     0.002 A 
ATOM      3  C5  UNL d   1       0.285   1.020   2.300  0.00  0.00     0.002 A 
ATOM      4  C6  UNL d   1      -0.734   1.872   1.882  0.00  0.00    -0.004 A 
ATOM      5  C7  UNL d   1      -1.328   1.684   0.637  0.00  0.00     0.002 A 
ATOM      6  C8  UNL d   1      -0.912   0.637  -0.188  0.00  0.00     0.002 A 
ENDROOT
BRANCH   1   7
ATOM      7  C2  UNL d   1       0.536  -1.381  -0.655  0.00  0.00     0.056 C 
BRANCH   7   8
ATOM      8  C1  UNL d   1      -0.625  -2.228  -1.188  0.00  0.00     0.007 C 
ATOM      9  C   UNL d   1      -0.550  -3.687  -0.758  0.00  0.00     0.009 C 
ENDBRANCH   7   8
ENDBRANCH   1   7
TORSDOF 2
ENDMDL
