MODEL 1
REMARK minimizedAffinity -3.47560763
REMARK minimizedRMSD -1
REMARK  2 active torsions:
REMARK  status: ('A' for Active; 'I' for Inactive)
REMARK    1  A    between atoms: C1_2  and  C2_3 
REMARK    2  A    between atoms: C2_3  and  C3_4 
ROOT
ATOM      1  C3  UNL d   1       0.310   0.616   1.137  0.00  0.00    -0.075 A 
ATOM      2  C4  UNL d   1      -0.473   0.705  -0.023  0.00  0.00     0.002 A 
ATOM      3  C5  UNL d   1      -1.227   1.850  -0.283  0.00  0.00     0.002 A 
ATOM      4  C6  UNL d   1      -1.215   2.915   0.616  0.00  0.00    -0.004 A 
ATOM      5  C7  UNL d   1      -0.453   2.831   1.779  0.00  0.00     0.002 A 
ATOM      6  C8  UNL d   1       0.305   1.688   2.040  0.00  0.00     0.002 A 
ENDROOT
BRANCH   1   7
ATOM      7  C2  UNL d   1       1.151  -0.608   1.409  0.00  0.00     0.056 C 
BRANCH   7   8
ATOM      8  C1  UNL d   1       2.567  -0.295   1.904  0.00  0.00     0.007 C 
ATOM      9  C   UNL d   1       2.937  -1.044   3.177  0.00  0.00     0.009 C 
ENDBRANCH   7   8
ENDBRANCH   1   7
TORSDOF 2
ENDMDL
