MODEL 1
REMARK minimizedAffinity -6.49473238
REMARK minimizedRMSD -1
REMARK  2 active torsions:
REMARK  status: ('A' for Active; 'I' for Inactive)
REMARK    1  A    between atoms: C1_2  and  C2_3 
REMARK    2  A    between atoms: C2_3  and  C3_4 
ROOT
ATOM      1  C3  UNL d   1       0.051   0.602   0.553  0.00  0.00    -0.075 A 
ATOM      2  C4  UNL d   1      -0.257   1.574  -0.410  0.00  0.00     0.002 A 
ATOM      3  C5  UNL d   1      -0.865   2.773  -0.037  0.00  0.00     0.002 A 
ATOM      4  C6  UNL d   1      -1.182   3.011   1.298  0.00  0.00    -0.004 A 
ATOM      5  C7  UNL d   1      -0.896   2.046   2.261  0.00  0.00     0.002 A 
ATOM      6  C8  UNL d   1      -0.283   0.847   1.892  0.00  0.00     0.002 A 
ENDROOT
BRANCH   1   7
ATOM      7  C2  UNL d   1       0.735  -0.685   0.160  0.00  0.00     0.056 C 
BRANCH   7   8
ATOM      8  C1  UNL d   1       0.354  -1.194  -1.234  0.00  0.00     0.007 C 
ATOM      9  C   UNL d   1       0.415  -2.711  -1.356  0.00  0.00     0.009 C 
ENDBRANCH   7   8
ENDBRANCH   1   7
TORSDOF 2
ENDMDL
