MODEL 1
REMARK minimizedAffinity -6.12276363
REMARK minimizedRMSD -1
REMARK  2 active torsions:
REMARK  status: ('A' for Active; 'I' for Inactive)
REMARK    1  A    between atoms: C1_2  and  C2_3 
REMARK    2  A    between atoms: C2_3  and  C3_4 
ROOT
ATOM      1  C3  UNL d   1       0.049  -0.131   0.165  0.00  0.00    -0.075 A 
ATOM      2  C4  UNL d   1       0.385  -0.241   1.522  0.00  0.00     0.002 A 
ATOM      3  C5  UNL d   1      -0.059   0.710   2.442  0.00  0.00     0.002 A 
ATOM      4  C6  UNL d   1      -0.834   1.786   2.016  0.00  0.00    -0.004 A 
ATOM      5  C7  UNL d   1      -1.160   1.915   0.668  0.00  0.00     0.002 A 
ATOM      6  C8  UNL d   1      -0.721   0.963  -0.254  0.00  0.00     0.002 A 
ENDROOT
BRANCH   1   7
ATOM      7  C2  UNL d   1       0.501  -1.172  -0.830  0.00  0.00     0.056 C 
BRANCH   7   8
ATOM      8  C1  UNL d   1      -0.091  -2.565  -0.588  0.00  0.00     0.007 C 
ATOM      9  C   UNL d   1      -1.269  -2.884  -1.499  0.00  0.00     0.009 C 
ENDBRANCH   7   8
ENDBRANCH   1   7
TORSDOF 2
ENDMDL
