MODEL 1
REMARK minimizedAffinity -3.86077523
REMARK minimizedRMSD -1
REMARK  2 active torsions:
REMARK  status: ('A' for Active; 'I' for Inactive)
REMARK    1  A    between atoms: C1_2  and  C2_3 
REMARK    2  A    between atoms: C2_3  and  C3_4 
ROOT
ATOM      1  C3  UNL d   1      -0.065   0.375   0.586  0.00  0.00    -0.075 A 
ATOM      2  C4  UNL d   1      -0.818   1.493   0.974  0.00  0.00     0.002 A 
ATOM      3  C5  UNL d   1      -0.597   2.102   2.210  0.00  0.00     0.002 A 
ATOM      4  C6  UNL d   1       0.370   1.596   3.076  0.00  0.00    -0.004 A 
ATOM      5  C7  UNL d   1       1.112   0.476   2.708  0.00  0.00     0.002 A 
ATOM      6  C8  UNL d   1       0.896  -0.133   1.470  0.00  0.00     0.002 A 
ENDROOT
BRANCH   1   7
ATOM      7  C2  UNL d   1      -0.278  -0.270  -0.762  0.00  0.00     0.056 C 
BRANCH   7   8
ATOM      8  C1  UNL d   1       0.559  -1.533  -0.989  0.00  0.00     0.007 C 
ATOM      9  C   UNL d   1      -0.283  -2.763  -1.301  0.00  0.00     0.009 C 
ENDBRANCH   7   8
ENDBRANCH   1   7
TORSDOF 2
ENDMDL
