MODEL 1
REMARK minimizedAffinity 3.67955136
REMARK minimizedRMSD -1
REMARK  2 active torsions:
REMARK  status: ('A' for Active; 'I' for Inactive)
REMARK    1  A    between atoms: C1_2  and  C2_3 
REMARK    2  A    between atoms: C2_3  and  C3_4 
ROOT
ATOM      1  C3  UNL d   1      -2.078   2.509  -1.183  0.00  0.00    -0.075 A 
ATOM      2  C4  UNL d   1      -0.974   3.203  -0.668  0.00  0.00     0.002 A 
ATOM      3  C5  UNL d   1       0.236   2.545  -0.445  0.00  0.00     0.002 A 
ATOM      4  C6  UNL d   1       0.353   1.184  -0.721  0.00  0.00    -0.004 A 
ATOM      5  C7  UNL d   1      -0.742   0.481  -1.217  0.00  0.00     0.002 A 
ATOM      6  C8  UNL d   1      -1.952   1.138  -1.446  0.00  0.00     0.002 A 
ENDROOT
BRANCH   1   7
ATOM      7  C2  UNL d   1      -3.381   3.222  -1.455  0.00  0.00     0.056 C 
BRANCH   7   8
ATOM      8  C1  UNL d   1      -3.502   3.777  -2.878  0.00  0.00     0.007 C 
ATOM      9  C   UNL d   1      -4.798   4.542  -3.115  0.00  0.00     0.009 C 
ENDBRANCH   7   8
ENDBRANCH   1   7
TORSDOF 2
ENDMDL
