MODEL 1
REMARK minimizedAffinity 4.26986742
REMARK minimizedRMSD -1
REMARK  0 active torsions:
REMARK  status: ('A' for Active; 'I' for Inactive)
ROOT
ATOM      1  C   UNL d   1       4.429   5.774  -2.164  0.00  0.00     0.172 C 
ATOM      2  N   UNL d   1       4.735   5.862  -3.572  0.00  0.00    -0.070 N 
ATOM      3  C1  UNL d   1       3.817   5.901  -4.588  0.00  0.00    -0.004 A 
ATOM      4  C2  UNL d   1       4.507   5.985  -5.778  0.00  0.00    -0.047 A 
ATOM      5  C3  UNL d   1       5.887   5.996  -5.467  0.00  0.00    -0.047 A 
ATOM      6  C4  UNL d   1       6.000   5.919  -4.095  0.00  0.00    -0.004 A 
ENDROOT
TORSDOF 0
ENDMDL
