MODEL 1
REMARK minimizedAffinity 0.0960845351
REMARK minimizedRMSD -1
REMARK  0 active torsions:
REMARK  status: ('A' for Active; 'I' for Inactive)
ROOT
ATOM      1  C   UNL d   1       5.417   5.960  -2.279  0.00  0.00     0.172 C 
ATOM      2  N   UNL d   1       5.064   5.874  -3.676  0.00  0.00    -0.070 N 
ATOM      3  C1  UNL d   1       3.805   5.663  -4.170  0.00  0.00    -0.004 A 
ATOM      4  C2  UNL d   1       3.888   5.648  -5.546  0.00  0.00    -0.047 A 
ATOM      5  C3  UNL d   1       5.244   5.855  -5.890  0.00  0.00    -0.047 A 
ATOM      6  C4  UNL d   1       5.951   5.992  -4.714  0.00  0.00    -0.004 A 
ENDROOT
TORSDOF 0
ENDMDL
