MODEL 1
REMARK minimizedAffinity -2.27045989
REMARK minimizedRMSD -1
REMARK  0 active torsions:
REMARK  status: ('A' for Active; 'I' for Inactive)
ROOT
ATOM      1  C   UNL d   1       5.929   3.015  -6.000  0.00  0.00     0.172 C 
ATOM      2  N   UNL d   1       5.340   1.716  -5.777  0.00  0.00    -0.070 N 
ATOM      3  C1  UNL d   1       4.072   1.483  -5.314  0.00  0.00    -0.004 A 
ATOM      4  C2  UNL d   1       3.893   0.119  -5.240  0.00  0.00    -0.047 A 
ATOM      5  C3  UNL d   1       5.095  -0.490  -5.674  0.00  0.00    -0.047 A 
ATOM      6  C4  UNL d   1       5.973   0.522  -6.000  0.00  0.00    -0.004 A 
ENDROOT
TORSDOF 0
ENDMDL
