MODEL 1
REMARK minimizedAffinity 1.78155911
REMARK minimizedRMSD -1
REMARK  0 active torsions:
REMARK  status: ('A' for Active; 'I' for Inactive)
ROOT
ATOM      1  C   UNL d   1       1.025  -2.715   3.736  0.00  0.00     0.172 C 
ATOM      2  N   UNL d   1       1.587  -1.891   2.692  0.00  0.00    -0.070 N 
ATOM      3  C1  UNL d   1       0.966  -0.828   2.092  0.00  0.00    -0.004 A 
ATOM      4  C2  UNL d   1       1.830  -0.309   1.153  0.00  0.00    -0.047 A 
ATOM      5  C3  UNL d   1       3.012  -1.087   1.189  0.00  0.00    -0.047 A 
ATOM      6  C4  UNL d   1       2.834  -2.060   2.150  0.00  0.00    -0.004 A 
ENDROOT
TORSDOF 0
ENDMDL
