MODEL 1
REMARK minimizedAffinity 3.22363544
REMARK minimizedRMSD -1
REMARK  0 active torsions:
REMARK  status: ('A' for Active; 'I' for Inactive)
ROOT
ATOM      1  C   UNL d   1       0.430  -2.403   5.268  0.00  0.00     0.172 C 
ATOM      2  N   UNL d   1       0.836  -2.065   3.925  0.00  0.00    -0.070 N 
ATOM      3  C1  UNL d   1       0.456  -0.946   3.233  0.00  0.00    -0.004 A 
ATOM      4  C2  UNL d   1       1.056  -0.992   1.993  0.00  0.00    -0.047 A 
ATOM      5  C3  UNL d   1       1.823  -2.180   1.937  0.00  0.00    -0.047 A 
ATOM      6  C4  UNL d   1       1.669  -2.825   3.146  0.00  0.00    -0.004 A 
ENDROOT
TORSDOF 0
ENDMDL
