MODEL 1
REMARK minimizedAffinity 2.80100489
REMARK minimizedRMSD -1
REMARK  0 active torsions:
REMARK  status: ('A' for Active; 'I' for Inactive)
ROOT
ATOM      1  C   UNL d   1       0.985  -1.111   4.936  0.00  0.00     0.172 C 
ATOM      2  N   UNL d   1       1.187  -0.971   3.513  0.00  0.00    -0.070 N 
ATOM      3  C1  UNL d   1       1.404   0.208   2.850  0.00  0.00    -0.004 A 
ATOM      4  C2  UNL d   1       1.548  -0.082   1.510  0.00  0.00    -0.047 A 
ATOM      5  C3  UNL d   1       1.410  -1.482   1.363  0.00  0.00    -0.047 A 
ATOM      6  C4  UNL d   1       1.188  -2.008   2.618  0.00  0.00    -0.004 A 
ENDROOT
TORSDOF 0
ENDMDL
