MODEL 1
REMARK minimizedAffinity 0.542618573
REMARK minimizedRMSD -1
REMARK  0 active torsions:
REMARK  status: ('A' for Active; 'I' for Inactive)
ROOT
ATOM      1  C   UNL d   1      -5.300  -2.641  -4.450  0.00  0.00     0.172 C 
ATOM      2  N   UNL d   1      -4.897  -3.978  -4.819  0.00  0.00    -0.070 N 
ATOM      3  C1  UNL d   1      -4.140  -4.823  -4.052  0.00  0.00    -0.004 A 
ATOM      4  C2  UNL d   1      -3.976  -5.997  -4.755  0.00  0.00    -0.047 A 
ATOM      5  C3  UNL d   1      -4.658  -5.852  -5.987  0.00  0.00    -0.047 A 
ATOM      6  C4  UNL d   1      -5.218  -4.592  -6.000  0.00  0.00    -0.004 A 
ENDROOT
TORSDOF 0
ENDMDL
