MODEL 1
REMARK minimizedAffinity -1.96784699
REMARK minimizedRMSD -1
REMARK  0 active torsions:
REMARK  status: ('A' for Active; 'I' for Inactive)
ROOT
ATOM      1  C   UNL d   1       1.354  -2.407   5.395  0.00  0.00     0.172 C 
ATOM      2  N   UNL d   1       1.563  -1.668   4.173  0.00  0.00    -0.070 N 
ATOM      3  C1  UNL d   1       2.037  -2.186   2.997  0.00  0.00    -0.004 A 
ATOM      4  C2  UNL d   1       2.091  -1.163   2.076  0.00  0.00    -0.047 A 
ATOM      5  C3  UNL d   1       1.635   0.012   2.720  0.00  0.00    -0.047 A 
ATOM      6  C4  UNL d   1       1.315  -0.329   4.017  0.00  0.00    -0.004 A 
ENDROOT
TORSDOF 0
ENDMDL
