MODEL 1
REMARK minimizedAffinity 16.0680656
REMARK minimizedRMSD -1
REMARK  0 active torsions:
REMARK  status: ('A' for Active; 'I' for Inactive)
ROOT
ATOM      1  C   UNL d   1       1.943   0.051   0.699  0.00  0.00     0.023 A 
ATOM      2  C1  UNL d   1       1.615   1.094  -0.167  0.00  0.00     0.003 A 
ATOM      3  C2  UNL d   1       2.562   2.074  -0.472  0.00  0.00     0.048 A 
ATOM      4  C3  UNL d   1       3.836   2.003   0.091  0.00  0.00     0.023 A 
ATOM      5  C4  UNL d   1       4.168   0.961   0.958  0.00  0.00     0.048 A 
ATOM      6  C5  UNL d   1       3.218  -0.016   1.261  0.00  0.00     0.003 A 
ATOM      7  I   UNL d   1       5.247   3.460  -0.362  0.00  0.00    -0.146 I 
ENDROOT
TORSDOF 0
ENDMDL
