MODEL 1
REMARK minimizedAffinity 5.30894279
REMARK minimizedRMSD -1
REMARK  0 active torsions:
REMARK  status: ('A' for Active; 'I' for Inactive)
ROOT
ATOM      1  C   UNL d   1      -5.244   3.966   1.247  0.00  0.00     0.023 A 
ATOM      2  C1  UNL d   1      -4.922   3.265   2.408  0.00  0.00     0.003 A 
ATOM      3  C2  UNL d   1      -5.136   3.847   3.659  0.00  0.00     0.048 A 
ATOM      4  C3  UNL d   1      -5.675   5.130   3.742  0.00  0.00     0.023 A 
ATOM      5  C4  UNL d   1      -6.000   5.836   2.582  0.00  0.00     0.048 A 
ATOM      6  C5  UNL d   1      -5.782   5.250   1.333  0.00  0.00     0.003 A 
ATOM      7  I   UNL d   1      -5.996   5.998   5.603  0.00  0.00    -0.146 I 
ENDROOT
TORSDOF 0
ENDMDL
