MODEL 1
REMARK minimizedAffinity 3.60386968
REMARK minimizedRMSD -1
REMARK  0 active torsions:
REMARK  status: ('A' for Active; 'I' for Inactive)
ROOT
ATOM      1  C   UNL d   1      -4.937   5.497   1.555  0.00  0.00     0.023 A 
ATOM      2  C1  UNL d   1      -4.606   4.818   0.382  0.00  0.00     0.003 A 
ATOM      3  C2  UNL d   1      -3.279   4.466   0.128  0.00  0.00     0.048 A 
ATOM      4  C3  UNL d   1      -2.287   4.797   1.050  0.00  0.00     0.023 A 
ATOM      5  C4  UNL d   1      -2.613   5.475   2.226  0.00  0.00     0.048 A 
ATOM      6  C5  UNL d   1      -3.941   5.826   2.476  0.00  0.00     0.003 A 
ATOM      7  I   UNL d   1      -0.311   4.274   0.674  0.00  0.00    -0.146 I 
ENDROOT
TORSDOF 0
ENDMDL
