MODEL 1
REMARK minimizedAffinity -4.95900965
REMARK minimizedRMSD -1
REMARK  0 active torsions:
REMARK  status: ('A' for Active; 'I' for Inactive)
ROOT
ATOM      1  C   UNL d   1       5.256   1.993   0.194  0.00  0.00     0.023 A 
ATOM      2  C1  UNL d   1       3.880   2.144   0.016  0.00  0.00     0.003 A 
ATOM      3  C2  UNL d   1       3.029   1.050   0.185  0.00  0.00     0.048 A 
ATOM      4  C3  UNL d   1       3.560  -0.192   0.532  0.00  0.00     0.023 A 
ATOM      5  C4  UNL d   1       4.935  -0.347   0.711  0.00  0.00     0.048 A 
ATOM      6  C5  UNL d   1       5.782   0.749   0.541  0.00  0.00     0.003 A 
ATOM      7  I   UNL d   1       2.295  -1.822   0.783  0.00  0.00    -0.146 I 
ENDROOT
TORSDOF 0
ENDMDL
