MODEL 1
REMARK minimizedAffinity 2.07282639
REMARK minimizedRMSD -1
REMARK  0 active torsions:
REMARK  status: ('A' for Active; 'I' for Inactive)
ROOT
ATOM      1  C   UNL d   1       2.308   0.635  -0.722  0.00  0.00     0.023 A 
ATOM      2  C1  UNL d   1       3.499   1.049  -1.318  0.00  0.00     0.003 A 
ATOM      3  C2  UNL d   1       4.376   1.884  -0.622  0.00  0.00     0.048 A 
ATOM      4  C3  UNL d   1       4.056   2.300   0.669  0.00  0.00     0.023 A 
ATOM      5  C4  UNL d   1       2.866   1.887   1.270  0.00  0.00     0.048 A 
ATOM      6  C5  UNL d   1       1.992   1.053   0.570  0.00  0.00     0.003 A 
ATOM      7  I   UNL d   1       5.359   3.543   1.707  0.00  0.00    -0.146 I 
ENDROOT
TORSDOF 0
ENDMDL
