MODEL 1
REMARK minimizedAffinity 2.43819427
REMARK minimizedRMSD -1
REMARK  0 active torsions:
REMARK  status: ('A' for Active; 'I' for Inactive)
ROOT
ATOM      1  C   UNL d   1      -1.167  -5.872   5.161  0.00  0.00     0.023 A 
ATOM      2  C1  UNL d   1      -1.550  -5.473   3.880  0.00  0.00     0.003 A 
ATOM      3  C2  UNL d   1      -1.255  -4.185   3.431  0.00  0.00     0.048 A 
ATOM      4  C3  UNL d   1      -0.574  -3.300   4.268  0.00  0.00     0.023 A 
ATOM      5  C4  UNL d   1      -0.188  -3.695   5.549  0.00  0.00     0.048 A 
ATOM      6  C5  UNL d   1      -0.487  -4.984   5.994  0.00  0.00     0.003 A 
ATOM      7  I   UNL d   1      -0.132  -1.382   3.601  0.00  0.00    -0.146 I 
ENDROOT
TORSDOF 0
ENDMDL
