MODEL 1
REMARK minimizedAffinity 7.38248062
REMARK minimizedRMSD -1
REMARK  0 active torsions:
REMARK  status: ('A' for Active; 'I' for Inactive)
ROOT
ATOM      1  C   UNL d   1       3.280   1.619   0.537  0.00  0.00     0.023 A 
ATOM      2  C1  UNL d   1       3.465   1.752  -0.839  0.00  0.00     0.003 A 
ATOM      3  C2  UNL d   1       3.083   0.721  -1.700  0.00  0.00     0.048 A 
ATOM      4  C3  UNL d   1       2.515  -0.440  -1.178  0.00  0.00     0.023 A 
ATOM      5  C4  UNL d   1       2.327  -0.578   0.198  0.00  0.00     0.048 A 
ATOM      6  C5  UNL d   1       2.712   0.455   1.055  0.00  0.00     0.003 A 
ATOM      7  I   UNL d   1       1.945  -1.976  -2.457  0.00  0.00    -0.146 I 
ENDROOT
TORSDOF 0
ENDMDL
