MODEL 1
REMARK minimizedAffinity 9.93729687
REMARK minimizedRMSD -1
REMARK  2 active torsions:
REMARK  status: ('A' for Active; 'I' for Inactive)
REMARK    1  A    between atoms: C2'_3  and  C1'_4 
REMARK    2  A    between atoms: C1'_4  and  C1_5 
ROOT
ATOM      1  C1  I4B d   1      -3.988  -0.150   2.016  0.00  0.00    -0.075 A 
ATOM      2  C2  I4B d   1      -2.729   0.363   2.204  0.00  0.00     0.003 A 
ATOM      3  C3  I4B d   1      -2.485   1.744   2.011  0.00  0.00     0.002 A 
ATOM      4  C4  I4B d   1      -3.512   2.562   1.584  0.00  0.00    -0.004 A 
ATOM      5  C5  I4B d   1      -4.793   2.045   1.417  0.00  0.00     0.002 A 
ATOM      6  C6  I4B d   1      -5.036   0.683   1.646  0.00  0.00     0.003 A 
ENDROOT
BRANCH   1   7
ATOM      7  C1' I4B d   1      -4.203  -1.619   2.197  0.00  0.00     0.060 C 
BRANCH   7   8
ATOM      8  C2' I4B d   1      -3.142  -2.347   1.396  0.00  0.00    -0.013 C 
ATOM      9  C4' I4B d   1      -3.054  -3.796   1.799  0.00  0.00     0.013 C 
ATOM     10  C3' I4B d   1      -3.483  -2.209  -0.057  0.00  0.00     0.013 C 
ENDBRANCH   7   8
ENDBRANCH   1   7
TORSDOF 2
ENDMDL
