MODEL 1
REMARK minimizedAffinity 11.7425184
REMARK minimizedRMSD -1
REMARK  2 active torsions:
REMARK  status: ('A' for Active; 'I' for Inactive)
REMARK    1  A    between atoms: C2'_3  and  C1'_4 
REMARK    2  A    between atoms: C1'_4  and  C1_5 
ROOT
ATOM      1  C1  I4B d   1      -3.172   3.382  -2.318  0.00  0.00    -0.075 A 
ATOM      2  C2  I4B d   1      -2.610   4.555  -1.877  0.00  0.00     0.003 A 
ATOM      3  C3  I4B d   1      -1.352   4.973  -2.374  0.00  0.00     0.002 A 
ATOM      4  C4  I4B d   1      -0.672   4.169  -3.266  0.00  0.00    -0.004 A 
ATOM      5  C5  I4B d   1      -1.253   2.992  -3.729  0.00  0.00     0.002 A 
ATOM      6  C6  I4B d   1      -2.516   2.602  -3.261  0.00  0.00     0.003 A 
ENDROOT
BRANCH   1   7
ATOM      7  C1' I4B d   1      -4.486   2.954  -1.747  0.00  0.00     0.060 C 
BRANCH   7   8
ATOM      8  C2' I4B d   1      -4.433   3.159  -0.247  0.00  0.00    -0.013 C 
ATOM      9  C4' I4B d   1      -5.796   3.479   0.309  0.00  0.00     0.013 C 
ATOM     10  C3' I4B d   1      -3.876   1.910   0.371  0.00  0.00     0.013 C 
ENDBRANCH   7   8
ENDBRANCH   1   7
TORSDOF 2
ENDMDL
