MODEL 1
REMARK minimizedAffinity 8.70802212
REMARK minimizedRMSD -1
REMARK  2 active torsions:
REMARK  status: ('A' for Active; 'I' for Inactive)
REMARK    1  A    between atoms: C2'_3  and  C1'_4 
REMARK    2  A    between atoms: C1'_4  and  C1_5 
ROOT
ATOM      1  C1  I4B d   1      -0.830   4.458  -2.625  0.00  0.00    -0.075 A 
ATOM      2  C2  I4B d   1       0.381   4.092  -3.156  0.00  0.00     0.003 A 
ATOM      3  C3  I4B d   1       0.461   3.021  -4.078  0.00  0.00     0.002 A 
ATOM      4  C4  I4B d   1      -0.680   2.316  -4.402  0.00  0.00    -0.004 A 
ATOM      5  C5  I4B d   1      -1.911   2.704  -3.881  0.00  0.00     0.002 A 
ATOM      6  C6  I4B d   1      -1.989   3.789  -2.997  0.00  0.00     0.003 A 
ENDROOT
BRANCH   1   7
ATOM      7  C1' I4B d   1      -0.874   5.573  -1.628  0.00  0.00     0.060 C 
BRANCH   7   8
ATOM      8  C2' I4B d   1      -1.266   4.985  -0.288  0.00  0.00    -0.013 C 
ATOM      9  C4' I4B d   1      -0.052   4.627   0.527  0.00  0.00     0.013 C 
ATOM     10  C3' I4B d   1      -2.120   5.990   0.426  0.00  0.00     0.013 C 
ENDBRANCH   7   8
ENDBRANCH   1   7
TORSDOF 2
ENDMDL
