MODEL 1
REMARK minimizedAffinity 8.79712963
REMARK minimizedRMSD -1
REMARK  2 active torsions:
REMARK  status: ('A' for Active; 'I' for Inactive)
REMARK    1  A    between atoms: C2'_3  and  C1'_4 
REMARK    2  A    between atoms: C1'_4  and  C1_5 
ROOT
ATOM      1  C1  I4B d   1      -3.898  -0.479   1.755  0.00  0.00    -0.075 A 
ATOM      2  C2  I4B d   1      -4.912   0.341   1.327  0.00  0.00     0.003 A 
ATOM      3  C3  I4B d   1      -4.683   1.728   1.155  0.00  0.00     0.002 A 
ATOM      4  C4  I4B d   1      -3.448   2.257   1.469  0.00  0.00    -0.004 A 
ATOM      5  C5  I4B d   1      -2.414   1.421   1.881  0.00  0.00     0.002 A 
ATOM      6  C6  I4B d   1      -2.637   0.042   2.013  0.00  0.00     0.003 A 
ENDROOT
BRANCH   1   7
ATOM      7  C1' I4B d   1      -4.184  -1.933   1.958  0.00  0.00     0.060 C 
BRANCH   7   8
ATOM      8  C2' I4B d   1      -3.438  -2.708   0.891  0.00  0.00    -0.013 C 
ATOM      9  C4' I4B d   1      -1.961  -2.751   1.180  0.00  0.00     0.013 C 
ATOM     10  C3' I4B d   1      -4.019  -4.089   0.831  0.00  0.00     0.013 C 
ENDBRANCH   7   8
ENDBRANCH   1   7
TORSDOF 2
ENDMDL
