MODEL 1
REMARK minimizedAffinity 12.9618311
REMARK minimizedRMSD -1
REMARK  2 active torsions:
REMARK  status: ('A' for Active; 'I' for Inactive)
REMARK    1  A    between atoms: C2'_3  and  C1'_4 
REMARK    2  A    between atoms: C1'_4  and  C1_5 
ROOT
ATOM      1  C1  I4B d   1      -4.328   0.239   1.488  0.00  0.00    -0.075 A 
ATOM      2  C2  I4B d   1      -3.012   0.369   1.854  0.00  0.00     0.003 A 
ATOM      3  C3  I4B d   1      -2.473   1.648   2.133  0.00  0.00     0.002 A 
ATOM      4  C4  I4B d   1      -3.267   2.767   1.985  0.00  0.00    -0.004 A 
ATOM      5  C5  I4B d   1      -4.607   2.631   1.636  0.00  0.00     0.002 A 
ATOM      6  C6  I4B d   1      -5.145   1.358   1.398  0.00  0.00     0.003 A 
ENDROOT
BRANCH   1   7
ATOM      7  C1' I4B d   1      -4.856  -1.124   1.169  0.00  0.00     0.060 C 
BRANCH   7   8
ATOM      8  C2' I4B d   1      -3.961  -2.142   1.847  0.00  0.00    -0.013 C 
ATOM      9  C4' I4B d   1      -4.502  -2.530   3.197  0.00  0.00     0.013 C 
ATOM     10  C3' I4B d   1      -3.850  -3.334   0.944  0.00  0.00     0.013 C 
ENDBRANCH   7   8
ENDBRANCH   1   7
TORSDOF 2
ENDMDL
