MODEL 1
REMARK minimizedAffinity 11.1255026
REMARK minimizedRMSD -1
REMARK  2 active torsions:
REMARK  status: ('A' for Active; 'I' for Inactive)
REMARK    1  A    between atoms: C2'_3  and  C1'_4 
REMARK    2  A    between atoms: C1'_4  and  C1_5 
ROOT
ATOM      1  C1  I4B d   1       4.357  -1.453  -1.670  0.00  0.00    -0.075 A 
ATOM      2  C2  I4B d   1       3.837  -2.295  -2.621  0.00  0.00     0.003 A 
ATOM      3  C3  I4B d   1       2.480  -2.694  -2.555  0.00  0.00     0.002 A 
ATOM      4  C4  I4B d   1       1.698  -2.269  -1.501  0.00  0.00    -0.004 A 
ATOM      5  C5  I4B d   1       2.220  -1.396  -0.551  0.00  0.00     0.002 A 
ATOM      6  C6  I4B d   1       3.555  -0.975  -0.642  0.00  0.00     0.003 A 
ENDROOT
BRANCH   1   7
ATOM      7  C1' I4B d   1       5.803  -1.079  -1.752  0.00  0.00     0.060 C 
BRANCH   7   8
ATOM      8  C2' I4B d   1       5.997  -0.234  -2.995  0.00  0.00    -0.013 C 
ATOM      9  C4' I4B d   1       6.000  -1.085  -4.237  0.00  0.00     0.013 C 
ATOM     10  C3' I4B d   1       4.898   0.785  -3.038  0.00  0.00     0.013 C 
ENDBRANCH   7   8
ENDBRANCH   1   7
TORSDOF 2
ENDMDL
