MODEL 1
REMARK minimizedAffinity 1.96773279
REMARK minimizedRMSD -1
REMARK  2 active torsions:
REMARK  status: ('A' for Active; 'I' for Inactive)
REMARK    1  A    between atoms: C2'_3  and  C1'_4 
REMARK    2  A    between atoms: C1'_4  and  C1_5 
ROOT
ATOM      1  C1  I4B d   1       3.613  -1.409  -0.088  0.00  0.00    -0.075 A 
ATOM      2  C2  I4B d   1       3.191  -0.553   0.899  0.00  0.00     0.003 A 
ATOM      3  C3  I4B d   1       2.090  -0.898   1.719  0.00  0.00     0.002 A 
ATOM      4  C4  I4B d   1       1.413  -2.078   1.487  0.00  0.00    -0.004 A 
ATOM      5  C5  I4B d   1       1.856  -2.955   0.502  0.00  0.00     0.002 A 
ATOM      6  C6  I4B d   1       2.970  -2.625  -0.283  0.00  0.00     0.003 A 
ENDROOT
BRANCH   1   7
ATOM      7  C1' I4B d   1       4.758  -0.998  -0.957  0.00  0.00     0.060 C 
BRANCH   7   8
ATOM      8  C2' I4B d   1       4.200  -0.199  -2.117  0.00  0.00    -0.013 C 
ATOM      9  C4' I4B d   1       3.739   1.163  -1.669  0.00  0.00     0.013 C 
ATOM     10  C3' I4B d   1       5.271  -0.091  -3.162  0.00  0.00     0.013 C 
ENDBRANCH   7   8
ENDBRANCH   1   7
TORSDOF 2
ENDMDL
