MODEL 1
REMARK minimizedAffinity 16.6385689
REMARK minimizedRMSD -1
REMARK  2 active torsions:
REMARK  status: ('A' for Active; 'I' for Inactive)
REMARK    1  A    between atoms: C2'_3  and  C1'_4 
REMARK    2  A    between atoms: C1'_4  and  C1_5 
ROOT
ATOM      1  C1  I4B d   1       0.976   3.482  -3.934  0.00  0.00    -0.075 A 
ATOM      2  C2  I4B d   1      -0.066   4.011  -3.215  0.00  0.00     0.003 A 
ATOM      3  C3  I4B d   1      -1.142   3.187  -2.806  0.00  0.00     0.002 A 
ATOM      4  C4  I4B d   1      -1.160   1.858  -3.180  0.00  0.00    -0.004 A 
ATOM      5  C5  I4B d   1      -0.092   1.318  -3.890  0.00  0.00     0.002 A 
ATOM      6  C6  I4B d   1       0.989   2.132  -4.259  0.00  0.00     0.003 A 
ENDROOT
BRANCH   1   7
ATOM      7  C1' I4B d   1       2.079   4.389  -4.378  0.00  0.00     0.060 C 
BRANCH   7   8
ATOM      8  C2' I4B d   1       3.320   3.545  -4.590  0.00  0.00    -0.013 C 
ATOM      9  C4' I4B d   1       3.841   3.686  -5.996  0.00  0.00     0.013 C 
ATOM     10  C3' I4B d   1       4.348   3.974  -3.586  0.00  0.00     0.013 C 
ENDBRANCH   7   8
ENDBRANCH   1   7
TORSDOF 2
ENDMDL
