MODEL 1
REMARK minimizedAffinity 14.0866051
REMARK minimizedRMSD -1
REMARK  2 active torsions:
REMARK  status: ('A' for Active; 'I' for Inactive)
REMARK    1  A    between atoms: C2'_3  and  C1'_4 
REMARK    2  A    between atoms: C1'_4  and  C1_5 
ROOT
ATOM      1  C1  I4B d   1      -0.784   3.165  -2.402  0.00  0.00    -0.075 A 
ATOM      2  C2  I4B d   1       0.452   3.327  -2.975  0.00  0.00     0.003 A 
ATOM      3  C3  I4B d   1       0.801   2.596  -4.136  0.00  0.00     0.002 A 
ATOM      4  C4  I4B d   1      -0.092   1.683  -4.658  0.00  0.00    -0.004 A 
ATOM      5  C5  I4B d   1      -1.354   1.536  -4.089  0.00  0.00     0.002 A 
ATOM      6  C6  I4B d   1      -1.707   2.291  -2.961  0.00  0.00     0.003 A 
ENDROOT
BRANCH   1   7
ATOM      7  C1' I4B d   1      -1.107   3.929  -1.157  0.00  0.00     0.060 C 
BRANCH   7   8
ATOM      8  C2' I4B d   1      -1.179   2.942  -0.009  0.00  0.00    -0.013 C 
ATOM      9  C4' I4B d   1       0.193   2.634   0.531  0.00  0.00     0.013 C 
ATOM     10  C3' I4B d   1      -2.060   3.530   1.052  0.00  0.00     0.013 C 
ENDBRANCH   7   8
ENDBRANCH   1   7
TORSDOF 2
ENDMDL
