MODEL 1
REMARK minimizedAffinity -2.62312222
REMARK minimizedRMSD -1
REMARK  0 active torsions:
REMARK  status: ('A' for Active; 'I' for Inactive)
ROOT
ATOM      1  N1  IND d   1      -2.974   1.711  -0.585  0.00  0.00    -0.196 N 
ATOM      2  C2  IND d   1      -2.818   2.996  -0.145  0.00  0.00     0.054 A 
ATOM      3  C3  IND d   1      -2.642   3.015   1.195  0.00  0.00    -0.031 A 
ATOM      4  C4  IND d   1      -2.474   1.052   2.852  0.00  0.00     0.051 A 
ATOM      5  C5  IND d   1      -2.591  -0.308   2.926  0.00  0.00    -0.031 A 
ATOM      6  C6  IND d   1      -2.844  -1.080   1.811  0.00  0.00     0.015 A 
ATOM      7  C7  IND d   1      -2.979  -0.519   0.572  0.00  0.00    -0.016 A 
ATOM      8  C8  IND d   1      -2.868   0.862   0.494  0.00  0.00    -0.047 A 
ATOM      9  C9  IND d   1      -2.653   1.654   1.629  0.00  0.00    -0.096 A 
ATOM     10  HN1 IND d   1      -3.115   1.473  -1.400  0.00  0.00     0.298 HD
ENDROOT
TORSDOF 0
ENDMDL
