MODEL 1
REMARK minimizedAffinity -1.54705763
REMARK minimizedRMSD -1
REMARK  0 active torsions:
REMARK  status: ('A' for Active; 'I' for Inactive)
ROOT
ATOM      1  N1  IND d   1       4.173   0.392  -4.497  0.00  0.00    -0.196 N 
ATOM      2  C2  IND d   1       4.229   0.926  -5.754  0.00  0.00     0.054 A 
ATOM      3  C3  IND d   1       3.127   1.670  -5.999  0.00  0.00    -0.031 A 
ATOM      4  C4  IND d   1       1.155   2.234  -4.442  0.00  0.00     0.051 A 
ATOM      5  C5  IND d   1       0.641   1.948  -3.208  0.00  0.00    -0.031 A 
ATOM      6  C6  IND d   1       1.292   1.115  -2.322  0.00  0.00     0.015 A 
ATOM      7  C7  IND d   1       2.493   0.542  -2.634  0.00  0.00    -0.016 A 
ATOM      8  C8  IND d   1       3.015   0.824  -3.888  0.00  0.00    -0.047 A 
ATOM      9  C9  IND d   1       2.338   1.636  -4.808  0.00  0.00    -0.096 A 
ATOM     10  HN1 IND d   1       4.762  -0.126  -4.145  0.00  0.00     0.298 HD
ENDROOT
TORSDOF 0
ENDMDL
