MODEL 1
REMARK minimizedAffinity 1.11176312
REMARK minimizedRMSD -1
REMARK  0 active torsions:
REMARK  status: ('A' for Active; 'I' for Inactive)
ROOT
ATOM      1  N1  IND d   1      -3.328   5.920   0.968  0.00  0.00    -0.196 N 
ATOM      2  C2  IND d   1      -3.690   5.883   2.286  0.00  0.00     0.054 A 
ATOM      3  C3  IND d   1      -3.684   4.609   2.739  0.00  0.00    -0.031 A 
ATOM      4  C4  IND d   1      -3.016   2.442   1.520  0.00  0.00     0.051 A 
ATOM      5  C5  IND d   1      -2.650   1.966   0.293  0.00  0.00    -0.031 A 
ATOM      6  C6  IND d   1      -2.485   2.801  -0.794  0.00  0.00     0.015 A 
ATOM      7  C7  IND d   1      -2.670   4.150  -0.690  0.00  0.00    -0.016 A 
ATOM      8  C8  IND d   1      -3.049   4.637   0.554  0.00  0.00    -0.047 A 
ATOM      9  C9  IND d   1      -3.259   3.789   1.649  0.00  0.00    -0.096 A 
ATOM     10  HN1 IND d   1      -3.283   6.627   0.481  0.00  0.00     0.298 HD
ENDROOT
TORSDOF 0
ENDMDL
