MODEL 1
REMARK minimizedAffinity 9.77734756
REMARK minimizedRMSD -1
REMARK  0 active torsions:
REMARK  status: ('A' for Active; 'I' for Inactive)
ROOT
ATOM      1  N1  IND d   1      -5.190  -0.018   3.107  0.00  0.00    -0.196 N 
ATOM      2  C2  IND d   1      -3.947  -0.057   3.676  0.00  0.00     0.054 A 
ATOM      3  C3  IND d   1      -2.995   0.151   2.740  0.00  0.00    -0.031 A 
ATOM      4  C4  IND d   1      -3.253   0.677   0.233  0.00  0.00     0.051 A 
ATOM      5  C5  IND d   1      -4.192   0.781  -0.755  0.00  0.00    -0.031 A 
ATOM      6  C6  IND d   1      -5.539   0.623  -0.500  0.00  0.00     0.015 A 
ATOM      7  C7  IND d   1      -6.000   0.365   0.760  0.00  0.00    -0.016 A 
ATOM      8  C8  IND d   1      -5.049   0.253   1.764  0.00  0.00    -0.047 A 
ATOM      9  C9  IND d   1      -3.677   0.370   1.504  0.00  0.00    -0.096 A 
ATOM     10  HN1 IND d   1      -5.934  -0.142   3.519  0.00  0.00     0.298 HD
ENDROOT
TORSDOF 0
ENDMDL
