MODEL 1
REMARK minimizedAffinity 3.32258439
REMARK minimizedRMSD -1
REMARK  0 active torsions:
REMARK  status: ('A' for Active; 'I' for Inactive)
ROOT
ATOM      1  N1  IND d   1      -2.879   4.441  -0.105  0.00  0.00    -0.196 N 
ATOM      2  C2  IND d   1      -4.090   4.771   0.437  0.00  0.00     0.054 A 
ATOM      3  C3  IND d   1      -4.790   3.655   0.740  0.00  0.00    -0.031 A 
ATOM      4  C4  IND d   1      -4.102   1.183   0.523  0.00  0.00     0.051 A 
ATOM      5  C5  IND d   1      -3.103   0.381   0.047  0.00  0.00    -0.031 A 
ATOM      6  C6  IND d   1      -1.954   0.901  -0.513  0.00  0.00     0.015 A 
ATOM      7  C7  IND d   1      -1.756   2.250  -0.608  0.00  0.00    -0.016 A 
ATOM      8  C8  IND d   1      -2.771   3.067  -0.132  0.00  0.00    -0.047 A 
ATOM      9  C9  IND d   1      -3.957   2.545   0.399  0.00  0.00    -0.096 A 
ATOM     10  HN1 IND d   1      -2.285   4.997  -0.383  0.00  0.00     0.298 HD
ENDROOT
TORSDOF 0
ENDMDL
