MODEL 1
REMARK minimizedAffinity -1.98107362
REMARK minimizedRMSD -1
REMARK  0 active torsions:
REMARK  status: ('A' for Active; 'I' for Inactive)
ROOT
ATOM      1  N1  IND d   1      -3.055   2.994  -0.622  0.00  0.00    -0.196 N 
ATOM      2  C2  IND d   1      -2.840   4.127   0.112  0.00  0.00     0.054 A 
ATOM      3  C3  IND d   1      -2.675   3.818   1.417  0.00  0.00    -0.031 A 
ATOM      4  C4  IND d   1      -2.619   1.510   2.557  0.00  0.00     0.051 A 
ATOM      5  C5  IND d   1      -2.803   0.180   2.305  0.00  0.00    -0.031 A 
ATOM      6  C6  IND d   1      -3.084  -0.290   1.038  0.00  0.00     0.015 A 
ATOM      7  C7  IND d   1      -3.180   0.555  -0.030  0.00  0.00    -0.016 A 
ATOM      8  C8  IND d   1      -3.000   1.908   0.223  0.00  0.00    -0.047 A 
ATOM      9  C9  IND d   1      -2.757   2.395   1.514  0.00  0.00    -0.096 A 
ATOM     10  HN1 IND d   1      -3.200   2.965  -1.469  0.00  0.00     0.298 HD
ENDROOT
TORSDOF 0
ENDMDL
