MODEL 1
REMARK minimizedAffinity 4.67341232
REMARK minimizedRMSD -1
REMARK  0 active torsions:
REMARK  status: ('A' for Active; 'I' for Inactive)
ROOT
ATOM      1  N1  IND d   1      -2.349   0.689   3.280  0.00  0.00    -0.196 N 
ATOM      2  C2  IND d   1      -2.398  -0.672   3.399  0.00  0.00     0.054 A 
ATOM      3  C3  IND d   1      -2.780  -1.233   2.230  0.00  0.00    -0.031 A 
ATOM      4  C4  IND d   1      -3.277  -0.115  -0.035  0.00  0.00     0.051 A 
ATOM      5  C5  IND d   1      -3.400   1.110  -0.627  0.00  0.00    -0.031 A 
ATOM      6  C6  IND d   1      -3.172   2.281   0.066  0.00  0.00     0.015 A 
ATOM      7  C7  IND d   1      -2.799   2.270   1.380  0.00  0.00    -0.016 A 
ATOM      8  C8  IND d   1      -2.680   1.028   1.987  0.00  0.00    -0.047 A 
ATOM      9  C9  IND d   1      -2.952  -0.162   1.300  0.00  0.00    -0.096 A 
ATOM     10  HN1 IND d   1      -2.145   1.241   3.908  0.00  0.00     0.298 HD
ENDROOT
TORSDOF 0
ENDMDL
