MODEL 1
REMARK minimizedAffinity 0.565540671
REMARK minimizedRMSD -1
REMARK  0 active torsions:
REMARK  status: ('A' for Active; 'I' for Inactive)
ROOT
ATOM      1  N1  IND d   1      -2.657   1.077   3.773  0.00  0.00    -0.196 N 
ATOM      2  C2  IND d   1      -2.941  -0.130   4.348  0.00  0.00     0.054 A 
ATOM      3  C3  IND d   1      -3.297  -1.029   3.403  0.00  0.00    -0.031 A 
ATOM      4  C4  IND d   1      -3.385  -0.764   0.844  0.00  0.00     0.051 A 
ATOM      5  C5  IND d   1      -3.248   0.167  -0.148  0.00  0.00    -0.031 A 
ATOM      6  C6  IND d   1      -2.897   1.474   0.122  0.00  0.00     0.015 A 
ATOM      7  C7  IND d   1      -2.658   1.898   1.398  0.00  0.00    -0.016 A 
ATOM      8  C8  IND d   1      -2.803   0.958   2.409  0.00  0.00    -0.047 A 
ATOM      9  C9  IND d   1      -3.201  -0.359   2.145  0.00  0.00    -0.096 A 
ATOM     10  HN1 IND d   1      -2.426   1.791   4.193  0.00  0.00     0.298 HD
ENDROOT
TORSDOF 0
ENDMDL
