MODEL 1
REMARK minimizedAffinity 14.5603361
REMARK minimizedRMSD -1
REMARK  0 active torsions:
REMARK  status: ('A' for Active; 'I' for Inactive)
ROOT
ATOM      1  N1  IND d   1      -4.541  -0.849   4.904  0.00  0.00    -0.196 N 
ATOM      2  C2  IND d   1      -5.456  -1.557   4.176  0.00  0.00     0.054 A 
ATOM      3  C3  IND d   1      -5.159  -1.494   2.859  0.00  0.00    -0.031 A 
ATOM      4  C4  IND d   1      -3.162  -0.372   1.684  0.00  0.00     0.051 A 
ATOM      5  C5  IND d   1      -2.079   0.425   1.926  0.00  0.00    -0.031 A 
ATOM      6  C6  IND d   1      -1.753   0.845   3.200  0.00  0.00     0.015 A 
ATOM      7  C7  IND d   1      -2.495   0.472   4.285  0.00  0.00    -0.016 A 
ATOM      8  C8  IND d   1      -3.600  -0.332   4.042  0.00  0.00    -0.047 A 
ATOM      9  C9  IND d   1      -3.960  -0.726   2.746  0.00  0.00    -0.096 A 
ATOM     10  HN1 IND d   1      -4.551  -0.745   5.758  0.00  0.00     0.298 HD
ENDROOT
TORSDOF 0
ENDMDL
