MODEL 1
REMARK minimizedAffinity -3.92935252
REMARK minimizedRMSD -1
REMARK  0 active torsions:
REMARK  status: ('A' for Active; 'I' for Inactive)
ROOT
ATOM      1  N1  IND d   1      -3.059   1.937  -0.562  0.00  0.00    -0.196 N 
ATOM      2  C2  IND d   1      -2.908   3.186  -0.027  0.00  0.00     0.054 A 
ATOM      3  C3  IND d   1      -2.660   3.103   1.299  0.00  0.00    -0.031 A 
ATOM      4  C4  IND d   1      -2.360   1.018   2.779  0.00  0.00     0.051 A 
ATOM      5  C5  IND d   1      -2.442  -0.346   2.749  0.00  0.00    -0.031 A 
ATOM      6  C6  IND d   1      -2.738  -1.033   1.589  0.00  0.00     0.015 A 
ATOM      7  C7  IND d   1      -2.952  -0.379   0.409  0.00  0.00    -0.016 A 
ATOM      8  C8  IND d   1      -2.876   1.007   0.438  0.00  0.00    -0.047 A 
ATOM      9  C9  IND d   1      -2.618   1.711   1.621  0.00  0.00    -0.096 A 
ATOM     10  HN1 IND d   1      -3.238   1.762  -1.385  0.00  0.00     0.298 HD
ENDROOT
TORSDOF 0
ENDMDL
