MODEL 1
REMARK minimizedAffinity -1.77968788
REMARK minimizedRMSD -1
REMARK  0 active torsions:
REMARK  status: ('A' for Active; 'I' for Inactive)
ROOT
ATOM      1  N1  IND d   1      -2.516   3.341   1.487  0.00  0.00    -0.196 N 
ATOM      2  C2  IND d   1      -3.029   3.837   0.321  0.00  0.00     0.054 A 
ATOM      3  C3  IND d   1      -3.349   2.826  -0.518  0.00  0.00    -0.031 A 
ATOM      4  C4  IND d   1      -3.212   0.283  -0.144  0.00  0.00     0.051 A 
ATOM      5  C5  IND d   1      -2.775  -0.652   0.752  0.00  0.00    -0.031 A 
ATOM      6  C6  IND d   1      -2.220  -0.296   1.965  0.00  0.00     0.015 A 
ATOM      7  C7  IND d   1      -2.092   1.013   2.333  0.00  0.00    -0.016 A 
ATOM      8  C8  IND d   1      -2.529   1.965   1.423  0.00  0.00    -0.047 A 
ATOM      9  C9  IND d   1      -3.053   1.612   0.173  0.00  0.00    -0.096 A 
ATOM     10  HN1 IND d   1      -2.233   3.810   2.150  0.00  0.00     0.298 HD
ENDROOT
TORSDOF 0
ENDMDL
