MODEL 1
REMARK minimizedAffinity 7.66549397
REMARK minimizedRMSD -1
REMARK  0 active torsions:
REMARK  status: ('A' for Active; 'I' for Inactive)
ROOT
ATOM      1  N1  IND d   1      -3.087   0.407   4.285  0.00  0.00    -0.196 N 
ATOM      2  C2  IND d   1      -3.573  -0.859   4.452  0.00  0.00     0.054 A 
ATOM      3  C3  IND d   1      -3.773  -1.448   3.252  0.00  0.00    -0.031 A 
ATOM      4  C4  IND d   1      -3.274  -0.556   0.889  0.00  0.00     0.051 A 
ATOM      5  C5  IND d   1      -2.857   0.564   0.226  0.00  0.00    -0.031 A 
ATOM      6  C6  IND d   1      -2.485   1.712   0.897  0.00  0.00     0.015 A 
ATOM      7  C7  IND d   1      -2.505   1.778   2.261  0.00  0.00    -0.016 A 
ATOM      8  C8  IND d   1      -2.935   0.645   2.937  0.00  0.00    -0.047 A 
ATOM      9  C9  IND d   1      -3.355  -0.508   2.261  0.00  0.00    -0.096 A 
ATOM     10  HN1 IND d   1      -2.906   0.962   4.917  0.00  0.00     0.298 HD
ENDROOT
TORSDOF 0
ENDMDL
