MODEL 1
REMARK minimizedAffinity 2.77243328
REMARK minimizedRMSD -1
REMARK  0 active torsions:
REMARK  status: ('A' for Active; 'I' for Inactive)
ROOT
ATOM      1  N1  IND d   1       4.916   3.368   2.982  0.00  0.00    -0.196 N 
ATOM      2  C2  IND d   1       3.996   3.141   1.997  0.00  0.00     0.054 A 
ATOM      3  C3  IND d   1       3.581   1.855   2.028  0.00  0.00    -0.031 A 
ATOM      4  C4  IND d   1       4.202  -0.025   3.673  0.00  0.00     0.051 A 
ATOM      5  C5  IND d   1       5.032  -0.309   4.721  0.00  0.00    -0.031 A 
ATOM      6  C6  IND d   1       5.881   0.639   5.256  0.00  0.00     0.015 A 
ATOM      7  C7  IND d   1       5.923   1.914   4.767  0.00  0.00    -0.016 A 
ATOM      8  C8  IND d   1       5.087   2.203   3.698  0.00  0.00    -0.047 A 
ATOM      9  C9  IND d   1       4.255   1.234   3.124  0.00  0.00    -0.096 A 
ATOM     10  HN1 IND d   1       5.321   4.112   3.129  0.00  0.00     0.298 HD
ENDROOT
TORSDOF 0
ENDMDL
