MODEL 1
REMARK minimizedAffinity 1.1362828
REMARK minimizedRMSD -1
REMARK  0 active torsions:
REMARK  status: ('A' for Active; 'I' for Inactive)
ROOT
ATOM      1  N1  IND d   1      -2.593   1.402   3.571  0.00  0.00    -0.196 N 
ATOM      2  C2  IND d   1      -2.916   0.080   3.697  0.00  0.00     0.054 A 
ATOM      3  C3  IND d   1      -3.336  -0.417   2.512  0.00  0.00    -0.031 A 
ATOM      4  C4  IND d   1      -3.478   0.735   0.214  0.00  0.00     0.051 A 
ATOM      5  C5  IND d   1      -3.325   1.949  -0.394  0.00  0.00    -0.031 A 
ATOM      6  C6  IND d   1      -2.909   3.065   0.303  0.00  0.00     0.015 A 
ATOM      7  C7  IND d   1      -2.619   3.006   1.636  0.00  0.00    -0.016 A 
ATOM      8  C8  IND d   1      -2.780   1.776   2.258  0.00  0.00    -0.047 A 
ATOM      9  C9  IND d   1      -3.242   0.649   1.566  0.00  0.00    -0.096 A 
ATOM     10  HN1 IND d   1      -2.320   1.915   4.205  0.00  0.00     0.298 HD
ENDROOT
TORSDOF 0
ENDMDL
