MODEL 1
REMARK minimizedAffinity -3.95154905
REMARK minimizedRMSD -1
REMARK  0 active torsions:
REMARK  status: ('A' for Active; 'I' for Inactive)
ROOT
ATOM      1  N1  IND d   1      -2.724   3.024   1.675  0.00  0.00    -0.196 N 
ATOM      2  C2  IND d   1      -3.035   3.264   0.365  0.00  0.00     0.054 A 
ATOM      3  C3  IND d   1      -3.293   2.103  -0.277  0.00  0.00    -0.031 A 
ATOM      4  C4  IND d   1      -3.362  -0.298   0.648  0.00  0.00     0.051 A 
ATOM      5  C5  IND d   1      -3.113  -1.024   1.779  0.00  0.00    -0.031 A 
ATOM      6  C6  IND d   1      -2.716  -0.426   2.957  0.00  0.00     0.015 A 
ATOM      7  C7  IND d   1      -2.564   0.929   3.052  0.00  0.00    -0.016 A 
ATOM      8  C8  IND d   1      -2.809   1.669   1.904  0.00  0.00    -0.047 A 
ATOM      9  C9  IND d   1      -3.171   1.063   0.694  0.00  0.00    -0.096 A 
ATOM     10  HN1 IND d   1      -2.511   3.620   2.257  0.00  0.00     0.298 HD
ENDROOT
TORSDOF 0
ENDMDL
