MODEL 1
REMARK minimizedAffinity -4.0209198
REMARK minimizedRMSD -1
REMARK  0 active torsions:
REMARK  status: ('A' for Active; 'I' for Inactive)
ROOT
ATOM      1  N1  IND d   1      -2.563   2.885   1.304  0.00  0.00    -0.196 N 
ATOM      2  C2  IND d   1      -2.566   3.032  -0.056  0.00  0.00     0.054 A 
ATOM      3  C3  IND d   1      -2.520   1.823  -0.660  0.00  0.00    -0.031 A 
ATOM      4  C4  IND d   1      -2.537  -0.529   0.386  0.00  0.00     0.051 A 
ATOM      5  C5  IND d   1      -2.493  -1.173   1.591  0.00  0.00    -0.031 A 
ATOM      6  C6  IND d   1      -2.473  -0.483   2.786  0.00  0.00     0.015 A 
ATOM      7  C7  IND d   1      -2.507   0.882   2.820  0.00  0.00    -0.016 A 
ATOM      8  C8  IND d   1      -2.544   1.539   1.599  0.00  0.00    -0.047 A 
ATOM      9  C9  IND d   1      -2.522   0.846   0.382  0.00  0.00    -0.096 A 
ATOM     10  HN1 IND d   1      -2.571   3.525   1.877  0.00  0.00     0.298 HD
ENDROOT
TORSDOF 0
ENDMDL
