MODEL 1
REMARK minimizedAffinity 6.09354496
REMARK minimizedRMSD -1
REMARK  0 active torsions:
REMARK  status: ('A' for Active; 'I' for Inactive)
ROOT
ATOM      1  N1  IND d   1      -3.747   3.093   4.762  0.00  0.00    -0.196 N 
ATOM      2  C2  IND d   1      -4.502   2.929   5.890  0.00  0.00     0.054 A 
ATOM      3  C3  IND d   1      -4.910   1.645   6.000  0.00  0.00    -0.031 A 
ATOM      4  C4  IND d   1      -4.372  -0.377   4.499  0.00  0.00     0.051 A 
ATOM      5  C5  IND d   1      -3.750  -0.715   3.330  0.00  0.00    -0.031 A 
ATOM      6  C6  IND d   1      -3.080   0.217   2.564  0.00  0.00     0.015 A 
ATOM      7  C7  IND d   1      -2.997   1.526   2.947  0.00  0.00    -0.016 A 
ATOM      8  C8  IND d   1      -3.632   1.875   4.130  0.00  0.00    -0.047 A 
ATOM      9  C9  IND d   1      -4.350   0.942   4.889  0.00  0.00    -0.096 A 
ATOM     10  HN1 IND d   1      -3.402   3.833   4.493  0.00  0.00     0.298 HD
ENDROOT
TORSDOF 0
ENDMDL
