MODEL 1
REMARK minimizedAffinity -2.95613074
REMARK minimizedRMSD -1
REMARK  0 active torsions:
REMARK  status: ('A' for Active; 'I' for Inactive)
ROOT
ATOM      1  N1  IND d   1      -4.854   1.557   4.933  0.00  0.00    -0.196 N 
ATOM      2  C2  IND d   1      -4.422   2.841   4.750  0.00  0.00     0.054 A 
ATOM      3  C3  IND d   1      -3.450   2.881   3.812  0.00  0.00    -0.031 A 
ATOM      4  C4  IND d   1      -2.482   0.975   2.377  0.00  0.00     0.051 A 
ATOM      5  C5  IND d   1      -2.534  -0.380   2.210  0.00  0.00    -0.031 A 
ATOM      6  C6  IND d   1      -3.381  -1.175   2.955  0.00  0.00     0.015 A 
ATOM      7  C7  IND d   1      -4.220  -0.640   3.892  0.00  0.00    -0.016 A 
ATOM      8  C8  IND d   1      -4.165   0.735   4.069  0.00  0.00    -0.047 A 
ATOM      9  C9  IND d   1      -3.277   1.542   3.346  0.00  0.00    -0.096 A 
ATOM     10  HN1 IND d   1      -5.455   1.305   5.495  0.00  0.00     0.298 HD
ENDROOT
TORSDOF 0
ENDMDL
