MODEL 1
REMARK minimizedAffinity -1.50953126
REMARK minimizedRMSD -1
REMARK  1 active torsions:
REMARK  status: ('A' for Active; 'I' for Inactive)
REMARK    1  A    between atoms: N_2  and  C1_3 
ROOT
ATOM      1  C1  UNL d   1       0.339  -0.582   0.285  0.00  0.00     0.143 A 
ATOM      2  C2  UNL d   1       0.386   0.609   1.018  0.00  0.00    -0.057 A 
ATOM      3  C3  UNL d   1       1.065   1.734   0.534  0.00  0.00     0.033 A 
ATOM      4  C4  UNL d   1       1.737   1.677  -0.683  0.00  0.00    -0.042 A 
ATOM      5  C5  UNL d   1       1.726   0.496  -1.417  0.00  0.00     0.033 A 
ATOM      6  C6  UNL d   1       1.040  -0.621  -0.931  0.00  0.00    -0.057 A 
ENDROOT
BRANCH   1   7
ATOM      7  N   UNL d   1      -0.236  -1.764   0.757  0.00  0.00    -0.732 N 
ATOM      8  C   UNL d   1       0.027  -3.026   0.100  0.00  0.00     0.284 C 
ATOM      9  H3  UNL d   1      -0.237  -1.816   1.773  0.00  0.00     0.395 HD
ENDBRANCH   1   7
TORSDOF 1
ENDMDL
