MODEL 1
REMARK minimizedAffinity -3.17358375
REMARK minimizedRMSD -1
REMARK  1 active torsions:
REMARK  status: ('A' for Active; 'I' for Inactive)
REMARK    1  A    between atoms: N_2  and  C1_3 
ROOT
ATOM      1  C1  UNL d   1       0.550  -0.187   0.273  0.00  0.00     0.143 A 
ATOM      2  C2  UNL d   1       1.165   0.978  -0.200  0.00  0.00    -0.057 A 
ATOM      3  C3  UNL d   1       1.701   1.042  -1.492  0.00  0.00     0.033 A 
ATOM      4  C4  UNL d   1       1.658  -0.070  -2.326  0.00  0.00    -0.042 A 
ATOM      5  C5  UNL d   1       1.074  -1.246  -1.868  0.00  0.00     0.033 A 
ATOM      6  C6  UNL d   1       0.534  -1.302  -0.580  0.00  0.00    -0.057 A 
ENDROOT
BRANCH   1   7
ATOM      7  N   UNL d   1       0.086  -0.345   1.581  0.00  0.00    -0.732 N 
ATOM      8  C   UNL d   1      -1.251   0.073   1.944  0.00  0.00     0.284 C 
ATOM      9  H3  UNL d   1       0.369  -1.233   1.988  0.00  0.00     0.395 HD
ENDBRANCH   1   7
TORSDOF 1
ENDMDL
