MODEL 1
REMARK minimizedAffinity -2.55560684
REMARK minimizedRMSD -1
REMARK  1 active torsions:
REMARK  status: ('A' for Active; 'I' for Inactive)
REMARK    1  A    between atoms: N_2  and  C1_3 
ROOT
ATOM      1  C1  UNL d   1      -0.927   0.604  -0.717  0.00  0.00     0.143 A 
ATOM      2  C2  UNL d   1      -0.216  -0.484  -1.235  0.00  0.00    -0.057 A 
ATOM      3  C3  UNL d   1       1.181  -0.461  -1.328  0.00  0.00     0.033 A 
ATOM      4  C4  UNL d   1       1.892   0.666  -0.930  0.00  0.00    -0.042 A 
ATOM      5  C5  UNL d   1       1.205   1.769  -0.435  0.00  0.00     0.033 A 
ATOM      6  C6  UNL d   1      -0.190   1.738  -0.339  0.00  0.00    -0.057 A 
ENDROOT
BRANCH   1   7
ATOM      7  N   UNL d   1      -2.321   0.681  -0.690  0.00  0.00    -0.732 N 
ATOM      8  C   UNL d   1      -3.035   0.682   0.568  0.00  0.00     0.284 C 
ATOM      9  H3  UNL d   1      -2.687   1.337  -1.377  0.00  0.00     0.395 HD
ENDBRANCH   1   7
TORSDOF 1
ENDMDL
