MODEL 1
REMARK minimizedAffinity 1.12458599
REMARK minimizedRMSD -1
REMARK  1 active torsions:
REMARK  status: ('A' for Active; 'I' for Inactive)
REMARK    1  A    between atoms: N_2  and  C1_3 
ROOT
ATOM      1  C1  UNL d   1      -4.282  -1.741  -5.812  0.00  0.00     0.143 A 
ATOM      2  C2  UNL d   1      -3.076  -1.038  -5.907  0.00  0.00    -0.057 A 
ATOM      3  C3  UNL d   1      -3.054   0.360  -5.985  0.00  0.00     0.033 A 
ATOM      4  C4  UNL d   1      -4.243   1.080  -6.000  0.00  0.00    -0.042 A 
ATOM      5  C5  UNL d   1      -5.455   0.401  -5.932  0.00  0.00     0.033 A 
ATOM      6  C6  UNL d   1      -5.470  -0.994  -5.847  0.00  0.00    -0.057 A 
ENDROOT
BRANCH   1   7
ATOM      7  N   UNL d   1      -4.373  -3.135  -5.830  0.00  0.00    -0.732 N 
ATOM      8  C   UNL d   1      -3.218  -3.953  -5.533  0.00  0.00     0.284 C 
ATOM      9  H3  UNL d   1      -5.240  -3.472  -5.417  0.00  0.00     0.395 HD
ENDBRANCH   1   7
TORSDOF 1
ENDMDL
