MODEL 1
REMARK minimizedAffinity 5.56124926
REMARK minimizedRMSD -1
REMARK  1 active torsions:
REMARK  status: ('A' for Active; 'I' for Inactive)
REMARK    1  A    between atoms: N_2  and  C1_3 
ROOT
ATOM      1  C1  UNL d   1       1.197   1.179  -0.776  0.00  0.00     0.143 A 
ATOM      2  C2  UNL d   1       0.938   0.020  -0.037  0.00  0.00    -0.057 A 
ATOM      3  C3  UNL d   1       0.599  -1.183  -0.667  0.00  0.00     0.033 A 
ATOM      4  C4  UNL d   1       0.484  -1.241  -2.052  0.00  0.00    -0.042 A 
ATOM      5  C5  UNL d   1       0.713  -0.096  -2.806  0.00  0.00     0.033 A 
ATOM      6  C6  UNL d   1       1.058   1.101  -2.171  0.00  0.00    -0.057 A 
ENDROOT
BRANCH   1   7
ATOM      7  N   UNL d   1       1.442   2.429  -0.203  0.00  0.00    -0.732 N 
ATOM      8  C   UNL d   1       1.993   2.534   1.131  0.00  0.00     0.284 C 
ATOM      9  H3  UNL d   1       1.835   3.091  -0.868  0.00  0.00     0.395 HD
ENDBRANCH   1   7
TORSDOF 1
ENDMDL
