MODEL 1
REMARK minimizedAffinity 11.712431
REMARK minimizedRMSD -1
REMARK  1 active torsions:
REMARK  status: ('A' for Active; 'I' for Inactive)
REMARK    1  A    between atoms: N_2  and  C1_3 
ROOT
ATOM      1  C1  UNL d   1       1.001   0.708  -0.793  0.00  0.00     0.143 A 
ATOM      2  C2  UNL d   1       1.162   0.305  -2.123  0.00  0.00    -0.057 A 
ATOM      3  C3  UNL d   1       0.839  -0.994  -2.532  0.00  0.00     0.033 A 
ATOM      4  C4  UNL d   1       0.374  -1.925  -1.609  0.00  0.00    -0.042 A 
ATOM      5  C5  UNL d   1       0.230  -1.555  -0.277  0.00  0.00     0.033 A 
ATOM      6  C6  UNL d   1       0.549  -0.254   0.124  0.00  0.00    -0.057 A 
ENDROOT
BRANCH   1   7
ATOM      7  N   UNL d   1       1.398   1.955  -0.304  0.00  0.00    -0.732 N 
ATOM      8  C   UNL d   1       2.611   2.582  -0.783  0.00  0.00     0.284 C 
ATOM      9  H3  UNL d   1       0.616   2.595  -0.192  0.00  0.00     0.395 HD
ENDBRANCH   1   7
TORSDOF 1
ENDMDL
