MODEL 1
REMARK minimizedAffinity -0.838166535
REMARK minimizedRMSD -1
REMARK  1 active torsions:
REMARK  status: ('A' for Active; 'I' for Inactive)
REMARK    1  A    between atoms: N_2  and  C1_3 
ROOT
ATOM      1  C1  UNL d   1       0.790   0.717  -0.460  0.00  0.00     0.143 A 
ATOM      2  C2  UNL d   1       0.134  -0.377   0.115  0.00  0.00    -0.057 A 
ATOM      3  C3  UNL d   1      -0.078  -1.558  -0.607  0.00  0.00     0.033 A 
ATOM      4  C4  UNL d   1       0.340  -1.656  -1.930  0.00  0.00    -0.042 A 
ATOM      5  C5  UNL d   1       0.973  -0.573  -2.529  0.00  0.00     0.033 A 
ATOM      6  C6  UNL d   1       1.187   0.602  -1.801  0.00  0.00    -0.057 A 
ENDROOT
BRANCH   1   7
ATOM      7  N   UNL d   1       0.943   1.953   0.173  0.00  0.00    -0.732 N 
ATOM      8  C   UNL d   1       1.706   3.012  -0.452  0.00  0.00     0.284 C 
ATOM      9  H3  UNL d   1       0.086   2.267   0.623  0.00  0.00     0.395 HD
ENDBRANCH   1   7
TORSDOF 1
ENDMDL
