MODEL 1
REMARK minimizedAffinity -2.72721577
REMARK minimizedRMSD -1
REMARK  1 active torsions:
REMARK  status: ('A' for Active; 'I' for Inactive)
REMARK    1  A    between atoms: N_2  and  C1_3 
ROOT
ATOM      1  C1  UNL d   1      -3.722  -1.255  -5.914  0.00  0.00     0.143 A 
ATOM      2  C2  UNL d   1      -5.119  -1.310  -5.959  0.00  0.00    -0.057 A 
ATOM      3  C3  UNL d   1      -5.797  -2.535  -5.976  0.00  0.00     0.033 A 
ATOM      4  C4  UNL d   1      -5.087  -3.730  -5.978  0.00  0.00    -0.042 A 
ATOM      5  C5  UNL d   1      -3.697  -3.700  -5.960  0.00  0.00     0.033 A 
ATOM      6  C6  UNL d   1      -3.025  -2.473  -5.936  0.00  0.00    -0.057 A 
ENDROOT
BRANCH   1   7
ATOM      7  N   UNL d   1      -2.987  -0.069  -5.995  0.00  0.00    -0.732 N 
ATOM      8  C   UNL d   1      -3.653   1.215  -5.947  0.00  0.00     0.284 C 
ATOM      9  H3  UNL d   1      -2.124  -0.110  -5.458  0.00  0.00     0.395 HD
ENDBRANCH   1   7
TORSDOF 1
ENDMDL
