MODEL 1
REMARK minimizedAffinity -2.78292799
REMARK minimizedRMSD -1
REMARK  1 active torsions:
REMARK  status: ('A' for Active; 'I' for Inactive)
REMARK    1  A    between atoms: N_2  and  C1_3 
ROOT
ATOM      1  C1  UNL d   1      -3.669   2.300  -5.919  0.00  0.00     0.143 A 
ATOM      2  C2  UNL d   1      -3.011   3.534  -5.944  0.00  0.00    -0.057 A 
ATOM      3  C3  UNL d   1      -3.726   4.738  -5.963  0.00  0.00     0.033 A 
ATOM      4  C4  UNL d   1      -5.117   4.727  -5.986  0.00  0.00    -0.042 A 
ATOM      5  C5  UNL d   1      -5.792   3.512  -5.987  0.00  0.00     0.033 A 
ATOM      6  C6  UNL d   1      -5.072   2.313  -5.962  0.00  0.00    -0.057 A 
ENDROOT
BRANCH   1   7
ATOM      7  N   UNL d   1      -3.015   1.068  -6.000  0.00  0.00    -0.732 N 
ATOM      8  C   UNL d   1      -3.767  -0.168  -6.000  0.00  0.00     0.284 C 
ATOM      9  H3  UNL d   1      -2.239   1.083  -6.658  0.00  0.00     0.395 HD
ENDBRANCH   1   7
TORSDOF 1
ENDMDL
