MODEL 1
REMARK minimizedAffinity 4.18798685
REMARK minimizedRMSD -1
REMARK  1 active torsions:
REMARK  status: ('A' for Active; 'I' for Inactive)
REMARK    1  A    between atoms: N_2  and  C1_3 
ROOT
ATOM      1  C1  UNL d   1      -2.434   4.091  -5.285  0.00  0.00     0.143 A 
ATOM      2  C2  UNL d   1      -2.545   4.269  -3.902  0.00  0.00    -0.057 A 
ATOM      3  C3  UNL d   1      -1.774   5.223  -3.228  0.00  0.00     0.033 A 
ATOM      4  C4  UNL d   1      -0.853   6.000  -3.924  0.00  0.00    -0.042 A 
ATOM      5  C5  UNL d   1      -0.708   5.823  -5.295  0.00  0.00     0.033 A 
ATOM      6  C6  UNL d   1      -1.486   4.873  -5.964  0.00  0.00    -0.057 A 
ENDROOT
BRANCH   1   7
ATOM      7  N   UNL d   1      -3.101   3.091  -5.997  0.00  0.00    -0.732 N 
ATOM      8  C   UNL d   1      -4.547   3.028  -5.999  0.00  0.00     0.284 C 
ATOM      9  H3  UNL d   1      -2.675   2.910  -6.904  0.00  0.00     0.395 HD
ENDBRANCH   1   7
TORSDOF 1
ENDMDL
