MODEL 1
REMARK minimizedAffinity 2.89433646
REMARK minimizedRMSD -1
REMARK  1 active torsions:
REMARK  status: ('A' for Active; 'I' for Inactive)
REMARK    1  A    between atoms: N_2  and  C1_3 
ROOT
ATOM      1  C1  UNL d   1      -4.276   0.128   3.204  0.00  0.00     0.143 A 
ATOM      2  C2  UNL d   1      -3.491   0.292   4.350  0.00  0.00    -0.057 A 
ATOM      3  C3  UNL d   1      -2.740   1.456   4.555  0.00  0.00     0.033 A 
ATOM      4  C4  UNL d   1      -2.740   2.468   3.600  0.00  0.00    -0.042 A 
ATOM      5  C5  UNL d   1      -3.493   2.316   2.442  0.00  0.00     0.033 A 
ATOM      6  C6  UNL d   1      -4.246   1.154   2.246  0.00  0.00    -0.057 A 
ENDROOT
BRANCH   1   7
ATOM      7  N   UNL d   1      -4.966  -1.047   2.896  0.00  0.00    -0.732 N 
ATOM      8  C   UNL d   1      -4.317  -2.335   3.010  0.00  0.00     0.284 C 
ATOM      9  H3  UNL d   1      -5.926  -1.034   3.234  0.00  0.00     0.395 HD
ENDBRANCH   1   7
TORSDOF 1
ENDMDL
