MODEL 1
REMARK minimizedAffinity 14.5352478
REMARK minimizedRMSD -1
REMARK  1 active torsions:
REMARK  status: ('A' for Active; 'I' for Inactive)
REMARK    1  A    between atoms: N_2  and  C1_3 
ROOT
ATOM      1  C1  UNL d   1       0.999   4.978  -0.589  0.00  0.00     0.143 A 
ATOM      2  C2  UNL d   1       1.192   5.831   0.503  0.00  0.00    -0.057 A 
ATOM      3  C3  UNL d   1       1.197   5.342   1.814  0.00  0.00     0.033 A 
ATOM      4  C4  UNL d   1       0.980   3.990   2.060  0.00  0.00    -0.042 A 
ATOM      5  C5  UNL d   1       0.762   3.128   0.991  0.00  0.00     0.033 A 
ATOM      6  C6  UNL d   1       0.764   3.621  -0.317  0.00  0.00    -0.057 A 
ENDROOT
BRANCH   1   7
ATOM      7  N   UNL d   1       0.884   5.419  -1.910  0.00  0.00    -0.732 N 
ATOM      8  C   UNL d   1      -0.329   5.185  -2.663  0.00  0.00     0.284 C 
ATOM      9  H3  UNL d   1       1.287   6.343  -2.047  0.00  0.00     0.395 HD
ENDBRANCH   1   7
TORSDOF 1
ENDMDL
