MODEL 1
REMARK minimizedAffinity 7.63720942
REMARK minimizedRMSD -1
REMARK  1 active torsions:
REMARK  status: ('A' for Active; 'I' for Inactive)
REMARK    1  A    between atoms: N_2  and  C1_3 
ROOT
ATOM      1  C1  UNL d   1      -1.580   5.237  -4.426  0.00  0.00     0.143 A 
ATOM      2  C2  UNL d   1      -1.810   4.732  -5.710  0.00  0.00    -0.057 A 
ATOM      3  C3  UNL d   1      -2.899   3.893  -5.976  0.00  0.00     0.033 A 
ATOM      4  C4  UNL d   1      -3.763   3.519  -4.951  0.00  0.00    -0.042 A 
ATOM      5  C5  UNL d   1      -3.539   3.989  -3.662  0.00  0.00     0.033 A 
ATOM      6  C6  UNL d   1      -2.453   4.832  -3.405  0.00  0.00    -0.057 A 
ENDROOT
BRANCH   1   7
ATOM      7  N   UNL d   1      -0.459   5.996  -4.078  0.00  0.00    -0.732 N 
ATOM      8  C   UNL d   1       0.228   5.764  -2.826  0.00  0.00     0.284 C 
ATOM      9  H3  UNL d   1       0.160   6.158  -4.868  0.00  0.00     0.395 HD
ENDBRANCH   1   7
TORSDOF 1
ENDMDL
