MODEL 1
REMARK minimizedAffinity -1.20664561
REMARK minimizedRMSD -1
REMARK  1 active torsions:
REMARK  status: ('A' for Active; 'I' for Inactive)
REMARK    1  A    between atoms: N_2  and  C1_3 
ROOT
ATOM      1  C1  UNL d   1       0.404   0.426   1.240  0.00  0.00     0.143 A 
ATOM      2  C2  UNL d   1       0.796  -0.872   0.895  0.00  0.00    -0.057 A 
ATOM      3  C3  UNL d   1       1.666  -1.107  -0.177  0.00  0.00     0.033 A 
ATOM      4  C4  UNL d   1       2.137  -0.046  -0.943  0.00  0.00    -0.042 A 
ATOM      5  C5  UNL d   1       1.741   1.250  -0.635  0.00  0.00     0.033 A 
ATOM      6  C6  UNL d   1       0.877   1.479   0.441  0.00  0.00    -0.057 A 
ENDROOT
BRANCH   1   7
ATOM      7  N   UNL d   1      -0.535   0.717   2.232  0.00  0.00    -0.732 N 
ATOM      8  C   UNL d   1      -0.510   0.018   3.499  0.00  0.00     0.284 C 
ATOM      9  H3  UNL d   1      -0.720   1.714   2.311  0.00  0.00     0.395 HD
ENDBRANCH   1   7
TORSDOF 1
ENDMDL
