MODEL 1
REMARK minimizedAffinity 1.0745641
REMARK minimizedRMSD -1
REMARK  0 active torsions:
REMARK  status: ('A' for Active; 'I' for Inactive)
ROOT
ATOM      1  C   UNL d   1      -5.999   2.976  -5.429  0.00  0.00     0.020 A 
ATOM      2  C1  UNL d   1      -5.997   3.118  -4.042  0.00  0.00     0.020 A 
ATOM      3  C2  UNL d   1      -5.996   1.985  -3.225  0.00  0.00     0.034 A 
ATOM      4  C3  UNL d   1      -5.996   0.706  -3.794  0.00  0.00     0.017 A 
ATOM      5  C4  UNL d   1      -5.998   0.566  -5.186  0.00  0.00     0.017 A 
ATOM      6  C5  UNL d   1      -6.000   1.703  -6.000  0.00  0.00     0.034 A 
ATOM      7 Cl   UNL d   1      -5.999  -0.979  -5.962  0.00  0.00    -0.070 Cl
ATOM      8 Cl1  UNL d   1      -5.994  -0.650  -2.723  0.00  0.00    -0.070 Cl
ENDROOT
TORSDOF 0
ENDMDL
