MODEL 1
REMARK minimizedAffinity 5.68957901
REMARK minimizedRMSD -1
REMARK  0 active torsions:
REMARK  status: ('A' for Active; 'I' for Inactive)
ROOT
ATOM      1  C   UNL d   1      -0.839   4.965  -5.196  0.00  0.00     0.020 A 
ATOM      2  C1  UNL d   1       0.198   5.654  -5.824  0.00  0.00     0.020 A 
ATOM      3  C2  UNL d   1       1.516   5.469  -5.401  0.00  0.00     0.034 A 
ATOM      4  C3  UNL d   1       1.801   4.594  -4.348  0.00  0.00     0.017 A 
ATOM      5  C4  UNL d   1       0.759   3.902  -3.718  0.00  0.00     0.017 A 
ATOM      6  C5  UNL d   1      -0.558   4.091  -4.145  0.00  0.00     0.034 A 
ATOM      7 Cl   UNL d   1       1.033   2.804  -2.411  0.00  0.00    -0.070 Cl
ATOM      8 Cl1  UNL d   1       3.453   4.413  -3.877  0.00  0.00    -0.070 Cl
ENDROOT
TORSDOF 0
ENDMDL
