MODEL 1
REMARK minimizedAffinity 2.29587722
REMARK minimizedRMSD -1
REMARK  0 active torsions:
REMARK  status: ('A' for Active; 'I' for Inactive)
ROOT
ATOM      1  C   UNL d   1       1.119   3.107  -2.432  0.00  0.00     0.020 A 
ATOM      2  C1  UNL d   1       2.108   3.578  -3.295  0.00  0.00     0.020 A 
ATOM      3  C2  UNL d   1       1.761   4.373  -4.389  0.00  0.00     0.034 A 
ATOM      4  C3  UNL d   1       0.420   4.700  -4.624  0.00  0.00     0.017 A 
ATOM      5  C4  UNL d   1      -0.572   4.227  -3.758  0.00  0.00     0.017 A 
ATOM      6  C5  UNL d   1      -0.219   3.431  -2.664  0.00  0.00     0.034 A 
ATOM      7 Cl   UNL d   1      -2.248   4.588  -3.982  0.00  0.00    -0.070 Cl
ATOM      8 Cl1  UNL d   1       0.062   5.688  -5.995  0.00  0.00    -0.070 Cl
ENDROOT
TORSDOF 0
ENDMDL
