MODEL 1
REMARK minimizedAffinity 5.07048035
REMARK minimizedRMSD -1
REMARK  0 active torsions:
REMARK  status: ('A' for Active; 'I' for Inactive)
ROOT
ATOM      1  C   UNL d   1       0.664   4.911  -5.994  0.00  0.00     0.020 A 
ATOM      2  C1  UNL d   1      -0.446   5.753  -5.937  0.00  0.00     0.020 A 
ATOM      3  C2  UNL d   1      -1.157   5.891  -4.743  0.00  0.00     0.034 A 
ATOM      4  C3  UNL d   1      -0.759   5.186  -3.601  0.00  0.00     0.017 A 
ATOM      5  C4  UNL d   1       0.356   4.342  -3.659  0.00  0.00     0.017 A 
ATOM      6  C5  UNL d   1       1.064   4.207  -4.857  0.00  0.00     0.034 A 
ATOM      7 Cl   UNL d   1       0.907   3.440  -2.292  0.00  0.00    -0.070 Cl
ATOM      8 Cl1  UNL d   1      -1.684   5.405  -2.159  0.00  0.00    -0.070 Cl
ENDROOT
TORSDOF 0
ENDMDL
