MODEL 1
REMARK minimizedAffinity 6.94782877
REMARK minimizedRMSD -1
REMARK  0 active torsions:
REMARK  status: ('A' for Active; 'I' for Inactive)
ROOT
ATOM      1  C   UNL d   1       1.423  -4.887  -0.199  0.00  0.00     0.020 A 
ATOM      2  C1  UNL d   1       1.209  -4.221   1.007  0.00  0.00     0.020 A 
ATOM      3  C2  UNL d   1      -0.079  -3.811   1.359  0.00  0.00     0.034 A 
ATOM      4  C3  UNL d   1      -1.157  -4.067   0.505  0.00  0.00     0.017 A 
ATOM      5  C4  UNL d   1      -0.941  -4.736  -0.706  0.00  0.00     0.017 A 
ATOM      6  C5  UNL d   1       0.350  -5.144  -1.053  0.00  0.00     0.034 A 
ATOM      7 Cl   UNL d   1      -2.222  -5.088  -1.812  0.00  0.00    -0.070 Cl
ATOM      8 Cl1  UNL d   1      -2.723  -3.532   1.004  0.00  0.00    -0.070 Cl
ENDROOT
TORSDOF 0
ENDMDL
