MODEL 1
REMARK minimizedAffinity 4.27584505
REMARK minimizedRMSD -1
REMARK  0 active torsions:
REMARK  status: ('A' for Active; 'I' for Inactive)
ROOT
ATOM      1  C   UNL d   1      -5.998   3.031  -2.853  0.00  0.00     0.020 A 
ATOM      2  C1  UNL d   1      -5.239   4.134  -3.244  0.00  0.00     0.020 A 
ATOM      3  C2  UNL d   1      -4.481   4.829  -2.299  0.00  0.00     0.034 A 
ATOM      4  C3  UNL d   1      -4.480   4.422  -0.960  0.00  0.00     0.017 A 
ATOM      5  C4  UNL d   1      -5.242   3.315  -0.569  0.00  0.00     0.017 A 
ATOM      6  C5  UNL d   1      -5.999   2.623  -1.519  0.00  0.00     0.034 A 
ATOM      7 Cl   UNL d   1      -5.290   2.754   1.065  0.00  0.00    -0.070 Cl
ATOM      8 Cl1  UNL d   1      -3.518   5.328   0.154  0.00  0.00    -0.070 Cl
ENDROOT
TORSDOF 0
ENDMDL
