MODEL 1
REMARK minimizedAffinity 8.74272823
REMARK minimizedRMSD -1
REMARK  0 active torsions:
REMARK  status: ('A' for Active; 'I' for Inactive)
ROOT
ATOM      1  C   UNL d   1       1.047  -2.932   2.228  0.00  0.00     0.020 A 
ATOM      2  C1  UNL d   1       1.593  -2.520   3.443  0.00  0.00     0.020 A 
ATOM      3  C2  UNL d   1       0.847  -1.717   4.307  0.00  0.00     0.034 A 
ATOM      4  C3  UNL d   1      -0.450  -1.322   3.958  0.00  0.00     0.017 A 
ATOM      5  C4  UNL d   1      -0.997  -1.735   2.737  0.00  0.00     0.017 A 
ATOM      6  C5  UNL d   1      -0.245  -2.540   1.876  0.00  0.00     0.034 A 
ATOM      7 Cl   UNL d   1      -2.589  -1.288   2.237  0.00  0.00    -0.070 Cl
ATOM      8 Cl1  UNL d   1      -1.316  -0.328   5.075  0.00  0.00    -0.070 Cl
ENDROOT
TORSDOF 0
ENDMDL
