MODEL 1
REMARK minimizedAffinity 14.4407434
REMARK minimizedRMSD -1
REMARK  0 active torsions:
REMARK  status: ('A' for Active; 'I' for Inactive)
ROOT
ATOM      1  C   UNL d   1       2.957   2.336  -2.373  0.00  0.00     0.020 A 
ATOM      2  C1  UNL d   1       4.015   1.457  -2.140  0.00  0.00     0.020 A 
ATOM      3  C2  UNL d   1       4.030   0.675  -0.983  0.00  0.00     0.034 A 
ATOM      4  C3  UNL d   1       2.987   0.769  -0.055  0.00  0.00     0.017 A 
ATOM      5  C4  UNL d   1       1.926   1.651  -0.290  0.00  0.00     0.017 A 
ATOM      6  C5  UNL d   1       1.915   2.432  -1.450  0.00  0.00     0.034 A 
ATOM      7 Cl   UNL d   1       0.603   1.823   0.808  0.00  0.00    -0.070 Cl
ATOM      8 Cl1  UNL d   1       3.071  -0.228   1.353  0.00  0.00    -0.070 Cl
ENDROOT
TORSDOF 0
ENDMDL
