MODEL 1
REMARK minimizedAffinity 8.35800362
REMARK minimizedRMSD -1
REMARK  0 active torsions:
REMARK  status: ('A' for Active; 'I' for Inactive)
ROOT
ATOM      1  C   UNL d   1       0.465   5.985  -5.871  0.00  0.00     0.020 A 
ATOM      2  C1  UNL d   1      -0.469   4.957  -5.993  0.00  0.00     0.020 A 
ATOM      3  C2  UNL d   1      -0.462   3.896  -5.085  0.00  0.00     0.034 A 
ATOM      4  C3  UNL d   1       0.481   3.861  -4.051  0.00  0.00     0.017 A 
ATOM      5  C4  UNL d   1       1.417   4.894  -3.929  0.00  0.00     0.017 A 
ATOM      6  C5  UNL d   1       1.406   5.954  -4.841  0.00  0.00     0.034 A 
ATOM      7 Cl   UNL d   1       2.611   4.920  -2.679  0.00  0.00    -0.070 Cl
ATOM      8 Cl1  UNL d   1       0.431   2.519  -2.964  0.00  0.00    -0.070 Cl
ENDROOT
TORSDOF 0
ENDMDL
