MODEL 1
REMARK minimizedAffinity 7.25274181
REMARK minimizedRMSD -1
REMARK  0 active torsions:
REMARK  status: ('A' for Active; 'I' for Inactive)
ROOT
ATOM      1  C   UNL d   1      -2.398   0.547   4.447  0.00  0.00     0.020 A 
ATOM      2  C1  UNL d   1      -3.530   0.043   3.808  0.00  0.00     0.020 A 
ATOM      3  C2  UNL d   1      -3.396  -0.935   2.820  0.00  0.00     0.034 A 
ATOM      4  C3  UNL d   1      -2.128  -1.411   2.468  0.00  0.00     0.017 A 
ATOM      5  C4  UNL d   1      -0.993  -0.904   3.110  0.00  0.00     0.017 A 
ATOM      6  C5  UNL d   1      -1.132   0.075   4.098  0.00  0.00     0.034 A 
ATOM      7 Cl   UNL d   1       0.605  -1.442   2.729  0.00  0.00    -0.070 Cl
ATOM      8 Cl1  UNL d   1      -2.037  -2.622   1.238  0.00  0.00    -0.070 Cl
ENDROOT
TORSDOF 0
ENDMDL
