MODEL 1
REMARK minimizedAffinity 12.0019093
REMARK minimizedRMSD -1
REMARK  0 active torsions:
REMARK  status: ('A' for Active; 'I' for Inactive)
ROOT
ATOM      1  C   UNL d   1       1.934   2.912   1.180  0.00  0.00     0.020 A 
ATOM      2  C1  UNL d   1       1.260   1.827   0.620  0.00  0.00     0.020 A 
ATOM      3  C2  UNL d   1       1.849   0.561   0.626  0.00  0.00     0.034 A 
ATOM      4  C3  UNL d   1       3.115   0.376   1.193  0.00  0.00     0.017 A 
ATOM      5  C4  UNL d   1       3.791   1.465   1.755  0.00  0.00     0.017 A 
ATOM      6  C5  UNL d   1       3.197   2.731   1.746  0.00  0.00     0.034 A 
ATOM      7 Cl   UNL d   1       5.356   1.315   2.472  0.00  0.00    -0.070 Cl
ATOM      8 Cl1  UNL d   1       3.783  -1.218   1.165  0.00  0.00    -0.070 Cl
ENDROOT
TORSDOF 0
ENDMDL
