MODEL 1
REMARK minimizedAffinity 11.8556585
REMARK minimizedRMSD -1
REMARK  0 active torsions:
REMARK  status: ('A' for Active; 'I' for Inactive)
ROOT
ATOM      1  C   UNL d   1       3.314   1.208  -2.082  0.00  0.00     0.020 A 
ATOM      2  C1  UNL d   1       2.210   2.059  -2.060  0.00  0.00     0.020 A 
ATOM      3  C2  UNL d   1       1.348   2.058  -0.962  0.00  0.00     0.034 A 
ATOM      4  C3  UNL d   1       1.588   1.203   0.120  0.00  0.00     0.017 A 
ATOM      5  C4  UNL d   1       2.697   0.349   0.098  0.00  0.00     0.017 A 
ATOM      6  C5  UNL d   1       3.557   0.354  -1.005  0.00  0.00     0.034 A 
ATOM      7 Cl   UNL d   1       3.059  -0.734   1.395  0.00  0.00    -0.070 Cl
ATOM      8 Cl1  UNL d   1       0.481   1.254   1.446  0.00  0.00    -0.070 Cl
ENDROOT
TORSDOF 0
ENDMDL
