MODEL 1
REMARK minimizedAffinity 4.59358263
REMARK minimizedRMSD -1
REMARK  0 active torsions:
REMARK  status: ('A' for Active; 'I' for Inactive)
ROOT
ATOM      1  C   UNL d   1      -5.954  -5.607  -4.464  0.00  0.00     0.020 A 
ATOM      2  C1  UNL d   1      -5.498  -5.955  -5.734  0.00  0.00     0.020 A 
ATOM      3  C2  UNL d   1      -4.127  -5.995  -5.997  0.00  0.00     0.034 A 
ATOM      4  C3  UNL d   1      -3.207  -5.686  -4.988  0.00  0.00     0.017 A 
ATOM      5  C4  UNL d   1      -3.666  -5.337  -3.713  0.00  0.00     0.017 A 
ATOM      6  C5  UNL d   1      -5.040  -5.299  -3.455  0.00  0.00     0.034 A 
ATOM      7 Cl   UNL d   1      -2.592  -4.943  -2.417  0.00  0.00    -0.070 Cl
ATOM      8 Cl1  UNL d   1      -1.527  -5.756  -5.384  0.00  0.00    -0.070 Cl
ENDROOT
TORSDOF 0
ENDMDL
