MODEL 1
REMARK minimizedAffinity 8.89263248
REMARK minimizedRMSD -1
REMARK  0 active torsions:
REMARK  status: ('A' for Active; 'I' for Inactive)
ROOT
ATOM      1  C   UNL d   1      -5.994  -1.424  -5.355  0.00  0.00     0.020 A 
ATOM      2  C1  UNL d   1      -5.995  -0.146  -5.911  0.00  0.00     0.020 A 
ATOM      3  C2  UNL d   1      -5.997   0.977  -5.080  0.00  0.00     0.034 A 
ATOM      4  C3  UNL d   1      -5.998   0.823  -3.689  0.00  0.00     0.017 A 
ATOM      5  C4  UNL d   1      -5.996  -0.461  -3.132  0.00  0.00     0.017 A 
ATOM      6  C5  UNL d   1      -5.994  -1.582  -3.969  0.00  0.00     0.034 A 
ATOM      7 Cl   UNL d   1      -5.996  -0.731  -1.425  0.00  0.00    -0.070 Cl
ATOM      8 Cl1  UNL d   1      -6.000   2.255  -2.722  0.00  0.00    -0.070 Cl
ENDROOT
TORSDOF 0
ENDMDL
