MODEL 1
REMARK minimizedAffinity 0.208609983
REMARK minimizedRMSD -1
REMARK  0 active torsions:
REMARK  status: ('A' for Active; 'I' for Inactive)
ROOT
ATOM      1  C   UNL d   1       0.317   4.384  -4.432  0.00  0.00     0.020 A 
ATOM      2  C1  UNL d   1       1.645   4.746  -4.656  0.00  0.00     0.020 A 
ATOM      3  C2  UNL d   1       2.678   4.000  -4.084  0.00  0.00     0.034 A 
ATOM      4  C3  UNL d   1       2.384   2.888  -3.286  0.00  0.00     0.017 A 
ATOM      5  C4  UNL d   1       1.051   2.525  -3.062  0.00  0.00     0.017 A 
ATOM      6  C5  UNL d   1       0.021   3.276  -3.637  0.00  0.00     0.034 A 
ATOM      7 Cl   UNL d   1       0.611   1.166  -2.089  0.00  0.00    -0.070 Cl
ATOM      8 Cl1  UNL d   1       3.711   2.011  -2.611  0.00  0.00    -0.070 Cl
ENDROOT
TORSDOF 0
ENDMDL
