MODEL 1
REMARK minimizedAffinity 1.89478028
REMARK minimizedRMSD -1
REMARK  0 active torsions:
REMARK  status: ('A' for Active; 'I' for Inactive)
ROOT
ATOM      1  C   UNL d   1       3.569   2.372  -2.802  0.00  0.00     0.020 A 
ATOM      2  C1  UNL d   1       4.164   2.758  -4.002  0.00  0.00     0.020 A 
ATOM      3  C2  UNL d   1       3.477   3.592  -4.886  0.00  0.00     0.034 A 
ATOM      4  C3  UNL d   1       2.190   4.043  -4.572  0.00  0.00     0.017 A 
ATOM      5  C4  UNL d   1       1.593   3.655  -3.367  0.00  0.00     0.017 A 
ATOM      6  C5  UNL d   1       2.286   2.820  -2.485  0.00  0.00     0.034 A 
ATOM      7 Cl   UNL d   1       0.008   4.172  -2.910  0.00  0.00    -0.070 Cl
ATOM      8 Cl1  UNL d   1       1.399   5.072  -5.712  0.00  0.00    -0.070 Cl
ENDROOT
TORSDOF 0
ENDMDL
