MODEL 1
REMARK minimizedAffinity -0.389023453
REMARK minimizedRMSD -1
REMARK  0 active torsions:
REMARK  status: ('A' for Active; 'I' for Inactive)
ROOT
ATOM      1  C   UNL d   1       4.002   3.471  -4.583  0.00  0.00     0.020 A 
ATOM      2  C1  UNL d   1       4.515   2.439  -3.799  0.00  0.00     0.020 A 
ATOM      3  C2  UNL d   1       3.791   1.973  -2.699  0.00  0.00     0.034 A 
ATOM      4  C3  UNL d   1       2.551   2.539  -2.381  0.00  0.00     0.017 A 
ATOM      5  C4  UNL d   1       2.037   3.574  -3.169  0.00  0.00     0.017 A 
ATOM      6  C5  UNL d   1       2.766   4.037  -4.269  0.00  0.00     0.034 A 
ATOM      7 Cl   UNL d   1       0.514   4.322  -2.840  0.00  0.00    -0.070 Cl
ATOM      8 Cl1  UNL d   1       1.711   1.912  -1.007  0.00  0.00    -0.070 Cl
ENDROOT
TORSDOF 0
ENDMDL
