MODEL 1
REMARK minimizedAffinity 8.28665924
REMARK minimizedRMSD -1
REMARK  0 active torsions:
REMARK  status: ('A' for Active; 'I' for Inactive)
ROOT
ATOM      1  C   UNL d   1       1.148   1.735  -2.048  0.00  0.00     0.020 A 
ATOM      2  C1  UNL d   1       0.723   1.376  -0.770  0.00  0.00     0.020 A 
ATOM      3  C2  UNL d   1       1.630   1.367   0.291  0.00  0.00     0.034 A 
ATOM      4  C3  UNL d   1       2.968   1.717   0.076  0.00  0.00     0.017 A 
ATOM      5  C4  UNL d   1       3.394   2.077  -1.207  0.00  0.00     0.017 A 
ATOM      6  C5  UNL d   1       2.481   2.085  -2.266  0.00  0.00     0.034 A 
ATOM      7 Cl   UNL d   1       5.029   2.522  -1.550  0.00  0.00    -0.070 Cl
ATOM      8 Cl1  UNL d   1       4.036   1.684   1.435  0.00  0.00    -0.070 Cl
ENDROOT
TORSDOF 0
ENDMDL
