MODEL 1
REMARK minimizedAffinity 0.974061728
REMARK minimizedRMSD -1
REMARK  0 active torsions:
REMARK  status: ('A' for Active; 'I' for Inactive)
ROOT
ATOM      1  C   UNL d   1       1.810   1.675  -2.470  0.00  0.00     0.020 A 
ATOM      2  C1  UNL d   1       2.768   2.675  -2.307  0.00  0.00     0.020 A 
ATOM      3  C2  UNL d   1       3.125   3.098  -1.025  0.00  0.00     0.034 A 
ATOM      4  C3  UNL d   1       2.523   2.521   0.099  0.00  0.00     0.017 A 
ATOM      5  C4  UNL d   1       1.561   1.518  -0.065  0.00  0.00     0.017 A 
ATOM      6  C5  UNL d   1       1.208   1.098  -1.351  0.00  0.00     0.034 A 
ATOM      7 Cl   UNL d   1       0.775   0.759   1.274  0.00  0.00    -0.070 Cl
ATOM      8 Cl1  UNL d   1       3.012   3.093   1.655  0.00  0.00    -0.070 Cl
ENDROOT
TORSDOF 0
ENDMDL
