MODEL 1
REMARK minimizedAffinity 11.4060612
REMARK minimizedRMSD -1
REMARK  0 active torsions:
REMARK  status: ('A' for Active; 'I' for Inactive)
ROOT
ATOM      1  C   UNL d   1      -1.941   1.133   1.783  0.00  0.00     0.020 A 
ATOM      2  C1  UNL d   1      -2.199  -0.039   2.493  0.00  0.00     0.020 A 
ATOM      3  C2  UNL d   1      -1.206  -1.014   2.614  0.00  0.00     0.034 A 
ATOM      4  C3  UNL d   1       0.048  -0.819   2.025  0.00  0.00     0.017 A 
ATOM      5  C4  UNL d   1       0.306   0.358   1.314  0.00  0.00     0.017 A 
ATOM      6  C5  UNL d   1      -0.691   1.331   1.195  0.00  0.00     0.034 A 
ATOM      7 Cl   UNL d   1       1.830   0.671   0.560  0.00  0.00    -0.070 Cl
ATOM      8 Cl1  UNL d   1       1.228  -2.067   2.216  0.00  0.00    -0.070 Cl
ENDROOT
TORSDOF 0
ENDMDL
