MODEL 1
REMARK minimizedAffinity 0.260292739
REMARK minimizedRMSD -1
REMARK  0 active torsions:
REMARK  status: ('A' for Active; 'I' for Inactive)
ROOT
ATOM      1  C   UNL d   1       0.683   1.666   3.945  0.00  0.00     0.077 C 
ATOM      2  C1  UNL d   1       0.725   1.542   2.451  0.00  0.00    -0.074 A 
ATOM      3  C2  UNL d   1      -0.454   1.486   1.701  0.00  0.00    -0.005 A 
ATOM      4  C3  UNL d   1      -0.399   1.380   0.312  0.00  0.00     0.006 A 
ATOM      5  C4  UNL d   1       0.833   1.330  -0.341  0.00  0.00    -0.005 A 
ATOM      6  C5  UNL d   1       2.022   1.386   0.392  0.00  0.00    -0.074 A 
ATOM      7  C6  UNL d   1       3.355   1.344  -0.295  0.00  0.00     0.077 C 
ATOM      8  C7  UNL d   1       1.959   1.499   1.788  0.00  0.00    -0.001 A 
ENDROOT
TORSDOF 0
ENDMDL
