MODEL 1
REMARK minimizedAffinity 8.7478323
REMARK minimizedRMSD -1
REMARK  0 active torsions:
REMARK  status: ('A' for Active; 'I' for Inactive)
ROOT
ATOM      1  C   UNL d   1       3.365  -3.072  -3.249  0.00  0.00     0.077 C 
ATOM      2  C1  UNL d   1       3.111  -2.252  -2.019  0.00  0.00    -0.074 A 
ATOM      3  C2  UNL d   1       2.278  -2.724  -0.999  0.00  0.00    -0.005 A 
ATOM      4  C3  UNL d   1       2.059  -1.955   0.143  0.00  0.00     0.006 A 
ATOM      5  C4  UNL d   1       2.670  -0.707   0.278  0.00  0.00    -0.005 A 
ATOM      6  C5  UNL d   1       3.507  -0.219  -0.731  0.00  0.00    -0.074 A 
ATOM      7  C6  UNL d   1       4.179   1.115  -0.598  0.00  0.00     0.077 C 
ATOM      8  C7  UNL d   1       3.728  -1.002  -1.873  0.00  0.00    -0.001 A 
ENDROOT
TORSDOF 0
ENDMDL
