MODEL 1
REMARK minimizedAffinity 5.95696402
REMARK minimizedRMSD -1
REMARK  0 active torsions:
REMARK  status: ('A' for Active; 'I' for Inactive)
ROOT
ATOM      1  C   UNL d   1       3.391  -2.803  -3.762  0.00  0.00     0.077 C 
ATOM      2  C1  UNL d   1       3.013  -2.287  -2.406  0.00  0.00    -0.074 A 
ATOM      3  C2  UNL d   1       2.193  -3.035  -1.555  0.00  0.00    -0.005 A 
ATOM      4  C3  UNL d   1       1.858  -2.546  -0.292  0.00  0.00     0.006 A 
ATOM      5  C4  UNL d   1       2.339  -1.306   0.132  0.00  0.00    -0.005 A 
ATOM      6  C5  UNL d   1       3.160  -0.545  -0.705  0.00  0.00    -0.074 A 
ATOM      7  C6  UNL d   1       3.693   0.785  -0.261  0.00  0.00     0.077 C 
ATOM      8  C7  UNL d   1       3.498  -1.046  -1.970  0.00  0.00    -0.001 A 
ENDROOT
TORSDOF 0
ENDMDL
