MODEL 1
REMARK minimizedAffinity 9.85242081
REMARK minimizedRMSD -1
REMARK  0 active torsions:
REMARK  status: ('A' for Active; 'I' for Inactive)
ROOT
ATOM      1  C   UNL d   1       2.288  -0.009  -0.775  0.00  0.00     0.077 C 
ATOM      2  C1  UNL d   1       3.584   0.706  -0.534  0.00  0.00    -0.074 A 
ATOM      3  C2  UNL d   1       4.704   0.021  -0.052  0.00  0.00    -0.005 A 
ATOM      4  C3  UNL d   1       5.906   0.697   0.157  0.00  0.00     0.006 A 
ATOM      5  C4  UNL d   1       6.000   2.063  -0.112  0.00  0.00    -0.005 A 
ATOM      6  C5  UNL d   1       4.891   2.764  -0.595  0.00  0.00    -0.074 A 
ATOM      7  C6  UNL d   1       4.978   4.230  -0.899  0.00  0.00     0.077 C 
ATOM      8  C7  UNL d   1       3.689   2.076  -0.810  0.00  0.00    -0.001 A 
ENDROOT
TORSDOF 0
ENDMDL
