MODEL 1
REMARK minimizedAffinity 7.78046179
REMARK minimizedRMSD -1
REMARK  0 active torsions:
REMARK  status: ('A' for Active; 'I' for Inactive)
ROOT
ATOM      1  C   UNL d   1       5.998   0.895  -0.444  0.00  0.00     0.077 C 
ATOM      2  C1  UNL d   1       4.591   0.374  -0.432  0.00  0.00    -0.074 A 
ATOM      3  C2  UNL d   1       3.505   1.236  -0.615  0.00  0.00    -0.005 A 
ATOM      4  C3  UNL d   1       2.202   0.736  -0.611  0.00  0.00     0.006 A 
ATOM      5  C4  UNL d   1       1.974  -0.628  -0.425  0.00  0.00    -0.005 A 
ATOM      6  C5  UNL d   1       3.048  -1.505  -0.241  0.00  0.00    -0.074 A 
ATOM      7  C6  UNL d   1       2.820  -2.975  -0.049  0.00  0.00     0.077 C 
ATOM      8  C7  UNL d   1       4.354  -0.996  -0.253  0.00  0.00    -0.001 A 
ENDROOT
TORSDOF 0
ENDMDL
