MODEL 1
REMARK minimizedAffinity 8.48675251
REMARK minimizedRMSD -1
REMARK  0 active torsions:
REMARK  status: ('A' for Active; 'I' for Inactive)
ROOT
ATOM      1  C   UNL d   1      -5.453   4.896  -3.486  0.00  0.00     0.077 C 
ATOM      2  C1  UNL d   1      -5.649   3.451  -3.139  0.00  0.00    -0.074 A 
ATOM      3  C2  UNL d   1      -5.735   2.477  -4.140  0.00  0.00    -0.005 A 
ATOM      4  C3  UNL d   1      -5.909   1.135  -3.801  0.00  0.00     0.006 A 
ATOM      5  C4  UNL d   1      -5.998   0.753  -2.462  0.00  0.00    -0.005 A 
ATOM      6  C5  UNL d   1      -5.912   1.713  -1.448  0.00  0.00    -0.074 A 
ATOM      7  C6  UNL d   1      -5.996   1.319  -0.004  0.00  0.00     0.077 C 
ATOM      8  C7  UNL d   1      -5.731   3.058  -1.796  0.00  0.00    -0.001 A 
ENDROOT
TORSDOF 0
ENDMDL
