MODEL 1
REMARK minimizedAffinity 6.72285557
REMARK minimizedRMSD -1
REMARK  0 active torsions:
REMARK  status: ('A' for Active; 'I' for Inactive)
ROOT
ATOM      1  C   UNL d   1       4.406   1.505  -1.175  0.00  0.00     0.077 C 
ATOM      2  C1  UNL d   1       3.826   0.152  -1.459  0.00  0.00    -0.074 A 
ATOM      3  C2  UNL d   1       4.155  -0.540  -2.630  0.00  0.00    -0.005 A 
ATOM      4  C3  UNL d   1       3.615  -1.802  -2.876  0.00  0.00     0.006 A 
ATOM      5  C4  UNL d   1       2.743  -2.385  -1.955  0.00  0.00    -0.005 A 
ATOM      6  C5  UNL d   1       2.404  -1.709  -0.779  0.00  0.00    -0.074 A 
ATOM      7  C6  UNL d   1       1.476  -2.326   0.225  0.00  0.00     0.077 C 
ATOM      8  C7  UNL d   1       2.956  -0.444  -0.536  0.00  0.00    -0.001 A 
ENDROOT
TORSDOF 0
ENDMDL
