MODEL 1
REMARK minimizedAffinity -3.63462067
REMARK minimizedRMSD -1
REMARK  0 active torsions:
REMARK  status: ('A' for Active; 'I' for Inactive)
ROOT
ATOM      1  C1  DEN d   1      -0.237  -0.336  -0.146  0.00  0.00     0.130 A 
ATOM      2  C2  DEN d   1       1.102  -0.876  -0.366  0.00  0.00    -0.031 A 
ATOM      3  C3  DEN d   1       1.941  -0.499   0.789  0.00  0.00     0.027 A 
ATOM      4  C4  DEN d   1       1.300   0.857   2.888  0.00  0.00     0.027 A 
ATOM      5  C5  DEN d   1       0.280   1.536   3.516  0.00  0.00    -0.003 A 
ATOM      6  C6  DEN d   1      -0.963   1.668   2.957  0.00  0.00     0.001 A 
ATOM      7  C7  DEN d   1      -1.233   1.073   1.753  0.00  0.00     0.017 A 
ATOM      8  C8  DEN d   1      -0.208   0.392   1.110  0.00  0.00    -0.094 A 
ATOM      9  C9  DEN d   1       1.039   0.260   1.697  0.00  0.00    -0.072 A 
ENDROOT
TORSDOF 0
ENDMDL
