MODEL 1
REMARK minimizedAffinity 0.56769681
REMARK minimizedRMSD -1
REMARK  0 active torsions:
REMARK  status: ('A' for Active; 'I' for Inactive)
ROOT
ATOM      1  C1  DEN d   1      -0.437   0.001  -5.999  0.00  0.00     0.130 A 
ATOM      2  C2  DEN d   1      -1.381  -0.965  -5.444  0.00  0.00    -0.031 A 
ATOM      3  C3  DEN d   1      -1.097  -1.103  -4.001  0.00  0.00     0.027 A 
ATOM      4  C4  DEN d   1       0.702   0.082  -2.581  0.00  0.00     0.027 A 
ATOM      5  C5  DEN d   1       1.746   0.979  -2.613  0.00  0.00    -0.003 A 
ATOM      6  C6  DEN d   1       2.154   1.583  -3.773  0.00  0.00     0.001 A 
ATOM      7  C7  DEN d   1       1.485   1.331  -4.941  0.00  0.00     0.017 A 
ATOM      8  C8  DEN d   1       0.436   0.421  -4.918  0.00  0.00    -0.094 A 
ATOM      9  C9  DEN d   1       0.031  -0.169  -3.734  0.00  0.00    -0.072 A 
ENDROOT
TORSDOF 0
ENDMDL
