MODEL 1
REMARK minimizedAffinity -0.774035096
REMARK minimizedRMSD -1
REMARK  0 active torsions:
REMARK  status: ('A' for Active; 'I' for Inactive)
ROOT
ATOM      1  C1  DEN d   1       1.690   0.201  -1.553  0.00  0.00     0.130 A 
ATOM      2  C2  DEN d   1       0.856  -0.782  -0.867  0.00  0.00    -0.031 A 
ATOM      3  C3  DEN d   1      -0.119  -1.312  -1.840  0.00  0.00     0.027 A 
ATOM      4  C4  DEN d   1      -0.415  -0.713  -4.331  0.00  0.00     0.027 A 
ATOM      5  C5  DEN d   1       0.052   0.077  -5.359  0.00  0.00    -0.003 A 
ATOM      6  C6  DEN d   1       1.066   0.980  -5.183  0.00  0.00     0.001 A 
ATOM      7  C7  DEN d   1       1.678   1.084  -3.962  0.00  0.00     0.017 A 
ATOM      8  C8  DEN d   1       1.208   0.296  -2.919  0.00  0.00    -0.094 A 
ATOM      9  C9  DEN d   1       0.190  -0.620  -3.120  0.00  0.00    -0.072 A 
ENDROOT
TORSDOF 0
ENDMDL
