MODEL 1
REMARK minimizedAffinity 0.964236319
REMARK minimizedRMSD -1
REMARK  0 active torsions:
REMARK  status: ('A' for Active; 'I' for Inactive)
ROOT
ATOM      1  C1  DEN d   1       1.297   0.620   2.800  0.00  0.00     0.130 A 
ATOM      2  C2  DEN d   1       2.362  -0.139   2.149  0.00  0.00    -0.031 A 
ATOM      3  C3  DEN d   1       1.844  -0.636   0.859  0.00  0.00     0.027 A 
ATOM      4  C4  DEN d   1      -0.488  -0.304  -0.191  0.00  0.00     0.027 A 
ATOM      5  C5  DEN d   1      -1.732   0.258  -0.006  0.00  0.00    -0.003 A 
ATOM      6  C6  DEN d   1      -2.062   0.945   1.132  0.00  0.00     0.001 A 
ATOM      7  C7  DEN d   1      -1.122   1.127   2.111  0.00  0.00     0.017 A 
ATOM      8  C8  DEN d   1       0.133   0.557   1.936  0.00  0.00    -0.094 A 
ATOM      9  C9  DEN d   1       0.450  -0.124   0.773  0.00  0.00    -0.072 A 
ENDROOT
TORSDOF 0
ENDMDL
