MODEL 1
REMARK minimizedAffinity -1.51836526
REMARK minimizedRMSD -1
REMARK  0 active torsions:
REMARK  status: ('A' for Active; 'I' for Inactive)
ROOT
ATOM      1  C1  DEN d   1       0.576   1.232   2.739  0.00  0.00     0.130 A 
ATOM      2  C2  DEN d   1      -0.749   1.803   2.514  0.00  0.00    -0.031 A 
ATOM      3  C3  DEN d   1      -1.241   1.314   1.210  0.00  0.00     0.027 A 
ATOM      4  C4  DEN d   1      -0.087  -0.267  -0.470  0.00  0.00     0.027 A 
ATOM      5  C5  DEN d   1       1.052  -0.999  -0.722  0.00  0.00    -0.003 A 
ATOM      6  C6  DEN d   1       2.117  -1.013   0.139  0.00  0.00     0.001 A 
ATOM      7  C7  DEN d   1       2.047  -0.315   1.315  0.00  0.00     0.017 A 
ATOM      8  C8  DEN d   1       0.905   0.432   1.573  0.00  0.00    -0.094 A 
ATOM      9  C9  DEN d   1      -0.166   0.423   0.696  0.00  0.00    -0.072 A 
ENDROOT
TORSDOF 0
ENDMDL
