MODEL 1
REMARK minimizedAffinity -1.75817192
REMARK minimizedRMSD -1
REMARK  0 active torsions:
REMARK  status: ('A' for Active; 'I' for Inactive)
ROOT
ATOM      1  C1  DEN d   1       1.647   0.900   0.742  0.00  0.00     0.130 A 
ATOM      2  C2  DEN d   1       1.463   0.007  -0.399  0.00  0.00    -0.031 A 
ATOM      3  C3  DEN d   1       0.098  -0.551  -0.326  0.00  0.00     0.027 A 
ATOM      4  C4  DEN d   1      -1.740  -0.119   1.431  0.00  0.00     0.027 A 
ATOM      5  C5  DEN d   1      -2.047   0.555   2.592  0.00  0.00    -0.003 A 
ATOM      6  C6  DEN d   1      -1.140   1.357   3.232  0.00  0.00     0.001 A 
ATOM      7  C7  DEN d   1       0.104   1.542   2.689  0.00  0.00     0.017 A 
ATOM      8  C8  DEN d   1       0.423   0.861   1.522  0.00  0.00    -0.094 A 
ATOM      9  C9  DEN d   1      -0.512   0.064   0.884  0.00  0.00    -0.072 A 
ENDROOT
TORSDOF 0
ENDMDL
