MODEL 1
REMARK minimizedAffinity 0.179250047
REMARK minimizedRMSD -1
REMARK  0 active torsions:
REMARK  status: ('A' for Active; 'I' for Inactive)
ROOT
ATOM      1  C1  DEN d   1       0.927  -0.052  -3.112  0.00  0.00     0.130 A 
ATOM      2  C2  DEN d   1       0.380   1.288  -3.299  0.00  0.00    -0.031 A 
ATOM      3  C3  DEN d   1       1.462   2.158  -3.800  0.00  0.00     0.027 A 
ATOM      4  C4  DEN d   1       3.919   1.561  -4.309  0.00  0.00     0.027 A 
ATOM      5  C5  DEN d   1       4.855   0.550  -4.295  0.00  0.00    -0.003 A 
ATOM      6  C6  DEN d   1       4.558  -0.713  -3.858  0.00  0.00     0.001 A 
ATOM      7  C7  DEN d   1       3.282  -1.011  -3.458  0.00  0.00     0.017 A 
ATOM      8  C8  DEN d   1       2.335   0.005  -3.462  0.00  0.00    -0.094 A 
ATOM      9  C9  DEN d   1       2.652   1.273  -3.920  0.00  0.00    -0.072 A 
ENDROOT
TORSDOF 0
ENDMDL
