MODEL 1
REMARK minimizedAffinity -3.90553546
REMARK minimizedRMSD -1
REMARK  0 active torsions:
REMARK  status: ('A' for Active; 'I' for Inactive)
ROOT
ATOM      1  C1  DEN d   1      -1.558  -1.231  -0.113  0.00  0.00     0.130 A 
ATOM      2  C2  DEN d   1      -0.717  -1.104  -1.300  0.00  0.00    -0.031 A 
ATOM      3  C3  DEN d   1       0.311  -0.081  -1.023  0.00  0.00     0.027 A 
ATOM      4  C4  DEN d   1       0.684   1.307   1.119  0.00  0.00     0.027 A 
ATOM      5  C5  DEN d   1       0.216   1.558   2.390  0.00  0.00    -0.003 A 
ATOM      6  C6  DEN d   1      -0.888   0.926   2.899  0.00  0.00     0.001 A 
ATOM      7  C7  DEN d   1      -1.534  -0.021   2.150  0.00  0.00     0.017 A 
ATOM      8  C8  DEN d   1      -1.072  -0.274   0.865  0.00  0.00    -0.094 A 
ATOM      9  C9  DEN d   1       0.053   0.366   0.372  0.00  0.00    -0.072 A 
ENDROOT
TORSDOF 0
ENDMDL
