MODEL 1
REMARK minimizedAffinity 7.88656569
REMARK minimizedRMSD -1
REMARK  0 active torsions:
REMARK  status: ('A' for Active; 'I' for Inactive)
ROOT
ATOM      1  C   UNL d   1       5.244  -5.998   3.316  0.00  0.00     0.077 C 
ATOM      2  C1  UNL d   1       4.726  -5.448   2.021  0.00  0.00    -0.074 A 
ATOM      3  C2  UNL d   1       5.121  -5.998   0.797  0.00  0.00    -0.005 A 
ATOM      4  C3  UNL d   1       4.623  -5.483  -0.399  0.00  0.00     0.006 A 
ATOM      5  C4  UNL d   1       3.727  -4.414  -0.385  0.00  0.00    -0.005 A 
ATOM      6  C5  UNL d   1       3.320  -3.851   0.829  0.00  0.00    -0.074 A 
ATOM      7  C6  UNL d   1       2.349  -2.708   0.863  0.00  0.00     0.077 C 
ATOM      8  C7  UNL d   1       3.819  -4.379   2.028  0.00  0.00    -0.001 A 
ENDROOT
TORSDOF 0
ENDMDL
