MODEL 1
REMARK minimizedAffinity -2.37724233
REMARK minimizedRMSD -1
REMARK  0 active torsions:
REMARK  status: ('A' for Active; 'I' for Inactive)
ROOT
ATOM      1  C   UNL d   1       2.637   1.734  -5.973  0.00  0.00     0.077 C 
ATOM      2  C1  UNL d   1       2.918   3.207  -5.989  0.00  0.00    -0.074 A 
ATOM      3  C2  UNL d   1       1.873   4.137  -5.988  0.00  0.00    -0.005 A 
ATOM      4  C3  UNL d   1       2.149   5.504  -5.993  0.00  0.00     0.006 A 
ATOM      5  C4  UNL d   1       3.470   5.954  -6.000  0.00  0.00    -0.005 A 
ATOM      6  C5  UNL d   1       4.527   5.039  -6.000  0.00  0.00    -0.074 A 
ATOM      7  C6  UNL d   1       5.953   5.506  -5.997  0.00  0.00     0.077 C 
ATOM      8  C7  UNL d   1       4.242   3.667  -5.987  0.00  0.00    -0.001 A 
ENDROOT
TORSDOF 0
ENDMDL
