MODEL 1
REMARK minimizedAffinity 10.0022087
REMARK minimizedRMSD -1
REMARK  0 active torsions:
REMARK  status: ('A' for Active; 'I' for Inactive)
ROOT
ATOM      1  C   UNL d   1       1.041  -1.273   0.781  0.00  0.00     0.077 C 
ATOM      2  C1  UNL d   1      -0.190  -0.422   0.879  0.00  0.00    -0.074 A 
ATOM      3  C2  UNL d   1      -0.099   0.973   0.915  0.00  0.00    -0.005 A 
ATOM      4  C3  UNL d   1      -1.254   1.751   0.997  0.00  0.00     0.006 A 
ATOM      5  C4  UNL d   1      -2.509   1.143   1.043  0.00  0.00    -0.005 A 
ATOM      6  C5  UNL d   1      -2.620  -0.250   1.007  0.00  0.00    -0.074 A 
ATOM      7  C6  UNL d   1      -3.962  -0.919   1.045  0.00  0.00     0.077 C 
ATOM      8  C7  UNL d   1      -1.456  -1.025   0.917  0.00  0.00    -0.001 A 
ENDROOT
TORSDOF 0
ENDMDL
