MODEL 1
REMARK minimizedAffinity 7.11203671
REMARK minimizedRMSD -1
REMARK  0 active torsions:
REMARK  status: ('A' for Active; 'I' for Inactive)
ROOT
ATOM      1  C   UNL d   1       1.930  -0.571  -1.182  0.00  0.00     0.077 C 
ATOM      2  C1  UNL d   1       0.884  -0.242  -0.159  0.00  0.00    -0.074 A 
ATOM      3  C2  UNL d   1       0.167   0.957  -0.223  0.00  0.00    -0.005 A 
ATOM      4  C3  UNL d   1      -0.810   1.245   0.729  0.00  0.00     0.006 A 
ATOM      5  C4  UNL d   1      -1.080   0.338   1.754  0.00  0.00    -0.005 A 
ATOM      6  C5  UNL d   1      -0.375  -0.867   1.835  0.00  0.00    -0.074 A 
ATOM      7  C6  UNL d   1      -0.660  -1.857   2.924  0.00  0.00     0.077 C 
ATOM      8  C7  UNL d   1       0.600  -1.152   0.869  0.00  0.00    -0.001 A 
ENDROOT
TORSDOF 0
ENDMDL
