MODEL 1
REMARK minimizedAffinity 7.16929531
REMARK minimizedRMSD -1
REMARK  0 active torsions:
REMARK  status: ('A' for Active; 'I' for Inactive)
ROOT
ATOM      1  C   UNL d   1       1.118   5.998   4.576  0.00  0.00     0.077 C 
ATOM      2  C1  UNL d   1       2.127   5.237   3.769  0.00  0.00    -0.074 A 
ATOM      3  C2  UNL d   1       2.083   3.841   3.693  0.00  0.00    -0.005 A 
ATOM      4  C3  UNL d   1       3.022   3.147   2.931  0.00  0.00     0.006 A 
ATOM      5  C4  UNL d   1       4.015   3.841   2.238  0.00  0.00    -0.005 A 
ATOM      6  C5  UNL d   1       4.075   5.237   2.301  0.00  0.00    -0.074 A 
ATOM      7  C6  UNL d   1       5.130   5.999   1.554  0.00  0.00     0.077 C 
ATOM      8  C7  UNL d   1       3.123   5.927   3.063  0.00  0.00    -0.001 A 
ENDROOT
TORSDOF 0
ENDMDL
