MODEL 1
REMARK minimizedAffinity 5.39503145
REMARK minimizedRMSD -1
REMARK  0 active torsions:
REMARK  status: ('A' for Active; 'I' for Inactive)
ROOT
ATOM      1  C   UNL d   1       2.237   0.948  -1.315  0.00  0.00     0.077 C 
ATOM      2  C1  UNL d   1       1.869  -0.238  -0.474  0.00  0.00    -0.074 A 
ATOM      3  C2  UNL d   1       0.702  -0.239   0.297  0.00  0.00    -0.005 A 
ATOM      4  C3  UNL d   1       0.368  -1.353   1.066  0.00  0.00     0.006 A 
ATOM      5  C4  UNL d   1       1.195  -2.477   1.072  0.00  0.00    -0.005 A 
ATOM      6  C5  UNL d   1       2.365  -2.495   0.307  0.00  0.00    -0.074 A 
ATOM      7  C6  UNL d   1       3.261  -3.698   0.294  0.00  0.00     0.077 C 
ATOM      8  C7  UNL d   1       2.691  -1.374  -0.469  0.00  0.00    -0.001 A 
ENDROOT
TORSDOF 0
ENDMDL
