MODEL 1
REMARK minimizedAffinity 2.08821344
REMARK minimizedRMSD -1
REMARK  0 active torsions:
REMARK  status: ('A' for Active; 'I' for Inactive)
ROOT
ATOM      1  C   UNL d   1       5.740   5.989   1.945  0.00  0.00     0.077 C 
ATOM      2  C1  UNL d   1       4.361   5.996   2.535  0.00  0.00    -0.074 A 
ATOM      3  C2  UNL d   1       3.228   5.985   1.716  0.00  0.00    -0.005 A 
ATOM      4  C3  UNL d   1       1.952   5.982   2.280  0.00  0.00     0.006 A 
ATOM      5  C4  UNL d   1       1.797   5.989   3.667  0.00  0.00    -0.005 A 
ATOM      6  C5  UNL d   1       2.919   5.999   4.502  0.00  0.00    -0.074 A 
ATOM      7  C6  UNL d   1       2.770   5.997   5.994  0.00  0.00     0.077 C 
ATOM      8  C7  UNL d   1       4.197   5.995   3.928  0.00  0.00    -0.001 A 
ENDROOT
TORSDOF 0
ENDMDL
