MODEL 1
REMARK minimizedAffinity -2.99839163
REMARK minimizedRMSD -1
REMARK  0 active torsions:
REMARK  status: ('A' for Active; 'I' for Inactive)
ROOT
ATOM      1  C   UNL d   1      -4.448   2.992  -3.236  0.00  0.00     0.077 C 
ATOM      2  C1  UNL d   1      -3.019   2.547  -3.127  0.00  0.00    -0.074 A 
ATOM      3  C2  UNL d   1      -1.972   3.401  -3.488  0.00  0.00    -0.005 A 
ATOM      4  C3  UNL d   1      -0.648   2.978  -3.372  0.00  0.00     0.006 A 
ATOM      5  C4  UNL d   1      -0.359   1.698  -2.896  0.00  0.00    -0.005 A 
ATOM      6  C5  UNL d   1      -1.393   0.831  -2.529  0.00  0.00    -0.074 A 
ATOM      7  C6  UNL d   1      -1.099  -0.543  -2.006  0.00  0.00     0.077 C 
ATOM      8  C7  UNL d   1      -2.720   1.267  -2.642  0.00  0.00    -0.001 A 
ENDROOT
TORSDOF 0
ENDMDL
