MODEL 1
REMARK minimizedAffinity 0.83777833
REMARK minimizedRMSD -1
REMARK  0 active torsions:
REMARK  status: ('A' for Active; 'I' for Inactive)
ROOT
ATOM      1  C   UNL d   1      -2.225  -0.326  -0.836  0.00  0.00     0.077 C 
ATOM      2  C1  UNL d   1      -1.267  -0.604   0.284  0.00  0.00    -0.074 A 
ATOM      3  C2  UNL d   1      -1.674  -0.509   1.618  0.00  0.00    -0.005 A 
ATOM      4  C3  UNL d   1      -0.774  -0.780   2.649  0.00  0.00     0.006 A 
ATOM      5  C4  UNL d   1       0.540  -1.149   2.356  0.00  0.00    -0.005 A 
ATOM      6  C5  UNL d   1       0.964  -1.250   1.028  0.00  0.00    -0.074 A 
ATOM      7  C6  UNL d   1       2.370  -1.655   0.696  0.00  0.00     0.077 C 
ATOM      8  C7  UNL d   1       0.052  -0.983  -0.002  0.00  0.00    -0.001 A 
ENDROOT
TORSDOF 0
ENDMDL
