MODEL 1
REMARK minimizedAffinity 0.257068515
REMARK minimizedRMSD -1
REMARK  0 active torsions:
REMARK  status: ('A' for Active; 'I' for Inactive)
ROOT
ATOM      1  C   UNL d   1       0.922  -1.071   2.896  0.00  0.00     0.077 C 
ATOM      2  C1  UNL d   1       0.724  -0.805   1.434  0.00  0.00    -0.074 A 
ATOM      3  C2  UNL d   1       1.698  -1.169   0.498  0.00  0.00    -0.005 A 
ATOM      4  C3  UNL d   1       1.495  -0.923  -0.860  0.00  0.00     0.006 A 
ATOM      5  C4  UNL d   1       0.319  -0.312  -1.295  0.00  0.00    -0.005 A 
ATOM      6  C5  UNL d   1      -0.667   0.058  -0.374  0.00  0.00    -0.074 A 
ATOM      7  C6  UNL d   1      -1.941   0.707  -0.827  0.00  0.00     0.077 C 
ATOM      8  C7  UNL d   1      -0.459  -0.198   0.988  0.00  0.00    -0.001 A 
ENDROOT
TORSDOF 0
ENDMDL
