MODEL 1
REMARK minimizedAffinity -1.04790354
REMARK minimizedRMSD -1
REMARK  0 active torsions:
REMARK  status: ('A' for Active; 'I' for Inactive)
ROOT
ATOM      1  C   UNL d   1      -2.250   0.251   1.189  0.00  0.00     0.077 C 
ATOM      2  C1  UNL d   1      -1.025  -0.584   0.960  0.00  0.00    -0.074 A 
ATOM      3  C2  UNL d   1      -0.633  -1.554   1.888  0.00  0.00    -0.005 A 
ATOM      4  C3  UNL d   1       0.503  -2.330   1.657  0.00  0.00     0.006 A 
ATOM      5  C4  UNL d   1       1.257  -2.143   0.498  0.00  0.00    -0.005 A 
ATOM      6  C5  UNL d   1       0.880  -1.178  -0.441  0.00  0.00    -0.074 A 
ATOM      7  C6  UNL d   1       1.674  -0.972  -1.697  0.00  0.00     0.077 C 
ATOM      8  C7  UNL d   1      -0.267  -0.408  -0.206  0.00  0.00    -0.001 A 
ENDROOT
TORSDOF 0
ENDMDL
