MODEL 1
REMARK minimizedAffinity -1.02207983
REMARK minimizedRMSD -1
REMARK  0 active torsions:
REMARK  status: ('A' for Active; 'I' for Inactive)
ROOT
ATOM      1  C   UNL d   1       2.395  -1.268  -1.664  0.00  0.00     0.077 C 
ATOM      2  C1  UNL d   1       1.735  -1.589  -0.356  0.00  0.00    -0.074 A 
ATOM      3  C2  UNL d   1       2.014  -2.783   0.316  0.00  0.00    -0.005 A 
ATOM      4  C3  UNL d   1       1.399  -3.063   1.537  0.00  0.00     0.006 A 
ATOM      5  C4  UNL d   1       0.502  -2.153   2.097  0.00  0.00    -0.005 A 
ATOM      6  C5  UNL d   1       0.212  -0.953   1.439  0.00  0.00    -0.074 A 
ATOM      7  C6  UNL d   1      -0.743   0.040   2.032  0.00  0.00     0.077 C 
ATOM      8  C7  UNL d   1       0.838  -0.676   0.217  0.00  0.00    -0.001 A 
ENDROOT
TORSDOF 0
ENDMDL
