MODEL 1
REMARK minimizedAffinity 4.23688364
REMARK minimizedRMSD -1
REMARK  0 active torsions:
REMARK  status: ('A' for Active; 'I' for Inactive)
ROOT
ATOM      1  C   UNL d   1       6.000  -0.757   0.170  0.00  0.00     0.077 C 
ATOM      2  C1  UNL d   1       5.248   0.485   0.546  0.00  0.00    -0.074 A 
ATOM      3  C2  UNL d   1       3.865   0.574   0.354  0.00  0.00    -0.005 A 
ATOM      4  C3  UNL d   1       3.178   1.732   0.717  0.00  0.00     0.006 A 
ATOM      5  C4  UNL d   1       3.865   2.811   1.275  0.00  0.00    -0.005 A 
ATOM      6  C5  UNL d   1       5.248   2.740   1.474  0.00  0.00    -0.074 A 
ATOM      7  C6  UNL d   1       6.000   3.887   2.081  0.00  0.00     0.077 C 
ATOM      8  C7  UNL d   1       5.930   1.570   1.113  0.00  0.00    -0.001 A 
ENDROOT
TORSDOF 0
ENDMDL
