MODEL 1
REMARK minimizedAffinity 0.446513116
REMARK minimizedRMSD -1
REMARK  0 active torsions:
REMARK  status: ('A' for Active; 'I' for Inactive)
ROOT
ATOM      1  C   UNL d   1       2.941  -5.020   0.977  0.00  0.00     0.077 C 
ATOM      2  C1  UNL d   1       1.882  -4.052   1.410  0.00  0.00    -0.074 A 
ATOM      3  C2  UNL d   1       2.054  -2.674   1.240  0.00  0.00    -0.005 A 
ATOM      4  C3  UNL d   1       1.055  -1.786   1.639  0.00  0.00     0.006 A 
ATOM      5  C4  UNL d   1      -0.123  -2.265   2.212  0.00  0.00    -0.005 A 
ATOM      6  C5  UNL d   1      -0.314  -3.639   2.390  0.00  0.00    -0.074 A 
ATOM      7  C6  UNL d   1      -1.579  -4.171   2.995  0.00  0.00     0.077 C 
ATOM      8  C7  UNL d   1       0.691  -4.526   1.980  0.00  0.00    -0.001 A 
ENDROOT
TORSDOF 0
ENDMDL
