MODEL 1
REMARK minimizedAffinity -3.21734333
REMARK minimizedRMSD -1
REMARK  0 active torsions:
REMARK  status: ('A' for Active; 'I' for Inactive)
ROOT
ATOM      1  C   UNL d   1      -1.145   0.529  -0.888  0.00  0.00     0.077 C 
ATOM      2  C1  UNL d   1      -0.819  -0.338   0.291  0.00  0.00    -0.074 A 
ATOM      3  C2  UNL d   1      -1.603  -0.303   1.448  0.00  0.00    -0.005 A 
ATOM      4  C3  UNL d   1      -1.293  -1.123   2.533  0.00  0.00     0.006 A 
ATOM      5  C4  UNL d   1      -0.197  -1.984   2.473  0.00  0.00    -0.005 A 
ATOM      6  C5  UNL d   1       0.598  -2.034   1.323  0.00  0.00    -0.074 A 
ATOM      7  C6  UNL d   1       1.774  -2.961   1.238  0.00  0.00     0.077 C 
ATOM      8  C7  UNL d   1       0.276  -1.212   0.234  0.00  0.00    -0.001 A 
ENDROOT
TORSDOF 0
ENDMDL
