MODEL 1
REMARK minimizedAffinity 17.9090042
REMARK minimizedRMSD -1
REMARK  0 active torsions:
REMARK  status: ('A' for Active; 'I' for Inactive)
ROOT
ATOM      1  C   UNL d   1      -3.575   1.938  -1.780  0.00  0.00     0.124 A 
ATOM      2  C1  UNL d   1      -2.675   1.501  -2.741  0.00  0.00     0.062 A 
ATOM      3  C2  UNL d   1      -2.888   0.297  -3.405  0.00  0.00     0.162 A 
ATOM      4  C3  UNL d   1      -4.009  -0.480  -3.110  0.00  0.00    -0.034 A 
ATOM      5  C4  UNL d   1      -4.910  -0.034  -2.141  0.00  0.00     0.162 A 
ATOM      6  C5  UNL d   1      -4.692   1.170  -1.481  0.00  0.00     0.062 A 
ATOM      7  F   UNL d   1      -5.564   1.591  -0.553  0.00  0.00    -0.097 F 
ATOM      8  F1  UNL d   1      -5.998  -0.756  -1.834  0.00  0.00    -0.096 F 
ATOM      9  I   UNL d   1      -4.333  -2.282  -4.100  0.00  0.00    -0.060 I 
ATOM     10  F2  UNL d   1      -2.001  -0.101  -4.329  0.00  0.00    -0.096 F 
ATOM     11  F3  UNL d   1      -1.594   2.241  -3.031  0.00  0.00    -0.097 F 
ATOM     12  F4  UNL d   1      -3.367   3.097  -1.142  0.00  0.00    -0.092 F 
ENDROOT
TORSDOF 0
ENDMDL
