MODEL 1
REMARK minimizedAffinity 12.1191626
REMARK minimizedRMSD -1
REMARK  0 active torsions:
REMARK  status: ('A' for Active; 'I' for Inactive)
ROOT
ATOM      1  C   UNL d   1       1.997  -3.483   3.597  0.00  0.00     0.124 A 
ATOM      2  C1  UNL d   1       1.842  -2.592   4.650  0.00  0.00     0.062 A 
ATOM      3  C2  UNL d   1       1.872  -1.220   4.417  0.00  0.00     0.162 A 
ATOM      4  C3  UNL d   1       2.056  -0.730   3.124  0.00  0.00    -0.034 A 
ATOM      5  C4  UNL d   1       2.212  -1.632   2.070  0.00  0.00     0.162 A 
ATOM      6  C5  UNL d   1       2.182  -3.002   2.309  0.00  0.00     0.062 A 
ATOM      7  F   UNL d   1       2.332  -3.862   1.290  0.00  0.00    -0.097 F 
ATOM      8  F1  UNL d   1       2.392  -1.196   0.815  0.00  0.00    -0.096 F 
ATOM      9  I   UNL d   1       2.101   1.320   2.770  0.00  0.00    -0.060 I 
ATOM     10  F2  UNL d   1       1.719  -0.382   5.453  0.00  0.00    -0.096 F 
ATOM     11  F3  UNL d   1       1.664  -3.053   5.897  0.00  0.00    -0.097 F 
ATOM     12  F4  UNL d   1       1.969  -4.802   3.825  0.00  0.00    -0.092 F 
ENDROOT
TORSDOF 0
ENDMDL
