MODEL 1
REMARK minimizedAffinity 23.2779102
REMARK minimizedRMSD -1
REMARK  0 active torsions:
REMARK  status: ('A' for Active; 'I' for Inactive)
ROOT
ATOM      1  C   UNL d   1       1.860  -0.743   4.403  0.00  0.00     0.124 A 
ATOM      2  C1  UNL d   1       2.196  -1.121   3.110  0.00  0.00     0.062 A 
ATOM      3  C2  UNL d   1       2.531  -0.157   2.164  0.00  0.00     0.162 A 
ATOM      4  C3  UNL d   1       2.534   1.195   2.507  0.00  0.00    -0.034 A 
ATOM      5  C4  UNL d   1       2.194   1.567   3.809  0.00  0.00     0.162 A 
ATOM      6  C5  UNL d   1       1.860   0.600   4.751  0.00  0.00     0.062 A 
ATOM      7  F   UNL d   1       1.536   0.967   6.000  0.00  0.00    -0.097 F 
ATOM      8  F1  UNL d   1       2.187   2.858   4.173  0.00  0.00    -0.096 F 
ATOM      9  I   UNL d   1       3.035   2.640   1.095  0.00  0.00    -0.060 I 
ATOM     10  F2  UNL d   1       2.851  -0.551   0.922  0.00  0.00    -0.096 F 
ATOM     11  F3  UNL d   1       2.196  -2.418   2.771  0.00  0.00    -0.097 F 
ATOM     12  F4  UNL d   1       1.537  -1.673   5.311  0.00  0.00    -0.092 F 
ENDROOT
TORSDOF 0
ENDMDL
