MODEL 1
REMARK minimizedAffinity 23.8960342
REMARK minimizedRMSD -1
REMARK  0 active torsions:
REMARK  status: ('A' for Active; 'I' for Inactive)
ROOT
ATOM      1  C   UNL d   1       2.316   0.759   3.240  0.00  0.00     0.124 A 
ATOM      2  C1  UNL d   1       2.067  -0.531   2.793  0.00  0.00     0.062 A 
ATOM      3  C2  UNL d   1       2.346  -0.881   1.475  0.00  0.00     0.162 A 
ATOM      4  C3  UNL d   1       2.877   0.061   0.594  0.00  0.00    -0.034 A 
ATOM      5  C4  UNL d   1       3.124   1.357   1.051  0.00  0.00     0.162 A 
ATOM      6  C5  UNL d   1       2.844   1.701   2.370  0.00  0.00     0.062 A 
ATOM      7  F   UNL d   1       3.084   2.948   2.800  0.00  0.00    -0.097 F 
ATOM      8  F1  UNL d   1       3.634   2.288   0.231  0.00  0.00    -0.096 F 
ATOM      9  I   UNL d   1       3.295  -0.457  -1.378  0.00  0.00    -0.060 I 
ATOM     10  F2  UNL d   1       2.095  -2.135   1.069  0.00  0.00    -0.096 F 
ATOM     11  F3  UNL d   1       1.556  -1.444   3.632  0.00  0.00    -0.097 F 
ATOM     12  F4  UNL d   1       2.046   1.092   4.509  0.00  0.00    -0.092 F 
ENDROOT
TORSDOF 0
ENDMDL
