MODEL 1
REMARK minimizedAffinity 6.98840427
REMARK minimizedRMSD -1
REMARK  0 active torsions:
REMARK  status: ('A' for Active; 'I' for Inactive)
ROOT
ATOM      1  C   UNL d   1       2.520  -2.058   4.692  0.00  0.00     0.124 A 
ATOM      2  C1  UNL d   1       1.793  -0.998   4.171  0.00  0.00     0.062 A 
ATOM      3  C2  UNL d   1       1.481  -0.963   2.815  0.00  0.00     0.162 A 
ATOM      4  C3  UNL d   1       1.895  -1.993   1.970  0.00  0.00    -0.034 A 
ATOM      5  C4  UNL d   1       2.628  -3.056   2.502  0.00  0.00     0.162 A 
ATOM      6  C5  UNL d   1       2.937  -3.086   3.858  0.00  0.00     0.062 A 
ATOM      7  F   UNL d   1       3.640  -4.111   4.361  0.00  0.00    -0.097 F 
ATOM      8  F1  UNL d   1       3.042  -4.062   1.719  0.00  0.00    -0.096 F 
ATOM      9  I   UNL d   1       1.431  -1.944  -0.058  0.00  0.00    -0.060 I 
ATOM     10  F2  UNL d   1       0.776   0.074   2.338  0.00  0.00    -0.096 F 
ATOM     11  F3  UNL d   1       1.389  -0.003   4.974  0.00  0.00    -0.097 F 
ATOM     12  F4  UNL d   1       2.820  -2.089   5.997  0.00  0.00    -0.092 F 
ENDROOT
TORSDOF 0
ENDMDL
