MODEL 1
REMARK minimizedAffinity 15.510869
REMARK minimizedRMSD -1
REMARK  0 active torsions:
REMARK  status: ('A' for Active; 'I' for Inactive)
ROOT
ATOM      1  C   UNL d   1       2.217   0.502   3.584  0.00  0.00     0.124 A 
ATOM      2  C1  UNL d   1       2.809   1.569   2.923  0.00  0.00     0.062 A 
ATOM      3  C2  UNL d   1       3.109   1.473   1.567  0.00  0.00     0.162 A 
ATOM      4  C3  UNL d   1       2.816   0.305   0.862  0.00  0.00    -0.034 A 
ATOM      5  C4  UNL d   1       2.220  -0.764   1.535  0.00  0.00     0.162 A 
ATOM      6  C5  UNL d   1       1.923  -0.663   2.890  0.00  0.00     0.062 A 
ATOM      7  F   UNL d   1       1.350  -1.695   3.527  0.00  0.00    -0.097 F 
ATOM      8  F1  UNL d   1       1.925  -1.901   0.888  0.00  0.00    -0.096 F 
ATOM      9  I   UNL d   1       3.262   0.157  -1.165  0.00  0.00    -0.060 I 
ATOM     10  F2  UNL d   1       3.682   2.519   0.954  0.00  0.00    -0.096 F 
ATOM     11  F3  UNL d   1       3.095   2.695   3.592  0.00  0.00    -0.097 F 
ATOM     12  F4  UNL d   1       1.930   0.597   4.889  0.00  0.00    -0.092 F 
ENDROOT
TORSDOF 0
ENDMDL
