MODEL 1
REMARK minimizedAffinity 18.4697533
REMARK minimizedRMSD -1
REMARK  0 active torsions:
REMARK  status: ('A' for Active; 'I' for Inactive)
ROOT
ATOM      1  C   UNL d   1       2.978  -2.255   3.742  0.00  0.00     0.124 A 
ATOM      2  C1  UNL d   1       1.870  -1.435   3.576  0.00  0.00     0.062 A 
ATOM      3  C2  UNL d   1       1.931  -0.341   2.719  0.00  0.00     0.162 A 
ATOM      4  C3  UNL d   1       3.104  -0.060   2.018  0.00  0.00    -0.034 A 
ATOM      5  C4  UNL d   1       4.215  -0.888   2.191  0.00  0.00     0.162 A 
ATOM      6  C5  UNL d   1       4.149  -1.981   3.049  0.00  0.00     0.062 A 
ATOM      7  F   UNL d   1       5.220  -2.772   3.208  0.00  0.00    -0.097 F 
ATOM      8  F1  UNL d   1       5.359  -0.647   1.533  0.00  0.00    -0.096 F 
ATOM      9  I   UNL d   1       3.200   1.576   0.735  0.00  0.00    -0.060 I 
ATOM     10  F2  UNL d   1       0.845   0.434   2.578  0.00  0.00    -0.096 F 
ATOM     11  F3  UNL d   1       0.738  -1.697   4.245  0.00  0.00    -0.097 F 
ATOM     12  F4  UNL d   1       2.917  -3.307   4.568  0.00  0.00    -0.092 F 
ENDROOT
TORSDOF 0
ENDMDL
