MODEL 1
REMARK minimizedAffinity 19.373457
REMARK minimizedRMSD -1
REMARK  0 active torsions:
REMARK  status: ('A' for Active; 'I' for Inactive)
ROOT
ATOM      1  C   UNL d   1       2.187  -4.112   3.692  0.00  0.00     0.124 A 
ATOM      2  C1  UNL d   1       2.124  -3.191   4.728  0.00  0.00     0.062 A 
ATOM      3  C2  UNL d   1       2.083  -1.828   4.451  0.00  0.00     0.162 A 
ATOM      4  C3  UNL d   1       2.103  -1.377   3.131  0.00  0.00    -0.034 A 
ATOM      5  C4  UNL d   1       2.168  -2.309   2.094  0.00  0.00     0.162 A 
ATOM      6  C5  UNL d   1       2.209  -3.671   2.377  0.00  0.00     0.062 A 
ATOM      7  F   UNL d   1       2.270  -4.559   1.374  0.00  0.00    -0.097 F 
ATOM      8  F1  UNL d   1       2.189  -1.910   0.814  0.00  0.00    -0.096 F 
ATOM      9  I   UNL d   1       2.042   0.661   2.713  0.00  0.00    -0.060 I 
ATOM     10  F2  UNL d   1       2.022  -0.960   5.472  0.00  0.00    -0.096 F 
ATOM     11  F3  UNL d   1       2.104  -3.615   6.000  0.00  0.00    -0.097 F 
ATOM     12  F4  UNL d   1       2.228  -5.423   3.961  0.00  0.00    -0.092 F 
ENDROOT
TORSDOF 0
ENDMDL
