MODEL 1
REMARK minimizedAffinity 18.4182129
REMARK minimizedRMSD -1
REMARK  0 active torsions:
REMARK  status: ('A' for Active; 'I' for Inactive)
ROOT
ATOM      1  C   UNL d   1       3.511  -2.678   4.091  0.00  0.00     0.124 A 
ATOM      2  C1  UNL d   1       2.220  -2.179   4.204  0.00  0.00     0.062 A 
ATOM      3  C2  UNL d   1       1.211  -2.967   4.748  0.00  0.00     0.162 A 
ATOM      4  C3  UNL d   1       1.487  -4.263   5.185  0.00  0.00    -0.034 A 
ATOM      5  C4  UNL d   1       2.787  -4.758   5.068  0.00  0.00     0.162 A 
ATOM      6  C5  UNL d   1       3.793  -3.967   4.523  0.00  0.00     0.062 A 
ATOM      7  F   UNL d   1       5.039  -4.450   4.414  0.00  0.00    -0.097 F 
ATOM      8  F1  UNL d   1       3.087  -5.999   5.478  0.00  0.00    -0.096 F 
ATOM      9  I   UNL d   1      -0.020  -5.444   6.000  0.00  0.00    -0.060 I 
ATOM     10  F2  UNL d   1      -0.027  -2.460   4.845  0.00  0.00    -0.096 F 
ATOM     11  F3  UNL d   1       1.945  -0.935   3.787  0.00  0.00    -0.097 F 
ATOM     12  F4  UNL d   1       4.480  -1.918   3.566  0.00  0.00    -0.092 F 
ENDROOT
TORSDOF 0
ENDMDL
