MODEL 1
REMARK minimizedAffinity 17.9708061
REMARK minimizedRMSD -1
REMARK  0 active torsions:
REMARK  status: ('A' for Active; 'I' for Inactive)
ROOT
ATOM      1  C   UNL d   1       3.313  -1.078   3.319  0.00  0.00     0.124 A 
ATOM      2  C1  UNL d   1       1.962  -1.389   3.389  0.00  0.00     0.062 A 
ATOM      3  C2  UNL d   1       1.536  -2.499   4.112  0.00  0.00     0.162 A 
ATOM      4  C3  UNL d   1       2.462  -3.307   4.773  0.00  0.00    -0.034 A 
ATOM      5  C4  UNL d   1       3.819  -2.988   4.697  0.00  0.00     0.162 A 
ATOM      6  C5  UNL d   1       4.240  -1.877   3.973  0.00  0.00     0.062 A 
ATOM      7  F   UNL d   1       5.545  -1.578   3.907  0.00  0.00    -0.097 F 
ATOM      8  F1  UNL d   1       4.736  -3.743   5.321  0.00  0.00    -0.096 F 
ATOM      9  I   UNL d   1       1.828  -4.968   5.855  0.00  0.00    -0.060 I 
ATOM     10  F2  UNL d   1       0.224  -2.776   4.162  0.00  0.00    -0.096 F 
ATOM     11  F3  UNL d   1       1.065  -0.619   2.757  0.00  0.00    -0.097 F 
ATOM     12  F4  UNL d   1       3.720  -0.009   2.622  0.00  0.00    -0.092 F 
ENDROOT
TORSDOF 0
ENDMDL
