MODEL 1
REMARK minimizedAffinity 19.7907581
REMARK minimizedRMSD -1
REMARK  0 active torsions:
REMARK  status: ('A' for Active; 'I' for Inactive)
ROOT
ATOM      1  C   UNL d   1       3.158   1.545   3.242  0.00  0.00     0.124 A 
ATOM      2  C1  UNL d   1       3.231   1.787   1.878  0.00  0.00     0.062 A 
ATOM      3  C2  UNL d   1       2.803   0.822   0.971  0.00  0.00     0.162 A 
ATOM      4  C3  UNL d   1       2.297  -0.396   1.427  0.00  0.00    -0.034 A 
ATOM      5  C4  UNL d   1       2.228  -0.633   2.801  0.00  0.00     0.162 A 
ATOM      6  C5  UNL d   1       2.657   0.335   3.702  0.00  0.00     0.062 A 
ATOM      7  F   UNL d   1       2.585   0.099   5.021  0.00  0.00    -0.097 F 
ATOM      8  F1  UNL d   1       1.746  -1.792   3.273  0.00  0.00    -0.096 F 
ATOM      9  I   UNL d   1       1.656  -1.843   0.075  0.00  0.00    -0.060 I 
ATOM     10  F2  UNL d   1       2.885   1.083  -0.342  0.00  0.00    -0.096 F 
ATOM     11  F3  UNL d   1       3.716   2.955   1.430  0.00  0.00    -0.097 F 
ATOM     12  F4  UNL d   1       3.572   2.475   4.112  0.00  0.00    -0.092 F 
ENDROOT
TORSDOF 0
ENDMDL
