MODEL 1
REMARK minimizedAffinity -2.85915399
REMARK minimizedRMSD -1
REMARK  0 active torsions:
REMARK  status: ('A' for Active; 'I' for Inactive)
ROOT
ATOM      1  C   UNL d   1       0.984   6.000   5.825  0.00  0.00     0.078 C 
ATOM      2  C1  UNL d   1       2.326   5.722   5.217  0.00  0.00    -0.077 A 
ATOM      3  C2  UNL d   1       2.578   5.997   3.867  0.00  0.00    -0.001 A 
ATOM      4  C3  UNL d   1       3.830   5.724   3.313  0.00  0.00     0.003 A 
ATOM      5  C4  UNL d   1       4.839   5.173   4.100  0.00  0.00    -0.005 A 
ATOM      6  C5  UNL d   1       4.597   4.894   5.443  0.00  0.00     0.003 A 
ATOM      7  C6  UNL d   1       3.346   5.166   6.000  0.00  0.00    -0.001 A 
ENDROOT
TORSDOF 0
ENDMDL
