MODEL 1
REMARK minimizedAffinity 8.18445683
REMARK minimizedRMSD -1
REMARK  0 active torsions:
REMARK  status: ('A' for Active; 'I' for Inactive)
ROOT
ATOM      1  C   UNL d   1      -0.775   1.600  -0.304  0.00  0.00     0.078 C 
ATOM      2  C1  UNL d   1      -2.202   1.257   0.003  0.00  0.00    -0.077 A 
ATOM      3  C2  UNL d   1      -2.796   1.652   1.208  0.00  0.00    -0.001 A 
ATOM      4  C3  UNL d   1      -4.122   1.317   1.484  0.00  0.00     0.003 A 
ATOM      5  C4  UNL d   1      -4.866   0.585   0.561  0.00  0.00    -0.005 A 
ATOM      6  C5  UNL d   1      -4.283   0.185  -0.640  0.00  0.00     0.003 A 
ATOM      7  C6  UNL d   1      -2.957   0.519  -0.918  0.00  0.00    -0.001 A 
ENDROOT
TORSDOF 0
ENDMDL
