MODEL 1
REMARK minimizedAffinity 2.74806595
REMARK minimizedRMSD -1
REMARK  0 active torsions:
REMARK  status: ('A' for Active; 'I' for Inactive)
ROOT
ATOM      1  C   UNL d   1       3.884   1.555   5.995  0.00  0.00     0.078 C 
ATOM      2  C1  UNL d   1       3.857   3.054   5.998  0.00  0.00    -0.077 A 
ATOM      3  C2  UNL d   1       2.645   3.754   5.986  0.00  0.00    -0.001 A 
ATOM      4  C3  UNL d   1       2.635   5.150   5.979  0.00  0.00     0.003 A 
ATOM      5  C4  UNL d   1       3.835   5.858   5.982  0.00  0.00    -0.005 A 
ATOM      6  C5  UNL d   1       5.047   5.170   5.991  0.00  0.00     0.003 A 
ATOM      7  C6  UNL d   1       5.059   3.774   5.999  0.00  0.00    -0.001 A 
ENDROOT
TORSDOF 0
ENDMDL
