MODEL 1
REMARK minimizedAffinity 6.53035545
REMARK minimizedRMSD -1
REMARK  0 active torsions:
REMARK  status: ('A' for Active; 'I' for Inactive)
ROOT
ATOM      1  C   UNL d   1       4.465   1.027  -1.936  0.00  0.00     0.078 C 
ATOM      2  C1  UNL d   1       3.857  -0.272  -1.497  0.00  0.00    -0.077 A 
ATOM      3  C2  UNL d   1       3.905  -0.674  -0.156  0.00  0.00    -0.001 A 
ATOM      4  C3  UNL d   1       3.343  -1.889   0.237  0.00  0.00     0.003 A 
ATOM      5  C4  UNL d   1       2.730  -2.713  -0.704  0.00  0.00    -0.005 A 
ATOM      6  C5  UNL d   1       2.678  -2.323  -2.041  0.00  0.00     0.003 A 
ATOM      7  C6  UNL d   1       3.240  -1.107  -2.436  0.00  0.00    -0.001 A 
ENDROOT
TORSDOF 0
ENDMDL
