MODEL 1
REMARK minimizedAffinity 6.62957716
REMARK minimizedRMSD -1
REMARK  0 active torsions:
REMARK  status: ('A' for Active; 'I' for Inactive)
ROOT
ATOM      1  C   UNL d   1       3.243   1.681   1.814  0.00  0.00     0.078 C 
ATOM      2  C1  UNL d   1       3.044   0.662   0.732  0.00  0.00    -0.077 A 
ATOM      3  C2  UNL d   1       3.415  -0.675   0.922  0.00  0.00    -0.001 A 
ATOM      4  C3  UNL d   1       3.233  -1.610  -0.097  0.00  0.00     0.003 A 
ATOM      5  C4  UNL d   1       2.679  -1.220  -1.315  0.00  0.00    -0.005 A 
ATOM      6  C5  UNL d   1       2.308   0.109  -1.514  0.00  0.00     0.003 A 
ATOM      7  C6  UNL d   1       2.490   1.046  -0.496  0.00  0.00    -0.001 A 
ENDROOT
TORSDOF 0
ENDMDL
