MODEL 1
REMARK minimizedAffinity 6.13175535
REMARK minimizedRMSD -1
REMARK  0 active torsions:
REMARK  status: ('A' for Active; 'I' for Inactive)
ROOT
ATOM      1  C   UNL d   1      -3.379   2.227  -6.000  0.00  0.00     0.078 C 
ATOM      2  C1  UNL d   1      -3.682   1.176  -4.974  0.00  0.00    -0.077 A 
ATOM      3  C2  UNL d   1      -4.996   0.751  -4.744  0.00  0.00    -0.001 A 
ATOM      4  C3  UNL d   1      -5.265  -0.221  -3.779  0.00  0.00     0.003 A 
ATOM      5  C4  UNL d   1      -4.224  -0.776  -3.036  0.00  0.00    -0.005 A 
ATOM      6  C5  UNL d   1      -2.914  -0.358  -3.257  0.00  0.00     0.003 A 
ATOM      7  C6  UNL d   1      -2.643   0.614  -4.221  0.00  0.00    -0.001 A 
ENDROOT
TORSDOF 0
ENDMDL
