MODEL 1
REMARK minimizedAffinity -0.830161512
REMARK minimizedRMSD -1
REMARK  0 active torsions:
REMARK  status: ('A' for Active; 'I' for Inactive)
ROOT
ATOM      1  C   UNL d   1      -4.085   1.590   1.324  0.00  0.00     0.078 C 
ATOM      2  C1  UNL d   1      -3.126   2.239   2.276  0.00  0.00    -0.077 A 
ATOM      3  C2  UNL d   1      -1.754   2.288   1.998  0.00  0.00    -0.001 A 
ATOM      4  C3  UNL d   1      -0.872   2.886   2.898  0.00  0.00     0.003 A 
ATOM      5  C4  UNL d   1      -1.351   3.439   4.084  0.00  0.00    -0.005 A 
ATOM      6  C5  UNL d   1      -2.713   3.393   4.371  0.00  0.00     0.003 A 
ATOM      7  C6  UNL d   1      -3.597   2.795   3.472  0.00  0.00    -0.001 A 
ENDROOT
TORSDOF 0
ENDMDL
