MODEL 1
REMARK minimizedAffinity -0.124247044
REMARK minimizedRMSD -1
REMARK  0 active torsions:
REMARK  status: ('A' for Active; 'I' for Inactive)
ROOT
ATOM      1  C   UNL d   1       0.376   2.534   3.630  0.00  0.00     0.078 C 
ATOM      2  C1  UNL d   1      -0.008   3.728   4.452  0.00  0.00    -0.077 A 
ATOM      3  C2  UNL d   1      -1.165   3.719   5.241  0.00  0.00    -0.001 A 
ATOM      4  C3  UNL d   1      -1.515   4.840   5.994  0.00  0.00     0.003 A 
ATOM      5  C4  UNL d   1      -0.713   5.980   5.966  0.00  0.00    -0.005 A 
ATOM      6  C5  UNL d   1       0.439   5.999   5.183  0.00  0.00     0.003 A 
ATOM      7  C6  UNL d   1       0.790   4.878   4.429  0.00  0.00    -0.001 A 
ENDROOT
TORSDOF 0
ENDMDL
