MODEL 1
REMARK minimizedAffinity -2.32733059
REMARK minimizedRMSD -1
REMARK  2 active torsions:
REMARK  status: ('A' for Active; 'I' for Inactive)
REMARK    1  A    between atoms: C1_2  and  C2_3 
REMARK    2  A    between atoms: C2_3  and  C3_4 
ROOT
ATOM      1  C3  UNL d   1      -3.616   5.932  -3.663  0.00  0.00    -0.075 A 
ATOM      2  C4  UNL d   1      -3.024   5.979  -2.392  0.00  0.00     0.002 A 
ATOM      3  C5  UNL d   1      -1.636   5.945  -2.256  0.00  0.00     0.002 A 
ATOM      4  C6  UNL d   1      -0.824   5.854  -3.384  0.00  0.00    -0.004 A 
ATOM      5  C7  UNL d   1      -1.402   5.790  -4.650  0.00  0.00     0.002 A 
ATOM      6  C8  UNL d   1      -2.791   5.828  -4.790  0.00  0.00     0.002 A 
ENDROOT
BRANCH   1   7
ATOM      7  C2  UNL d   1      -5.117   5.998  -3.818  0.00  0.00     0.056 C 
BRANCH   7   8
ATOM      8  C1  UNL d   1      -5.890   5.792  -2.511  0.00  0.00     0.007 C 
ATOM      9  C   UNL d   1      -6.000   4.329  -2.103  0.00  0.00     0.009 C 
ENDBRANCH   7   8
ENDBRANCH   1   7
TORSDOF 2
ENDMDL
