MODEL 1
REMARK minimizedAffinity 5.88055468
REMARK minimizedRMSD -1
REMARK  2 active torsions:
REMARK  status: ('A' for Active; 'I' for Inactive)
REMARK    1  A    between atoms: C1_2  and  C2_3 
REMARK    2  A    between atoms: C2_3  and  C3_4 
ROOT
ATOM      1  C3  UNL d   1       3.236   5.321  -2.417  0.00  0.00    -0.075 A 
ATOM      2  C4  UNL d   1       4.455   5.999  -2.564  0.00  0.00     0.002 A 
ATOM      3  C5  UNL d   1       5.428   5.525  -3.445  0.00  0.00     0.002 A 
ATOM      4  C6  UNL d   1       5.199   4.364  -4.181  0.00  0.00    -0.004 A 
ATOM      5  C7  UNL d   1       3.998   3.673  -4.030  0.00  0.00     0.002 A 
ATOM      6  C8  UNL d   1       3.022   4.148  -3.153  0.00  0.00     0.002 A 
ENDROOT
BRANCH   1   7
ATOM      7  C2  UNL d   1       2.168   5.846  -1.487  0.00  0.00     0.056 C 
BRANCH   7   8
ATOM      8  C1  UNL d   1       0.789   5.990  -2.140  0.00  0.00     0.007 C 
ATOM      9  C   UNL d   1      -0.353   5.995  -1.133  0.00  0.00     0.009 C 
ENDBRANCH   7   8
ENDBRANCH   1   7
TORSDOF 2
ENDMDL
