MODEL 1
REMARK minimizedAffinity 6.17743063
REMARK minimizedRMSD -1
REMARK  2 active torsions:
REMARK  status: ('A' for Active; 'I' for Inactive)
REMARK    1  A    between atoms: C1_2  and  C2_3 
REMARK    2  A    between atoms: C2_3  and  C3_4 
ROOT
ATOM      1  C3  UNL d   1      -0.146  -1.834   1.851  0.00  0.00    -0.075 A 
ATOM      2  C4  UNL d   1      -0.386  -0.633   2.534  0.00  0.00     0.002 A 
ATOM      3  C5  UNL d   1      -1.690  -0.179   2.732  0.00  0.00     0.002 A 
ATOM      4  C6  UNL d   1      -2.768  -0.913   2.243  0.00  0.00    -0.004 A 
ATOM      5  C7  UNL d   1      -2.541  -2.100   1.549  0.00  0.00     0.002 A 
ATOM      6  C8  UNL d   1      -1.237  -2.559   1.353  0.00  0.00     0.002 A 
ENDROOT
BRANCH   1   7
ATOM      7  C2  UNL d   1       1.262  -2.346   1.659  0.00  0.00     0.056 C 
BRANCH   7   8
ATOM      8  C1  UNL d   1       1.381  -3.468   0.622  0.00  0.00     0.007 C 
ATOM      9  C   UNL d   1       2.794  -3.636   0.079  0.00  0.00     0.009 C 
ENDBRANCH   7   8
ENDBRANCH   1   7
TORSDOF 2
ENDMDL
