MODEL 1
REMARK minimizedAffinity 8.17956638
REMARK minimizedRMSD -1
REMARK  2 active torsions:
REMARK  status: ('A' for Active; 'I' for Inactive)
REMARK    1  A    between atoms: C1_2  and  C2_3 
REMARK    2  A    between atoms: C2_3  and  C3_4 
ROOT
ATOM      1  C3  UNL d   1       3.845   1.958   1.112  0.00  0.00    -0.075 A 
ATOM      2  C4  UNL d   1       4.715   2.065   0.017  0.00  0.00     0.002 A 
ATOM      3  C5  UNL d   1       5.787   2.957   0.049  0.00  0.00     0.002 A 
ATOM      4  C6  UNL d   1       5.997   3.760   1.168  0.00  0.00    -0.004 A 
ATOM      5  C7  UNL d   1       5.129   3.674   2.255  0.00  0.00     0.002 A 
ATOM      6  C8  UNL d   1       4.058   2.779   2.228  0.00  0.00     0.002 A 
ENDROOT
BRANCH   1   7
ATOM      7  C2  UNL d   1       2.701   0.973   1.096  0.00  0.00     0.056 C 
BRANCH   7   8
ATOM      8  C1  UNL d   1       2.963  -0.301   1.906  0.00  0.00     0.007 C 
ATOM      9  C   UNL d   1       1.692  -1.070   2.242  0.00  0.00     0.009 C 
ENDBRANCH   7   8
ENDBRANCH   1   7
TORSDOF 2
ENDMDL
