MODEL 1
REMARK minimizedAffinity 5.3519659
REMARK minimizedRMSD -1
REMARK  2 active torsions:
REMARK  status: ('A' for Active; 'I' for Inactive)
REMARK    1  A    between atoms: C1_2  and  C2_3 
REMARK    2  A    between atoms: C2_3  and  C3_4 
ROOT
ATOM      1  C3  UNL d   1      -3.204   0.086   0.974  0.00  0.00    -0.075 A 
ATOM      2  C4  UNL d   1      -2.424   1.052   1.626  0.00  0.00     0.002 A 
ATOM      3  C5  UNL d   1      -1.105   0.773   1.985  0.00  0.00     0.002 A 
ATOM      4  C6  UNL d   1      -0.553  -0.476   1.707  0.00  0.00    -0.004 A 
ATOM      5  C7  UNL d   1      -1.324  -1.449   1.075  0.00  0.00     0.002 A 
ATOM      6  C8  UNL d   1      -2.642  -1.171   0.710  0.00  0.00     0.002 A 
ENDROOT
BRANCH   1   7
ATOM      7  C2  UNL d   1      -4.622   0.392   0.555  0.00  0.00     0.056 C 
BRANCH   7   8
ATOM      8  C1  UNL d   1      -4.744   0.975  -0.856  0.00  0.00     0.007 C 
ATOM      9  C   UNL d   1      -4.927   2.487  -0.867  0.00  0.00     0.009 C 
ENDBRANCH   7   8
ENDBRANCH   1   7
TORSDOF 2
ENDMDL
