MODEL 1
REMARK minimizedAffinity 9.68093681
REMARK minimizedRMSD -1
REMARK  2 active torsions:
REMARK  status: ('A' for Active; 'I' for Inactive)
REMARK    1  A    between atoms: C1_2  and  C2_3 
REMARK    2  A    between atoms: C2_3  and  C3_4 
ROOT
ATOM      1  C3  UNL d   1      -1.991  -0.808   1.564  0.00  0.00    -0.075 A 
ATOM      2  C4  UNL d   1      -1.068  -1.837   1.327  0.00  0.00     0.002 A 
ATOM      3  C5  UNL d   1      -0.077  -2.128   2.264  0.00  0.00     0.002 A 
ATOM      4  C6  UNL d   1       0.012  -1.390   3.442  0.00  0.00    -0.004 A 
ATOM      5  C7  UNL d   1      -0.890  -0.355   3.680  0.00  0.00     0.002 A 
ATOM      6  C8  UNL d   1      -1.886  -0.064   2.747  0.00  0.00     0.002 A 
ENDROOT
BRANCH   1   7
ATOM      7  C2  UNL d   1      -3.085  -0.506   0.567  0.00  0.00     0.056 C 
BRANCH   7   8
ATOM      8  C1  UNL d   1      -3.902   0.747   0.898  0.00  0.00     0.007 C 
ATOM      9  C   UNL d   1      -5.193   0.851   0.097  0.00  0.00     0.009 C 
ENDBRANCH   7   8
ENDBRANCH   1   7
TORSDOF 2
ENDMDL
