MODEL 1
REMARK minimizedAffinity 13.0337706
REMARK minimizedRMSD -1
REMARK  2 active torsions:
REMARK  status: ('A' for Active; 'I' for Inactive)
REMARK    1  A    between atoms: C1_2  and  C2_3 
REMARK    2  A    between atoms: C2_3  and  C3_4 
ROOT
ATOM      1  C3  UNL d   1      -0.550  -4.923  -4.582  0.00  0.00    -0.075 A 
ATOM      2  C4  UNL d   1      -0.892  -5.888  -5.540  0.00  0.00     0.002 A 
ATOM      3  C5  UNL d   1      -2.205  -5.995  -6.000  0.00  0.00     0.002 A 
ATOM      4  C6  UNL d   1      -3.192  -5.148  -5.502  0.00  0.00    -0.004 A 
ATOM      5  C7  UNL d   1      -2.867  -4.196  -4.537  0.00  0.00     0.002 A 
ATOM      6  C8  UNL d   1      -1.553  -4.084  -4.078  0.00  0.00     0.002 A 
ENDROOT
BRANCH   1   7
ATOM      7  C2  UNL d   1       0.875  -4.782  -4.101  0.00  0.00     0.056 C 
BRANCH   7   8
ATOM      8  C1  UNL d   1       1.757  -5.999  -4.401  0.00  0.00     0.007 C 
ATOM      9  C   UNL d   1       3.116  -5.938  -3.718  0.00  0.00     0.009 C 
ENDBRANCH   7   8
ENDBRANCH   1   7
TORSDOF 2
ENDMDL
