MODEL 1
REMARK minimizedAffinity 10.7624655
REMARK minimizedRMSD -1
REMARK  2 active torsions:
REMARK  status: ('A' for Active; 'I' for Inactive)
REMARK    1  A    between atoms: C1_2  and  C2_3 
REMARK    2  A    between atoms: C2_3  and  C3_4 
ROOT
ATOM      1  C3  UNL d   1       4.938   4.966  -3.038  0.00  0.00    -0.075 A 
ATOM      2  C4  UNL d   1       5.442   4.266  -4.144  0.00  0.00     0.002 A 
ATOM      3  C5  UNL d   1       4.638   3.358  -4.833  0.00  0.00     0.002 A 
ATOM      4  C6  UNL d   1       3.327   3.131  -4.422  0.00  0.00    -0.004 A 
ATOM      5  C7  UNL d   1       2.821   3.809  -3.314  0.00  0.00     0.002 A 
ATOM      6  C8  UNL d   1       3.621   4.721  -2.625  0.00  0.00     0.002 A 
ENDROOT
BRANCH   1   7
ATOM      7  C2  UNL d   1       5.793   5.972  -2.306  0.00  0.00     0.056 C 
BRANCH   7   8
ATOM      8  C1  UNL d   1       5.592   5.973  -0.787  0.00  0.00     0.007 C 
ATOM      9  C   UNL d   1       5.999   4.663  -0.127  0.00  0.00     0.009 C 
ENDBRANCH   7   8
ENDBRANCH   1   7
TORSDOF 2
ENDMDL
