MODEL 1
REMARK minimizedAffinity 10.5425854
REMARK minimizedRMSD -1
REMARK  2 active torsions:
REMARK  status: ('A' for Active; 'I' for Inactive)
REMARK    1  A    between atoms: C1_2  and  C2_3 
REMARK    2  A    between atoms: C2_3  and  C3_4 
ROOT
ATOM      1  C3  UNL d   1       3.806   5.025  -2.435  0.00  0.00    -0.075 A 
ATOM      2  C4  UNL d   1       3.408   3.790  -2.965  0.00  0.00     0.002 A 
ATOM      3  C5  UNL d   1       2.066   3.541  -3.251  0.00  0.00     0.002 A 
ATOM      4  C6  UNL d   1       1.104   4.518  -3.001  0.00  0.00    -0.004 A 
ATOM      5  C7  UNL d   1       1.486   5.743  -2.459  0.00  0.00     0.002 A 
ATOM      6  C8  UNL d   1       2.830   5.997  -2.176  0.00  0.00     0.002 A 
ENDROOT
BRANCH   1   7
ATOM      7  C2  UNL d   1       5.261   5.312  -2.151  0.00  0.00     0.056 C 
BRANCH   7   8
ATOM      8  C1  UNL d   1       6.000   5.995  -3.306  0.00  0.00     0.007 C 
ATOM      9  C   UNL d   1       5.971   5.188  -4.598  0.00  0.00     0.009 C 
ENDBRANCH   7   8
ENDBRANCH   1   7
TORSDOF 2
ENDMDL
