MODEL 1
REMARK minimizedAffinity 6.48054647
REMARK minimizedRMSD -1
REMARK  2 active torsions:
REMARK  status: ('A' for Active; 'I' for Inactive)
REMARK    1  A    between atoms: C1_2  and  C2_3 
REMARK    2  A    between atoms: C2_3  and  C3_4 
ROOT
ATOM      1  C3  UNL d   1      -3.332   5.835  -3.364  0.00  0.00    -0.075 A 
ATOM      2  C4  UNL d   1      -1.966   5.637  -3.613  0.00  0.00     0.002 A 
ATOM      3  C5  UNL d   1      -1.487   5.573  -4.921  0.00  0.00     0.002 A 
ATOM      4  C6  UNL d   1      -2.366   5.695  -5.995  0.00  0.00    -0.004 A 
ATOM      5  C7  UNL d   1      -3.727   5.875  -5.760  0.00  0.00     0.002 A 
ATOM      6  C8  UNL d   1      -4.209   5.944  -4.452  0.00  0.00     0.002 A 
ENDROOT
BRANCH   1   7
ATOM      7  C2  UNL d   1      -3.853   5.935  -1.950  0.00  0.00     0.056 C 
BRANCH   7   8
ATOM      8  C1  UNL d   1      -5.382   5.895  -1.844  0.00  0.00     0.007 C 
ATOM      9  C   UNL d   1      -5.926   4.508  -1.530  0.00  0.00     0.009 C 
ENDBRANCH   7   8
ENDBRANCH   1   7
TORSDOF 2
ENDMDL
