MODEL 1
REMARK minimizedAffinity 6.17663002
REMARK minimizedRMSD -1
REMARK  2 active torsions:
REMARK  status: ('A' for Active; 'I' for Inactive)
REMARK    1  A    between atoms: C1_2  and  C2_3 
REMARK    2  A    between atoms: C2_3  and  C3_4 
ROOT
ATOM      1  C3  UNL d   1      -3.625   0.123   0.961  0.00  0.00    -0.075 A 
ATOM      2  C4  UNL d   1      -2.866  -0.929   0.428  0.00  0.00     0.002 A 
ATOM      3  C5  UNL d   1      -1.654  -1.295   1.014  0.00  0.00     0.002 A 
ATOM      4  C6  UNL d   1      -1.180  -0.608   2.130  0.00  0.00    -0.004 A 
ATOM      5  C7  UNL d   1      -1.918   0.449   2.657  0.00  0.00     0.002 A 
ATOM      6  C8  UNL d   1      -3.134   0.815   2.076  0.00  0.00     0.002 A 
ENDROOT
BRANCH   1   7
ATOM      7  C2  UNL d   1      -4.952   0.505   0.350  0.00  0.00     0.056 C 
BRANCH   7   8
ATOM      8  C1  UNL d   1      -4.833   1.324  -0.940  0.00  0.00     0.007 C 
ATOM      9  C   UNL d   1      -5.397   0.608  -2.160  0.00  0.00     0.009 C 
ENDBRANCH   7   8
ENDBRANCH   1   7
TORSDOF 2
ENDMDL
