MODEL 1
REMARK minimizedAffinity 8.55055714
REMARK minimizedRMSD -1
REMARK  2 active torsions:
REMARK  status: ('A' for Active; 'I' for Inactive)
REMARK    1  A    between atoms: C1_2  and  C2_3 
REMARK    2  A    between atoms: C2_3  and  C3_4 
ROOT
ATOM      1  C3  UNL d   1      -1.166   5.979  -2.863  0.00  0.00    -0.075 A 
ATOM      2  C4  UNL d   1      -2.503   5.998  -2.438  0.00  0.00     0.002 A 
ATOM      3  C5  UNL d   1      -3.542   5.973  -3.369  0.00  0.00     0.002 A 
ATOM      4  C6  UNL d   1      -3.259   5.938  -4.732  0.00  0.00    -0.004 A 
ATOM      5  C7  UNL d   1      -1.935   5.935  -5.166  0.00  0.00     0.002 A 
ATOM      6  C8  UNL d   1      -0.894   5.956  -4.237  0.00  0.00     0.002 A 
ENDROOT
BRANCH   1   7
ATOM      7  C2  UNL d   1      -0.037   5.976  -1.860  0.00  0.00     0.056 C 
BRANCH   7   8
ATOM      8  C1  UNL d   1       1.358   5.999  -2.492  0.00  0.00     0.007 C 
ATOM      9  C   UNL d   1       2.036   4.635  -2.500  0.00  0.00     0.009 C 
ENDBRANCH   7   8
ENDBRANCH   1   7
TORSDOF 2
ENDMDL
