MODEL 1
REMARK minimizedAffinity 9.99210262
REMARK minimizedRMSD -1
REMARK  2 active torsions:
REMARK  status: ('A' for Active; 'I' for Inactive)
REMARK    1  A    between atoms: C1_2  and  C2_3 
REMARK    2  A    between atoms: C2_3  and  C3_4 
ROOT
ATOM      1  C3  UNL d   1       3.541   3.588  -3.688  0.00  0.00    -0.075 A 
ATOM      2  C4  UNL d   1       3.774   3.343  -5.050  0.00  0.00     0.002 A 
ATOM      3  C5  UNL d   1       4.818   3.985  -5.716  0.00  0.00     0.002 A 
ATOM      4  C6  UNL d   1       5.635   4.885  -5.034  0.00  0.00    -0.004 A 
ATOM      5  C7  UNL d   1       5.403   5.148  -3.686  0.00  0.00     0.002 A 
ATOM      6  C8  UNL d   1       4.361   4.504  -3.016  0.00  0.00     0.002 A 
ENDROOT
BRANCH   1   7
ATOM      7  C2  UNL d   1       2.431   2.874  -2.954  0.00  0.00     0.056 C 
BRANCH   7   8
ATOM      8  C1  UNL d   1       2.803   1.466  -2.478  0.00  0.00     0.007 C 
ATOM      9  C   UNL d   1       3.129   1.402  -0.991  0.00  0.00     0.009 C 
ENDBRANCH   7   8
ENDBRANCH   1   7
TORSDOF 2
ENDMDL
