MODEL 1
REMARK minimizedAffinity 6.07034683
REMARK minimizedRMSD -1
REMARK  2 active torsions:
REMARK  status: ('A' for Active; 'I' for Inactive)
REMARK    1  A    between atoms: C1_2  and  C2_3 
REMARK    2  A    between atoms: C2_3  and  C3_4 
ROOT
ATOM      1  C3  UNL d   1      -3.073   0.543   3.074  0.00  0.00    -0.075 A 
ATOM      2  C4  UNL d   1      -3.760  -0.035   1.996  0.00  0.00     0.002 A 
ATOM      3  C5  UNL d   1      -3.210  -1.112   1.301  0.00  0.00     0.002 A 
ATOM      4  C6  UNL d   1      -1.965  -1.618   1.667  0.00  0.00    -0.004 A 
ATOM      5  C7  UNL d   1      -1.265  -1.041   2.725  0.00  0.00     0.002 A 
ATOM      6  C8  UNL d   1      -1.815   0.034   3.425  0.00  0.00     0.002 A 
ENDROOT
BRANCH   1   7
ATOM      7  C2  UNL d   1      -3.675   1.691   3.849  0.00  0.00     0.056 C 
BRANCH   7   8
ATOM      8  C1  UNL d   1      -5.186   1.567   4.072  0.00  0.00     0.007 C 
ATOM      9  C   UNL d   1      -5.617   1.939   5.484  0.00  0.00     0.009 C 
ENDBRANCH   7   8
ENDBRANCH   1   7
TORSDOF 2
ENDMDL
