MODEL 1
REMARK minimizedAffinity -1.35493219
REMARK minimizedRMSD -1
REMARK  0 active torsions:
REMARK  status: ('A' for Active; 'I' for Inactive)
ROOT
ATOM      1  C   UNL d   1      -2.475   2.177  -2.456  0.00  0.00    -0.002 A 
ATOM      2  C1  UNL d   1      -2.849   2.660  -1.210  0.00  0.00     0.010 A 
ATOM      3  C2  UNL d   1      -2.105   2.342  -0.072  0.00  0.00     0.041 A 
ATOM      4  C3  UNL d   1      -0.967   1.524  -0.208  0.00  0.00    -0.075 A 
ATOM      5  S   UNL d   1       0.096   1.004   1.045  0.00  0.00     0.015 SA
ATOM      6  C4  UNL d   1       1.073   0.129  -0.043  0.00  0.00     0.022 A 
ATOM      7  C5  UNL d   1       0.613   0.220  -1.336  0.00  0.00     0.026 A 
ATOM      8  C6  UNL d   1      -0.569   1.026  -1.452  0.00  0.00    -0.082 A 
ATOM      9  C7  UNL d   1      -1.345   1.365  -2.587  0.00  0.00     0.045 A 
ENDROOT
TORSDOF 0
ENDMDL
