MODEL 1
REMARK minimizedAffinity 15.7844534
REMARK minimizedRMSD -1
REMARK  0 active torsions:
REMARK  status: ('A' for Active; 'I' for Inactive)
ROOT
ATOM      1  C   UNL d   1       0.086  -0.945   1.050  0.00  0.00    -0.002 A 
ATOM      2  C1  UNL d   1       0.823  -0.254   0.099  0.00  0.00     0.010 A 
ATOM      3  C2  UNL d   1       1.570  -0.943  -0.859  0.00  0.00     0.041 A 
ATOM      4  C3  UNL d   1       1.561  -2.352  -0.846  0.00  0.00    -0.075 A 
ATOM      5  S   UNL d   1       2.399  -3.406  -1.922  0.00  0.00     0.015 SA
ATOM      6  C4  UNL d   1       1.798  -4.799  -1.145  0.00  0.00     0.022 A 
ATOM      7  C5  UNL d   1       0.976  -4.485  -0.089  0.00  0.00     0.026 A 
ATOM      8  C6  UNL d   1       0.826  -3.070   0.101  0.00  0.00    -0.082 A 
ATOM      9  C7  UNL d   1       0.080  -2.343   1.060  0.00  0.00     0.045 A 
ENDROOT
TORSDOF 0
ENDMDL
