MODEL 1
REMARK minimizedAffinity 11.5425997
REMARK minimizedRMSD -1
REMARK  0 active torsions:
REMARK  status: ('A' for Active; 'I' for Inactive)
ROOT
ATOM      1  C   UNL d   1      -0.864   4.096  -1.483  0.00  0.00    -0.002 A 
ATOM      2  C1  UNL d   1      -0.602   2.912  -2.158  0.00  0.00     0.010 A 
ATOM      3  C2  UNL d   1      -0.147   1.787  -1.469  0.00  0.00     0.041 A 
ATOM      4  C3  UNL d   1       0.040   1.872  -0.075  0.00  0.00    -0.075 A 
ATOM      5  S   UNL d   1       0.588   0.621   0.978  0.00  0.00     0.015 SA
ATOM      6  C4  UNL d   1       0.487   1.629   2.349  0.00  0.00     0.022 A 
ATOM      7  C5  UNL d   1       0.048   2.892   2.029  0.00  0.00     0.026 A 
ATOM      8  C6  UNL d   1      -0.218   3.052   0.627  0.00  0.00    -0.082 A 
ATOM      9  C7  UNL d   1      -0.677   4.176  -0.101  0.00  0.00     0.045 A 
ENDROOT
TORSDOF 0
ENDMDL
