MODEL 1
REMARK minimizedAffinity 12.6135893
REMARK minimizedRMSD -1
REMARK  0 active torsions:
REMARK  status: ('A' for Active; 'I' for Inactive)
ROOT
ATOM      1  C   UNL d   1      -0.800   2.743   2.377  0.00  0.00    -0.002 A 
ATOM      2  C1  UNL d   1      -2.071   3.101   1.950  0.00  0.00     0.010 A 
ATOM      3  C2  UNL d   1      -2.456   2.904   0.623  0.00  0.00     0.041 A 
ATOM      4  C3  UNL d   1      -1.534   2.334  -0.277  0.00  0.00    -0.075 A 
ATOM      5  S   UNL d   1      -1.784   1.998  -1.949  0.00  0.00     0.015 SA
ATOM      6  C4  UNL d   1      -0.211   1.371  -2.136  0.00  0.00     0.022 A 
ATOM      7  C5  UNL d   1       0.502   1.409  -0.961  0.00  0.00     0.026 A 
ATOM      8  C6  UNL d   1      -0.248   1.964   0.130  0.00  0.00    -0.082 A 
ATOM      9  C7  UNL d   1       0.112   2.177   1.482  0.00  0.00     0.045 A 
ENDROOT
TORSDOF 0
ENDMDL
