MODEL 1
REMARK minimizedAffinity 11.7506542
REMARK minimizedRMSD -1
REMARK  0 active torsions:
REMARK  status: ('A' for Active; 'I' for Inactive)
ROOT
ATOM      1  C   UNL d   1       2.882  -2.827  -0.883  0.00  0.00    -0.002 A 
ATOM      2  C1  UNL d   1       3.422  -1.597  -1.229  0.00  0.00     0.010 A 
ATOM      3  C2  UNL d   1       2.601  -0.561  -1.679  0.00  0.00     0.041 A 
ATOM      4  C3  UNL d   1       1.213  -0.785  -1.774  0.00  0.00    -0.075 A 
ATOM      5  S   UNL d   1       0.013   0.337  -2.298  0.00  0.00     0.015 SA
ATOM      6  C4  UNL d   1      -1.245  -0.791  -2.074  0.00  0.00     0.022 A 
ATOM      7  C5  UNL d   1      -0.779  -1.998  -1.611  0.00  0.00     0.026 A 
ATOM      8  C6  UNL d   1       0.645  -2.015  -1.430  0.00  0.00    -0.082 A 
ATOM      9  C7  UNL d   1       1.505  -3.045  -0.979  0.00  0.00     0.045 A 
ENDROOT
TORSDOF 0
ENDMDL
