MODEL 1
REMARK minimizedAffinity 13.2282076
REMARK minimizedRMSD -1
REMARK  0 active torsions:
REMARK  status: ('A' for Active; 'I' for Inactive)
ROOT
ATOM      1  C   UNL d   1      -3.762  -0.881  -1.214  0.00  0.00    -0.002 A 
ATOM      2  C1  UNL d   1      -3.454  -1.252  -2.515  0.00  0.00     0.010 A 
ATOM      3  C2  UNL d   1      -2.318  -0.743  -3.149  0.00  0.00     0.041 A 
ATOM      4  C3  UNL d   1      -1.488   0.152  -2.445  0.00  0.00    -0.075 A 
ATOM      5  S   UNL d   1      -0.045   0.901  -3.018  0.00  0.00     0.015 SA
ATOM      6  C4  UNL d   1       0.197   1.731  -1.549  0.00  0.00     0.022 A 
ATOM      7  C5  UNL d   1      -0.790   1.455  -0.633  0.00  0.00     0.026 A 
ATOM      8  C6  UNL d   1      -1.777   0.540  -1.134  0.00  0.00    -0.082 A 
ATOM      9  C7  UNL d   1      -2.936   0.008  -0.519  0.00  0.00     0.045 A 
ENDROOT
TORSDOF 0
ENDMDL
