MODEL 1
REMARK minimizedAffinity 8.61621952
REMARK minimizedRMSD -1
REMARK  0 active torsions:
REMARK  status: ('A' for Active; 'I' for Inactive)
ROOT
ATOM      1  C   UNL d   1       2.394  -5.483  -3.185  0.00  0.00    -0.002 A 
ATOM      2  C1  UNL d   1       2.065  -4.627  -4.227  0.00  0.00     0.010 A 
ATOM      3  C2  UNL d   1       1.916  -3.257  -4.001  0.00  0.00     0.041 A 
ATOM      4  C3  UNL d   1       2.106  -2.757  -2.698  0.00  0.00    -0.075 A 
ATOM      5  S   UNL d   1       1.977  -1.115  -2.186  0.00  0.00     0.015 SA
ATOM      6  C4  UNL d   1       2.356  -1.511  -0.572  0.00  0.00     0.022 A 
ATOM      7  C5  UNL d   1       2.578  -2.858  -0.410  0.00  0.00     0.026 A 
ATOM      8  C6  UNL d   1       2.439  -3.598  -1.633  0.00  0.00    -0.082 A 
ATOM      9  C7  UNL d   1       2.582  -4.982  -1.894  0.00  0.00     0.045 A 
ENDROOT
TORSDOF 0
ENDMDL
