MODEL 1
REMARK minimizedAffinity 4.58947849
REMARK minimizedRMSD -1
REMARK  0 active torsions:
REMARK  status: ('A' for Active; 'I' for Inactive)
ROOT
ATOM      1  C   UNL d   1       2.974  -1.854  -1.105  0.00  0.00    -0.002 A 
ATOM      2  C1  UNL d   1       2.136  -2.955  -1.213  0.00  0.00     0.010 A 
ATOM      3  C2  UNL d   1       0.790  -2.792  -1.549  0.00  0.00     0.041 A 
ATOM      4  C3  UNL d   1       0.298  -1.493  -1.779  0.00  0.00    -0.075 A 
ATOM      5  S   UNL d   1      -1.314  -1.053  -2.204  0.00  0.00     0.015 SA
ATOM      6  C4  UNL d   1      -0.928   0.606  -2.254  0.00  0.00     0.022 A 
ATOM      7  C5  UNL d   1       0.394   0.837  -1.955  0.00  0.00     0.026 A 
ATOM      8  C6  UNL d   1       1.123  -0.369  -1.678  0.00  0.00    -0.082 A 
ATOM      9  C7  UNL d   1       2.482  -0.567  -1.334  0.00  0.00     0.045 A 
ENDROOT
TORSDOF 0
ENDMDL
