MODEL 1
REMARK minimizedAffinity -3.00276971
REMARK minimizedRMSD -1
REMARK  0 active torsions:
REMARK  status: ('A' for Active; 'I' for Inactive)
ROOT
ATOM      1  C   UNL d   1      -0.553   3.615   1.635  0.00  0.00    -0.002 A 
ATOM      2  C1  UNL d   1      -0.788   4.020   0.329  0.00  0.00     0.010 A 
ATOM      3  C2  UNL d   1      -0.431   3.200  -0.744  0.00  0.00     0.041 A 
ATOM      4  C3  UNL d   1       0.169   1.954  -0.479  0.00  0.00    -0.075 A 
ATOM      5  S   UNL d   1       0.689   0.784  -1.634  0.00  0.00     0.015 SA
ATOM      6  C4  UNL d   1       1.234  -0.281  -0.421  0.00  0.00     0.022 A 
ATOM      7  C5  UNL d   1       1.033   0.227   0.841  0.00  0.00     0.026 A 
ATOM      8  C6  UNL d   1       0.415   1.524   0.828  0.00  0.00    -0.082 A 
ATOM      9  C7  UNL d   1       0.043   2.378   1.894  0.00  0.00     0.045 A 
ENDROOT
TORSDOF 0
ENDMDL
