MODEL 1
REMARK minimizedAffinity -0.221421108
REMARK minimizedRMSD -1
REMARK  0 active torsions:
REMARK  status: ('A' for Active; 'I' for Inactive)
ROOT
ATOM      1  C   UNL d   1       0.584   4.287   1.292  0.00  0.00    -0.002 A 
ATOM      2  C1  UNL d   1       0.548   4.627  -0.053  0.00  0.00     0.010 A 
ATOM      3  C2  UNL d   1       0.457   3.637  -1.034  0.00  0.00     0.041 A 
ATOM      4  C3  UNL d   1       0.400   2.287  -0.636  0.00  0.00    -0.075 A 
ATOM      5  S   UNL d   1       0.285   0.905  -1.661  0.00  0.00     0.015 SA
ATOM      6  C4  UNL d   1       0.280  -0.169  -0.338  0.00  0.00     0.022 A 
ATOM      7  C5  UNL d   1       0.364   0.493   0.864  0.00  0.00     0.026 A 
ATOM      8  C6  UNL d   1       0.434   1.919   0.712  0.00  0.00    -0.082 A 
ATOM      9  C7  UNL d   1       0.527   2.946   1.682  0.00  0.00     0.045 A 
ENDROOT
TORSDOF 0
ENDMDL
