MODEL 1
REMARK minimizedAffinity -1.37666345
REMARK minimizedRMSD -1
REMARK  1 active torsions:
REMARK  status: ('A' for Active; 'I' for Inactive)
REMARK    1  A    between atoms: C1_2  and  C2_3 
ROOT
ATOM      1  C2  UNL d   1       0.173  -0.271   0.540  0.00  0.00    -0.073 A 
ATOM      2  C3  UNL d   1      -0.967  -0.435  -0.256  0.00  0.00    -0.002 A 
ATOM      3  C4  UNL d   1      -2.193   0.093   0.152  0.00  0.00     0.004 A 
ATOM      4  C5  UNL d   1      -2.291   0.795   1.353  0.00  0.00    -0.004 A 
ATOM      5  C6  UNL d   1      -1.161   0.980   2.156  0.00  0.00    -0.075 A 
ATOM      6  C7  UNL d   1      -1.250   1.731   3.452  0.00  0.00     0.076 C 
ATOM      7  C8  UNL d   1       0.066   0.444   1.742  0.00  0.00     0.001 A 
ENDROOT
BRANCH   1   8
ATOM      8  C1  UNL d   1       1.500  -0.833   0.101  0.00  0.00     0.053 C 
ATOM      9  C   UNL d   1       2.518  -0.839   1.231  0.00  0.00     0.018 C 
ENDBRANCH   1   8
TORSDOF 1
ENDMDL
