MODEL 1
REMARK minimizedAffinity -2.44783926
REMARK minimizedRMSD -1
REMARK  1 active torsions:
REMARK  status: ('A' for Active; 'I' for Inactive)
REMARK    1  A    between atoms: C1_2  and  C2_3 
ROOT
ATOM      1  C2  UNL d   1       0.336  -0.346  -2.545  0.00  0.00    -0.073 A 
ATOM      2  C3  UNL d   1      -0.240  -1.122  -3.557  0.00  0.00    -0.002 A 
ATOM      3  C4  UNL d   1      -0.112  -0.745  -4.894  0.00  0.00     0.004 A 
ATOM      4  C5  UNL d   1       0.597   0.407  -5.233  0.00  0.00    -0.004 A 
ATOM      5  C6  UNL d   1       1.190   1.190  -4.238  0.00  0.00    -0.075 A 
ATOM      6  C7  UNL d   1       1.954   2.433  -4.586  0.00  0.00     0.076 C 
ATOM      7  C8  UNL d   1       1.055   0.806  -2.897  0.00  0.00     0.001 A 
ENDROOT
BRANCH   1   8
ATOM      8  C1  UNL d   1       0.206  -0.753  -1.100  0.00  0.00     0.053 C 
ATOM      9  C   UNL d   1       0.330   0.435  -0.159  0.00  0.00     0.018 C 
ENDBRANCH   1   8
TORSDOF 1
ENDMDL
