MODEL 1
REMARK minimizedAffinity -1.36086357
REMARK minimizedRMSD -1
REMARK  1 active torsions:
REMARK  status: ('A' for Active; 'I' for Inactive)
REMARK    1  A    between atoms: C1_2  and  C2_3 
ROOT
ATOM      1  C2  UNL d   1      -0.994  -0.791  -0.086  0.00  0.00    -0.073 A 
ATOM      2  C3  UNL d   1       0.300  -1.310  -0.205  0.00  0.00    -0.002 A 
ATOM      3  C4  UNL d   1       1.361  -0.727   0.490  0.00  0.00     0.004 A 
ATOM      4  C5  UNL d   1       1.137   0.375   1.315  0.00  0.00    -0.004 A 
ATOM      5  C6  UNL d   1      -0.151   0.901   1.456  0.00  0.00    -0.075 A 
ATOM      6  C7  UNL d   1      -0.407   2.088   2.338  0.00  0.00     0.076 C 
ATOM      7  C8  UNL d   1      -1.210   0.312   0.753  0.00  0.00     0.001 A 
ENDROOT
BRANCH   1   8
ATOM      8  C1  UNL d   1      -2.143  -1.422  -0.830  0.00  0.00     0.053 C 
ATOM      9  C   UNL d   1      -1.758  -2.757  -1.446  0.00  0.00     0.018 C 
ENDBRANCH   1   8
TORSDOF 1
ENDMDL
