MODEL 1
REMARK minimizedAffinity -2.39134192
REMARK minimizedRMSD -1
REMARK  1 active torsions:
REMARK  status: ('A' for Active; 'I' for Inactive)
REMARK    1  A    between atoms: C1_2  and  C2_3 
ROOT
ATOM      1  C2  UNL d   1      -1.443  -1.086  -0.035  0.00  0.00    -0.073 A 
ATOM      2  C3  UNL d   1      -0.148  -1.100  -0.566  0.00  0.00    -0.002 A 
ATOM      3  C4  UNL d   1       0.876  -0.383   0.055  0.00  0.00     0.004 A 
ATOM      4  C5  UNL d   1       0.617   0.348   1.215  0.00  0.00    -0.004 A 
ATOM      5  C6  UNL d   1      -0.668   0.365   1.766  0.00  0.00    -0.075 A 
ATOM      6  C7  UNL d   1      -0.963   1.148   3.012  0.00  0.00     0.076 C 
ATOM      7  C8  UNL d   1      -1.691  -0.356   1.136  0.00  0.00     0.001 A 
ENDROOT
BRANCH   1   8
ATOM      8  C1  UNL d   1      -2.550  -1.864  -0.699  0.00  0.00     0.053 C 
ATOM      9  C   UNL d   1      -2.130  -3.289  -1.023  0.00  0.00     0.018 C 
ENDBRANCH   1   8
TORSDOF 1
ENDMDL
