MODEL 1
REMARK minimizedAffinity -2.93773174
REMARK minimizedRMSD -1
REMARK  1 active torsions:
REMARK  status: ('A' for Active; 'I' for Inactive)
REMARK    1  A    between atoms: C1_2  and  C2_3 
ROOT
ATOM      1  C2  UNL d   1      -1.360  -0.548   0.344  0.00  0.00    -0.073 A 
ATOM      2  C3  UNL d   1      -0.080  -0.965  -0.039  0.00  0.00    -0.002 A 
ATOM      3  C4  UNL d   1       1.051  -0.424   0.574  0.00  0.00     0.004 A 
ATOM      4  C5  UNL d   1       0.914   0.533   1.580  0.00  0.00    -0.004 A 
ATOM      5  C6  UNL d   1      -0.357   0.954   1.985  0.00  0.00    -0.075 A 
ATOM      6  C7  UNL d   1      -0.521   1.985   3.063  0.00  0.00     0.076 C 
ATOM      7  C8  UNL d   1      -1.488   0.408   1.362  0.00  0.00     0.001 A 
ENDROOT
BRANCH   1   8
ATOM      8  C1  UNL d   1      -2.584  -1.134  -0.310  0.00  0.00     0.053 C 
ATOM      9  C   UNL d   1      -2.348  -2.558  -0.788  0.00  0.00     0.018 C 
ENDBRANCH   1   8
TORSDOF 1
ENDMDL
