MODEL 1
REMARK minimizedAffinity -1.00719666
REMARK minimizedRMSD -1
REMARK  1 active torsions:
REMARK  status: ('A' for Active; 'I' for Inactive)
REMARK    1  A    between atoms: C1_2  and  C2_3 
ROOT
ATOM      1  C2  UNL d   1       0.302   1.020   1.507  0.00  0.00    -0.073 A 
ATOM      2  C3  UNL d   1       1.637   0.623   1.649  0.00  0.00    -0.002 A 
ATOM      3  C4  UNL d   1       2.111  -0.505   0.977  0.00  0.00     0.004 A 
ATOM      4  C5  UNL d   1       1.260  -1.241   0.153  0.00  0.00    -0.004 A 
ATOM      5  C6  UNL d   1      -0.074  -0.852  -0.010  0.00  0.00    -0.075 A 
ATOM      6  C7  UNL d   1      -1.003  -1.635  -0.891  0.00  0.00     0.076 C 
ATOM      7  C8  UNL d   1      -0.543   0.279   0.670  0.00  0.00     0.001 A 
ENDROOT
BRANCH   1   8
ATOM      8  C1  UNL d   1      -0.213   2.241   2.226  0.00  0.00     0.053 C 
ATOM      9  C   UNL d   1      -0.789   1.899   3.590  0.00  0.00     0.018 C 
ENDBRANCH   1   8
TORSDOF 1
ENDMDL
