MODEL 1
REMARK minimizedAffinity -6.13550186
REMARK minimizedRMSD -1
REMARK  0 active torsions:
REMARK  status: ('A' for Active; 'I' for Inactive)
ROOT
ATOM      1  C1  DEN d   1       0.687  -0.229  -0.040  0.00  0.00     0.130 A 
ATOM      2  C2  DEN d   1       0.800   1.220   0.106  0.00  0.00    -0.031 A 
ATOM      3  C3  DEN d   1      -0.396   1.700   0.828  0.00  0.00     0.027 A 
ATOM      4  C4  DEN d   1      -2.397   0.348   1.733  0.00  0.00     0.027 A 
ATOM      5  C5  DEN d   1      -2.944  -0.911   1.840  0.00  0.00    -0.003 A 
ATOM      6  C6  DEN d   1      -2.341  -2.018   1.302  0.00  0.00     0.001 A 
ATOM      7  C7  DEN d   1      -1.132  -1.892   0.672  0.00  0.00     0.017 A 
ATOM      8  C8  DEN d   1      -0.577  -0.625   0.554  0.00  0.00    -0.094 A 
ATOM      9  C9  DEN d   1      -1.196   0.479   1.115  0.00  0.00    -0.072 A 
ENDROOT
TORSDOF 0
ENDMDL
