MODEL 1
REMARK minimizedAffinity -4.76019573
REMARK minimizedRMSD -1
REMARK  0 active torsions:
REMARK  status: ('A' for Active; 'I' for Inactive)
ROOT
ATOM      1  C1  DEN d   1       1.024  -1.403  -0.074  0.00  0.00     0.130 A 
ATOM      2  C2  DEN d   1       0.927   0.029  -0.344  0.00  0.00    -0.031 A 
ATOM      3  C3  DEN d   1      -0.355   0.512   0.206  0.00  0.00     0.027 A 
ATOM      4  C4  DEN d   1      -2.189  -0.810   1.449  0.00  0.00     0.027 A 
ATOM      5  C5  DEN d   1      -2.560  -2.055   1.906  0.00  0.00    -0.003 A 
ATOM      6  C6  DEN d   1      -1.786  -3.167   1.707  0.00  0.00     0.001 A 
ATOM      7  C7  DEN d   1      -0.578  -3.048   1.073  0.00  0.00     0.017 A 
ATOM      8  C8  DEN d   1      -0.199  -1.797   0.602  0.00  0.00    -0.094 A 
ATOM      9  C9  DEN d   1      -0.990  -0.683   0.824  0.00  0.00    -0.072 A 
ENDROOT
TORSDOF 0
ENDMDL
