MODEL 1
REMARK minimizedAffinity -4.70597887
REMARK minimizedRMSD -1
REMARK  0 active torsions:
REMARK  status: ('A' for Active; 'I' for Inactive)
ROOT
ATOM      1  C1  DEN d   1      -1.339  -2.664   1.132  0.00  0.00     0.130 A 
ATOM      2  C2  DEN d   1       0.080  -2.350   1.267  0.00  0.00    -0.031 A 
ATOM      3  C3  DEN d   1       0.217  -0.882   1.353  0.00  0.00     0.027 A 
ATOM      4  C4  DEN d   1      -1.622   0.925   1.296  0.00  0.00     0.027 A 
ATOM      5  C5  DEN d   1      -2.978   1.144   1.183  0.00  0.00    -0.003 A 
ATOM      6  C6  DEN d   1      -3.871   0.121   1.012  0.00  0.00     0.001 A 
ATOM      7  C7  DEN d   1      -3.424  -1.174   0.995  0.00  0.00     0.017 A 
ATOM      8  C8  DEN d   1      -2.059  -1.403   1.101  0.00  0.00    -0.094 A 
ATOM      9  C9  DEN d   1      -1.173  -0.355   1.285  0.00  0.00    -0.072 A 
ENDROOT
TORSDOF 0
ENDMDL
