MODEL 1
REMARK minimizedAffinity -4.69474506
REMARK minimizedRMSD -1
REMARK  0 active torsions:
REMARK  status: ('A' for Active; 'I' for Inactive)
ROOT
ATOM      1  C1  DEN d   1      -1.913  -1.170   0.019  0.00  0.00     0.130 A 
ATOM      2  C2  DEN d   1      -1.449  -2.521   0.321  0.00  0.00    -0.031 A 
ATOM      3  C3  DEN d   1       0.008  -2.461   0.558  0.00  0.00     0.027 A 
ATOM      4  C4  DEN d   1       1.580  -0.418   0.492  0.00  0.00     0.027 A 
ATOM      5  C5  DEN d   1       1.647   0.940   0.268  0.00  0.00    -0.003 A 
ATOM      6  C6  DEN d   1       0.548   1.677  -0.085  0.00  0.00     0.001 A 
ATOM      7  C7  DEN d   1      -0.675   1.069  -0.181  0.00  0.00     0.017 A 
ATOM      8  C8  DEN d   1      -0.750  -0.301   0.036  0.00  0.00    -0.094 A 
ATOM      9  C9  DEN d   1       0.370  -1.027   0.404  0.00  0.00    -0.072 A 
ENDROOT
TORSDOF 0
ENDMDL
