MODEL 1
REMARK minimizedAffinity -4.72332573
REMARK minimizedRMSD -1
REMARK  0 active torsions:
REMARK  status: ('A' for Active; 'I' for Inactive)
ROOT
ATOM      1  C1  DEN d   1      -2.232  -1.295   1.018  0.00  0.00     0.130 A 
ATOM      2  C2  DEN d   1      -1.975  -2.658   1.474  0.00  0.00    -0.031 A 
ATOM      3  C3  DEN d   1      -0.521  -2.903   1.384  0.00  0.00     0.027 A 
ATOM      4  C4  DEN d   1       1.347  -1.311   0.592  0.00  0.00     0.027 A 
ATOM      5  C5  DEN d   1       1.616  -0.054   0.097  0.00  0.00    -0.003 A 
ATOM      6  C6  DEN d   1       0.626   0.859  -0.155  0.00  0.00     0.001 A 
ATOM      7  C7  DEN d   1      -0.677   0.543   0.129  0.00  0.00     0.017 A 
ATOM      8  C8  DEN d   1      -0.956  -0.725   0.621  0.00  0.00    -0.094 A 
ATOM      9  C9  DEN d   1       0.060  -1.629   0.881  0.00  0.00    -0.072 A 
ENDROOT
TORSDOF 0
ENDMDL
