MODEL 1
REMARK minimizedAffinity -3.40089679
REMARK minimizedRMSD -1
REMARK  0 active torsions:
REMARK  status: ('A' for Active; 'I' for Inactive)
ROOT
ATOM      1  C1  DEN d   1       1.793   0.339  -0.694  0.00  0.00     0.130 A 
ATOM      2  C2  DEN d   1       1.198   1.512  -1.327  0.00  0.00    -0.031 A 
ATOM      3  C3  DEN d   1      -0.257   1.478  -1.078  0.00  0.00     0.027 A 
ATOM      4  C4  DEN d   1      -1.639  -0.268   0.223  0.00  0.00     0.027 A 
ATOM      5  C5  DEN d   1      -1.577  -1.449   0.931  0.00  0.00    -0.003 A 
ATOM      6  C6  DEN d   1      -0.402  -2.128   1.116  0.00  0.00     0.001 A 
ATOM      7  C7  DEN d   1       0.767  -1.609   0.625  0.00  0.00     0.017 A 
ATOM      8  C8  DEN d   1       0.711  -0.423  -0.095  0.00  0.00    -0.094 A 
ATOM      9  C9  DEN d   1      -0.485   0.255  -0.261  0.00  0.00    -0.072 A 
ENDROOT
TORSDOF 0
ENDMDL
