MODEL 1
REMARK minimizedAffinity -2.18554497
REMARK minimizedRMSD -1
REMARK  0 active torsions:
REMARK  status: ('A' for Active; 'I' for Inactive)
ROOT
ATOM      1  C1  DEN d   1       4.437   2.111  -1.810  0.00  0.00     0.130 A 
ATOM      2  C2  DEN d   1       5.309   1.999  -2.976  0.00  0.00    -0.031 A 
ATOM      3  C3  DEN d   1       4.455   1.909  -4.177  0.00  0.00     0.027 A 
ATOM      4  C4  DEN d   1       1.882   1.938  -4.345  0.00  0.00     0.027 A 
ATOM      5  C5  DEN d   1       0.710   2.006  -3.624  0.00  0.00    -0.003 A 
ATOM      6  C6  DEN d   1       0.698   2.079  -2.256  0.00  0.00     0.001 A 
ATOM      7  C7  DEN d   1       1.882   2.131  -1.569  0.00  0.00     0.017 A 
ATOM      8  C8  DEN d   1       3.067   2.056  -2.289  0.00  0.00    -0.094 A 
ATOM      9  C9  DEN d   1       3.059   1.995  -3.672  0.00  0.00    -0.072 A 
ENDROOT
TORSDOF 0
ENDMDL
