MODEL 1
REMARK minimizedAffinity -2.34889412
REMARK minimizedRMSD -1
REMARK  0 active torsions:
REMARK  status: ('A' for Active; 'I' for Inactive)
ROOT
ATOM      1  C1  DEN d   1       4.203   2.441  -2.175  0.00  0.00     0.130 A 
ATOM      2  C2  DEN d   1       4.983   3.098  -3.219  0.00  0.00    -0.031 A 
ATOM      3  C3  DEN d   1       4.074   3.410  -4.341  0.00  0.00     0.027 A 
ATOM      4  C4  DEN d   1       1.547   2.944  -4.558  0.00  0.00     0.027 A 
ATOM      5  C5  DEN d   1       0.448   2.396  -3.933  0.00  0.00    -0.003 A 
ATOM      6  C6  DEN d   1       0.531   1.799  -2.703  0.00  0.00     0.001 A 
ATOM      7  C7  DEN d   1       1.728   1.776  -2.039  0.00  0.00     0.017 A 
ATOM      8  C8  DEN d   1       2.841   2.320  -2.665  0.00  0.00    -0.094 A 
ATOM      9  C9  DEN d   1       2.735   2.930  -3.904  0.00  0.00    -0.072 A 
ENDROOT
TORSDOF 0
ENDMDL
