MODEL 1
REMARK minimizedAffinity -4.43932867
REMARK minimizedRMSD -1
REMARK  0 active torsions:
REMARK  status: ('A' for Active; 'I' for Inactive)
ROOT
ATOM      1  C1  DEN d   1       0.169   0.608  -0.339  0.00  0.00     0.130 A 
ATOM      2  C2  DEN d   1       1.493   0.034  -0.562  0.00  0.00    -0.031 A 
ATOM      3  C3  DEN d   1       1.487  -1.346  -0.038  0.00  0.00     0.027 A 
ATOM      4  C4  DEN d   1      -0.436  -2.646   1.087  0.00  0.00     0.027 A 
ATOM      5  C5  DEN d   1      -1.746  -2.573   1.506  0.00  0.00    -0.003 A 
ATOM      6  C6  DEN d   1      -2.493  -1.432   1.372  0.00  0.00     0.001 A 
ATOM      7  C7  DEN d   1      -1.949  -0.332   0.763  0.00  0.00     0.017 A 
ATOM      8  C8  DEN d   1      -0.626  -0.397   0.344  0.00  0.00    -0.094 A 
ATOM      9  C9  DEN d   1       0.108  -1.563   0.477  0.00  0.00    -0.072 A 
ENDROOT
TORSDOF 0
ENDMDL
