MODEL 1
REMARK minimizedAffinity -5.30377483
REMARK minimizedRMSD -1
REMARK  0 active torsions:
REMARK  status: ('A' for Active; 'I' for Inactive)
ROOT
ATOM      1  C1  DEN d   1       1.329  -0.517   0.181  0.00  0.00     0.130 A 
ATOM      2  C2  DEN d   1       1.082   0.845  -0.284  0.00  0.00    -0.031 A 
ATOM      3  C3  DEN d   1      -0.349   1.146  -0.078  0.00  0.00     0.027 A 
ATOM      4  C4  DEN d   1      -2.195  -0.356   0.916  0.00  0.00     0.027 A 
ATOM      5  C5  DEN d   1      -2.469  -1.600   1.441  0.00  0.00    -0.003 A 
ATOM      6  C6  DEN d   1      -1.512  -2.574   1.550  0.00  0.00     0.001 A 
ATOM      7  C7  DEN d   1      -0.223  -2.304   1.170  0.00  0.00     0.017 A 
ATOM      8  C8  DEN d   1       0.059  -1.055   0.633  0.00  0.00    -0.094 A 
ATOM      9  C9  DEN d   1      -0.920  -0.080   0.543  0.00  0.00    -0.072 A 
ENDROOT
TORSDOF 0
ENDMDL
