MODEL 1
REMARK minimizedAffinity -2.40287971
REMARK minimizedRMSD -1
REMARK  0 active torsions:
REMARK  status: ('A' for Active; 'I' for Inactive)
ROOT
ATOM      1  C1  DEN d   1       1.166   0.924  -3.666  0.00  0.00     0.130 A 
ATOM      2  C2  DEN d   1       1.639   2.293  -3.483  0.00  0.00    -0.031 A 
ATOM      3  C3  DEN d   1       1.578   2.609  -2.042  0.00  0.00     0.027 A 
ATOM      4  C4  DEN d   1       0.805   1.117  -0.085  0.00  0.00     0.027 A 
ATOM      5  C5  DEN d   1       0.304  -0.121   0.252  0.00  0.00    -0.003 A 
ATOM      6  C6  DEN d   1       0.026  -1.077  -0.688  0.00  0.00     0.001 A 
ATOM      7  C7  DEN d   1       0.289  -0.827  -2.009  0.00  0.00     0.017 A 
ATOM      8  C8  DEN d   1       0.787   0.421  -2.358  0.00  0.00    -0.094 A 
ATOM      9  C9  DEN d   1       1.073   1.370  -1.391  0.00  0.00    -0.072 A 
ENDROOT
TORSDOF 0
ENDMDL
