MODEL 1
REMARK minimizedAffinity -3.70401168
REMARK minimizedRMSD -1
REMARK  0 active torsions:
REMARK  status: ('A' for Active; 'I' for Inactive)
ROOT
ATOM      1  C1  DEN d   1      -1.879  -1.891   0.361  0.00  0.00     0.130 A 
ATOM      2  C2  DEN d   1      -0.760  -2.674  -0.157  0.00  0.00    -0.031 A 
ATOM      3  C3  DEN d   1       0.394  -1.768  -0.322  0.00  0.00     0.027 A 
ATOM      4  C4  DEN d   1       0.558   0.758   0.174  0.00  0.00     0.027 A 
ATOM      5  C5  DEN d   1      -0.136   1.862   0.616  0.00  0.00    -0.003 A 
ATOM      6  C6  DEN d   1      -1.458   1.801   0.969  0.00  0.00     0.001 A 
ATOM      7  C7  DEN d   1      -2.117   0.600   0.928  0.00  0.00     0.017 A 
ATOM      8  C8  DEN d   1      -1.425  -0.517   0.477  0.00  0.00    -0.094 A 
ATOM      9  C9  DEN d   1      -0.086  -0.437   0.136  0.00  0.00    -0.072 A 
ENDROOT
TORSDOF 0
ENDMDL
