MODEL 1
REMARK minimizedAffinity -4.55570459
REMARK minimizedRMSD -1
REMARK  0 active torsions:
REMARK  status: ('A' for Active; 'I' for Inactive)
ROOT
ATOM      1  C1  DEN d   1       4.710   2.127  -1.742  0.00  0.00     0.130 A 
ATOM      2  C2  DEN d   1       5.522   1.961  -2.944  0.00  0.00    -0.031 A 
ATOM      3  C3  DEN d   1       4.610   1.855  -4.100  0.00  0.00     0.027 A 
ATOM      4  C4  DEN d   1       2.032   1.935  -4.146  0.00  0.00     0.027 A 
ATOM      5  C5  DEN d   1       0.899   2.050  -3.372  0.00  0.00    -0.003 A 
ATOM      6  C6  DEN d   1       0.955   2.164  -2.008  0.00  0.00     0.001 A 
ATOM      7  C7  DEN d   1       2.171   2.210  -1.380  0.00  0.00     0.017 A 
ATOM      8  C8  DEN d   1       3.318   2.088  -2.153  0.00  0.00    -0.094 A 
ATOM      9  C9  DEN d   1       3.241   1.986  -3.532  0.00  0.00    -0.072 A 
ENDROOT
TORSDOF 0
ENDMDL
