MODEL 1
REMARK minimizedAffinity -4.1878171
REMARK minimizedRMSD -1
REMARK  0 active torsions:
REMARK  status: ('A' for Active; 'I' for Inactive)
ROOT
ATOM      1  C1  DEN d   1      -2.207  -1.149   2.499  0.00  0.00     0.130 A 
ATOM      2  C2  DEN d   1      -2.696   0.227   2.518  0.00  0.00    -0.031 A 
ATOM      3  C3  DEN d   1      -1.854   1.024   1.603  0.00  0.00     0.027 A 
ATOM      4  C4  DEN d   1       0.146   0.262   0.163  0.00  0.00     0.027 A 
ATOM      5  C5  DEN d   1       0.940  -0.810  -0.178  0.00  0.00    -0.003 A 
ATOM      6  C6  DEN d   1       0.764  -2.053   0.371  0.00  0.00     0.001 A 
ATOM      7  C7  DEN d   1      -0.259  -2.264   1.258  0.00  0.00     0.017 A 
ATOM      8  C8  DEN d   1      -1.059  -1.186   1.611  0.00  0.00    -0.094 A 
ATOM      9  C9  DEN d   1      -0.873   0.059   1.036  0.00  0.00    -0.072 A 
ENDROOT
TORSDOF 0
ENDMDL
