MODEL 1
REMARK minimizedAffinity -6.70766211
REMARK minimizedRMSD -1
REMARK  0 active torsions:
REMARK  status: ('A' for Active; 'I' for Inactive)
ROOT
ATOM      1  C1  DEN d   1       1.061  -0.981   0.283  0.00  0.00     0.130 A 
ATOM      2  C2  DEN d   1       1.004   0.428  -0.096  0.00  0.00    -0.031 A 
ATOM      3  C3  DEN d   1      -0.327   0.948   0.277  0.00  0.00     0.027 A 
ATOM      4  C4  DEN d   1      -2.293  -0.285   1.404  0.00  0.00     0.027 A 
ATOM      5  C5  DEN d   1      -2.720  -1.495   1.904  0.00  0.00    -0.003 A 
ATOM      6  C6  DEN d   1      -1.937  -2.618   1.869  0.00  0.00     0.001 A 
ATOM      7  C7  DEN d   1      -0.666  -2.543   1.362  0.00  0.00     0.017 A 
ATOM      8  C8  DEN d   1      -0.231  -1.328   0.849  0.00  0.00    -0.094 A 
ATOM      9  C9  DEN d   1      -1.034  -0.201   0.905  0.00  0.00    -0.072 A 
ENDROOT
TORSDOF 0
ENDMDL
