MODEL 1
REMARK minimizedAffinity -6.05856133
REMARK minimizedRMSD -1
REMARK  0 active torsions:
REMARK  status: ('A' for Active; 'I' for Inactive)
ROOT
ATOM      1  C1  DEN d   1       0.734  -0.755   0.173  0.00  0.00     0.130 A 
ATOM      2  C2  DEN d   1       0.656   0.678  -0.096  0.00  0.00    -0.031 A 
ATOM      3  C3  DEN d   1      -0.662   1.159   0.364  0.00  0.00     0.027 A 
ATOM      4  C4  DEN d   1      -2.579  -0.170   1.466  0.00  0.00     0.027 A 
ATOM      5  C5  DEN d   1      -2.981  -1.417   1.889  0.00  0.00    -0.003 A 
ATOM      6  C6  DEN d   1      -2.194  -2.528   1.740  0.00  0.00     0.001 A 
ATOM      7  C7  DEN d   1      -0.944  -2.406   1.194  0.00  0.00     0.017 A 
ATOM      8  C8  DEN d   1      -0.534  -1.153   0.759  0.00  0.00    -0.094 A 
ATOM      9  C9  DEN d   1      -1.339  -0.040   0.929  0.00  0.00    -0.072 A 
ENDROOT
TORSDOF 0
ENDMDL
