MODEL 1
REMARK minimizedAffinity -5.25225163
REMARK minimizedRMSD -1
REMARK  0 active torsions:
REMARK  status: ('A' for Active; 'I' for Inactive)
ROOT
ATOM      1  C1  DEN d   1       0.102   0.899  -0.157  0.00  0.00     0.130 A 
ATOM      2  C2  DEN d   1       1.412   0.333  -0.467  0.00  0.00    -0.031 A 
ATOM      3  C3  DEN d   1       1.389  -1.098  -0.106  0.00  0.00     0.027 A 
ATOM      4  C4  DEN d   1      -0.540  -2.487   0.895  0.00  0.00     0.027 A 
ATOM      5  C5  DEN d   1      -1.842  -2.441   1.343  0.00  0.00    -0.003 A 
ATOM      6  C6  DEN d   1      -2.570  -1.281   1.354  0.00  0.00     0.001 A 
ATOM      7  C7  DEN d   1      -2.015  -0.127   0.867  0.00  0.00     0.017 A 
ATOM      8  C8  DEN d   1      -0.701  -0.164   0.420  0.00  0.00    -0.094 A 
ATOM      9  C9  DEN d   1       0.014  -1.350   0.405  0.00  0.00    -0.072 A 
ENDROOT
TORSDOF 0
ENDMDL
