MODEL 1
REMARK minimizedAffinity -4.04525471
REMARK minimizedRMSD -1
REMARK  0 active torsions:
REMARK  status: ('A' for Active; 'I' for Inactive)
ROOT
ATOM      1  C1  DEN d   1      -0.692   1.016  -0.580  0.00  0.00     0.130 A 
ATOM      2  C2  DEN d   1       0.760   1.173  -0.606  0.00  0.00    -0.031 A 
ATOM      3  C3  DEN d   1       1.363  -0.069  -0.083  0.00  0.00     0.027 A 
ATOM      4  C4  DEN d   1       0.197  -2.210   0.758  0.00  0.00     0.027 A 
ATOM      5  C5  DEN d   1      -1.023  -2.809   0.983  0.00  0.00    -0.003 A 
ATOM      6  C6  DEN d   1      -2.208  -2.168   0.738  0.00  0.00     0.001 A 
ATOM      7  C7  DEN d   1      -2.199  -0.905   0.209  0.00  0.00     0.017 A 
ATOM      8  C8  DEN d   1      -0.974  -0.291  -0.014  0.00  0.00    -0.094 A 
ATOM      9  C9  DEN d   1       0.214  -0.960   0.229  0.00  0.00    -0.072 A 
ENDROOT
TORSDOF 0
ENDMDL
