MODEL 1
REMARK minimizedAffinity -3.29551148
REMARK minimizedRMSD -1
REMARK  0 active torsions:
REMARK  status: ('A' for Active; 'I' for Inactive)
ROOT
ATOM      1  C1  DEN d   1      -1.537  -0.837  -0.088  0.00  0.00     0.130 A 
ATOM      2  C2  DEN d   1      -1.225  -2.104   0.569  0.00  0.00    -0.031 A 
ATOM      3  C3  DEN d   1       0.208  -2.092   0.926  0.00  0.00     0.027 A 
ATOM      4  C4  DEN d   1       1.964  -0.245   0.531  0.00  0.00     0.027 A 
ATOM      5  C5  DEN d   1       2.174   1.008  -0.001  0.00  0.00    -0.003 A 
ATOM      6  C6  DEN d   1       1.179   1.714  -0.624  0.00  0.00     0.001 A 
ATOM      7  C7  DEN d   1      -0.085   1.190  -0.691  0.00  0.00     0.017 A 
ATOM      8  C8  DEN d   1      -0.303  -0.076  -0.164  0.00  0.00    -0.094 A 
ATOM      9  C9  DEN d   1       0.713  -0.768   0.473  0.00  0.00    -0.072 A 
ENDROOT
TORSDOF 0
ENDMDL
