MODEL 1
REMARK minimizedAffinity 14.4921007
REMARK minimizedRMSD -1
REMARK  0 active torsions:
REMARK  status: ('A' for Active; 'I' for Inactive)
ROOT
ATOM      1  C   UNL d   1       2.564  -4.895   2.945  0.00  0.00     0.077 C 
ATOM      2  C1  UNL d   1       3.649  -4.321   2.083  0.00  0.00    -0.074 A 
ATOM      3  C2  UNL d   1       4.957  -4.813   2.150  0.00  0.00    -0.005 A 
ATOM      4  C3  UNL d   1       5.953  -4.275   1.336  0.00  0.00     0.006 A 
ATOM      5  C4  UNL d   1       5.653  -3.241   0.448  0.00  0.00    -0.005 A 
ATOM      6  C5  UNL d   1       4.351  -2.737   0.366  0.00  0.00    -0.074 A 
ATOM      7  C6  UNL d   1       4.009  -1.633  -0.590  0.00  0.00     0.077 C 
ATOM      8  C7  UNL d   1       3.354  -3.288   1.183  0.00  0.00    -0.001 A 
ENDROOT
TORSDOF 0
ENDMDL
