MODEL 1
REMARK minimizedAffinity 9.07532215
REMARK minimizedRMSD -1
REMARK  0 active torsions:
REMARK  status: ('A' for Active; 'I' for Inactive)
ROOT
ATOM      1  C   UNL d   1       1.529  -4.851  -2.102  0.00  0.00     0.077 C 
ATOM      2  C1  UNL d   1       0.311  -4.751  -1.232  0.00  0.00    -0.074 A 
ATOM      3  C2  UNL d   1      -0.553  -5.839  -1.076  0.00  0.00    -0.005 A 
ATOM      4  C3  UNL d   1      -1.676  -5.734  -0.255  0.00  0.00     0.006 A 
ATOM      5  C4  UNL d   1      -1.945  -4.541   0.417  0.00  0.00    -0.005 A 
ATOM      6  C5  UNL d   1      -1.092  -3.442   0.274  0.00  0.00    -0.074 A 
ATOM      7  C6  UNL d   1      -1.362  -2.156   0.997  0.00  0.00     0.077 C 
ATOM      8  C7  UNL d   1       0.038  -3.558  -0.547  0.00  0.00    -0.001 A 
ENDROOT
TORSDOF 0
ENDMDL
