MODEL 1
REMARK minimizedAffinity 8.69423866
REMARK minimizedRMSD -1
REMARK  0 active torsions:
REMARK  status: ('A' for Active; 'I' for Inactive)
ROOT
ATOM      1  C   UNL d   1      -4.417   5.734  -3.872  0.00  0.00     0.077 C 
ATOM      2  C1  UNL d   1      -4.195   4.275  -4.140  0.00  0.00    -0.074 A 
ATOM      3  C2  UNL d   1      -4.173   3.780  -5.448  0.00  0.00    -0.005 A 
ATOM      4  C3  UNL d   1      -3.956   2.422  -5.682  0.00  0.00     0.006 A 
ATOM      5  C4  UNL d   1      -3.761   1.547  -4.613  0.00  0.00    -0.005 A 
ATOM      6  C5  UNL d   1      -3.780   2.024  -3.298  0.00  0.00    -0.074 A 
ATOM      7  C6  UNL d   1      -3.562   1.098  -2.138  0.00  0.00     0.077 C 
ATOM      8  C7  UNL d   1      -3.991   3.390  -3.071  0.00  0.00    -0.001 A 
ENDROOT
TORSDOF 0
ENDMDL
