MODEL 1
REMARK minimizedAffinity 14.9393387
REMARK minimizedRMSD -1
REMARK  0 active torsions:
REMARK  status: ('A' for Active; 'I' for Inactive)
ROOT
ATOM      1  C   UNL d   1       1.117  -0.014   1.874  0.00  0.00     0.077 C 
ATOM      2  C1  UNL d   1       1.551  -1.288   2.536  0.00  0.00    -0.074 A 
ATOM      3  C2  UNL d   1       2.238  -2.273   1.819  0.00  0.00    -0.005 A 
ATOM      4  C3  UNL d   1       2.644  -3.448   2.450  0.00  0.00     0.006 A 
ATOM      5  C4  UNL d   1       2.369  -3.650   3.803  0.00  0.00    -0.005 A 
ATOM      6  C5  UNL d   1       1.684  -2.676   4.537  0.00  0.00    -0.074 A 
ATOM      7  C6  UNL d   1       1.389  -2.873   5.994  0.00  0.00     0.077 C 
ATOM      8  C7  UNL d   1       1.285  -1.495   3.897  0.00  0.00    -0.001 A 
ENDROOT
TORSDOF 0
ENDMDL
