MODEL 1
REMARK minimizedAffinity 15.8219891
REMARK minimizedRMSD -1
REMARK  0 active torsions:
REMARK  status: ('A' for Active; 'I' for Inactive)
ROOT
ATOM      1  C   UNL d   1      -3.760   5.132  -5.997  0.00  0.00     0.077 C 
ATOM      2  C1  UNL d   1      -4.318   4.353  -4.843  0.00  0.00    -0.074 A 
ATOM      3  C2  UNL d   1      -5.420   4.825  -4.123  0.00  0.00    -0.005 A 
ATOM      4  C3  UNL d   1      -5.933   4.086  -3.058  0.00  0.00     0.006 A 
ATOM      5  C4  UNL d   1      -5.351   2.868  -2.702  0.00  0.00    -0.005 A 
ATOM      6  C5  UNL d   1      -4.249   2.380  -3.411  0.00  0.00    -0.074 A 
ATOM      7  C6  UNL d   1      -3.617   1.069  -3.048  0.00  0.00     0.077 C 
ATOM      8  C7  UNL d   1      -3.743   3.126  -4.485  0.00  0.00    -0.001 A 
ENDROOT
TORSDOF 0
ENDMDL
