MODEL 1
REMARK minimizedAffinity 8.11014938
REMARK minimizedRMSD -1
REMARK  0 active torsions:
REMARK  status: ('A' for Active; 'I' for Inactive)
ROOT
ATOM      1  C   UNL d   1      -3.083   4.914  -6.000  0.00  0.00     0.077 C 
ATOM      2  C1  UNL d   1      -3.577   4.301  -4.723  0.00  0.00    -0.074 A 
ATOM      3  C2  UNL d   1      -4.465   4.990  -3.892  0.00  0.00    -0.005 A 
ATOM      4  C3  UNL d   1      -4.923   4.404  -2.712  0.00  0.00     0.006 A 
ATOM      5  C4  UNL d   1      -4.498   3.124  -2.353  0.00  0.00    -0.005 A 
ATOM      6  C5  UNL d   1      -3.611   2.419  -3.172  0.00  0.00    -0.074 A 
ATOM      7  C6  UNL d   1      -3.152   1.039  -2.805  0.00  0.00     0.077 C 
ATOM      8  C7  UNL d   1      -3.161   3.013  -4.359  0.00  0.00    -0.001 A 
ENDROOT
TORSDOF 0
ENDMDL
