MODEL 1
REMARK minimizedAffinity 12.2254057
REMARK minimizedRMSD -1
REMARK  0 active torsions:
REMARK  status: ('A' for Active; 'I' for Inactive)
ROOT
ATOM      1  C   UNL d   1       1.651  -5.376  -2.262  0.00  0.00     0.077 C 
ATOM      2  C1  UNL d   1       0.750  -4.859  -1.180  0.00  0.00    -0.074 A 
ATOM      3  C2  UNL d   1       1.257  -4.085  -0.131  0.00  0.00    -0.005 A 
ATOM      4  C3  UNL d   1       0.405  -3.603   0.862  0.00  0.00     0.006 A 
ATOM      5  C4  UNL d   1      -0.960  -3.889   0.817  0.00  0.00    -0.005 A 
ATOM      6  C5  UNL d   1      -1.485  -4.660  -0.225  0.00  0.00    -0.074 A 
ATOM      7  C6  UNL d   1      -2.951  -4.969  -0.294  0.00  0.00     0.077 C 
ATOM      8  C7  UNL d   1      -0.624  -5.135  -1.223  0.00  0.00    -0.001 A 
ENDROOT
TORSDOF 0
ENDMDL
