MODEL 1
REMARK minimizedAffinity 8.89882469
REMARK minimizedRMSD -1
REMARK  0 active torsions:
REMARK  status: ('A' for Active; 'I' for Inactive)
ROOT
ATOM      1  C   UNL d   1       1.902  -2.046   1.501  0.00  0.00     0.077 C 
ATOM      2  C1  UNL d   1       1.780  -1.978   2.995  0.00  0.00    -0.074 A 
ATOM      3  C2  UNL d   1       1.222  -0.858   3.619  0.00  0.00    -0.005 A 
ATOM      4  C3  UNL d   1       1.107  -0.812   5.009  0.00  0.00     0.006 A 
ATOM      5  C4  UNL d   1       1.547  -1.884   5.786  0.00  0.00    -0.005 A 
ATOM      6  C5  UNL d   1       2.107  -3.012   5.179  0.00  0.00    -0.074 A 
ATOM      7  C6  UNL d   1       2.577  -4.177   5.999  0.00  0.00     0.077 C 
ATOM      8  C7  UNL d   1       2.214  -3.054   3.782  0.00  0.00    -0.001 A 
ENDROOT
TORSDOF 0
ENDMDL
