MODEL 1
REMARK minimizedAffinity 3.86374712
REMARK minimizedRMSD -1
REMARK  0 active torsions:
REMARK  status: ('A' for Active; 'I' for Inactive)
ROOT
ATOM      1  C   UNL d   1      -3.744   1.093  -2.998  0.00  0.00     0.077 C 
ATOM      2  C1  UNL d   1      -3.767   2.445  -3.647  0.00  0.00    -0.074 A 
ATOM      3  C2  UNL d   1      -3.260   2.632  -4.938  0.00  0.00    -0.005 A 
ATOM      4  C3  UNL d   1      -3.297   3.893  -5.532  0.00  0.00     0.006 A 
ATOM      5  C4  UNL d   1      -3.840   4.979  -4.844  0.00  0.00    -0.005 A 
ATOM      6  C5  UNL d   1      -4.352   4.811  -3.553  0.00  0.00    -0.074 A 
ATOM      7  C6  UNL d   1      -4.947   5.966  -2.803  0.00  0.00     0.077 C 
ATOM      8  C7  UNL d   1      -4.317   3.539  -2.965  0.00  0.00    -0.001 A 
ENDROOT
TORSDOF 0
ENDMDL
