MODEL 1
REMARK minimizedAffinity -0.259501338
REMARK minimizedRMSD -1
REMARK  0 active torsions:
REMARK  status: ('A' for Active; 'I' for Inactive)
ROOT
ATOM      1  C2' OXE d   1      -2.938   0.138  -0.902  0.00  0.00     0.078 C 
ATOM      2  C1' OXE d   1      -1.481  -1.581   0.773  0.00  0.00     0.078 C 
ATOM      3  C1  OXE d   1      -0.840  -0.275   0.376  0.00  0.00    -0.078 A 
ATOM      4  C2  OXE d   1      -1.540   0.539  -0.481  0.00  0.00    -0.078 A 
ATOM      5  C3  OXE d   1      -1.018   1.780  -0.836  0.00  0.00     0.003 A 
ATOM      6  C4  OXE d   1       0.280   2.138  -0.451  0.00  0.00    -0.002 A 
ATOM      7  C5  OXE d   1       1.027   1.306   0.390  0.00  0.00    -0.002 A 
ATOM      8  C6  OXE d   1       0.466   0.118   0.846  0.00  0.00     0.003 A 
ENDROOT
TORSDOF 0
ENDMDL
