MODEL 1
REMARK minimizedAffinity -1.11079967
REMARK minimizedRMSD -1
REMARK  0 active torsions:
REMARK  status: ('A' for Active; 'I' for Inactive)
ROOT
ATOM      1  C2' OXE d   1      -1.612  -0.471  -1.982  0.00  0.00     0.078 C 
ATOM      2  C1' OXE d   1      -1.903  -0.508   0.810  0.00  0.00     0.078 C 
ATOM      3  C1  OXE d   1      -0.725   0.239   0.235  0.00  0.00    -0.078 A 
ATOM      4  C2  OXE d   1      -0.564   0.212  -1.130  0.00  0.00    -0.078 A 
ATOM      5  C3  OXE d   1       0.474   0.930  -1.716  0.00  0.00     0.003 A 
ATOM      6  C4  OXE d   1       1.444   1.551  -0.920  0.00  0.00    -0.002 A 
ATOM      7  C5  OXE d   1       1.322   1.557   0.474  0.00  0.00    -0.002 A 
ATOM      8  C6  OXE d   1       0.222   0.943   1.064  0.00  0.00     0.003 A 
ENDROOT
TORSDOF 0
ENDMDL
