MODEL 1
REMARK minimizedAffinity -2.75350809
REMARK minimizedRMSD -1
REMARK  0 active torsions:
REMARK  status: ('A' for Active; 'I' for Inactive)
ROOT
ATOM      1  C2' OXE d   1      -2.002  -1.797   0.623  0.00  0.00     0.078 C 
ATOM      2  C1' OXE d   1      -0.705   0.641   0.119  0.00  0.00     0.078 C 
ATOM      3  C1  OXE d   1      -1.478   0.008  -1.011  0.00  0.00    -0.078 A 
ATOM      4  C2  OXE d   1      -2.070  -1.208  -0.769  0.00  0.00    -0.078 A 
ATOM      5  C3  OXE d   1      -2.841  -1.809  -1.761  0.00  0.00     0.003 A 
ATOM      6  C4  OXE d   1      -2.890  -1.262  -3.049  0.00  0.00    -0.002 A 
ATOM      7  C5  OXE d   1      -2.261  -0.044  -3.328  0.00  0.00    -0.002 A 
ATOM      8  C6  OXE d   1      -1.587   0.623  -2.311  0.00  0.00     0.003 A 
ENDROOT
TORSDOF 0
ENDMDL
