MODEL 1
REMARK minimizedAffinity 7.84452105
REMARK minimizedRMSD -1
REMARK  0 active torsions:
REMARK  status: ('A' for Active; 'I' for Inactive)
ROOT
ATOM      1  C2' OXE d   1       0.011  -1.359   1.522  0.00  0.00     0.078 C 
ATOM      2  C1' OXE d   1       2.019  -1.290   3.483  0.00  0.00     0.078 C 
ATOM      3  C1  OXE d   1       1.909  -0.113   2.547  0.00  0.00    -0.078 A 
ATOM      4  C2  OXE d   1       0.954  -0.176   1.561  0.00  0.00    -0.078 A 
ATOM      5  C3  OXE d   1       0.774   0.908   0.705  0.00  0.00     0.003 A 
ATOM      6  C4  OXE d   1       1.656   1.994   0.742  0.00  0.00    -0.002 A 
ATOM      7  C5  OXE d   1       2.661   2.060   1.713  0.00  0.00    -0.002 A 
ATOM      8  C6  OXE d   1       2.773   1.037   2.648  0.00  0.00     0.003 A 
ENDROOT
TORSDOF 0
ENDMDL
