MODEL 1
REMARK minimizedAffinity -2.15788507
REMARK minimizedRMSD -1
REMARK  0 active torsions:
REMARK  status: ('A' for Active; 'I' for Inactive)
ROOT
ATOM      1  C2' OXE d   1      -1.231   0.157  -1.175  0.00  0.00     0.078 C 
ATOM      2  C1' OXE d   1      -0.592  -1.199   1.198  0.00  0.00     0.078 C 
ATOM      3  C1  OXE d   1       0.326  -0.088   0.754  0.00  0.00    -0.078 A 
ATOM      4  C2  OXE d   1       0.031   0.539  -0.433  0.00  0.00    -0.078 A 
ATOM      5  C3  OXE d   1       0.815   1.607  -0.861  0.00  0.00     0.003 A 
ATOM      6  C4  OXE d   1       1.986   1.947  -0.173  0.00  0.00    -0.002 A 
ATOM      7  C5  OXE d   1       2.326   1.295   1.017  0.00  0.00    -0.002 A 
ATOM      8  C6  OXE d   1       1.485   0.306   1.515  0.00  0.00     0.003 A 
ENDROOT
TORSDOF 0
ENDMDL
