MODEL 1
REMARK minimizedAffinity -2.97460365
REMARK minimizedRMSD -1
REMARK  0 active torsions:
REMARK  status: ('A' for Active; 'I' for Inactive)
ROOT
ATOM      1  C2' OXE d   1      -1.006  -1.385   1.108  0.00  0.00     0.078 C 
ATOM      2  C1' OXE d   1      -1.060  -0.191  -1.432  0.00  0.00     0.078 C 
ATOM      3  C1  OXE d   1       0.059   0.194  -0.497  0.00  0.00    -0.078 A 
ATOM      4  C2  OXE d   1       0.051  -0.360   0.760  0.00  0.00    -0.078 A 
ATOM      5  C3  OXE d   1       1.091  -0.080   1.643  0.00  0.00     0.003 A 
ATOM      6  C4  OXE d   1       2.059   0.877   1.317  0.00  0.00    -0.002 A 
ATOM      7  C5  OXE d   1       2.062   1.483   0.057  0.00  0.00    -0.002 A 
ATOM      8  C6  OXE d   1       1.096   1.122  -0.876  0.00  0.00     0.003 A 
ENDROOT
TORSDOF 0
ENDMDL
