MODEL 1
REMARK minimizedAffinity -0.646546781
REMARK minimizedRMSD -1
REMARK  0 active torsions:
REMARK  status: ('A' for Active; 'I' for Inactive)
ROOT
ATOM      1  C2' OXE d   1       0.524  -1.711   1.757  0.00  0.00     0.078 C 
ATOM      2  C1' OXE d   1       2.332   0.436   1.709  0.00  0.00     0.078 C 
ATOM      3  C1  OXE d   1       1.248   0.405   0.661  0.00  0.00    -0.078 A 
ATOM      4  C2  OXE d   1       0.397  -0.673   0.663  0.00  0.00    -0.078 A 
ATOM      5  C3  OXE d   1      -0.654  -0.724  -0.248  0.00  0.00     0.003 A 
ATOM      6  C4  OXE d   1      -0.759   0.235  -1.263  0.00  0.00    -0.002 A 
ATOM      7  C5  OXE d   1       0.122   1.321  -1.308  0.00  0.00    -0.002 A 
ATOM      8  C6  OXE d   1       1.103   1.443  -0.330  0.00  0.00     0.003 A 
ENDROOT
TORSDOF 0
ENDMDL
