MODEL 1
REMARK minimizedAffinity -2.83485198
REMARK minimizedRMSD -1
REMARK  0 active torsions:
REMARK  status: ('A' for Active; 'I' for Inactive)
ROOT
ATOM      1  C2' OXE d   1       0.538   2.225  -0.108  0.00  0.00     0.078 C 
ATOM      2  C1' OXE d   1       2.422   0.420   0.925  0.00  0.00     0.078 C 
ATOM      3  C1  OXE d   1       1.007  -0.069   0.742  0.00  0.00    -0.078 A 
ATOM      4  C2  OXE d   1       0.081   0.835   0.280  0.00  0.00    -0.078 A 
ATOM      5  C3  OXE d   1      -1.226   0.422   0.041  0.00  0.00     0.003 A 
ATOM      6  C4  OXE d   1      -1.643  -0.862   0.412  0.00  0.00    -0.002 A 
ATOM      7  C5  OXE d   1      -0.725  -1.787   0.922  0.00  0.00    -0.002 A 
ATOM      8  C6  OXE d   1       0.610  -1.420   1.053  0.00  0.00     0.003 A 
ENDROOT
TORSDOF 0
ENDMDL
