MODEL 1
REMARK minimizedAffinity -2.08105278
REMARK minimizedRMSD -1
REMARK  0 active torsions:
REMARK  status: ('A' for Active; 'I' for Inactive)
ROOT
ATOM      1  C2' OXE d   1      -1.513  -1.472   0.936  0.00  0.00     0.078 C 
ATOM      2  C1' OXE d   1      -2.243   0.142  -1.242  0.00  0.00     0.078 C 
ATOM      3  C1  OXE d   1      -0.902   0.393  -0.598  0.00  0.00    -0.078 A 
ATOM      4  C2  OXE d   1      -0.573  -0.371   0.496  0.00  0.00    -0.078 A 
ATOM      5  C3  OXE d   1       0.674  -0.217   1.095  0.00  0.00     0.003 A 
ATOM      6  C4  OXE d   1       1.533   0.811   0.688  0.00  0.00    -0.002 A 
ATOM      7  C5  OXE d   1       1.201   1.626  -0.399  0.00  0.00    -0.002 A 
ATOM      8  C6  OXE d   1       0.008   1.403  -1.078  0.00  0.00     0.003 A 
ENDROOT
TORSDOF 0
ENDMDL
