MODEL 1
REMARK minimizedAffinity -5.15569448
REMARK minimizedRMSD -1
REMARK  2 active torsions:
REMARK  status: ('A' for Active; 'I' for Inactive)
REMARK    1  A    between atoms: C1_2  and  C2_3 
REMARK    2  A    between atoms: C2_3  and  C3_4 
ROOT
ATOM      1  C3  UNL d   1      -0.020   0.042   0.379  0.00  0.00    -0.075 A 
ATOM      2  C4  UNL d   1       0.229   0.181   1.752  0.00  0.00     0.002 A 
ATOM      3  C5  UNL d   1      -0.138   1.347   2.424  0.00  0.00     0.002 A 
ATOM      4  C6  UNL d   1      -0.747   2.392   1.732  0.00  0.00    -0.004 A 
ATOM      5  C7  UNL d   1      -0.984   2.271   0.364  0.00  0.00     0.002 A 
ATOM      6  C8  UNL d   1      -0.622   1.104  -0.310  0.00  0.00     0.002 A 
ENDROOT
BRANCH   1   7
ATOM      7  C2  UNL d   1       0.347  -1.229  -0.349  0.00  0.00     0.056 C 
BRANCH   7   8
ATOM      8  C1  UNL d   1      -0.821  -1.878  -1.100  0.00  0.00     0.007 C 
ATOM      9  C   UNL d   1      -0.692  -3.391  -1.219  0.00  0.00     0.009 C 
ENDBRANCH   7   8
ENDBRANCH   1   7
TORSDOF 2
ENDMDL
