MODEL 1
REMARK minimizedAffinity -3.37852931
REMARK minimizedRMSD -1
REMARK  2 active torsions:
REMARK  status: ('A' for Active; 'I' for Inactive)
REMARK    1  A    between atoms: C1_2  and  C2_3 
REMARK    2  A    between atoms: C2_3  and  C3_4 
ROOT
ATOM      1  C3  UNL d   1       0.110   0.294  -0.206  0.00  0.00    -0.075 A 
ATOM      2  C4  UNL d   1      -0.236   1.633  -0.434  0.00  0.00     0.002 A 
ATOM      3  C5  UNL d   1      -0.309   2.537   0.627  0.00  0.00     0.002 A 
ATOM      4  C6  UNL d   1      -0.047   2.111   1.927  0.00  0.00    -0.004 A 
ATOM      5  C7  UNL d   1       0.281   0.779   2.167  0.00  0.00     0.002 A 
ATOM      6  C8  UNL d   1       0.359  -0.126   1.107  0.00  0.00     0.002 A 
ENDROOT
BRANCH   1   7
ATOM      7  C2  UNL d   1       0.218  -0.682  -1.353  0.00  0.00     0.056 C 
BRANCH   7   8
ATOM      8  C1  UNL d   1       0.344  -2.146  -0.917  0.00  0.00     0.007 C 
ATOM      9  C   UNL d   1      -0.599  -3.078  -1.666  0.00  0.00     0.009 C 
ENDBRANCH   7   8
ENDBRANCH   1   7
TORSDOF 2
ENDMDL
