MODEL 1
REMARK minimizedAffinity -4.39674091
REMARK minimizedRMSD -1
REMARK  2 active torsions:
REMARK  status: ('A' for Active; 'I' for Inactive)
REMARK    1  A    between atoms: C1_2  and  C2_3 
REMARK    2  A    between atoms: C2_3  and  C3_4 
ROOT
ATOM      1  C3  UNL d   1       0.343  -0.307  -0.378  0.00  0.00    -0.075 A 
ATOM      2  C4  UNL d   1      -0.611   0.718  -0.460  0.00  0.00     0.002 A 
ATOM      3  C5  UNL d   1      -0.837   1.563   0.627  0.00  0.00     0.002 A 
ATOM      4  C6  UNL d   1      -0.121   1.390   1.809  0.00  0.00    -0.004 A 
ATOM      5  C7  UNL d   1       0.818   0.365   1.907  0.00  0.00     0.002 A 
ATOM      6  C8  UNL d   1       1.049  -0.480   0.820  0.00  0.00     0.002 A 
ENDROOT
BRANCH   1   7
ATOM      7  C2  UNL d   1       0.614  -1.206  -1.560  0.00  0.00     0.056 C 
BRANCH   7   8
ATOM      8  C1  UNL d   1       0.079  -2.633  -1.393  0.00  0.00     0.007 C 
ATOM      9  C   UNL d   1      -0.785  -3.091  -2.561  0.00  0.00     0.009 C 
ENDBRANCH   7   8
ENDBRANCH   1   7
TORSDOF 2
ENDMDL
