MODEL 1
REMARK minimizedAffinity -5.81446028
REMARK minimizedRMSD -1
REMARK  2 active torsions:
REMARK  status: ('A' for Active; 'I' for Inactive)
REMARK    1  A    between atoms: C1_2  and  C2_3 
REMARK    2  A    between atoms: C2_3  and  C3_4 
ROOT
ATOM      1  C3  UNL d   1      -0.205   1.260   1.354  0.00  0.00    -0.075 A 
ATOM      2  C4  UNL d   1      -0.916   1.928   0.347  0.00  0.00     0.002 A 
ATOM      3  C5  UNL d   1      -0.867   3.319   0.250  0.00  0.00     0.002 A 
ATOM      4  C6  UNL d   1      -0.117   4.058   1.162  0.00  0.00    -0.004 A 
ATOM      5  C7  UNL d   1       0.579   3.406   2.176  0.00  0.00     0.002 A 
ATOM      6  C8  UNL d   1       0.536   2.014   2.274  0.00  0.00     0.002 A 
ENDROOT
BRANCH   1   7
ATOM      7  C2  UNL d   1      -0.229  -0.247   1.448  0.00  0.00     0.056 C 
BRANCH   7   8
ATOM      8  C1  UNL d   1       0.974  -0.933   0.792  0.00  0.00     0.007 C 
ATOM      9  C   UNL d   1       0.686  -1.430  -0.619  0.00  0.00     0.009 C 
ENDBRANCH   7   8
ENDBRANCH   1   7
TORSDOF 2
ENDMDL
