MODEL 1
REMARK minimizedAffinity -4.00666761
REMARK minimizedRMSD -1
REMARK  2 active torsions:
REMARK  status: ('A' for Active; 'I' for Inactive)
REMARK    1  A    between atoms: C1_2  and  C2_3 
REMARK    2  A    between atoms: C2_3  and  C3_4 
ROOT
ATOM      1  C3  UNL d   1      -0.044   2.011   1.975  0.00  0.00    -0.075 A 
ATOM      2  C4  UNL d   1      -0.179   3.151   1.169  0.00  0.00     0.002 A 
ATOM      3  C5  UNL d   1       0.803   4.142   1.175  0.00  0.00     0.002 A 
ATOM      4  C6  UNL d   1       1.923   4.013   1.993  0.00  0.00    -0.004 A 
ATOM      5  C7  UNL d   1       2.059   2.893   2.810  0.00  0.00     0.002 A 
ATOM      6  C8  UNL d   1       1.081   1.897   2.803  0.00  0.00     0.002 A 
ENDROOT
BRANCH   1   7
ATOM      7  C2  UNL d   1      -1.088   0.920   1.951  0.00  0.00     0.056 C 
BRANCH   7   8
ATOM      8  C1  UNL d   1      -0.555  -0.443   1.497  0.00  0.00     0.007 C 
ATOM      9  C   UNL d   1       0.006  -0.427   0.081  0.00  0.00     0.009 C 
ENDBRANCH   7   8
ENDBRANCH   1   7
TORSDOF 2
ENDMDL
