MODEL 1
REMARK minimizedAffinity -4.00200176
REMARK minimizedRMSD -1
REMARK  2 active torsions:
REMARK  status: ('A' for Active; 'I' for Inactive)
REMARK    1  A    between atoms: C1_2  and  C2_3 
REMARK    2  A    between atoms: C2_3  and  C3_4 
ROOT
ATOM      1  C3  UNL d   1      -0.692   1.014  -0.403  0.00  0.00    -0.075 A 
ATOM      2  C4  UNL d   1      -1.913   1.700  -0.483  0.00  0.00     0.002 A 
ATOM      3  C5  UNL d   1      -2.335   2.519   0.564  0.00  0.00     0.002 A 
ATOM      4  C6  UNL d   1      -1.549   2.655   1.706  0.00  0.00    -0.004 A 
ATOM      5  C7  UNL d   1      -0.343   1.965   1.804  0.00  0.00     0.002 A 
ATOM      6  C8  UNL d   1       0.084   1.148   0.756  0.00  0.00     0.002 A 
ENDROOT
BRANCH   1   7
ATOM      7  C2  UNL d   1      -0.216   0.148  -1.545  0.00  0.00     0.056 C 
BRANCH   7   8
ATOM      8  C1  UNL d   1       0.428  -1.170  -1.102  0.00  0.00     0.007 C 
ATOM      9  C   UNL d   1      -0.321  -2.400  -1.599  0.00  0.00     0.009 C 
ENDBRANCH   7   8
ENDBRANCH   1   7
TORSDOF 2
ENDMDL
