MODEL 1
REMARK minimizedAffinity 3.83683872
REMARK minimizedRMSD -1
REMARK  0 active torsions:
REMARK  status: ('A' for Active; 'I' for Inactive)
ROOT
ATOM      1  C   UNL d   1      -0.310  -0.878   3.127  0.00  0.00     0.077 C 
ATOM      2  C1  UNL d   1      -0.763  -0.579   1.728  0.00  0.00    -0.074 A 
ATOM      3  C2  UNL d   1      -2.060  -0.120   1.475  0.00  0.00    -0.005 A 
ATOM      4  C3  UNL d   1      -2.463   0.163   0.170  0.00  0.00     0.006 A 
ATOM      5  C4  UNL d   1      -1.576  -0.011  -0.893  0.00  0.00    -0.005 A 
ATOM      6  C5  UNL d   1      -0.276  -0.469  -0.659  0.00  0.00    -0.074 A 
ATOM      7  C6  UNL d   1       0.693  -0.651  -1.789  0.00  0.00     0.077 C 
ATOM      8  C7  UNL d   1       0.125  -0.744   0.656  0.00  0.00    -0.001 A 
ENDROOT
TORSDOF 0
ENDMDL
