MODEL 1
REMARK minimizedAffinity 6.67060137
REMARK minimizedRMSD -1
REMARK  0 active torsions:
REMARK  status: ('A' for Active; 'I' for Inactive)
ROOT
ATOM      1  C   UNL d   1      -3.903  -0.426   1.198  0.00  0.00     0.077 C 
ATOM      2  C1  UNL d   1      -2.414  -0.433   1.378  0.00  0.00    -0.074 A 
ATOM      3  C2  UNL d   1      -1.844  -0.447   2.655  0.00  0.00    -0.005 A 
ATOM      4  C3  UNL d   1      -0.458  -0.462   2.806  0.00  0.00     0.006 A 
ATOM      5  C4  UNL d   1       0.372  -0.463   1.683  0.00  0.00    -0.005 A 
ATOM      6  C5  UNL d   1      -0.180  -0.450   0.398  0.00  0.00    -0.074 A 
ATOM      7  C6  UNL d   1       0.696  -0.462  -0.819  0.00  0.00     0.077 C 
ATOM      8  C7  UNL d   1      -1.575  -0.442   0.255  0.00  0.00    -0.001 A 
ENDROOT
TORSDOF 0
ENDMDL
