MODEL 1
REMARK minimizedAffinity 2.38552356
REMARK minimizedRMSD -1
REMARK  0 active torsions:
REMARK  status: ('A' for Active; 'I' for Inactive)
ROOT
ATOM      1  C   UNL d   1       0.565  -0.145   0.386  0.00  0.00     0.077 C 
ATOM      2  C1  UNL d   1       0.477  -1.358   1.264  0.00  0.00    -0.074 A 
ATOM      3  C2  UNL d   1      -0.586  -1.523   2.157  0.00  0.00    -0.005 A 
ATOM      4  C3  UNL d   1      -0.660  -2.660   2.961  0.00  0.00     0.006 A 
ATOM      5  C4  UNL d   1       0.328  -3.643   2.880  0.00  0.00    -0.005 A 
ATOM      6  C5  UNL d   1       1.398  -3.496   1.992  0.00  0.00    -0.074 A 
ATOM      7  C6  UNL d   1       2.463  -4.547   1.885  0.00  0.00     0.077 C 
ATOM      8  C7  UNL d   1       1.461  -2.353   1.183  0.00  0.00    -0.001 A 
ENDROOT
TORSDOF 0
ENDMDL
