MODEL 1
REMARK minimizedAffinity -3.09710526
REMARK minimizedRMSD -1
REMARK  0 active torsions:
REMARK  status: ('A' for Active; 'I' for Inactive)
ROOT
ATOM      1  C   UNL d   1      -2.089  -4.075   3.515  0.00  0.00     0.077 C 
ATOM      2  C1  UNL d   1      -0.779  -3.806   2.836  0.00  0.00    -0.074 A 
ATOM      3  C2  UNL d   1       0.328  -4.633   3.055  0.00  0.00    -0.005 A 
ATOM      4  C3  UNL d   1       1.537  -4.376   2.410  0.00  0.00     0.006 A 
ATOM      5  C4  UNL d   1       1.652  -3.291   1.540  0.00  0.00    -0.005 A 
ATOM      6  C5  UNL d   1       0.556  -2.454   1.307  0.00  0.00    -0.074 A 
ATOM      7  C6  UNL d   1       0.660  -1.289   0.368  0.00  0.00     0.077 C 
ATOM      8  C7  UNL d   1      -0.657  -2.723   1.955  0.00  0.00    -0.001 A 
ENDROOT
TORSDOF 0
ENDMDL
