MODEL 1
REMARK minimizedAffinity -2.74906635
REMARK minimizedRMSD -1
REMARK  0 active torsions:
REMARK  status: ('A' for Active; 'I' for Inactive)
ROOT
ATOM      1  C   UNL d   1      -0.233  -0.316   1.245  0.00  0.00     0.077 C 
ATOM      2  C1  UNL d   1      -0.098  -1.585   2.033  0.00  0.00    -0.074 A 
ATOM      3  C2  UNL d   1      -1.017  -1.910   3.036  0.00  0.00    -0.005 A 
ATOM      4  C3  UNL d   1      -0.885  -3.098   3.754  0.00  0.00     0.006 A 
ATOM      5  C4  UNL d   1       0.167  -3.972   3.478  0.00  0.00    -0.005 A 
ATOM      6  C5  UNL d   1       1.095  -3.665   2.478  0.00  0.00    -0.074 A 
ATOM      7  C6  UNL d   1       2.226  -4.599   2.161  0.00  0.00     0.077 C 
ATOM      8  C7  UNL d   1       0.951  -2.473   1.756  0.00  0.00    -0.001 A 
ENDROOT
TORSDOF 0
ENDMDL
