MODEL 1
REMARK minimizedAffinity 5.07963371
REMARK minimizedRMSD -1
REMARK  0 active torsions:
REMARK  status: ('A' for Active; 'I' for Inactive)
ROOT
ATOM      1  C   UNL d   1       1.994  -4.119   1.521  0.00  0.00     0.077 C 
ATOM      2  C1  UNL d   1       1.049  -2.960   1.640  0.00  0.00    -0.074 A 
ATOM      3  C2  UNL d   1       0.283  -2.774   2.795  0.00  0.00    -0.005 A 
ATOM      4  C3  UNL d   1      -0.585  -1.686   2.895  0.00  0.00     0.006 A 
ATOM      5  C4  UNL d   1      -0.694  -0.776   1.843  0.00  0.00    -0.005 A 
ATOM      6  C5  UNL d   1       0.065  -0.945   0.681  0.00  0.00    -0.074 A 
ATOM      7  C6  UNL d   1      -0.033   0.029  -0.455  0.00  0.00     0.077 C 
ATOM      8  C7  UNL d   1       0.940  -2.037   0.591  0.00  0.00    -0.001 A 
ENDROOT
TORSDOF 0
ENDMDL
