MODEL 1
REMARK minimizedAffinity 2.83779764
REMARK minimizedRMSD -1
REMARK  0 active torsions:
REMARK  status: ('A' for Active; 'I' for Inactive)
ROOT
ATOM      1  C   UNL d   1       2.643  -3.749   0.574  0.00  0.00     0.077 C 
ATOM      2  C1  UNL d   1       1.552  -2.861   1.095  0.00  0.00    -0.074 A 
ATOM      3  C2  UNL d   1       1.034  -3.039   2.382  0.00  0.00    -0.005 A 
ATOM      4  C3  UNL d   1       0.026  -2.199   2.856  0.00  0.00     0.006 A 
ATOM      5  C4  UNL d   1      -0.472  -1.175   2.050  0.00  0.00    -0.005 A 
ATOM      6  C5  UNL d   1       0.034  -0.981   0.761  0.00  0.00    -0.074 A 
ATOM      7  C6  UNL d   1      -0.484   0.121  -0.115  0.00  0.00     0.077 C 
ATOM      8  C7  UNL d   1       1.052  -1.825   0.294  0.00  0.00    -0.001 A 
ENDROOT
TORSDOF 0
ENDMDL
