MODEL 1
REMARK minimizedAffinity -1.28799486
REMARK minimizedRMSD -1
REMARK  0 active torsions:
REMARK  status: ('A' for Active; 'I' for Inactive)
ROOT
ATOM      1  C   UNL d   1      -0.950   3.832  -2.662  0.00  0.00     0.077 C 
ATOM      2  C1  UNL d   1      -0.073   2.670  -2.303  0.00  0.00    -0.074 A 
ATOM      3  C2  UNL d   1       1.250   2.602  -2.750  0.00  0.00    -0.005 A 
ATOM      4  C3  UNL d   1       2.056   1.519  -2.400  0.00  0.00     0.006 A 
ATOM      5  C4  UNL d   1       1.548   0.494  -1.600  0.00  0.00    -0.005 A 
ATOM      6  C5  UNL d   1       0.227   0.545  -1.143  0.00  0.00    -0.074 A 
ATOM      7  C6  UNL d   1      -0.331  -0.543  -0.275  0.00  0.00     0.077 C 
ATOM      8  C7  UNL d   1      -0.574   1.640  -1.494  0.00  0.00    -0.001 A 
ENDROOT
TORSDOF 0
ENDMDL
