MODEL 1
REMARK minimizedAffinity -3.64169073
REMARK minimizedRMSD -1
REMARK  0 active torsions:
REMARK  status: ('A' for Active; 'I' for Inactive)
ROOT
ATOM      1  C   UNL d   1      -0.879   0.707   0.248  0.00  0.00     0.172 C 
ATOM      2  N   UNL d   1       0.388   0.075   0.530  0.00  0.00    -0.070 N 
ATOM      3  C1  UNL d   1       0.720  -1.218   0.226  0.00  0.00    -0.004 A 
ATOM      4  C2  UNL d   1       2.011  -1.435   0.656  0.00  0.00    -0.047 A 
ATOM      5  C3  UNL d   1       2.471  -0.230   1.239  0.00  0.00    -0.047 A 
ATOM      6  C4  UNL d   1       1.446   0.688   1.148  0.00  0.00    -0.004 A 
ENDROOT
TORSDOF 0
ENDMDL
