MODEL 1
REMARK minimizedAffinity -3.5800395
REMARK minimizedRMSD -1
REMARK  0 active torsions:
REMARK  status: ('A' for Active; 'I' for Inactive)
ROOT
ATOM      1  C   UNL d   1      -0.683   0.406  -0.023  0.00  0.00     0.172 C 
ATOM      2  N   UNL d   1       0.557  -0.322   0.115  0.00  0.00    -0.070 N 
ATOM      3  C1  UNL d   1       1.556  -0.035   1.006  0.00  0.00    -0.004 A 
ATOM      4  C2  UNL d   1       2.563  -0.958   0.823  0.00  0.00    -0.047 A 
ATOM      5  C3  UNL d   1       2.155  -1.830  -0.215  0.00  0.00    -0.047 A 
ATOM      6  C4  UNL d   1       0.909  -1.413  -0.635  0.00  0.00    -0.004 A 
ENDROOT
TORSDOF 0
ENDMDL
