MODEL 1
REMARK minimizedAffinity -3.16726136
REMARK minimizedRMSD -1
REMARK  0 active torsions:
REMARK  status: ('A' for Active; 'I' for Inactive)
ROOT
ATOM      1  C   UNL d   1      -0.996   0.593  -0.380  0.00  0.00     0.172 C 
ATOM      2  N   UNL d   1       0.134  -0.254  -0.077  0.00  0.00    -0.070 N 
ATOM      3  C1  UNL d   1       1.229   0.109   0.662  0.00  0.00    -0.004 A 
ATOM      4  C2  UNL d   1       2.077  -0.976   0.720  0.00  0.00    -0.047 A 
ATOM      5  C3  UNL d   1       1.472  -2.026  -0.010  0.00  0.00    -0.047 A 
ATOM      6  C4  UNL d   1       0.270  -1.552  -0.493  0.00  0.00    -0.004 A 
ENDROOT
TORSDOF 0
ENDMDL
