MODEL 1
REMARK minimizedAffinity -4.11151218
REMARK minimizedRMSD -1
REMARK  0 active torsions:
REMARK  status: ('A' for Active; 'I' for Inactive)
ROOT
ATOM      1  C   UNL d   1      -0.783   0.960  -0.035  0.00  0.00     0.172 C 
ATOM      2  N   UNL d   1       0.341   0.111   0.280  0.00  0.00    -0.070 N 
ATOM      3  C1  UNL d   1       1.487   0.508   0.917  0.00  0.00    -0.004 A 
ATOM      4  C2  UNL d   1       2.310  -0.592   1.028  0.00  0.00    -0.047 A 
ATOM      5  C3  UNL d   1       1.636  -1.687   0.437  0.00  0.00    -0.047 A 
ATOM      6  C4  UNL d   1       0.420  -1.223  -0.018  0.00  0.00    -0.004 A 
ENDROOT
TORSDOF 0
ENDMDL
