MODEL 1
REMARK minimizedAffinity -3.30663157
REMARK minimizedRMSD -1
REMARK  0 active torsions:
REMARK  status: ('A' for Active; 'I' for Inactive)
ROOT
ATOM      1  C   UNL d   1       2.179  -1.697   1.119  0.00  0.00     0.172 C 
ATOM      2  N   UNL d   1       1.107  -0.929   0.530  0.00  0.00    -0.070 N 
ATOM      3  C1  UNL d   1       0.169  -1.408  -0.345  0.00  0.00    -0.004 A 
ATOM      4  C2  UNL d   1      -0.673  -0.368  -0.672  0.00  0.00    -0.047 A 
ATOM      5  C3  UNL d   1      -0.225   0.777   0.030  0.00  0.00    -0.047 A 
ATOM      6  C4  UNL d   1       0.878   0.401   0.766  0.00  0.00    -0.004 A 
ENDROOT
TORSDOF 0
ENDMDL
