MODEL 1
REMARK minimizedAffinity -3.16614032
REMARK minimizedRMSD -1
REMARK  0 active torsions:
REMARK  status: ('A' for Active; 'I' for Inactive)
ROOT
ATOM      1  C   UNL d   1      -1.056   0.569  -0.015  0.00  0.00     0.172 C 
ATOM      2  N   UNL d   1       0.096  -0.302  -0.008  0.00  0.00    -0.070 N 
ATOM      3  C1  UNL d   1       0.470  -1.139  -1.026  0.00  0.00    -0.004 A 
ATOM      4  C2  UNL d   1       1.615  -1.796  -0.632  0.00  0.00    -0.047 A 
ATOM      5  C3  UNL d   1       1.941  -1.339   0.667  0.00  0.00    -0.047 A 
ATOM      6  C4  UNL d   1       0.983  -0.415   1.029  0.00  0.00    -0.004 A 
ENDROOT
TORSDOF 0
ENDMDL
