MODEL 1
REMARK minimizedAffinity -3.90566015
REMARK minimizedRMSD -1
REMARK  0 active torsions:
REMARK  status: ('A' for Active; 'I' for Inactive)
ROOT
ATOM      1  C   UNL d   1       3.016  -1.109   0.758  0.00  0.00     0.172 C 
ATOM      2  N   UNL d   1       2.009  -0.101   0.527  0.00  0.00    -0.070 N 
ATOM      3  C1  UNL d   1       0.672  -0.334   0.343  0.00  0.00    -0.004 A 
ATOM      4  C2  UNL d   1       0.053   0.882   0.154  0.00  0.00    -0.047 A 
ATOM      5  C3  UNL d   1       1.053   1.882   0.225  0.00  0.00    -0.047 A 
ATOM      6  C4  UNL d   1       2.254   1.245   0.457  0.00  0.00    -0.004 A 
ENDROOT
TORSDOF 0
ENDMDL
