MODEL 1
REMARK minimizedAffinity 2.89816833
REMARK minimizedRMSD -1
REMARK  2 active torsions:
REMARK  status: ('A' for Active; 'I' for Inactive)
REMARK    1  A    between atoms: C2'_3  and  C1'_4 
REMARK    2  A    between atoms: C1'_4  and  C1_5 
ROOT
ATOM      1  C1  I4B d   1      -1.049   0.592   1.550  0.00  0.00    -0.075 A 
ATOM      2  C2  I4B d   1      -0.433  -0.590   1.876  0.00  0.00     0.003 A 
ATOM      3  C3  I4B d   1       0.828  -0.914   1.320  0.00  0.00     0.002 A 
ATOM      4  C4  I4B d   1       1.410  -0.056   0.409  0.00  0.00    -0.004 A 
ATOM      5  C5  I4B d   1       0.794   1.153   0.096  0.00  0.00     0.002 A 
ATOM      6  C6  I4B d   1      -0.437   1.485   0.680  0.00  0.00     0.003 A 
ENDROOT
BRANCH   1   7
ATOM      7  C1' I4B d   1      -2.396   0.887   2.130  0.00  0.00     0.060 C 
BRANCH   7   8
ATOM      8  C2' I4B d   1      -2.362   2.291   2.698  0.00  0.00    -0.013 C 
ATOM      9  C4' I4B d   1      -2.228   3.319   1.605  0.00  0.00     0.013 C 
ATOM     10  C3' I4B d   1      -3.619   2.502   3.488  0.00  0.00     0.013 C 
ENDBRANCH   7   8
ENDBRANCH   1   7
TORSDOF 2
ENDMDL
