MODEL 1
REMARK minimizedAffinity 1.52287078
REMARK minimizedRMSD -1
REMARK  2 active torsions:
REMARK  status: ('A' for Active; 'I' for Inactive)
REMARK    1  A    between atoms: C2'_3  and  C1'_4 
REMARK    2  A    between atoms: C1'_4  and  C1_5 
ROOT
ATOM      1  C1  I4B d   1       0.407   1.136   1.426  0.00  0.00    -0.075 A 
ATOM      2  C2  I4B d   1      -0.589   2.079   1.475  0.00  0.00     0.003 A 
ATOM      3  C3  I4B d   1      -1.930   1.688   1.706  0.00  0.00     0.002 A 
ATOM      4  C4  I4B d   1      -2.235   0.348   1.831  0.00  0.00    -0.004 A 
ATOM      5  C5  I4B d   1      -1.221  -0.605   1.804  0.00  0.00     0.002 A 
ATOM      6  C6  I4B d   1       0.110  -0.208   1.612  0.00  0.00     0.003 A 
ENDROOT
BRANCH   1   7
ATOM      7  C1' I4B d   1       1.808   1.581   1.147  0.00  0.00     0.060 C 
BRANCH   7   8
ATOM      8  C2' I4B d   1       2.447   0.562   0.226  0.00  0.00    -0.013 C 
ATOM      9  C4' I4B d   1       3.116   1.230  -0.946  0.00  0.00     0.013 C 
ATOM     10  C3' I4B d   1       3.431  -0.236   1.029  0.00  0.00     0.013 C 
ENDBRANCH   7   8
ENDBRANCH   1   7
TORSDOF 2
ENDMDL
