MODEL 1
REMARK minimizedAffinity -1.63106358
REMARK minimizedRMSD -1
REMARK  2 active torsions:
REMARK  status: ('A' for Active; 'I' for Inactive)
REMARK    1  A    between atoms: C2'_3  and  C1'_4 
REMARK    2  A    between atoms: C1'_4  and  C1_5 
ROOT
ATOM      1  C1  I4B d   1       0.849   1.153   0.856  0.00  0.00    -0.075 A 
ATOM      2  C2  I4B d   1       0.141   2.319   1.009  0.00  0.00     0.003 A 
ATOM      3  C3  I4B d   1      -1.189   2.287   1.493  0.00  0.00     0.002 A 
ATOM      4  C4  I4B d   1      -1.785   1.071   1.762  0.00  0.00    -0.004 A 
ATOM      5  C5  I4B d   1      -1.059  -0.108   1.628  0.00  0.00     0.002 A 
ATOM      6  C6  I4B d   1       0.271  -0.067   1.184  0.00  0.00     0.003 A 
ENDROOT
BRANCH   1   7
ATOM      7  C1' I4B d   1       2.241   1.221   0.312  0.00  0.00     0.060 C 
BRANCH   7   8
ATOM      8  C2' I4B d   1       2.288   0.389  -0.954  0.00  0.00    -0.013 C 
ATOM      9  C4' I4B d   1       3.097   1.071  -2.025  0.00  0.00     0.013 C 
ATOM     10  C3' I4B d   1       2.869  -0.950  -0.606  0.00  0.00     0.013 C 
ENDBRANCH   7   8
ENDBRANCH   1   7
TORSDOF 2
ENDMDL
