MODEL 1
REMARK minimizedAffinity 7.80177736
REMARK minimizedRMSD -1
REMARK  2 active torsions:
REMARK  status: ('A' for Active; 'I' for Inactive)
REMARK    1  A    between atoms: C2'_3  and  C1'_4 
REMARK    2  A    between atoms: C1'_4  and  C1_5 
ROOT
ATOM      1  C1  I4B d   1       0.188   0.688   1.188  0.00  0.00    -0.075 A 
ATOM      2  C2  I4B d   1      -1.023   1.063   1.715  0.00  0.00     0.003 A 
ATOM      3  C3  I4B d   1      -1.529   2.365   1.483  0.00  0.00     0.002 A 
ATOM      4  C4  I4B d   1      -0.773   3.271   0.768  0.00  0.00    -0.004 A 
ATOM      5  C5  I4B d   1       0.445   2.882   0.216  0.00  0.00     0.002 A 
ATOM      6  C6  I4B d   1       0.923   1.579   0.417  0.00  0.00     0.003 A 
ENDROOT
BRANCH   1   7
ATOM      7  C1' I4B d   1       0.707  -0.684   1.480  0.00  0.00     0.060 C 
BRANCH   7   8
ATOM      8  C2' I4B d   1       0.024  -1.184   2.737  0.00  0.00    -0.013 C 
ATOM      9  C4' I4B d   1      -0.242  -2.664   2.660  0.00  0.00     0.013 C 
ATOM     10  C3' I4B d   1       0.904  -0.852   3.905  0.00  0.00     0.013 C 
ENDBRANCH   7   8
ENDBRANCH   1   7
TORSDOF 2
ENDMDL
