MODEL 1
REMARK minimizedAffinity 3.575243
REMARK minimizedRMSD -1
REMARK  2 active torsions:
REMARK  status: ('A' for Active; 'I' for Inactive)
REMARK    1  A    between atoms: C2'_3  and  C1'_4 
REMARK    2  A    between atoms: C1'_4  and  C1_5 
ROOT
ATOM      1  C1  I4B d   1      -0.222   1.706   1.095  0.00  0.00    -0.075 A 
ATOM      2  C2  I4B d   1       0.995   1.740   0.461  0.00  0.00     0.003 A 
ATOM      3  C3  I4B d   1       1.795   0.574   0.391  0.00  0.00     0.002 A 
ATOM      4  C4  I4B d   1       1.366  -0.582   1.009  0.00  0.00    -0.004 A 
ATOM      5  C5  I4B d   1       0.121  -0.621   1.632  0.00  0.00     0.002 A 
ATOM      6  C6  I4B d   1      -0.683   0.527   1.665  0.00  0.00     0.003 A 
ENDROOT
BRANCH   1   7
ATOM      7  C1' I4B d   1      -1.027   2.965   1.178  0.00  0.00     0.060 C 
BRANCH   7   8
ATOM      8  C2' I4B d   1      -2.493   2.584   1.143  0.00  0.00    -0.013 C 
ATOM      9  C4' I4B d   1      -3.133   2.754   2.496  0.00  0.00     0.013 C 
ATOM     10  C3' I4B d   1      -3.169   3.440   0.113  0.00  0.00     0.013 C 
ENDBRANCH   7   8
ENDBRANCH   1   7
TORSDOF 2
ENDMDL
