MODEL 1
REMARK minimizedAffinity 2.84159994
REMARK minimizedRMSD -1
REMARK  2 active torsions:
REMARK  status: ('A' for Active; 'I' for Inactive)
REMARK    1  A    between atoms: C2'_3  and  C1'_4 
REMARK    2  A    between atoms: C1'_4  and  C1_5 
ROOT
ATOM      1  C1  I4B d   1      -0.655   0.279   1.165  0.00  0.00    -0.075 A 
ATOM      2  C2  I4B d   1       0.211  -0.714   1.549  0.00  0.00     0.003 A 
ATOM      3  C3  I4B d   1      -0.282  -1.896   2.153  0.00  0.00     0.002 A 
ATOM      4  C4  I4B d   1      -1.634  -2.021   2.397  0.00  0.00    -0.004 A 
ATOM      5  C5  I4B d   1      -2.513  -1.024   1.985  0.00  0.00     0.002 A 
ATOM      6  C6  I4B d   1      -2.022   0.129   1.354  0.00  0.00     0.003 A 
ENDROOT
BRANCH   1   7
ATOM      7  C1' I4B d   1      -0.097   1.528   0.560  0.00  0.00     0.060 C 
BRANCH   7   8
ATOM      8  C2' I4B d   1       0.154   2.517   1.681  0.00  0.00    -0.013 C 
ATOM      9  C4' I4B d   1       1.300   3.437   1.350  0.00  0.00     0.013 C 
ATOM     10  C3' I4B d   1      -1.111   3.289   1.909  0.00  0.00     0.013 C 
ENDBRANCH   7   8
ENDBRANCH   1   7
TORSDOF 2
ENDMDL
