MODEL 1
REMARK minimizedAffinity 3.08068085
REMARK minimizedRMSD -1
REMARK  2 active torsions:
REMARK  status: ('A' for Active; 'I' for Inactive)
REMARK    1  A    between atoms: C2'_3  and  C1'_4 
REMARK    2  A    between atoms: C1'_4  and  C1_5 
ROOT
ATOM      1  C1  I4B d   1      -1.704  -0.464   1.120  0.00  0.00    -0.075 A 
ATOM      2  C2  I4B d   1      -0.510  -0.816   1.699  0.00  0.00     0.003 A 
ATOM      3  C3  I4B d   1       0.554   0.116   1.763  0.00  0.00     0.002 A 
ATOM      4  C4  I4B d   1       0.399   1.364   1.194  0.00  0.00    -0.004 A 
ATOM      5  C5  I4B d   1      -0.819   1.727   0.627  0.00  0.00     0.002 A 
ATOM      6  C6  I4B d   1      -1.882   0.812   0.600  0.00  0.00     0.003 A 
ENDROOT
BRANCH   1   7
ATOM      7  C1' I4B d   1      -2.795  -1.484   1.040  0.00  0.00     0.060 C 
BRANCH   7   8
ATOM      8  C2' I4B d   1      -2.639  -2.232  -0.268  0.00  0.00    -0.013 C 
ATOM      9  C4' I4B d   1      -2.000  -3.579  -0.054  0.00  0.00     0.013 C 
ATOM     10  C3' I4B d   1      -3.999  -2.370  -0.887  0.00  0.00     0.013 C 
ENDBRANCH   7   8
ENDBRANCH   1   7
TORSDOF 2
ENDMDL
