MODEL 1
REMARK minimizedAffinity 3.65620017
REMARK minimizedRMSD -1
REMARK  2 active torsions:
REMARK  status: ('A' for Active; 'I' for Inactive)
REMARK    1  A    between atoms: C2'_3  and  C1'_4 
REMARK    2  A    between atoms: C1'_4  and  C1_5 
ROOT
ATOM      1  C1  I4B d   1      -3.463   1.650   3.192  0.00  0.00    -0.075 A 
ATOM      2  C2  I4B d   1      -3.407   0.293   2.993  0.00  0.00     0.003 A 
ATOM      3  C3  I4B d   1      -2.254  -0.297   2.421  0.00  0.00     0.002 A 
ATOM      4  C4  I4B d   1      -1.207   0.507   2.021  0.00  0.00    -0.004 A 
ATOM      5  C5  I4B d   1      -1.255   1.880   2.245  0.00  0.00     0.002 A 
ATOM      6  C6  I4B d   1      -2.385   2.454   2.846  0.00  0.00     0.003 A 
ENDROOT
BRANCH   1   7
ATOM      7  C1' I4B d   1      -4.709   2.243   3.768  0.00  0.00     0.060 C 
BRANCH   7   8
ATOM      8  C2' I4B d   1      -4.480   2.467   5.249  0.00  0.00    -0.013 C 
ATOM      9  C4' I4B d   1      -4.887   3.857   5.660  0.00  0.00     0.013 C 
ATOM     10  C3' I4B d   1      -5.259   1.429   6.000  0.00  0.00     0.013 C 
ENDBRANCH   7   8
ENDBRANCH   1   7
TORSDOF 2
ENDMDL
