MODEL 1
REMARK minimizedAffinity -1.01007652
REMARK minimizedRMSD -1
REMARK  2 active torsions:
REMARK  status: ('A' for Active; 'I' for Inactive)
REMARK    1  A    between atoms: C2'_3  and  C1'_4 
REMARK    2  A    between atoms: C1'_4  and  C1_5 
ROOT
ATOM      1  C1  I4B d   1       0.146   1.022   1.184  0.00  0.00    -0.075 A 
ATOM      2  C2  I4B d   1      -0.248  -0.291   1.251  0.00  0.00     0.003 A 
ATOM      3  C3  I4B d   1      -1.558  -0.621   1.676  0.00  0.00     0.002 A 
ATOM      4  C4  I4B d   1      -2.418   0.383   2.071  0.00  0.00    -0.004 A 
ATOM      5  C5  I4B d   1      -2.024   1.715   1.982  0.00  0.00     0.002 A 
ATOM      6  C6  I4B d   1      -0.739   2.038   1.523  0.00  0.00     0.003 A 
ENDROOT
BRANCH   1   7
ATOM      7  C1' I4B d   1       1.546   1.334   0.762  0.00  0.00     0.060 C 
BRANCH   7   8
ATOM      8  C2' I4B d   1       2.164   0.062   0.219  0.00  0.00    -0.013 C 
ATOM      9  C4' I4B d   1       2.739   0.278  -1.156  0.00  0.00     0.013 C 
ATOM     10  C3' I4B d   1       3.222  -0.387   1.184  0.00  0.00     0.013 C 
ENDBRANCH   7   8
ENDBRANCH   1   7
TORSDOF 2
ENDMDL
