MODEL 1
REMARK minimizedAffinity -0.397985607
REMARK minimizedRMSD -1
REMARK  2 active torsions:
REMARK  status: ('A' for Active; 'I' for Inactive)
REMARK    1  A    between atoms: C2'_3  and  C1'_4 
REMARK    2  A    between atoms: C1'_4  and  C1_5 
ROOT
ATOM      1  C1  I4B d   1      -1.242   1.790   2.181  0.00  0.00    -0.075 A 
ATOM      2  C2  I4B d   1      -0.701   0.541   2.001  0.00  0.00     0.003 A 
ATOM      3  C3  I4B d   1      -1.489  -0.615   2.221  0.00  0.00     0.002 A 
ATOM      4  C4  I4B d   1      -2.788  -0.478   2.665  0.00  0.00    -0.004 A 
ATOM      5  C5  I4B d   1      -3.342   0.789   2.825  0.00  0.00     0.002 A 
ATOM      6  C6  I4B d   1      -2.568   1.931   2.569  0.00  0.00     0.003 A 
ENDROOT
BRANCH   1   7
ATOM      7  C1' I4B d   1      -0.372   2.989   1.972  0.00  0.00     0.060 C 
BRANCH   7   8
ATOM      8  C2' I4B d   1      -0.206   3.191   0.480  0.00  0.00    -0.013 C 
ATOM      9  C4' I4B d   1       1.003   2.457  -0.038  0.00  0.00     0.013 C 
ATOM     10  C3' I4B d   1      -1.458   2.715  -0.194  0.00  0.00     0.013 C 
ENDBRANCH   7   8
ENDBRANCH   1   7
TORSDOF 2
ENDMDL
