MODEL 1
REMARK minimizedAffinity 7.48618078
REMARK minimizedRMSD -1
REMARK  2 active torsions:
REMARK  status: ('A' for Active; 'I' for Inactive)
REMARK    1  A    between atoms: C2'_3  and  C1'_4 
REMARK    2  A    between atoms: C1'_4  and  C1_5 
ROOT
ATOM      1  C1  I4B d   1      -2.490   2.479   2.478  0.00  0.00    -0.075 A 
ATOM      2  C2  I4B d   1      -1.891   1.270   2.734  0.00  0.00     0.003 A 
ATOM      3  C3  I4B d   1      -0.716   0.896   2.038  0.00  0.00     0.002 A 
ATOM      4  C4  I4B d   1      -0.207   1.732   1.066  0.00  0.00    -0.004 A 
ATOM      5  C5  I4B d   1      -0.802   2.967   0.824  0.00  0.00     0.002 A 
ATOM      6  C6  I4B d   1      -1.944   3.349   1.544  0.00  0.00     0.003 A 
ENDROOT
BRANCH   1   7
ATOM      7  C1' I4B d   1      -3.748   2.828   3.208  0.00  0.00     0.060 C 
BRANCH   7   8
ATOM      8  C2' I4B d   1      -3.847   1.929   4.424  0.00  0.00    -0.013 C 
ATOM      9  C4' I4B d   1      -4.468   2.654   5.589  0.00  0.00     0.013 C 
ATOM     10  C3' I4B d   1      -4.655   0.724   4.044  0.00  0.00     0.013 C 
ENDBRANCH   7   8
ENDBRANCH   1   7
TORSDOF 2
ENDMDL
