MODEL 1
REMARK minimizedAffinity 6.59429359
REMARK minimizedRMSD -1
REMARK  2 active torsions:
REMARK  status: ('A' for Active; 'I' for Inactive)
REMARK    1  A    between atoms: C2'_3  and  C1'_4 
REMARK    2  A    between atoms: C1'_4  and  C1_5 
ROOT
ATOM      1  C1  I4B d   1       3.355   3.716  -4.519  0.00  0.00    -0.075 A 
ATOM      2  C2  I4B d   1       2.363   4.358  -5.216  0.00  0.00     0.003 A 
ATOM      3  C3  I4B d   1       2.664   5.504  -5.991  0.00  0.00     0.002 A 
ATOM      4  C4  I4B d   1       3.952   6.000  -6.000  0.00  0.00    -0.004 A 
ATOM      5  C5  I4B d   1       4.961   5.333  -5.310  0.00  0.00     0.002 A 
ATOM      6  C6  I4B d   1       4.664   4.177  -4.575  0.00  0.00     0.003 A 
ENDROOT
BRANCH   1   7
ATOM      7  C1' I4B d   1       2.995   2.528  -3.684  0.00  0.00     0.060 C 
BRANCH   7   8
ATOM      8  C2' I4B d   1       3.758   1.333  -4.219  0.00  0.00    -0.013 C 
ATOM      9  C4' I4B d   1       5.191   1.349  -3.756  0.00  0.00     0.013 C 
ATOM     10  C3' I4B d   1       3.054   0.091  -3.760  0.00  0.00     0.013 C 
ENDBRANCH   7   8
ENDBRANCH   1   7
TORSDOF 2
ENDMDL
