MODEL 1
REMARK minimizedAffinity 3.74785113
REMARK minimizedRMSD -1
REMARK  2 active torsions:
REMARK  status: ('A' for Active; 'I' for Inactive)
REMARK    1  A    between atoms: C2'_3  and  C1'_4 
REMARK    2  A    between atoms: C1'_4  and  C1_5 
ROOT
ATOM      1  C1  I4B d   1      -1.274   2.084   1.534  0.00  0.00    -0.075 A 
ATOM      2  C2  I4B d   1      -0.439   1.108   2.018  0.00  0.00     0.003 A 
ATOM      3  C3  I4B d   1       0.964   1.240   1.886  0.00  0.00     0.002 A 
ATOM      4  C4  I4B d   1       1.485   2.332   1.222  0.00  0.00    -0.004 A 
ATOM      5  C5  I4B d   1       0.638   3.332   0.751  0.00  0.00     0.002 A 
ATOM      6  C6  I4B d   1      -0.749   3.214   0.919  0.00  0.00     0.003 A 
ENDROOT
BRANCH   1   7
ATOM      7  C1' I4B d   1      -2.752   1.897   1.661  0.00  0.00     0.060 C 
BRANCH   7   8
ATOM      8  C2' I4B d   1      -3.013   1.077   2.908  0.00  0.00    -0.013 C 
ATOM      9  C4' I4B d   1      -4.163   1.641   3.701  0.00  0.00     0.013 C 
ATOM     10  C3' I4B d   1      -3.288  -0.335   2.485  0.00  0.00     0.013 C 
ENDBRANCH   7   8
ENDBRANCH   1   7
TORSDOF 2
ENDMDL
