MODEL 1
REMARK minimizedAffinity -4.48181677
REMARK minimizedRMSD -1
REMARK  1 active torsions:
REMARK  status: ('A' for Active; 'I' for Inactive)
REMARK    1  A    between atoms: C1_2  and  C2_3 
ROOT
ATOM      1  C2  UNL d   1      -5.173  -0.694  -0.248  0.00  0.00    -0.081 A 
ATOM      2  C3  UNL d   1      -4.025  -0.166  -0.852  0.00  0.00     0.006 A 
ATOM      3  C4  UNL d   1      -3.227   0.757  -0.172  0.00  0.00     0.002 A 
ATOM      4  C5  UNL d   1      -3.558   1.161   1.126  0.00  0.00    -0.080 A 
ATOM      5  C6  UNL d   1      -2.693   2.128   1.878  0.00  0.00     0.076 C 
ATOM      6  C7  UNL d   1      -4.714   0.647   1.723  0.00  0.00     0.002 A 
ATOM      7  C8  UNL d   1      -5.513  -0.275   1.043  0.00  0.00     0.006 A 
ENDROOT
BRANCH   1   8
ATOM      8  C1  UNL d   1      -6.000  -1.738  -0.953  0.00  0.00     0.054 C 
ATOM      9  C   UNL d   1      -5.997  -1.521  -2.460  0.00  0.00     0.018 C 
ENDBRANCH   1   8
TORSDOF 1
ENDMDL
