MODEL 1
REMARK minimizedAffinity -4.31678963
REMARK minimizedRMSD -1
REMARK  1 active torsions:
REMARK  status: ('A' for Active; 'I' for Inactive)
REMARK    1  A    between atoms: C1_2  and  C2_3 
ROOT
ATOM      1  C2  UNL d   1      -0.395   0.247   0.135  0.00  0.00    -0.081 A 
ATOM      2  C3  UNL d   1      -0.120  -1.094  -0.160  0.00  0.00     0.006 A 
ATOM      3  C4  UNL d   1       1.177  -1.596  -0.028  0.00  0.00     0.002 A 
ATOM      4  C5  UNL d   1       2.218  -0.769   0.407  0.00  0.00    -0.080 A 
ATOM      5  C6  UNL d   1       3.608  -1.303   0.582  0.00  0.00     0.076 C 
ATOM      6  C7  UNL d   1       1.947   0.576   0.685  0.00  0.00     0.002 A 
ATOM      7  C8  UNL d   1       0.650   1.078   0.553  0.00  0.00     0.006 A 
ENDROOT
BRANCH   1   8
ATOM      8  C1  UNL d   1      -1.804   0.776   0.056  0.00  0.00     0.054 C 
ATOM      9  C   UNL d   1      -2.824  -0.341   0.226  0.00  0.00     0.018 C 
ENDBRANCH   1   8
TORSDOF 1
ENDMDL
