MODEL 1
REMARK minimizedAffinity -2.54190946
REMARK minimizedRMSD -1
REMARK  1 active torsions:
REMARK  status: ('A' for Active; 'I' for Inactive)
REMARK    1  A    between atoms: C1_2  and  C2_3 
ROOT
ATOM      1  C2  UNL d   1       2.284   0.943  -0.348  0.00  0.00    -0.081 A 
ATOM      2  C3  UNL d   1       0.892   0.803  -0.384  0.00  0.00     0.006 A 
ATOM      3  C4  UNL d   1       0.304  -0.460  -0.278  0.00  0.00     0.002 A 
ATOM      4  C5  UNL d   1       1.098  -1.602  -0.127  0.00  0.00    -0.080 A 
ATOM      5  C6  UNL d   1       0.479  -2.960   0.018  0.00  0.00     0.076 C 
ATOM      6  C7  UNL d   1       2.490  -1.463  -0.109  0.00  0.00     0.002 A 
ATOM      7  C8  UNL d   1       3.078  -0.201  -0.215  0.00  0.00     0.006 A 
ENDROOT
BRANCH   1   8
ATOM      8  C1  UNL d   1       2.918   2.310  -0.397  0.00  0.00     0.054 C 
ATOM      9  C   UNL d   1       4.222   2.288  -1.182  0.00  0.00     0.018 C 
ENDBRANCH   1   8
TORSDOF 1
ENDMDL
