MODEL 1
REMARK minimizedAffinity -2.24315739
REMARK minimizedRMSD -1
REMARK  1 active torsions:
REMARK  status: ('A' for Active; 'I' for Inactive)
REMARK    1  A    between atoms: C1_2  and  C2_3 
ROOT
ATOM      1  C2  UNL d   1      -0.696   0.625  -0.147  0.00  0.00    -0.081 A 
ATOM      2  C3  UNL d   1       0.417   1.471  -0.067  0.00  0.00     0.006 A 
ATOM      3  C4  UNL d   1       1.707   0.941   0.004  0.00  0.00     0.002 A 
ATOM      4  C5  UNL d   1       1.907  -0.444  -0.012  0.00  0.00    -0.080 A 
ATOM      5  C6  UNL d   1       3.288  -1.026   0.033  0.00  0.00     0.076 C 
ATOM      6  C7  UNL d   1       0.794  -1.290  -0.075  0.00  0.00     0.002 A 
ATOM      7  C8  UNL d   1      -0.496  -0.760  -0.145  0.00  0.00     0.006 A 
ENDROOT
BRANCH   1   8
ATOM      8  C1  UNL d   1      -2.084   1.195  -0.289  0.00  0.00     0.054 C 
ATOM      9  C   UNL d   1      -3.140   0.204   0.180  0.00  0.00     0.018 C 
ENDBRANCH   1   8
TORSDOF 1
ENDMDL
