MODEL 1
REMARK minimizedAffinity 11.6672325
REMARK minimizedRMSD -1
REMARK  2 active torsions:
REMARK  status: ('A' for Active; 'I' for Inactive)
REMARK    1  A    between atoms: C1_2  and  C2_3 
REMARK    2  A    between atoms: C2_3  and  C3_4 
ROOT
ATOM      1  C3  UNL d   1      -1.253  -1.656   2.526  0.00  0.00    -0.075 A 
ATOM      2  C4  UNL d   1      -2.014  -1.138   1.468  0.00  0.00     0.002 A 
ATOM      3  C5  UNL d   1      -2.995  -0.174   1.707  0.00  0.00     0.002 A 
ATOM      4  C6  UNL d   1      -3.233   0.275   3.004  0.00  0.00    -0.004 A 
ATOM      5  C7  UNL d   1      -2.494  -0.245   4.064  0.00  0.00     0.002 A 
ATOM      6  C8  UNL d   1      -1.510  -1.206   3.828  0.00  0.00     0.002 A 
ENDROOT
BRANCH   1   7
ATOM      7  C2  UNL d   1      -0.170  -2.677   2.271  0.00  0.00     0.056 C 
BRANCH   7   8
ATOM      8  C1  UNL d   1       1.163  -2.357   2.956  0.00  0.00     0.007 C 
ATOM      9  C   UNL d   1       1.603  -3.429   3.944  0.00  0.00     0.009 C 
ENDBRANCH   7   8
ENDBRANCH   1   7
TORSDOF 2
ENDMDL
