MODEL 1
REMARK minimizedAffinity 14.8833561
REMARK minimizedRMSD -1
REMARK  2 active torsions:
REMARK  status: ('A' for Active; 'I' for Inactive)
REMARK    1  A    between atoms: C1_2  and  C2_3 
REMARK    2  A    between atoms: C2_3  and  C3_4 
ROOT
ATOM      1  C3  UNL d   1       4.278  -2.804  -0.611  0.00  0.00    -0.075 A 
ATOM      2  C4  UNL d   1       3.304  -3.718  -0.186  0.00  0.00     0.002 A 
ATOM      3  C5  UNL d   1       3.676  -4.946   0.362  0.00  0.00     0.002 A 
ATOM      4  C6  UNL d   1       5.024  -5.279   0.482  0.00  0.00    -0.004 A 
ATOM      5  C7  UNL d   1       6.000  -4.385   0.048  0.00  0.00     0.002 A 
ATOM      6  C8  UNL d   1       5.630  -3.154  -0.496  0.00  0.00     0.002 A 
ENDROOT
BRANCH   1   7
ATOM      7  C2  UNL d   1       3.883  -1.461  -1.177  0.00  0.00     0.056 C 
BRANCH   7   8
ATOM      8  C1  UNL d   1       3.123  -0.567  -0.191  0.00  0.00     0.007 C 
ATOM      9  C   UNL d   1       2.789   0.805  -0.759  0.00  0.00     0.009 C 
ENDBRANCH   7   8
ENDBRANCH   1   7
TORSDOF 2
ENDMDL
