MODEL 1
REMARK minimizedAffinity 3.87248778
REMARK minimizedRMSD -1
REMARK  2 active torsions:
REMARK  status: ('A' for Active; 'I' for Inactive)
REMARK    1  A    between atoms: C1_2  and  C2_3 
REMARK    2  A    between atoms: C2_3  and  C3_4 
ROOT
ATOM      1  C3  UNL d   1       0.270  -3.024   1.959  0.00  0.00    -0.075 A 
ATOM      2  C4  UNL d   1       0.037  -4.221   1.268  0.00  0.00     0.002 A 
ATOM      3  C5  UNL d   1      -1.213  -4.482   0.704  0.00  0.00     0.002 A 
ATOM      4  C6  UNL d   1      -2.245  -3.555   0.832  0.00  0.00    -0.004 A 
ATOM      5  C7  UNL d   1      -2.029  -2.369   1.530  0.00  0.00     0.002 A 
ATOM      6  C8  UNL d   1      -0.778  -2.104   2.092  0.00  0.00     0.002 A 
ENDROOT
BRANCH   1   7
ATOM      7  C2  UNL d   1       1.629  -2.723   2.546  0.00  0.00     0.056 C 
BRANCH   7   8
ATOM      8  C1  UNL d   1       1.667  -2.756   4.078  0.00  0.00     0.007 C 
ATOM      9  C   UNL d   1       1.625  -4.166   4.650  0.00  0.00     0.009 C 
ENDBRANCH   7   8
ENDBRANCH   1   7
TORSDOF 2
ENDMDL
