MODEL 1
REMARK minimizedAffinity 20.0424538
REMARK minimizedRMSD -1
REMARK  2 active torsions:
REMARK  status: ('A' for Active; 'I' for Inactive)
REMARK    1  A    between atoms: C1_2  and  C2_3 
REMARK    2  A    between atoms: C2_3  and  C3_4 
ROOT
ATOM      1  C3  UNL d   1       3.827   3.449  -3.066  0.00  0.00    -0.075 A 
ATOM      2  C4  UNL d   1       4.112   4.679  -2.457  0.00  0.00     0.002 A 
ATOM      3  C5  UNL d   1       5.190   5.452  -2.891  0.00  0.00     0.002 A 
ATOM      4  C6  UNL d   1       6.000   5.001  -3.931  0.00  0.00    -0.004 A 
ATOM      5  C7  UNL d   1       5.736   3.772  -4.532  0.00  0.00     0.002 A 
ATOM      6  C8  UNL d   1       4.656   2.999  -4.102  0.00  0.00     0.002 A 
ENDROOT
BRANCH   1   7
ATOM      7  C2  UNL d   1       2.645   2.621  -2.620  0.00  0.00     0.056 C 
BRANCH   7   8
ATOM      8  C1  UNL d   1       3.010   1.471  -1.675  0.00  0.00     0.007 C 
ATOM      9  C   UNL d   1       3.005   1.876  -0.207  0.00  0.00     0.009 C 
ENDBRANCH   7   8
ENDBRANCH   1   7
TORSDOF 2
ENDMDL
