MODEL 1
REMARK minimizedAffinity 14.7423325
REMARK minimizedRMSD -1
REMARK  2 active torsions:
REMARK  status: ('A' for Active; 'I' for Inactive)
REMARK    1  A    between atoms: C1_2  and  C2_3 
REMARK    2  A    between atoms: C2_3  and  C3_4 
ROOT
ATOM      1  C3  UNL d   1       4.806   3.994  -2.608  0.00  0.00    -0.075 A 
ATOM      2  C4  UNL d   1       3.462   3.697  -2.336  0.00  0.00     0.002 A 
ATOM      3  C5  UNL d   1       2.633   3.190  -3.337  0.00  0.00     0.002 A 
ATOM      4  C6  UNL d   1       3.132   2.984  -4.622  0.00  0.00    -0.004 A 
ATOM      5  C7  UNL d   1       4.461   3.292  -4.907  0.00  0.00     0.002 A 
ATOM      6  C8  UNL d   1       5.294   3.795  -3.906  0.00  0.00     0.002 A 
ENDROOT
BRANCH   1   7
ATOM      7  C2  UNL d   1       5.716   4.516  -1.521  0.00  0.00     0.056 C 
BRANCH   7   8
ATOM      8  C1  UNL d   1       6.000   3.503  -0.406  0.00  0.00     0.007 C 
ATOM      9  C   UNL d   1       5.997   4.125   0.984  0.00  0.00     0.009 C 
ENDBRANCH   7   8
ENDBRANCH   1   7
TORSDOF 2
ENDMDL
