MODEL 1
REMARK minimizedAffinity 19.0173244
REMARK minimizedRMSD -1
REMARK  2 active torsions:
REMARK  status: ('A' for Active; 'I' for Inactive)
REMARK    1  A    between atoms: C1_2  and  C2_3 
REMARK    2  A    between atoms: C2_3  and  C3_4 
ROOT
ATOM      1  C3  UNL d   1      -2.838  -2.609   0.193  0.00  0.00    -0.075 A 
ATOM      2  C4  UNL d   1      -1.894  -3.421  -0.453  0.00  0.00     0.002 A 
ATOM      3  C5  UNL d   1      -1.888  -4.801  -0.247  0.00  0.00     0.002 A 
ATOM      4  C6  UNL d   1      -2.816  -5.384   0.612  0.00  0.00    -0.004 A 
ATOM      5  C7  UNL d   1      -3.747  -4.585   1.272  0.00  0.00     0.002 A 
ATOM      6  C8  UNL d   1      -3.759  -3.205   1.065  0.00  0.00     0.002 A 
ENDROOT
BRANCH   1   7
ATOM      7  C2  UNL d   1      -2.869  -1.118  -0.049  0.00  0.00     0.056 C 
BRANCH   7   8
ATOM      8  C1  UNL d   1      -4.217  -0.597  -0.557  0.00  0.00     0.007 C 
ATOM      9  C   UNL d   1      -4.384  -0.736  -2.065  0.00  0.00     0.009 C 
ENDBRANCH   7   8
ENDBRANCH   1   7
TORSDOF 2
ENDMDL
