MODEL 1
REMARK minimizedAffinity 16.7696323
REMARK minimizedRMSD -1
REMARK  2 active torsions:
REMARK  status: ('A' for Active; 'I' for Inactive)
REMARK    1  A    between atoms: C1_2  and  C2_3 
REMARK    2  A    between atoms: C2_3  and  C3_4 
ROOT
ATOM      1  C3  UNL d   1      -4.490   0.408  -0.301  0.00  0.00    -0.075 A 
ATOM      2  C4  UNL d   1      -5.117   1.648  -0.491  0.00  0.00     0.002 A 
ATOM      3  C5  UNL d   1      -5.810   1.918  -1.671  0.00  0.00     0.002 A 
ATOM      4  C6  UNL d   1      -5.877   0.958  -2.679  0.00  0.00    -0.004 A 
ATOM      5  C7  UNL d   1      -5.244  -0.271  -2.508  0.00  0.00     0.002 A 
ATOM      6  C8  UNL d   1      -4.553  -0.545  -1.326  0.00  0.00     0.002 A 
ENDROOT
BRANCH   1   7
ATOM      7  C2  UNL d   1      -3.763   0.099   0.986  0.00  0.00     0.056 C 
BRANCH   7   8
ATOM      8  C1  UNL d   1      -2.306  -0.335   0.790  0.00  0.00     0.007 C 
ATOM      9  C   UNL d   1      -1.330   0.428   1.675  0.00  0.00     0.009 C 
ENDBRANCH   7   8
ENDBRANCH   1   7
TORSDOF 2
ENDMDL
