MODEL 1
REMARK minimizedAffinity 13.3029251
REMARK minimizedRMSD -1
REMARK  2 active torsions:
REMARK  status: ('A' for Active; 'I' for Inactive)
REMARK    1  A    between atoms: C1_2  and  C2_3 
REMARK    2  A    between atoms: C2_3  and  C3_4 
ROOT
ATOM      1  C3  UNL d   1      -0.721  -0.928   2.509  0.00  0.00    -0.075 A 
ATOM      2  C4  UNL d   1      -0.644  -0.309   3.765  0.00  0.00     0.002 A 
ATOM      3  C5  UNL d   1       0.179  -0.833   4.762  0.00  0.00     0.002 A 
ATOM      4  C6  UNL d   1       0.925  -1.984   4.522  0.00  0.00    -0.004 A 
ATOM      5  C7  UNL d   1       0.843  -2.617   3.283  0.00  0.00     0.002 A 
ATOM      6  C8  UNL d   1       0.024  -2.093   2.281  0.00  0.00     0.002 A 
ENDROOT
BRANCH   1   7
ATOM      7  C2  UNL d   1      -1.587  -0.351   1.415  0.00  0.00     0.056 C 
BRANCH   7   8
ATOM      8  C1  UNL d   1      -2.015  -1.370   0.354  0.00  0.00     0.007 C 
ATOM      9  C   UNL d   1      -2.294  -0.741  -1.005  0.00  0.00     0.009 C 
ENDBRANCH   7   8
ENDBRANCH   1   7
TORSDOF 2
ENDMDL
