MODEL 1
REMARK minimizedAffinity 16.1493282
REMARK minimizedRMSD -1
REMARK  2 active torsions:
REMARK  status: ('A' for Active; 'I' for Inactive)
REMARK    1  A    between atoms: C1_2  and  C2_3 
REMARK    2  A    between atoms: C2_3  and  C3_4 
ROOT
ATOM      1  C3  UNL d   1       3.379  -4.643   0.205  0.00  0.00    -0.075 A 
ATOM      2  C4  UNL d   1       4.063  -5.858   0.358  0.00  0.00     0.002 A 
ATOM      3  C5  UNL d   1       5.368  -6.000  -0.115  0.00  0.00     0.002 A 
ATOM      4  C6  UNL d   1       6.000  -4.936  -0.755  0.00  0.00    -0.004 A 
ATOM      5  C7  UNL d   1       5.324  -3.730  -0.927  0.00  0.00     0.002 A 
ATOM      6  C8  UNL d   1       4.020  -3.584  -0.451  0.00  0.00     0.002 A 
ENDROOT
BRANCH   1   7
ATOM      7  C2  UNL d   1       1.977  -4.473   0.741  0.00  0.00     0.056 C 
BRANCH   7   8
ATOM      8  C1  UNL d   1       1.856  -3.420   1.848  0.00  0.00     0.007 C 
ATOM      9  C   UNL d   1       0.490  -2.748   1.890  0.00  0.00     0.009 C 
ENDBRANCH   7   8
ENDBRANCH   1   7
TORSDOF 2
ENDMDL
