MODEL 1
REMARK minimizedAffinity 14.3636017
REMARK minimizedRMSD -1
REMARK  2 active torsions:
REMARK  status: ('A' for Active; 'I' for Inactive)
REMARK    1  A    between atoms: C1_2  and  C2_3 
REMARK    2  A    between atoms: C2_3  and  C3_4 
ROOT
ATOM      1  C3  UNL d   1       3.955   2.178   1.456  0.00  0.00    -0.075 A 
ATOM      2  C4  UNL d   1       2.984   2.852   0.700  0.00  0.00     0.002 A 
ATOM      3  C5  UNL d   1       2.029   2.138  -0.024  0.00  0.00     0.002 A 
ATOM      4  C6  UNL d   1       2.038   0.745  -0.011  0.00  0.00    -0.004 A 
ATOM      5  C7  UNL d   1       3.009   0.065   0.722  0.00  0.00     0.002 A 
ATOM      6  C8  UNL d   1       3.963   0.777   1.452  0.00  0.00     0.002 A 
ENDROOT
BRANCH   1   7
ATOM      7  C2  UNL d   1       4.973   2.945   2.265  0.00  0.00     0.056 C 
BRANCH   7   8
ATOM      8  C1  UNL d   1       5.999   3.706   1.418  0.00  0.00     0.007 C 
ATOM      9  C   UNL d   1       6.000   3.284  -0.045  0.00  0.00     0.009 C 
ENDBRANCH   7   8
ENDBRANCH   1   7
TORSDOF 2
ENDMDL
