MODEL 1
REMARK minimizedAffinity 10.4850979
REMARK minimizedRMSD -1
REMARK  2 active torsions:
REMARK  status: ('A' for Active; 'I' for Inactive)
REMARK    1  A    between atoms: C1_2  and  C2_3 
REMARK    2  A    between atoms: C2_3  and  C3_4 
ROOT
ATOM      1  C3  UNL d   1       4.048   4.432  -2.599  0.00  0.00    -0.075 A 
ATOM      2  C4  UNL d   1       3.025   5.321  -2.238  0.00  0.00     0.002 A 
ATOM      3  C5  UNL d   1       1.691   4.911  -2.254  0.00  0.00     0.002 A 
ATOM      4  C6  UNL d   1       1.363   3.613  -2.640  0.00  0.00    -0.004 A 
ATOM      5  C7  UNL d   1       2.370   2.727  -3.016  0.00  0.00     0.002 A 
ATOM      6  C8  UNL d   1       3.705   3.133  -2.997  0.00  0.00     0.002 A 
ENDROOT
BRANCH   1   7
ATOM      7  C2  UNL d   1       5.495   4.860  -2.555  0.00  0.00     0.056 C 
BRANCH   7   8
ATOM      8  C1  UNL d   1       6.000   5.487  -3.859  0.00  0.00     0.007 C 
ATOM      9  C   UNL d   1       6.000   4.515  -5.032  0.00  0.00     0.009 C 
ENDBRANCH   7   8
ENDBRANCH   1   7
TORSDOF 2
ENDMDL
