MODEL 1
REMARK minimizedAffinity 11.6129885
REMARK minimizedRMSD -1
REMARK  2 active torsions:
REMARK  status: ('A' for Active; 'I' for Inactive)
REMARK    1  A    between atoms: C1_2  and  C2_3 
REMARK    2  A    between atoms: C2_3  and  C3_4 
ROOT
ATOM      1  C3  UNL d   1      -5.733   0.922  -0.997  0.00  0.00    -0.075 A 
ATOM      2  C4  UNL d   1      -5.960   2.258  -0.636  0.00  0.00     0.002 A 
ATOM      3  C5  UNL d   1      -5.917   2.647   0.704  0.00  0.00     0.002 A 
ATOM      4  C6  UNL d   1      -5.656   1.706   1.697  0.00  0.00    -0.004 A 
ATOM      5  C7  UNL d   1      -5.445   0.373   1.351  0.00  0.00     0.002 A 
ATOM      6  C8  UNL d   1      -5.484  -0.018   0.012  0.00  0.00     0.002 A 
ENDROOT
BRANCH   1   7
ATOM      7  C2  UNL d   1      -5.750   0.500  -2.447  0.00  0.00     0.056 C 
BRANCH   7   8
ATOM      8  C1  UNL d   1      -5.698  -1.017  -2.656  0.00  0.00     0.007 C 
ATOM      9  C   UNL d   1      -5.995  -1.436  -4.089  0.00  0.00     0.009 C 
ENDBRANCH   7   8
ENDBRANCH   1   7
TORSDOF 2
ENDMDL
