MODEL 1
REMARK minimizedAffinity 11.4975023
REMARK minimizedRMSD -1
REMARK  2 active torsions:
REMARK  status: ('A' for Active; 'I' for Inactive)
REMARK    1  A    between atoms: C1_2  and  C2_3 
REMARK    2  A    between atoms: C2_3  and  C3_4 
ROOT
ATOM      1  C3  UNL d   1      -1.020  -2.387   2.101  0.00  0.00    -0.075 A 
ATOM      2  C4  UNL d   1      -2.371  -2.060   2.285  0.00  0.00     0.002 A 
ATOM      3  C5  UNL d   1      -3.375  -2.928   1.855  0.00  0.00     0.002 A 
ATOM      4  C6  UNL d   1      -3.043  -4.127   1.229  0.00  0.00    -0.004 A 
ATOM      5  C7  UNL d   1      -1.704  -4.455   1.026  0.00  0.00     0.002 A 
ATOM      6  C8  UNL d   1      -0.697  -3.590   1.459  0.00  0.00     0.002 A 
ENDROOT
BRANCH   1   7
ATOM      7  C2  UNL d   1       0.072  -1.466   2.590  0.00  0.00     0.056 C 
BRANCH   7   8
ATOM      8  C1  UNL d   1       1.400  -2.172   2.881  0.00  0.00     0.007 C 
ATOM      9  C   UNL d   1       1.402  -2.928   4.203  0.00  0.00     0.009 C 
ENDBRANCH   7   8
ENDBRANCH   1   7
TORSDOF 2
ENDMDL
