MODEL 1
REMARK minimizedAffinity 14.9581051
REMARK minimizedRMSD -1
REMARK  0 active torsions:
REMARK  status: ('A' for Active; 'I' for Inactive)
ROOT
ATOM      1  C   UNL d   1       3.324  -0.197  -1.625  0.00  0.00     0.020 A 
ATOM      2  C1  UNL d   1       4.588   0.389  -1.666  0.00  0.00     0.020 A 
ATOM      3  C2  UNL d   1       5.055   1.120  -0.572  0.00  0.00     0.034 A 
ATOM      4  C3  UNL d   1       4.258   1.267   0.569  0.00  0.00     0.017 A 
ATOM      5  C4  UNL d   1       2.988   0.678   0.610  0.00  0.00     0.017 A 
ATOM      6  C5  UNL d   1       2.526  -0.053  -0.489  0.00  0.00     0.034 A 
ATOM      7 Cl   UNL d   1       1.947   0.815   1.982  0.00  0.00    -0.070 Cl
ATOM      8 Cl1  UNL d   1       4.899   2.183   1.886  0.00  0.00    -0.070 Cl
ENDROOT
TORSDOF 0
ENDMDL
