MODEL 1
REMARK minimizedAffinity 11.5575924
REMARK minimizedRMSD -1
REMARK  0 active torsions:
REMARK  status: ('A' for Active; 'I' for Inactive)
ROOT
ATOM      1  C   UNL d   1      -0.507  -5.093   4.642  0.00  0.00     0.020 A 
ATOM      2  C1  UNL d   1       0.390  -5.551   5.606  0.00  0.00     0.020 A 
ATOM      3  C2  UNL d   1       1.462  -4.747   6.000  0.00  0.00     0.034 A 
ATOM      4  C3  UNL d   1       1.641  -3.482   5.428  0.00  0.00     0.017 A 
ATOM      5  C4  UNL d   1       0.740  -3.024   4.460  0.00  0.00     0.017 A 
ATOM      6  C5  UNL d   1      -0.332  -3.833   4.070  0.00  0.00     0.034 A 
ATOM      7 Cl   UNL d   1       0.895  -1.475   3.709  0.00  0.00    -0.070 Cl
ATOM      8 Cl1  UNL d   1       2.988  -2.542   5.963  0.00  0.00    -0.070 Cl
ENDROOT
TORSDOF 0
ENDMDL
