MODEL 1
REMARK minimizedAffinity 12.4265919
REMARK minimizedRMSD -1
REMARK  0 active torsions:
REMARK  status: ('A' for Active; 'I' for Inactive)
ROOT
ATOM      1  C   UNL d   1       6.000   5.971  -0.860  0.00  0.00     0.020 A 
ATOM      2  C1  UNL d   1       5.870   5.244  -2.042  0.00  0.00     0.020 A 
ATOM      3  C2  UNL d   1       5.602   3.874  -1.994  0.00  0.00     0.034 A 
ATOM      4  C3  UNL d   1       5.463   3.228  -0.761  0.00  0.00     0.017 A 
ATOM      5  C4  UNL d   1       5.594   3.958   0.426  0.00  0.00     0.017 A 
ATOM      6  C5  UNL d   1       5.862   5.329   0.372  0.00  0.00     0.034 A 
ATOM      7 Cl   UNL d   1       5.435   3.230   1.985  0.00  0.00    -0.070 Cl
ATOM      8 Cl1  UNL d   1       5.132   1.532  -0.776  0.00  0.00    -0.070 Cl
ENDROOT
TORSDOF 0
ENDMDL
