MODEL 1
REMARK minimizedAffinity 12.8870535
REMARK minimizedRMSD -1
REMARK  0 active torsions:
REMARK  status: ('A' for Active; 'I' for Inactive)
ROOT
ATOM      1  C   UNL d   1      -0.891   0.331   2.600  0.00  0.00     0.020 A 
ATOM      2  C1  UNL d   1       0.259  -0.202   3.182  0.00  0.00     0.020 A 
ATOM      3  C2  UNL d   1       1.453  -0.240   2.459  0.00  0.00     0.034 A 
ATOM      4  C3  UNL d   1       1.500   0.254   1.150  0.00  0.00     0.017 A 
ATOM      5  C4  UNL d   1       0.345   0.789   0.568  0.00  0.00     0.017 A 
ATOM      6  C5  UNL d   1      -0.848   0.825   1.296  0.00  0.00     0.034 A 
ATOM      7 Cl   UNL d   1       0.325   1.418  -1.042  0.00  0.00    -0.070 Cl
ATOM      8 Cl1  UNL d   1       3.011   0.175   0.315  0.00  0.00    -0.070 Cl
ENDROOT
TORSDOF 0
ENDMDL
