MODEL 1
REMARK minimizedAffinity 8.46349335
REMARK minimizedRMSD -1
REMARK  0 active torsions:
REMARK  status: ('A' for Active; 'I' for Inactive)
ROOT
ATOM      1  C   UNL d   1       2.945  -0.698  -1.170  0.00  0.00     0.020 A 
ATOM      2  C1  UNL d   1       3.061  -1.053   0.173  0.00  0.00     0.020 A 
ATOM      3  C2  UNL d   1       3.981  -0.394   0.992  0.00  0.00     0.034 A 
ATOM      4  C3  UNL d   1       4.789   0.622   0.468  0.00  0.00     0.017 A 
ATOM      5  C4  UNL d   1       4.671   0.977  -0.881  0.00  0.00     0.017 A 
ATOM      6  C5  UNL d   1       3.748   0.314  -1.696  0.00  0.00     0.034 A 
ATOM      7 Cl   UNL d   1       5.632   2.221  -1.600  0.00  0.00    -0.070 Cl
ATOM      8 Cl1  UNL d   1       5.904   1.394   1.537  0.00  0.00    -0.070 Cl
ENDROOT
TORSDOF 0
ENDMDL
