MODEL 1
REMARK minimizedAffinity 4.66722727
REMARK minimizedRMSD -1
REMARK  0 active torsions:
REMARK  status: ('A' for Active; 'I' for Inactive)
ROOT
ATOM      1  C   UNL d   1      -1.875   2.466   0.067  0.00  0.00     0.020 A 
ATOM      2  C1  UNL d   1      -2.183   1.125   0.294  0.00  0.00     0.020 A 
ATOM      3  C2  UNL d   1      -3.460   0.643  -0.000  0.00  0.00     0.034 A 
ATOM      4  C3  UNL d   1      -4.434   1.501  -0.523  0.00  0.00     0.017 A 
ATOM      5  C4  UNL d   1      -4.124   2.847  -0.750  0.00  0.00     0.017 A 
ATOM      6  C5  UNL d   1      -2.843   3.325  -0.454  0.00  0.00     0.034 A 
ATOM      7 Cl   UNL d   1      -5.273   3.967  -1.392  0.00  0.00    -0.070 Cl
ATOM      8 Cl1  UNL d   1      -5.992   0.837  -0.863  0.00  0.00    -0.070 Cl
ENDROOT
TORSDOF 0
ENDMDL
