MODEL 1
REMARK minimizedAffinity 11.8495855
REMARK minimizedRMSD -1
REMARK  0 active torsions:
REMARK  status: ('A' for Active; 'I' for Inactive)
ROOT
ATOM      1  C   UNL d   1       0.193  -5.189  -1.247  0.00  0.00     0.020 A 
ATOM      2  C1  UNL d   1      -1.115  -5.026  -1.703  0.00  0.00     0.020 A 
ATOM      3  C2  UNL d   1      -1.526  -3.796  -2.220  0.00  0.00     0.034 A 
ATOM      4  C3  UNL d   1      -0.628  -2.724  -2.284  0.00  0.00     0.017 A 
ATOM      5  C4  UNL d   1       0.685  -2.889  -1.827  0.00  0.00     0.017 A 
ATOM      6  C5  UNL d   1       1.091  -4.123  -1.310  0.00  0.00     0.034 A 
ATOM      7 Cl   UNL d   1       1.850  -1.613  -1.874  0.00  0.00    -0.070 Cl
ATOM      8 Cl1  UNL d   1      -1.204  -1.231  -2.937  0.00  0.00    -0.070 Cl
ENDROOT
TORSDOF 0
ENDMDL
