MODEL 1
REMARK minimizedAffinity 12.4536848
REMARK minimizedRMSD -1
REMARK  0 active torsions:
REMARK  status: ('A' for Active; 'I' for Inactive)
ROOT
ATOM      1  C   UNL d   1       3.566  -0.229  -0.755  0.00  0.00     0.020 A 
ATOM      2  C1  UNL d   1       2.896  -0.824   0.313  0.00  0.00     0.020 A 
ATOM      3  C2  UNL d   1       2.143  -1.981   0.108  0.00  0.00     0.034 A 
ATOM      4  C3  UNL d   1       2.058  -2.548  -1.169  0.00  0.00     0.017 A 
ATOM      5  C4  UNL d   1       2.731  -1.950  -2.241  0.00  0.00     0.017 A 
ATOM      6  C5  UNL d   1       3.484  -0.791  -2.029  0.00  0.00     0.034 A 
ATOM      7 Cl   UNL d   1       2.673  -2.591  -3.845  0.00  0.00    -0.070 Cl
ATOM      8 Cl1  UNL d   1       1.109  -3.981  -1.351  0.00  0.00    -0.070 Cl
ENDROOT
TORSDOF 0
ENDMDL
