MODEL 1
REMARK minimizedAffinity 3.7052238
REMARK minimizedRMSD -1
REMARK  0 active torsions:
REMARK  status: ('A' for Active; 'I' for Inactive)
ROOT
ATOM      1  C   UNL d   1      -1.120  -5.994  -0.155  0.00  0.00     0.020 A 
ATOM      2  C1  UNL d   1      -1.453  -6.000  -1.509  0.00  0.00     0.020 A 
ATOM      3  C2  UNL d   1      -0.814  -5.124  -2.388  0.00  0.00     0.034 A 
ATOM      4  C3  UNL d   1       0.161  -4.238  -1.916  0.00  0.00     0.017 A 
ATOM      5  C4  UNL d   1       0.495  -4.233  -0.556  0.00  0.00     0.017 A 
ATOM      6  C5  UNL d   1      -0.148  -5.113   0.320  0.00  0.00     0.034 A 
ATOM      7 Cl   UNL d   1       1.688  -3.169   0.101  0.00  0.00    -0.070 Cl
ATOM      8 Cl1  UNL d   1       0.911  -3.182  -3.060  0.00  0.00    -0.070 Cl
ENDROOT
TORSDOF 0
ENDMDL
