MODEL 1
REMARK minimizedAffinity 8.21218014
REMARK minimizedRMSD -1
REMARK  0 active torsions:
REMARK  status: ('A' for Active; 'I' for Inactive)
ROOT
ATOM      1  C   UNL d   1       5.513   2.096   1.094  0.00  0.00     0.020 A 
ATOM      2  C1  UNL d   1       5.591   1.683  -0.236  0.00  0.00     0.020 A 
ATOM      3  C2  UNL d   1       4.583   0.882  -0.778  0.00  0.00     0.034 A 
ATOM      4  C3  UNL d   1       3.494   0.492   0.009  0.00  0.00     0.017 A 
ATOM      5  C4  UNL d   1       3.417   0.907   1.343  0.00  0.00     0.017 A 
ATOM      6  C5  UNL d   1       4.428   1.709   1.881  0.00  0.00     0.034 A 
ATOM      7 Cl   UNL d   1       2.103   0.467   2.377  0.00  0.00    -0.070 Cl
ATOM      8 Cl1  UNL d   1       2.284  -0.498  -0.727  0.00  0.00    -0.070 Cl
ENDROOT
TORSDOF 0
ENDMDL
