MODEL 1
REMARK minimizedAffinity 17.7549076
REMARK minimizedRMSD -1
REMARK  0 active torsions:
REMARK  status: ('A' for Active; 'I' for Inactive)
ROOT
ATOM      1  C   UNL d   1       4.967   1.151   0.428  0.00  0.00     0.020 A 
ATOM      2  C1  UNL d   1       5.992   1.030  -0.510  0.00  0.00     0.020 A 
ATOM      3  C2  UNL d   1       5.776   0.320  -1.692  0.00  0.00     0.034 A 
ATOM      4  C3  UNL d   1       4.532  -0.273  -1.940  0.00  0.00     0.017 A 
ATOM      5  C4  UNL d   1       3.504  -0.151  -0.998  0.00  0.00     0.017 A 
ATOM      6  C5  UNL d   1       3.726   0.561   0.185  0.00  0.00     0.034 A 
ATOM      7 Cl   UNL d   1       1.943  -0.855  -1.233  0.00  0.00    -0.070 Cl
ATOM      8 Cl1  UNL d   1       4.335  -1.137  -3.423  0.00  0.00    -0.070 Cl
ENDROOT
TORSDOF 0
ENDMDL
