MODEL 1
REMARK minimizedAffinity -0.756794691
REMARK minimizedRMSD -1
REMARK  3 active torsions:
REMARK  status: ('A' for Active; 'I' for Inactive)
REMARK    1  A    between atoms: C3'_2  and  C2'_3 
REMARK    2  A    between atoms: C2'_3  and  C1'_4 
REMARK    3  A    between atoms: C1'_4  and  C1_5 
ROOT
ATOM      1  C1  N4B d   1       4.078  -3.176   3.923  0.00  0.00    -0.075 A 
ATOM      2  C2  N4B d   1       5.103  -4.148   3.965  0.00  0.00     0.002 A 
ATOM      3  C3  N4B d   1       6.000  -4.154   5.005  0.00  0.00     0.002 A 
ATOM      4  C4  N4B d   1       5.904  -3.191   5.999  0.00  0.00    -0.004 A 
ATOM      5  C5  N4B d   1       4.896  -2.273   5.964  0.00  0.00     0.002 A 
ATOM      6  C6  N4B d   1       3.985  -2.257   4.927  0.00  0.00     0.002 A 
ENDROOT
BRANCH   1   7
ATOM      7  C1' N4B d   1       3.127  -3.077   2.762  0.00  0.00     0.057 C 
BRANCH   7   8
ATOM      8  C2' N4B d   1       3.760  -2.223   1.667  0.00  0.00     0.009 C 
BRANCH   8   9
ATOM      9  C3' N4B d   1       4.243  -3.064   0.499  0.00  0.00     0.004 C 
ATOM     10  C4' N4B d   1       5.161  -2.311  -0.418  0.00  0.00     0.003 C 
ENDBRANCH   8   9
ENDBRANCH   7   8
ENDBRANCH   1   7
TORSDOF 3
ENDMDL
