MODEL 1
REMARK minimizedAffinity 21.4042969
REMARK minimizedRMSD -1
REMARK  3 active torsions:
REMARK  status: ('A' for Active; 'I' for Inactive)
REMARK    1  A    between atoms: C3'_2  and  C2'_3 
REMARK    2  A    between atoms: C2'_3  and  C1'_4 
REMARK    3  A    between atoms: C1'_4  and  C1_5 
ROOT
ATOM      1  C1  N4B d   1      -0.448  -0.972   5.489  0.00  0.00    -0.075 A 
ATOM      2  C2  N4B d   1      -1.370  -1.637   4.651  0.00  0.00     0.002 A 
ATOM      3  C3  N4B d   1      -2.564  -1.038   4.332  0.00  0.00     0.002 A 
ATOM      4  C4  N4B d   1      -2.864   0.213   4.851  0.00  0.00    -0.004 A 
ATOM      5  C5  N4B d   1      -1.957   0.859   5.639  0.00  0.00     0.002 A 
ATOM      6  C6  N4B d   1      -0.752   0.270   5.965  0.00  0.00     0.002 A 
ENDROOT
BRANCH   1   7
ATOM      7  C1' N4B d   1       0.832  -1.624   5.936  0.00  0.00     0.057 C 
BRANCH   7   8
ATOM      8  C2' N4B d   1       1.944  -0.580   5.957  0.00  0.00     0.009 C 
BRANCH   8   9
ATOM      9  C3' N4B d   1       3.309  -1.199   5.710  0.00  0.00     0.004 C 
ATOM     10  C4' N4B d   1       3.478  -1.694   4.305  0.00  0.00     0.003 C 
ENDBRANCH   8   9
ENDBRANCH   7   8
ENDBRANCH   1   7
TORSDOF 3
ENDMDL
