MODEL 1
REMARK minimizedAffinity 5.86164093
REMARK minimizedRMSD -1
REMARK  3 active torsions:
REMARK  status: ('A' for Active; 'I' for Inactive)
REMARK    1  A    between atoms: C3'_2  and  C2'_3 
REMARK    2  A    between atoms: C2'_3  and  C1'_4 
REMARK    3  A    between atoms: C1'_4  and  C1_5 
ROOT
ATOM      1  C1  N4B d   1       5.806   4.820  -3.135  0.00  0.00    -0.075 A 
ATOM      2  C2  N4B d   1       5.772   3.511  -3.663  0.00  0.00     0.002 A 
ATOM      3  C3  N4B d   1       5.597   3.318  -5.012  0.00  0.00     0.002 A 
ATOM      4  C4  N4B d   1       5.436   4.415  -5.846  0.00  0.00    -0.004 A 
ATOM      5  C5  N4B d   1       5.496   5.677  -5.331  0.00  0.00     0.002 A 
ATOM      6  C6  N4B d   1       5.675   5.885  -3.979  0.00  0.00     0.002 A 
ENDROOT
BRANCH   1   7
ATOM      7  C1' N4B d   1       5.909   5.078  -1.657  0.00  0.00     0.057 C 
BRANCH   7   8
ATOM      8  C2' N4B d   1       4.769   5.997  -1.228  0.00  0.00     0.009 C 
BRANCH   8   9
ATOM      9  C3' N4B d   1       3.412   5.443  -1.625  0.00  0.00     0.004 C 
ATOM     10  C4' N4B d   1       3.048   5.759  -3.046  0.00  0.00     0.003 C 
ENDBRANCH   8   9
ENDBRANCH   7   8
ENDBRANCH   1   7
TORSDOF 3
ENDMDL
