MODEL 1
REMARK minimizedAffinity 7.4583168
REMARK minimizedRMSD -1
REMARK  3 active torsions:
REMARK  status: ('A' for Active; 'I' for Inactive)
REMARK    1  A    between atoms: C3'_2  and  C2'_3 
REMARK    2  A    between atoms: C2'_3  and  C1'_4 
REMARK    3  A    between atoms: C1'_4  and  C1_5 
ROOT
ATOM      1  C1  N4B d   1       3.458   5.272  -2.752  0.00  0.00    -0.075 A 
ATOM      2  C2  N4B d   1       4.578   5.943  -2.213  0.00  0.00     0.002 A 
ATOM      3  C3  N4B d   1       5.836   5.676  -2.695  0.00  0.00     0.002 A 
ATOM      4  C4  N4B d   1       6.000   4.731  -3.697  0.00  0.00    -0.004 A 
ATOM      5  C5  N4B d   1       4.911   4.106  -4.229  0.00  0.00     0.002 A 
ATOM      6  C6  N4B d   1       3.640   4.368  -3.758  0.00  0.00     0.002 A 
ENDROOT
BRANCH   1   7
ATOM      7  C1' N4B d   1       2.073   5.468  -2.199  0.00  0.00     0.057 C 
BRANCH   7   8
ATOM      8  C2' N4B d   1       2.104   5.268  -0.686  0.00  0.00     0.009 C 
BRANCH   8   9
ATOM      9  C3' N4B d   1       0.712   5.297  -0.080  0.00  0.00     0.004 C 
ATOM     10  C4' N4B d   1       0.681   4.785   1.329  0.00  0.00     0.003 C 
ENDBRANCH   8   9
ENDBRANCH   7   8
ENDBRANCH   1   7
TORSDOF 3
ENDMDL
