MODEL 1
REMARK minimizedAffinity 4.52119303
REMARK minimizedRMSD -1
REMARK  3 active torsions:
REMARK  status: ('A' for Active; 'I' for Inactive)
REMARK    1  A    between atoms: C3'_2  and  C2'_3 
REMARK    2  A    between atoms: C2'_3  and  C1'_4 
REMARK    3  A    between atoms: C1'_4  and  C1_5 
ROOT
ATOM      1  C1  N4B d   1      -0.459  -2.416  -1.741  0.00  0.00    -0.075 A 
ATOM      2  C2  N4B d   1       0.703  -1.916  -2.369  0.00  0.00     0.002 A 
ATOM      3  C3  N4B d   1       1.285  -2.618  -3.396  0.00  0.00     0.002 A 
ATOM      4  C4  N4B d   1       0.736  -3.826  -3.798  0.00  0.00    -0.004 A 
ATOM      5  C5  N4B d   1      -0.402  -4.290  -3.204  0.00  0.00     0.002 A 
ATOM      6  C6  N4B d   1      -0.999  -3.593  -2.173  0.00  0.00     0.002 A 
ENDROOT
BRANCH   1   7
ATOM      7  C1' N4B d   1      -1.082  -1.728  -0.557  0.00  0.00     0.057 C 
BRANCH   7   8
ATOM      8  C2' N4B d   1      -1.404  -2.766   0.513  0.00  0.00     0.009 C 
BRANCH   8   9
ATOM      9  C3' N4B d   1      -2.579  -2.343   1.379  0.00  0.00     0.004 C 
ATOM     10  C4' N4B d   1      -3.904  -2.683   0.766  0.00  0.00     0.003 C 
ENDBRANCH   8   9
ENDBRANCH   7   8
ENDBRANCH   1   7
TORSDOF 3
ENDMDL
