MODEL 1
REMARK minimizedAffinity 1.94756687
REMARK minimizedRMSD -1
REMARK  3 active torsions:
REMARK  status: ('A' for Active; 'I' for Inactive)
REMARK    1  A    between atoms: C3'_2  and  C2'_3 
REMARK    2  A    between atoms: C2'_3  and  C1'_4 
REMARK    3  A    between atoms: C1'_4  and  C1_5 
ROOT
ATOM      1  C1  N4B d   1      -1.921  -1.543   1.560  0.00  0.00    -0.075 A 
ATOM      2  C2  N4B d   1      -2.765  -2.446   0.876  0.00  0.00     0.002 A 
ATOM      3  C3  N4B d   1      -2.494  -2.786  -0.427  0.00  0.00     0.002 A 
ATOM      4  C4  N4B d   1      -1.401  -2.225  -1.069  0.00  0.00    -0.004 A 
ATOM      5  C5  N4B d   1      -0.576  -1.374  -0.394  0.00  0.00     0.002 A 
ATOM      6  C6  N4B d   1      -0.834  -1.026   0.917  0.00  0.00     0.002 A 
ENDROOT
BRANCH   1   7
ATOM      7  C1' N4B d   1      -2.225  -1.075   2.957  0.00  0.00     0.057 C 
BRANCH   7   8
ATOM      8  C2' N4B d   1      -1.946   0.422   3.055  0.00  0.00     0.009 C 
BRANCH   8   9
ATOM      9  C3' N4B d   1      -1.373   0.806   4.408  0.00  0.00     0.004 C 
ATOM     10  C4' N4B d   1      -2.237   0.363   5.551  0.00  0.00     0.003 C 
ENDBRANCH   8   9
ENDBRANCH   7   8
ENDBRANCH   1   7
TORSDOF 3
ENDMDL
