MODEL 1
REMARK minimizedAffinity 2.80681419
REMARK minimizedRMSD -1
REMARK  3 active torsions:
REMARK  status: ('A' for Active; 'I' for Inactive)
REMARK    1  A    between atoms: C3'_2  and  C2'_3 
REMARK    2  A    between atoms: C2'_3  and  C1'_4 
REMARK    3  A    between atoms: C1'_4  and  C1_5 
ROOT
ATOM      1  C1  N4B d   1       3.628   5.260  -3.294  0.00  0.00    -0.075 A 
ATOM      2  C2  N4B d   1       4.663   5.137  -2.341  0.00  0.00     0.002 A 
ATOM      3  C3  N4B d   1       5.841   4.520  -2.682  0.00  0.00     0.002 A 
ATOM      4  C4  N4B d   1       6.000   4.003  -3.959  0.00  0.00    -0.004 A 
ATOM      5  C5  N4B d   1       5.005   4.149  -4.882  0.00  0.00     0.002 A 
ATOM      6  C6  N4B d   1       3.817   4.770  -4.554  0.00  0.00     0.002 A 
ENDROOT
BRANCH   1   7
ATOM      7  C1' N4B d   1       2.290   5.850  -2.942  0.00  0.00     0.057 C 
BRANCH   7   8
ATOM      8  C2' N4B d   1       1.515   4.856  -2.082  0.00  0.00     0.009 C 
BRANCH   8   9
ATOM      9  C3' N4B d   1       1.148   5.440  -0.728  0.00  0.00     0.004 C 
ATOM     10  C4' N4B d   1       1.113   4.409   0.360  0.00  0.00     0.003 C 
ENDBRANCH   8   9
ENDBRANCH   7   8
ENDBRANCH   1   7
TORSDOF 3
ENDMDL
