MODEL 1
REMARK minimizedAffinity 4.08790922
REMARK minimizedRMSD -1
REMARK  3 active torsions:
REMARK  status: ('A' for Active; 'I' for Inactive)
REMARK    1  A    between atoms: C3'_2  and  C2'_3 
REMARK    2  A    between atoms: C2'_3  and  C1'_4 
REMARK    3  A    between atoms: C1'_4  and  C1_5 
ROOT
ATOM      1  C1  N4B d   1       2.886  -2.058  -1.486  0.00  0.00    -0.075 A 
ATOM      2  C2  N4B d   1       1.493  -1.954  -1.278  0.00  0.00     0.002 A 
ATOM      3  C3  N4B d   1       0.644  -1.850  -2.352  0.00  0.00     0.002 A 
ATOM      4  C4  N4B d   1       1.164  -1.829  -3.638  0.00  0.00    -0.004 A 
ATOM      5  C5  N4B d   1       2.509  -1.956  -3.831  0.00  0.00     0.002 A 
ATOM      6  C6  N4B d   1       3.373  -2.065  -2.761  0.00  0.00     0.002 A 
ENDROOT
BRANCH   1   7
ATOM      7  C1' N4B d   1       3.860  -2.087  -0.340  0.00  0.00     0.057 C 
BRANCH   7   8
ATOM      8  C2' N4B d   1       3.127  -1.733   0.950  0.00  0.00     0.009 C 
BRANCH   8   9
ATOM      9  C3' N4B d   1       3.332  -2.785   2.027  0.00  0.00     0.004 C 
ATOM     10  C4' N4B d   1       3.058  -2.264   3.407  0.00  0.00     0.003 C 
ENDBRANCH   8   9
ENDBRANCH   7   8
ENDBRANCH   1   7
TORSDOF 3
ENDMDL
