MODEL 1
REMARK minimizedAffinity 5.11435032
REMARK minimizedRMSD -1
REMARK  3 active torsions:
REMARK  status: ('A' for Active; 'I' for Inactive)
REMARK    1  A    between atoms: C3'_2  and  C2'_3 
REMARK    2  A    between atoms: C2'_3  and  C1'_4 
REMARK    3  A    between atoms: C1'_4  and  C1_5 
ROOT
ATOM      1  C1  N4B d   1      -1.178  -2.353  -0.857  0.00  0.00    -0.075 A 
ATOM      2  C2  N4B d   1      -0.620  -2.720   0.388  0.00  0.00     0.002 A 
ATOM      3  C3  N4B d   1      -1.442  -3.038   1.441  0.00  0.00     0.002 A 
ATOM      4  C4  N4B d   1      -2.818  -2.979   1.279  0.00  0.00    -0.004 A 
ATOM      5  C5  N4B d   1      -3.349  -2.648   0.066  0.00  0.00     0.002 A 
ATOM      6  C6  N4B d   1      -2.534  -2.329  -1.002  0.00  0.00     0.002 A 
ENDROOT
BRANCH   1   7
ATOM      7  C1' N4B d   1      -0.320  -1.913  -2.012  0.00  0.00     0.057 C 
BRANCH   7   8
ATOM      8  C2' N4B d   1       0.393  -3.128  -2.597  0.00  0.00     0.009 C 
BRANCH   8   9
ATOM      9  C3' N4B d   1       1.190  -2.775  -3.841  0.00  0.00     0.004 C 
ATOM     10  C4' N4B d   1       2.582  -2.312  -3.527  0.00  0.00     0.003 C 
ENDBRANCH   8   9
ENDBRANCH   7   8
ENDBRANCH   1   7
TORSDOF 3
ENDMDL
