MODEL 1
REMARK minimizedAffinity 7.24337769
REMARK minimizedRMSD -1
REMARK  3 active torsions:
REMARK  status: ('A' for Active; 'I' for Inactive)
REMARK    1  A    between atoms: C3'_2  and  C2'_3 
REMARK    2  A    between atoms: C2'_3  and  C1'_4 
REMARK    3  A    between atoms: C1'_4  and  C1_5 
ROOT
ATOM      1  C1  N4B d   1       0.809  -2.217  -2.891  0.00  0.00    -0.075 A 
ATOM      2  C2  N4B d   1       0.165  -3.458  -3.090  0.00  0.00     0.002 A 
ATOM      3  C3  N4B d   1      -0.788  -3.887  -2.199  0.00  0.00     0.002 A 
ATOM      4  C4  N4B d   1      -1.099  -3.104  -1.097  0.00  0.00    -0.004 A 
ATOM      5  C5  N4B d   1      -0.491  -1.895  -0.927  0.00  0.00     0.002 A 
ATOM      6  C6  N4B d   1       0.466  -1.450  -1.816  0.00  0.00     0.002 A 
ENDROOT
BRANCH   1   7
ATOM      7  C1' N4B d   1       1.919  -1.746  -3.791  0.00  0.00     0.057 C 
BRANCH   7   8
ATOM      8  C2' N4B d   1       3.242  -2.328  -3.301  0.00  0.00     0.009 C 
BRANCH   8   9
ATOM      9  C3' N4B d   1       4.074  -1.299  -2.555  0.00  0.00     0.004 C 
ATOM     10  C4' N4B d   1       4.198  -1.603  -1.092  0.00  0.00     0.003 C 
ENDBRANCH   8   9
ENDBRANCH   7   8
ENDBRANCH   1   7
TORSDOF 3
ENDMDL
