MODEL 1
REMARK minimizedAffinity -2.95278072
REMARK minimizedRMSD -1
REMARK  2 active torsions:
REMARK  status: ('A' for Active; 'I' for Inactive)
REMARK    1  A    between atoms: C2'_3  and  C1'_4 
REMARK    2  A    between atoms: C1'_4  and  C1_5 
ROOT
ATOM      1  C1  I4B d   1       0.311  -0.137  -1.268  0.00  0.00    -0.075 A 
ATOM      2  C2  I4B d   1       1.314  -0.126  -2.204  0.00  0.00     0.003 A 
ATOM      3  C3  I4B d   1       1.279  -1.025  -3.298  0.00  0.00     0.002 A 
ATOM      4  C4  I4B d   1       0.254  -1.945  -3.388  0.00  0.00    -0.004 A 
ATOM      5  C5  I4B d   1      -0.775  -1.939  -2.451  0.00  0.00     0.002 A 
ATOM      6  C6  I4B d   1      -0.753  -1.021  -1.390  0.00  0.00     0.003 A 
ENDROOT
BRANCH   1   7
ATOM      7  C1' I4B d   1       0.397   0.804  -0.108  0.00  0.00     0.060 C 
BRANCH   7   8
ATOM      8  C2' I4B d   1       0.707  -0.011   1.132  0.00  0.00    -0.013 C 
ATOM      9  C4' I4B d   1       2.187  -0.044   1.407  0.00  0.00     0.013 C 
ATOM     10  C3' I4B d   1      -0.045   0.591   2.281  0.00  0.00     0.013 C 
ENDBRANCH   7   8
ENDBRANCH   1   7
TORSDOF 2
ENDMDL
