MODEL 1
REMARK minimizedAffinity -2.76083946
REMARK minimizedRMSD -1
REMARK  2 active torsions:
REMARK  status: ('A' for Active; 'I' for Inactive)
REMARK    1  A    between atoms: C2'_3  and  C1'_4 
REMARK    2  A    between atoms: C1'_4  and  C1_5 
ROOT
ATOM      1  C1  I4B d   1      -0.234  -0.327   1.121  0.00  0.00    -0.075 A 
ATOM      2  C2  I4B d   1      -1.106  -0.081   0.090  0.00  0.00     0.003 A 
ATOM      3  C3  I4B d   1      -0.752   0.820  -0.943  0.00  0.00     0.002 A 
ATOM      4  C4  I4B d   1       0.455   1.487  -0.880  0.00  0.00    -0.004 A 
ATOM      5  C5  I4B d   1       1.347   1.219   0.154  0.00  0.00     0.002 A 
ATOM      6  C6  I4B d   1       1.007   0.297   1.155  0.00  0.00     0.003 A 
ENDROOT
BRANCH   1   7
ATOM      7  C1' I4B d   1      -0.654  -1.259   2.213  0.00  0.00     0.060 C 
BRANCH   7   8
ATOM      8  C2' I4B d   1      -1.636  -0.524   3.102  0.00  0.00    -0.013 C 
ATOM      9  C4' I4B d   1      -1.073   0.793   3.566  0.00  0.00     0.013 C 
ATOM     10  C3' I4B d   1      -2.905  -0.327   2.326  0.00  0.00     0.013 C 
ENDBRANCH   7   8
ENDBRANCH   1   7
TORSDOF 2
ENDMDL
