MODEL 1
REMARK minimizedAffinity -7.10514545
REMARK minimizedRMSD -1
REMARK  2 active torsions:
REMARK  status: ('A' for Active; 'I' for Inactive)
REMARK    1  A    between atoms: C2'_3  and  C1'_4 
REMARK    2  A    between atoms: C1'_4  and  C1_5 
ROOT
ATOM      1  C1  I4B d   1      -0.714  -0.144   0.476  0.00  0.00    -0.075 A 
ATOM      2  C2  I4B d   1      -0.223  -0.250   1.754  0.00  0.00     0.003 A 
ATOM      3  C3  I4B d   1      -1.097  -0.151   2.864  0.00  0.00     0.002 A 
ATOM      4  C4  I4B d   1      -2.437   0.102   2.653  0.00  0.00    -0.004 A 
ATOM      5  C5  I4B d   1      -2.937   0.186   1.357  0.00  0.00     0.002 A 
ATOM      6  C6  I4B d   1      -2.072   0.050   0.261  0.00  0.00     0.003 A 
ENDROOT
BRANCH   1   7
ATOM      7  C1' I4B d   1       0.242  -0.221  -0.671  0.00  0.00     0.060 C 
BRANCH   7   8
ATOM      8  C2' I4B d   1      -0.564  -0.422  -1.938  0.00  0.00    -0.013 C 
ATOM      9  C4' I4B d   1      -0.536   0.809  -2.805  0.00  0.00     0.013 C 
ATOM     10  C3' I4B d   1       0.000  -1.608  -2.662  0.00  0.00     0.013 C 
ENDBRANCH   7   8
ENDBRANCH   1   7
TORSDOF 2
ENDMDL
