MODEL 1
REMARK minimizedAffinity -6.81448984
REMARK minimizedRMSD -1
REMARK  2 active torsions:
REMARK  status: ('A' for Active; 'I' for Inactive)
REMARK    1  A    between atoms: C2'_3  and  C1'_4 
REMARK    2  A    between atoms: C1'_4  and  C1_5 
ROOT
ATOM      1  C1  I4B d   1       0.124  -0.250  -0.078  0.00  0.00    -0.075 A 
ATOM      2  C2  I4B d   1      -1.233  -0.284   0.128  0.00  0.00     0.003 A 
ATOM      3  C3  I4B d   1      -1.754  -0.322   1.444  0.00  0.00     0.002 A 
ATOM      4  C4  I4B d   1      -0.887  -0.375   2.517  0.00  0.00    -0.004 A 
ATOM      5  C5  I4B d   1       0.488  -0.317   2.307  0.00  0.00     0.002 A 
ATOM      6  C6  I4B d   1       0.997  -0.242   1.003  0.00  0.00     0.003 A 
ENDROOT
BRANCH   1   7
ATOM      7  C1' I4B d   1       0.640  -0.243  -1.482  0.00  0.00     0.060 C 
BRANCH   7   8
ATOM      8  C2' I4B d   1       0.258  -1.561  -2.125  0.00  0.00    -0.013 C 
ATOM      9  C4' I4B d   1      -0.595  -1.343  -3.348  0.00  0.00     0.013 C 
ATOM     10  C3' I4B d   1       1.521  -2.291  -2.470  0.00  0.00     0.013 C 
ENDBRANCH   7   8
ENDBRANCH   1   7
TORSDOF 2
ENDMDL
