MODEL 1
REMARK minimizedAffinity -3.82859826
REMARK minimizedRMSD -1
REMARK  2 active torsions:
REMARK  status: ('A' for Active; 'I' for Inactive)
REMARK    1  A    between atoms: C2'_3  and  C1'_4 
REMARK    2  A    between atoms: C1'_4  and  C1_5 
ROOT
ATOM      1  C1  I4B d   1      -0.917  -0.229  -1.841  0.00  0.00    -0.075 A 
ATOM      2  C2  I4B d   1       0.342   0.312  -1.927  0.00  0.00     0.003 A 
ATOM      3  C3  I4B d   1       1.308  -0.264  -2.786  0.00  0.00     0.002 A 
ATOM      4  C4  I4B d   1       0.992  -1.403  -3.498  0.00  0.00    -0.004 A 
ATOM      5  C5  I4B d   1      -0.292  -1.936  -3.428  0.00  0.00     0.002 A 
ATOM      6  C6  I4B d   1      -1.257  -1.339  -2.603  0.00  0.00     0.003 A 
ENDROOT
BRANCH   1   7
ATOM      7  C1' I4B d   1      -1.903   0.386  -0.899  0.00  0.00     0.060 C 
BRANCH   7   8
ATOM      8  C2' I4B d   1      -1.672  -0.212   0.474  0.00  0.00    -0.013 C 
ATOM      9  C4' I4B d   1      -2.076  -1.663   0.512  0.00  0.00     0.013 C 
ATOM     10  C3' I4B d   1      -0.220  -0.045   0.813  0.00  0.00     0.013 C 
ENDBRANCH   7   8
ENDBRANCH   1   7
TORSDOF 2
ENDMDL
