MODEL 1
REMARK minimizedAffinity -6.97259283
REMARK minimizedRMSD -1
REMARK  2 active torsions:
REMARK  status: ('A' for Active; 'I' for Inactive)
REMARK    1  A    between atoms: C2'_3  and  C1'_4 
REMARK    2  A    between atoms: C1'_4  and  C1_5 
ROOT
ATOM      1  C1  I4B d   1      -0.868  -0.218   1.237  0.00  0.00    -0.075 A 
ATOM      2  C2  I4B d   1      -0.440  -0.608   2.481  0.00  0.00     0.003 A 
ATOM      3  C3  I4B d   1      -1.373  -0.785   3.532  0.00  0.00     0.002 A 
ATOM      4  C4  I4B d   1      -2.707  -0.514   3.310  0.00  0.00    -0.004 A 
ATOM      5  C5  I4B d   1      -3.142  -0.141   2.041  0.00  0.00     0.002 A 
ATOM      6  C6  I4B d   1      -2.219  -0.004   0.994  0.00  0.00     0.003 A 
ENDROOT
BRANCH   1   7
ATOM      7  C1' I4B d   1       0.148  -0.009   0.158  0.00  0.00     0.060 C 
BRANCH   7   8
ATOM      8  C2' I4B d   1      -0.573  -0.039  -1.174  0.00  0.00    -0.013 C 
ATOM      9  C4' I4B d   1      -1.166   1.306  -1.503  0.00  0.00     0.013 C 
ATOM     10  C3' I4B d   1       0.409  -0.468  -2.222  0.00  0.00     0.013 C 
ENDBRANCH   7   8
ENDBRANCH   1   7
TORSDOF 2
ENDMDL
