MODEL 1
REMARK minimizedAffinity -2.21331072
REMARK minimizedRMSD -1
REMARK  2 active torsions:
REMARK  status: ('A' for Active; 'I' for Inactive)
REMARK    1  A    between atoms: C2'_3  and  C1'_4 
REMARK    2  A    between atoms: C1'_4  and  C1_5 
ROOT
ATOM      1  C1  I4B d   1       0.153  -0.107  -1.675  0.00  0.00    -0.075 A 
ATOM      2  C2  I4B d   1       0.570  -0.906  -2.710  0.00  0.00     0.003 A 
ATOM      3  C3  I4B d   1      -0.352  -1.748  -3.377  0.00  0.00     0.002 A 
ATOM      4  C4  I4B d   1      -1.663  -1.796  -2.947  0.00  0.00    -0.004 A 
ATOM      5  C5  I4B d   1      -2.089  -0.969  -1.912  0.00  0.00     0.002 A 
ATOM      6  C6  I4B d   1      -1.178  -0.110  -1.280  0.00  0.00     0.003 A 
ENDROOT
BRANCH   1   7
ATOM      7  C1' I4B d   1       1.161   0.745  -0.971  0.00  0.00     0.060 C 
BRANCH   7   8
ATOM      8  C2' I4B d   1       1.426   0.128   0.388  0.00  0.00    -0.013 C 
ATOM      9  C4' I4B d   1       2.093  -1.216   0.256  0.00  0.00     0.013 C 
ATOM     10  C3' I4B d   1       2.278   1.082   1.171  0.00  0.00     0.013 C 
ENDBRANCH   7   8
ENDBRANCH   1   7
TORSDOF 2
ENDMDL
