MODEL 1
REMARK minimizedAffinity -3.57351351
REMARK minimizedRMSD -1
REMARK  2 active torsions:
REMARK  status: ('A' for Active; 'I' for Inactive)
REMARK    1  A    between atoms: C2'_3  and  C1'_4 
REMARK    2  A    between atoms: C1'_4  and  C1_5 
ROOT
ATOM      1  C1  I4B d   1       0.198  -0.398  -1.243  0.00  0.00    -0.075 A 
ATOM      2  C2  I4B d   1       0.276   0.474  -0.185  0.00  0.00     0.003 A 
ATOM      3  C3  I4B d   1      -0.905   1.012   0.382  0.00  0.00     0.002 A 
ATOM      4  C4  I4B d   1      -2.130   0.694  -0.167  0.00  0.00    -0.004 A 
ATOM      5  C5  I4B d   1      -2.208  -0.208  -1.225  0.00  0.00     0.002 A 
ATOM      6  C6  I4B d   1      -1.037  -0.767  -1.758  0.00  0.00     0.003 A 
ENDROOT
BRANCH   1   7
ATOM      7  C1' I4B d   1       1.466  -0.922  -1.839  0.00  0.00     0.060 C 
BRANCH   7   8
ATOM      8  C2' I4B d   1       1.548  -0.429  -3.269  0.00  0.00    -0.013 C 
ATOM      9  C4' I4B d   1       2.803   0.371  -3.499  0.00  0.00     0.013 C 
ATOM     10  C3' I4B d   1       1.493  -1.623  -4.175  0.00  0.00     0.013 C 
ENDBRANCH   7   8
ENDBRANCH   1   7
TORSDOF 2
ENDMDL
