MODEL 1
REMARK minimizedAffinity -4.05732632
REMARK minimizedRMSD -1
REMARK  2 active torsions:
REMARK  status: ('A' for Active; 'I' for Inactive)
REMARK    1  A    between atoms: C2'_3  and  C1'_4 
REMARK    2  A    between atoms: C1'_4  and  C1_5 
ROOT
ATOM      1  C1  I4B d   1      -0.054  -0.121  -1.495  0.00  0.00    -0.075 A 
ATOM      2  C2  I4B d   1       1.094  -0.231  -2.239  0.00  0.00     0.003 A 
ATOM      3  C3  I4B d   1       1.175  -1.178  -3.289  0.00  0.00     0.002 A 
ATOM      4  C4  I4B d   1       0.110  -2.023  -3.525  0.00  0.00    -0.004 A 
ATOM      5  C5  I4B d   1      -1.061  -1.895  -2.784  0.00  0.00     0.002 A 
ATOM      6  C6  I4B d   1      -1.149  -0.930  -1.771  0.00  0.00     0.003 A 
ENDROOT
BRANCH   1   7
ATOM      7  C1' I4B d   1      -0.094   0.867  -0.372  0.00  0.00     0.060 C 
BRANCH   7   8
ATOM      8  C2' I4B d   1       0.717   0.301   0.776  0.00  0.00    -0.013 C 
ATOM      9  C4' I4B d   1       2.028   1.026   0.928  0.00  0.00     0.013 C 
ATOM     10  C3' I4B d   1      -0.109   0.409   2.023  0.00  0.00     0.013 C 
ENDBRANCH   7   8
ENDBRANCH   1   7
TORSDOF 2
ENDMDL
