MODEL 1
REMARK minimizedAffinity -6.10926056
REMARK minimizedRMSD -1
REMARK  2 active torsions:
REMARK  status: ('A' for Active; 'I' for Inactive)
REMARK    1  A    between atoms: C2'_3  and  C1'_4 
REMARK    2  A    between atoms: C1'_4  and  C1_5 
ROOT
ATOM      1  C1  I4B d   1      -0.272  -0.404  -0.239  0.00  0.00    -0.075 A 
ATOM      2  C2  I4B d   1      -1.289  -1.169   0.276  0.00  0.00     0.003 A 
ATOM      3  C3  I4B d   1      -1.398  -1.361   1.675  0.00  0.00     0.002 A 
ATOM      4  C4  I4B d   1      -0.447  -0.815   2.512  0.00  0.00    -0.004 A 
ATOM      5  C5  I4B d   1       0.570  -0.021   1.990  0.00  0.00     0.002 A 
ATOM      6  C6  I4B d   1       0.651   0.197   0.607  0.00  0.00     0.003 A 
ENDROOT
BRANCH   1   7
ATOM      7  C1' I4B d   1      -0.168  -0.249  -1.723  0.00  0.00     0.060 C 
BRANCH   7   8
ATOM      8  C2' I4B d   1       0.185  -1.601  -2.310  0.00  0.00    -0.013 C 
ATOM      9  C4' I4B d   1      -1.037  -2.298  -2.848  0.00  0.00     0.013 C 
ATOM     10  C3' I4B d   1       1.205  -1.386  -3.388  0.00  0.00     0.013 C 
ENDBRANCH   7   8
ENDBRANCH   1   7
TORSDOF 2
ENDMDL
