MODEL 1
REMARK minimizedAffinity -3.58880186
REMARK minimizedRMSD -1
REMARK  2 active torsions:
REMARK  status: ('A' for Active; 'I' for Inactive)
REMARK    1  A    between atoms: C2'_3  and  C1'_4 
REMARK    2  A    between atoms: C1'_4  and  C1_5 
ROOT
ATOM      1  C1  I4B d   1      -0.118   0.120   0.515  0.00  0.00    -0.075 A 
ATOM      2  C2  I4B d   1       1.208   0.007   0.852  0.00  0.00     0.003 A 
ATOM      3  C3  I4B d   1       1.593  -0.084   2.212  0.00  0.00     0.002 A 
ATOM      4  C4  I4B d   1       0.629  -0.008   3.197  0.00  0.00    -0.004 A 
ATOM      5  C5  I4B d   1      -0.716   0.084   2.852  0.00  0.00     0.002 A 
ATOM      6  C6  I4B d   1      -1.094   0.136   1.503  0.00  0.00     0.003 A 
ENDROOT
BRANCH   1   7
ATOM      7  C1' I4B d   1      -0.486   0.247  -0.930  0.00  0.00     0.060 C 
BRANCH   7   8
ATOM      8  C2' I4B d   1       0.340  -0.755  -1.711  0.00  0.00    -0.013 C 
ATOM      9  C4' I4B d   1      -0.539  -1.735  -2.442  0.00  0.00     0.013 C 
ATOM     10  C3' I4B d   1       1.210   0.008  -2.666  0.00  0.00     0.013 C 
ENDBRANCH   7   8
ENDBRANCH   1   7
TORSDOF 2
ENDMDL
