MODEL 1
REMARK minimizedAffinity -5.0242753
REMARK minimizedRMSD -1
REMARK  1 active torsions:
REMARK  status: ('A' for Active; 'I' for Inactive)
REMARK    1  A    between atoms: C3_4  and  O_7 
ROOT
ATOM      1  C   UNL d   1      -0.801   0.426   0.115  0.00  0.00    -0.033 A 
ATOM      2  C1  UNL d   1      -0.429  -0.917   0.208  0.00  0.00     0.039 A 
ATOM      3  C2  UNL d   1       0.919  -1.264   0.321  0.00  0.00    -0.080 A 
ATOM      4  C3  UNL d   1       1.883  -0.260   0.342  0.00  0.00     0.150 A 
ATOM      5  C4  UNL d   1       1.520   1.080   0.254  0.00  0.00    -0.007 A 
ATOM      6  C5  UNL d   1       0.173   1.424   0.140  0.00  0.00     0.039 A 
ENDROOT
BRANCH   4   7
ATOM      7  O   UNL d   1       3.211  -0.549   0.447  0.00  0.00    -0.526 OA
ATOM      8  H5  UNL d   1       3.315  -1.515   0.470  0.00  0.00     0.418 HD
ENDBRANCH   4   7
TORSDOF 1
ENDMDL
