MODEL 1
REMARK minimizedAffinity -4.40926695
REMARK minimizedRMSD -1
REMARK  1 active torsions:
REMARK  status: ('A' for Active; 'I' for Inactive)
REMARK    1  A    between atoms: C3_4  and  O_7 
ROOT
ATOM      1  C   UNL d   1      -1.105   0.768   0.175  0.00  0.00    -0.033 A 
ATOM      2  C1  UNL d   1      -0.679  -0.559   0.249  0.00  0.00     0.039 A 
ATOM      3  C2  UNL d   1       0.681  -0.852   0.371  0.00  0.00    -0.080 A 
ATOM      4  C3  UNL d   1       1.602   0.191   0.420  0.00  0.00     0.150 A 
ATOM      5  C4  UNL d   1       1.184   1.515   0.352  0.00  0.00    -0.007 A 
ATOM      6  C5  UNL d   1      -0.174   1.806   0.228  0.00  0.00     0.039 A 
ENDROOT
BRANCH   4   7
ATOM      7  O   UNL d   1       2.940  -0.046   0.535  0.00  0.00    -0.526 OA
ATOM      8  H5  UNL d   1       3.083  -1.007   0.542  0.00  0.00     0.418 HD
ENDBRANCH   4   7
TORSDOF 1
ENDMDL
