MODEL 1
REMARK minimizedAffinity -4.65603685
REMARK minimizedRMSD -1
REMARK  1 active torsions:
REMARK  status: ('A' for Active; 'I' for Inactive)
REMARK    1  A    between atoms: C3_4  and  O_7 
ROOT
ATOM      1  C   UNL d   1       0.098   0.925   0.151  0.00  0.00    -0.033 A 
ATOM      2  C1  UNL d   1       0.219  -0.432   0.456  0.00  0.00     0.039 A 
ATOM      3  C2  UNL d   1       1.465  -0.965   0.792  0.00  0.00    -0.080 A 
ATOM      4  C3  UNL d   1       2.580  -0.132   0.820  0.00  0.00     0.150 A 
ATOM      5  C4  UNL d   1       2.466   1.222   0.521  0.00  0.00    -0.007 A 
ATOM      6  C5  UNL d   1       1.221   1.752   0.185  0.00  0.00     0.039 A 
ENDROOT
BRANCH   4   7
ATOM      7  O   UNL d   1       3.817  -0.608   1.137  0.00  0.00    -0.526 OA
ATOM      8  H5  UNL d   1       3.748  -1.565   1.292  0.00  0.00     0.418 HD
ENDBRANCH   4   7
TORSDOF 1
ENDMDL
