MODEL 1
REMARK minimizedAffinity -4.80162001
REMARK minimizedRMSD -1
REMARK  1 active torsions:
REMARK  status: ('A' for Active; 'I' for Inactive)
REMARK    1  A    between atoms: C3_4  and  O_7 
ROOT
ATOM      1  C   UNL d   1      -0.606   0.112   0.378  0.00  0.00    -0.033 A 
ATOM      2  C1  UNL d   1       0.217   1.235   0.272  0.00  0.00     0.039 A 
ATOM      3  C2  UNL d   1       1.605   1.093   0.340  0.00  0.00    -0.080 A 
ATOM      4  C3  UNL d   1       2.155  -0.174   0.512  0.00  0.00     0.150 A 
ATOM      5  C4  UNL d   1       1.341  -1.297   0.614  0.00  0.00    -0.007 A 
ATOM      6  C5  UNL d   1      -0.045  -1.154   0.548  0.00  0.00     0.039 A 
ENDROOT
BRANCH   4   7
ATOM      7  O   UNL d   1       3.503  -0.361   0.589  0.00  0.00    -0.526 OA
ATOM      8  H5  UNL d   1       3.938   0.507   0.532  0.00  0.00     0.418 HD
ENDBRANCH   4   7
TORSDOF 1
ENDMDL
