MODEL 1
REMARK minimizedAffinity -3.58336926
REMARK minimizedRMSD -1
REMARK  1 active torsions:
REMARK  status: ('A' for Active; 'I' for Inactive)
REMARK    1  A    between atoms: C3_4  and  O_7 
ROOT
ATOM      1  C   UNL d   1      -0.730   0.582   0.402  0.00  0.00    -0.033 A 
ATOM      2  C1  UNL d   1       0.202   1.603   0.597  0.00  0.00     0.039 A 
ATOM      3  C2  UNL d   1       1.547   1.292   0.805  0.00  0.00    -0.080 A 
ATOM      4  C3  UNL d   1       1.946  -0.042   0.817  0.00  0.00     0.150 A 
ATOM      5  C4  UNL d   1       1.023  -1.064   0.620  0.00  0.00    -0.007 A 
ATOM      6  C5  UNL d   1      -0.320  -0.751   0.413  0.00  0.00     0.039 A 
ENDROOT
BRANCH   4   7
ATOM      7  O   UNL d   1       3.247  -0.395   1.021  0.00  0.00    -0.526 OA
ATOM      8  H5  UNL d   1       3.765   0.413   1.171  0.00  0.00     0.418 HD
ENDBRANCH   4   7
TORSDOF 1
ENDMDL
