MODEL 1
REMARK minimizedAffinity -4.43611765
REMARK minimizedRMSD -1
REMARK  1 active torsions:
REMARK  status: ('A' for Active; 'I' for Inactive)
REMARK    1  A    between atoms: C3_4  and  O_7 
ROOT
ATOM      1  C   UNL d   1      -0.665  -0.000   0.246  0.00  0.00    -0.033 A 
ATOM      2  C1  UNL d   1      -0.172  -1.295   0.423  0.00  0.00     0.039 A 
ATOM      3  C2  UNL d   1       1.206  -1.519   0.465  0.00  0.00    -0.080 A 
ATOM      4  C3  UNL d   1       2.078  -0.442   0.331  0.00  0.00     0.150 A 
ATOM      5  C4  UNL d   1       1.593   0.850   0.158  0.00  0.00    -0.007 A 
ATOM      6  C5  UNL d   1       0.218   1.072   0.115  0.00  0.00     0.039 A 
ENDROOT
BRANCH   4   7
ATOM      7  O   UNL d   1       3.430  -0.613   0.361  0.00  0.00    -0.526 OA
ATOM      8  H5  UNL d   1       3.619  -1.561   0.457  0.00  0.00     0.418 HD
ENDBRANCH   4   7
TORSDOF 1
ENDMDL
