MODEL 1
REMARK minimizedAffinity -3.78266501
REMARK minimizedRMSD -1
REMARK  1 active torsions:
REMARK  status: ('A' for Active; 'I' for Inactive)
REMARK    1  A    between atoms: C3_4  and  O_7 
ROOT
ATOM      1  C   UNL d   1       1.647  -1.874   0.805  0.00  0.00    -0.033 A 
ATOM      2  C1  UNL d   1       0.540  -2.266   1.560  0.00  0.00     0.039 A 
ATOM      3  C2  UNL d   1      -0.622  -1.491   1.551  0.00  0.00    -0.080 A 
ATOM      4  C3  UNL d   1      -0.664  -0.331   0.784  0.00  0.00     0.150 A 
ATOM      5  C4  UNL d   1       0.434   0.063   0.026  0.00  0.00    -0.007 A 
ATOM      6  C5  UNL d   1       1.594  -0.711   0.037  0.00  0.00     0.039 A 
ENDROOT
BRANCH   4   7
ATOM      7  O   UNL d   1      -1.774   0.460   0.747  0.00  0.00    -0.526 OA
ATOM      8  H5  UNL d   1      -2.442   0.079   1.341  0.00  0.00     0.418 HD
ENDBRANCH   4   7
TORSDOF 1
ENDMDL
