MODEL 1
REMARK minimizedAffinity -2.19344807
REMARK minimizedRMSD -1
REMARK  1 active torsions:
REMARK  status: ('A' for Active; 'I' for Inactive)
REMARK    1  A    between atoms: C3_4  and  O_7 
ROOT
ATOM      1  C   UNL d   1       2.551   0.018   1.144  0.00  0.00    -0.033 A 
ATOM      2  C1  UNL d   1       2.040   1.215   0.637  0.00  0.00     0.039 A 
ATOM      3  C2  UNL d   1       0.750   1.255   0.106  0.00  0.00    -0.080 A 
ATOM      4  C3  UNL d   1      -0.019   0.095   0.088  0.00  0.00     0.150 A 
ATOM      5  C4  UNL d   1       0.483  -1.100   0.595  0.00  0.00    -0.007 A 
ATOM      6  C5  UNL d   1       1.772  -1.139   1.124  0.00  0.00     0.039 A 
ENDROOT
BRANCH   4   7
ATOM      7  O   UNL d   1      -1.282   0.084  -0.425  0.00  0.00    -0.526 OA
ATOM      8  H5  UNL d   1      -1.484   0.972  -0.764  0.00  0.00     0.418 HD
ENDBRANCH   4   7
TORSDOF 1
ENDMDL
