MODEL 1
REMARK minimizedAffinity -4.93301678
REMARK minimizedRMSD -1
REMARK  1 active torsions:
REMARK  status: ('A' for Active; 'I' for Inactive)
REMARK    1  A    between atoms: C3_4  and  O_7 
ROOT
ATOM      1  C   UNL d   1       3.078  -0.287   1.511  0.00  0.00    -0.033 A 
ATOM      2  C1  UNL d   1       2.403  -1.406   1.021  0.00  0.00     0.039 A 
ATOM      3  C2  UNL d   1       1.258  -1.245   0.238  0.00  0.00    -0.080 A 
ATOM      4  C3  UNL d   1       0.800   0.038  -0.048  0.00  0.00     0.150 A 
ATOM      5  C4  UNL d   1       1.470   1.157   0.435  0.00  0.00    -0.007 A 
ATOM      6  C5  UNL d   1       2.612   0.995   1.217  0.00  0.00     0.039 A 
ENDROOT
BRANCH   4   7
ATOM      7  O   UNL d   1      -0.315   0.245  -0.803  0.00  0.00    -0.526 OA
ATOM      8  H5  UNL d   1      -0.689  -0.620  -1.043  0.00  0.00     0.418 HD
ENDBRANCH   4   7
TORSDOF 1
ENDMDL
