MODEL 1
REMARK minimizedAffinity -3.50937724
REMARK minimizedRMSD -1
REMARK  1 active torsions:
REMARK  status: ('A' for Active; 'I' for Inactive)
REMARK    1  A    between atoms: C3_4  and  O_7 
ROOT
ATOM      1  C   UNL d   1      -0.885  -0.808   0.086  0.00  0.00    -0.033 A 
ATOM      2  C1  UNL d   1      -0.180   0.307  -0.371  0.00  0.00     0.039 A 
ATOM      3  C2  UNL d   1       1.198   0.396  -0.166  0.00  0.00    -0.080 A 
ATOM      4  C3  UNL d   1       1.859  -0.636   0.496  0.00  0.00     0.150 A 
ATOM      5  C4  UNL d   1       1.163  -1.751   0.951  0.00  0.00    -0.007 A 
ATOM      6  C5  UNL d   1      -0.213  -1.838   0.746  0.00  0.00     0.039 A 
ENDROOT
BRANCH   4   7
ATOM      7  O   UNL d   1       3.202  -0.591   0.723  0.00  0.00    -0.526 OA
ATOM      8  H5  UNL d   1       3.545   0.251   0.379  0.00  0.00     0.418 HD
ENDBRANCH   4   7
TORSDOF 1
ENDMDL
