MODEL 1
REMARK minimizedAffinity 7.74411774
REMARK minimizedRMSD -1
REMARK  1 active torsions:
REMARK  status: ('A' for Active; 'I' for Inactive)
REMARK    1  A    between atoms: C1_2  and  C2_3 
ROOT
ATOM      1  C2  UNL d   1       2.523  -0.828  -1.279  0.00  0.00    -0.077 A 
ATOM      2  C3  UNL d   1       2.013  -0.325  -0.074  0.00  0.00     0.002 A 
ATOM      3  C4  UNL d   1       2.348   0.961   0.352  0.00  0.00     0.002 A 
ATOM      4  C5  UNL d   1       3.190   1.757  -0.422  0.00  0.00    -0.004 A 
ATOM      5  C6  UNL d   1       3.704   1.265  -1.622  0.00  0.00     0.002 A 
ATOM      6  C7  UNL d   1       3.371  -0.022  -2.049  0.00  0.00     0.002 A 
ENDROOT
BRANCH   1   7
ATOM      7  C1  UNL d   1       2.123  -2.197  -1.765  0.00  0.00     0.055 C 
ATOM      8  C   UNL d   1       2.547  -2.417  -3.210  0.00  0.00     0.019 C 
ENDBRANCH   1   7
TORSDOF 1
ENDMDL
