MODEL 1
REMARK minimizedAffinity 7.16000748
REMARK minimizedRMSD -1
REMARK  1 active torsions:
REMARK  status: ('A' for Active; 'I' for Inactive)
REMARK    1  A    between atoms: C1_2  and  C2_3 
ROOT
ATOM      1  C2  UNL d   1       2.899  -0.826  -1.244  0.00  0.00    -0.077 A 
ATOM      2  C3  UNL d   1       2.702  -0.319   0.048  0.00  0.00     0.002 A 
ATOM      3  C4  UNL d   1       3.042   1.001   0.348  0.00  0.00     0.002 A 
ATOM      4  C5  UNL d   1       3.576   1.826  -0.639  0.00  0.00    -0.004 A 
ATOM      5  C6  UNL d   1       3.778   1.331  -1.927  0.00  0.00     0.002 A 
ATOM      6  C7  UNL d   1       3.440   0.011  -2.228  0.00  0.00     0.002 A 
ENDROOT
BRANCH   1   7
ATOM      7  C1  UNL d   1       2.487  -2.235  -1.583  0.00  0.00     0.055 C 
ATOM      8  C   UNL d   1       2.839  -2.584  -3.021  0.00  0.00     0.019 C 
ENDBRANCH   1   7
TORSDOF 1
ENDMDL
