MODEL 1
REMARK minimizedAffinity 4.16763067
REMARK minimizedRMSD -1
REMARK  1 active torsions:
REMARK  status: ('A' for Active; 'I' for Inactive)
REMARK    1  A    between atoms: C1_2  and  C2_3 
ROOT
ATOM      1  C2  UNL d   1      -3.861   0.350  -3.181  0.00  0.00    -0.077 A 
ATOM      2  C3  UNL d   1      -2.595   0.009  -2.687  0.00  0.00     0.002 A 
ATOM      3  C4  UNL d   1      -2.331   0.069  -1.317  0.00  0.00     0.002 A 
ATOM      4  C5  UNL d   1      -3.330   0.466  -0.430  0.00  0.00    -0.004 A 
ATOM      5  C6  UNL d   1      -4.592   0.809  -0.912  0.00  0.00     0.002 A 
ATOM      6  C7  UNL d   1      -4.857   0.751  -2.281  0.00  0.00     0.002 A 
ENDROOT
BRANCH   1   7
ATOM      7  C1  UNL d   1      -4.162   0.238  -4.653  0.00  0.00     0.055 C 
ATOM      8  C   UNL d   1      -5.662   0.196  -4.910  0.00  0.00     0.019 C 
ENDBRANCH   1   7
TORSDOF 1
ENDMDL
