MODEL 1
REMARK minimizedAffinity 10.4745045
REMARK minimizedRMSD -1
REMARK  1 active torsions:
REMARK  status: ('A' for Active; 'I' for Inactive)
REMARK    1  A    between atoms: C1_2  and  C2_3 
ROOT
ATOM      1  C2  UNL d   1      -5.007   3.082  -0.452  0.00  0.00    -0.077 A 
ATOM      2  C3  UNL d   1      -5.131   2.633  -1.774  0.00  0.00     0.002 A 
ATOM      3  C4  UNL d   1      -5.416   1.293  -2.042  0.00  0.00     0.002 A 
ATOM      4  C5  UNL d   1      -5.584   0.392  -0.993  0.00  0.00    -0.004 A 
ATOM      5  C6  UNL d   1      -5.461   0.828   0.326  0.00  0.00     0.002 A 
ATOM      6  C7  UNL d   1      -5.174   2.167   0.595  0.00  0.00     0.002 A 
ENDROOT
BRANCH   1   7
ATOM      7  C1  UNL d   1      -4.748   4.537  -0.160  0.00  0.00     0.055 C 
ATOM      8  C   UNL d   1      -3.260   4.852  -0.197  0.00  0.00     0.019 C 
ENDBRANCH   1   7
TORSDOF 1
ENDMDL
