MODEL 1
REMARK minimizedAffinity 15.3083773
REMARK minimizedRMSD -1
REMARK  1 active torsions:
REMARK  status: ('A' for Active; 'I' for Inactive)
REMARK    1  A    between atoms: C1_2  and  C2_3 
ROOT
ATOM      1  C2  UNL d   1      -4.272   3.349  -0.717  0.00  0.00    -0.077 A 
ATOM      2  C3  UNL d   1      -4.130   2.189   0.059  0.00  0.00     0.002 A 
ATOM      3  C4  UNL d   1      -4.677   0.980  -0.373  0.00  0.00     0.002 A 
ATOM      4  C5  UNL d   1      -5.367   0.917  -1.582  0.00  0.00    -0.004 A 
ATOM      5  C6  UNL d   1      -5.516   2.065  -2.359  0.00  0.00     0.002 A 
ATOM      6  C7  UNL d   1      -4.970   3.275  -1.929  0.00  0.00     0.002 A 
ENDROOT
BRANCH   1   7
ATOM      7  C1  UNL d   1      -3.640   4.644  -0.278  0.00  0.00     0.055 C 
ATOM      8  C   UNL d   1      -4.688   5.638   0.200  0.00  0.00     0.019 C 
ENDBRANCH   1   7
TORSDOF 1
ENDMDL
