MODEL 1
REMARK minimizedAffinity 5.73807764
REMARK minimizedRMSD -1
REMARK  1 active torsions:
REMARK  status: ('A' for Active; 'I' for Inactive)
REMARK    1  A    between atoms: C1_2  and  C2_3 
ROOT
ATOM      1  C2  UNL d   1      -5.165   4.398   3.763  0.00  0.00    -0.077 A 
ATOM      2  C3  UNL d   1      -5.998   4.441   4.890  0.00  0.00     0.002 A 
ATOM      3  C4  UNL d   1      -5.663   5.237   5.987  0.00  0.00     0.002 A 
ATOM      4  C5  UNL d   1      -4.496   5.999   5.966  0.00  0.00    -0.004 A 
ATOM      5  C6  UNL d   1      -3.660   5.962   4.851  0.00  0.00     0.002 A 
ATOM      6  C7  UNL d   1      -3.993   5.165   3.754  0.00  0.00     0.002 A 
ENDROOT
BRANCH   1   7
ATOM      7  C1  UNL d   1      -5.550   3.578   2.560  0.00  0.00     0.055 C 
ATOM      8  C   UNL d   1      -4.340   2.881   1.955  0.00  0.00     0.019 C 
ENDBRANCH   1   7
TORSDOF 1
ENDMDL
