MODEL 1
REMARK minimizedAffinity 5.97842169
REMARK minimizedRMSD -1
REMARK  1 active torsions:
REMARK  status: ('A' for Active; 'I' for Inactive)
REMARK    1  A    between atoms: C1_2  and  C2_3 
ROOT
ATOM      1  C2  UNL d   1      -4.950   4.506   3.352  0.00  0.00    -0.077 A 
ATOM      2  C3  UNL d   1      -5.999   4.508   4.282  0.00  0.00     0.002 A 
ATOM      3  C4  UNL d   1      -5.897   5.250   5.460  0.00  0.00     0.002 A 
ATOM      4  C5  UNL d   1      -4.750   5.997   5.719  0.00  0.00    -0.004 A 
ATOM      5  C6  UNL d   1      -3.700   6.000   4.801  0.00  0.00     0.002 A 
ATOM      6  C7  UNL d   1      -3.800   5.258   3.623  0.00  0.00     0.002 A 
ENDROOT
BRANCH   1   7
ATOM      7  C1  UNL d   1      -5.078   3.747   2.058  0.00  0.00     0.055 C 
ATOM      8  C   UNL d   1      -3.966   2.719   1.907  0.00  0.00     0.019 C 
ENDBRANCH   1   7
TORSDOF 1
ENDMDL
