MODEL 1
REMARK minimizedAffinity 4.09727573
REMARK minimizedRMSD -1
REMARK  1 active torsions:
REMARK  status: ('A' for Active; 'I' for Inactive)
REMARK    1  A    between atoms: C1_2  and  C2_3 
ROOT
ATOM      1  C2  UNL d   1      -5.075   4.491   3.652  0.00  0.00    -0.077 A 
ATOM      2  C3  UNL d   1      -5.999   4.496   4.706  0.00  0.00     0.002 A 
ATOM      3  C4  UNL d   1      -5.753   5.246   5.857  0.00  0.00     0.002 A 
ATOM      4  C5  UNL d   1      -4.586   6.000   5.964  0.00  0.00    -0.004 A 
ATOM      5  C6  UNL d   1      -3.659   5.999   4.922  0.00  0.00     0.002 A 
ATOM      6  C7  UNL d   1      -3.903   5.249   3.771  0.00  0.00     0.002 A 
ENDROOT
BRANCH   1   7
ATOM      7  C1  UNL d   1      -5.362   3.721   2.389  0.00  0.00     0.055 C 
ATOM      8  C   UNL d   1      -4.126   2.980   1.899  0.00  0.00     0.019 C 
ENDBRANCH   1   7
TORSDOF 1
ENDMDL
