MODEL 1
REMARK minimizedAffinity 14.3582792
REMARK minimizedRMSD -1
REMARK  1 active torsions:
REMARK  status: ('A' for Active; 'I' for Inactive)
REMARK    1  A    between atoms: C1_2  and  C2_3 
ROOT
ATOM      1  C2  UNL d   1       0.362  -2.640   4.058  0.00  0.00    -0.077 A 
ATOM      2  C3  UNL d   1      -0.772  -3.294   3.558  0.00  0.00     0.002 A 
ATOM      3  C4  UNL d   1      -1.357  -4.341   4.274  0.00  0.00     0.002 A 
ATOM      4  C5  UNL d   1      -0.817  -4.739   5.495  0.00  0.00    -0.004 A 
ATOM      5  C6  UNL d   1       0.312  -4.095   6.000  0.00  0.00     0.002 A 
ATOM      6  C7  UNL d   1       0.899  -3.050   5.285  0.00  0.00     0.002 A 
ENDROOT
BRANCH   1   7
ATOM      7  C1  UNL d   1       0.964  -1.478   3.311  0.00  0.00     0.055 C 
ATOM      8  C   UNL d   1       0.049  -0.264   3.345  0.00  0.00     0.019 C 
ENDBRANCH   1   7
TORSDOF 1
ENDMDL
