MODEL 1
REMARK minimizedAffinity -3.10347605
REMARK minimizedRMSD -1
REMARK  0 active torsions:
REMARK  status: ('A' for Active; 'I' for Inactive)
ROOT
ATOM      1  C   UNL d   1       0.583  -0.824  -1.023  0.00  0.00     0.023 A 
ATOM      2  C1  UNL d   1       1.474  -0.512   0.005  0.00  0.00     0.003 A 
ATOM      3  C2  UNL d   1       1.033   0.206   1.119  0.00  0.00     0.048 A 
ATOM      4  C3  UNL d   1      -0.300   0.607   1.199  0.00  0.00     0.023 A 
ATOM      5  C4  UNL d   1      -1.195   0.297   0.173  0.00  0.00     0.048 A 
ATOM      6  C5  UNL d   1      -0.749  -0.420  -0.939  0.00  0.00     0.003 A 
ATOM      7  I   UNL d   1      -0.959   1.675   2.855  0.00  0.00    -0.146 I 
ENDROOT
TORSDOF 0
ENDMDL
