MODEL 1
REMARK minimizedAffinity -4.77072334
REMARK minimizedRMSD -1
REMARK  0 active torsions:
REMARK  status: ('A' for Active; 'I' for Inactive)
ROOT
ATOM      1  C   UNL d   1      -1.047   1.193   2.428  0.00  0.00     0.023 A 
ATOM      2  C1  UNL d   1       0.288   1.484   2.146  0.00  0.00     0.003 A 
ATOM      3  C2  UNL d   1       0.858   1.062   0.943  0.00  0.00     0.048 A 
ATOM      4  C3  UNL d   1       0.086   0.350   0.025  0.00  0.00     0.023 A 
ATOM      5  C4  UNL d   1      -1.250   0.056   0.302  0.00  0.00     0.048 A 
ATOM      6  C5  UNL d   1      -1.815   0.480   1.507  0.00  0.00     0.003 A 
ATOM      7  I   UNL d   1       0.931  -0.279  -1.766  0.00  0.00    -0.146 I 
ENDROOT
TORSDOF 0
ENDMDL
