MODEL 1
REMARK minimizedAffinity -1.69791865
REMARK minimizedRMSD -1
REMARK  0 active torsions:
REMARK  status: ('A' for Active; 'I' for Inactive)
ROOT
ATOM      1  C   UNL d   1       0.845  -1.228  -1.104  0.00  0.00     0.023 A 
ATOM      2  C1  UNL d   1      -0.456  -0.728  -1.154  0.00  0.00     0.003 A 
ATOM      3  C2  UNL d   1      -0.969  -0.004  -0.075  0.00  0.00     0.048 A 
ATOM      4  C3  UNL d   1      -0.174   0.216   1.050  0.00  0.00     0.023 A 
ATOM      5  C4  UNL d   1       1.128  -0.282   1.103  0.00  0.00     0.048 A 
ATOM      6  C5  UNL d   1       1.636  -1.006   0.023  0.00  0.00     0.003 A 
ATOM      7  I   UNL d   1      -0.935   1.293   2.657  0.00  0.00    -0.146 I 
ENDROOT
TORSDOF 0
ENDMDL
