MODEL 1
REMARK minimizedAffinity -2.41231179
REMARK minimizedRMSD -1
REMARK  0 active torsions:
REMARK  status: ('A' for Active; 'I' for Inactive)
ROOT
ATOM      1  C   UNL d   1      -1.295   1.343   2.744  0.00  0.00     0.023 A 
ATOM      2  C1  UNL d   1      -1.755   0.136   2.219  0.00  0.00     0.003 A 
ATOM      3  C2  UNL d   1      -1.268  -0.325   0.994  0.00  0.00     0.048 A 
ATOM      4  C3  UNL d   1      -0.321   0.427   0.300  0.00  0.00     0.023 A 
ATOM      5  C4  UNL d   1       0.143   1.635   0.822  0.00  0.00     0.048 A 
ATOM      6  C5  UNL d   1      -0.347   2.092   2.047  0.00  0.00     0.003 A 
ATOM      7  I   UNL d   1       0.406  -0.257  -1.524  0.00  0.00    -0.146 I 
ENDROOT
TORSDOF 0
ENDMDL
