MODEL 1
REMARK minimizedAffinity -1.69493818
REMARK minimizedRMSD -1
REMARK  0 active torsions:
REMARK  status: ('A' for Active; 'I' for Inactive)
ROOT
ATOM      1  C   UNL d   1       1.348   0.600   1.835  0.00  0.00     0.023 A 
ATOM      2  C1  UNL d   1       2.101  -0.417   1.249  0.00  0.00     0.003 A 
ATOM      3  C2  UNL d   1       1.891  -0.761  -0.088  0.00  0.00     0.048 A 
ATOM      4  C3  UNL d   1       0.927  -0.083  -0.833  0.00  0.00     0.023 A 
ATOM      5  C4  UNL d   1       0.171   0.936  -0.251  0.00  0.00     0.048 A 
ATOM      6  C5  UNL d   1       0.384   1.276   1.087  0.00  0.00     0.003 A 
ATOM      7  I   UNL d   1       0.612  -0.593  -2.823  0.00  0.00    -0.146 I 
ENDROOT
TORSDOF 0
ENDMDL
