MODEL 1
REMARK minimizedAffinity -1.52138877
REMARK minimizedRMSD -1
REMARK  0 active torsions:
REMARK  status: ('A' for Active; 'I' for Inactive)
ROOT
ATOM      1  C   UNL d   1       1.030   0.225  -3.975  0.00  0.00     0.023 A 
ATOM      2  C1  UNL d   1       0.443  -0.838  -3.289  0.00  0.00     0.003 A 
ATOM      3  C2  UNL d   1       0.237  -0.753  -1.910  0.00  0.00     0.048 A 
ATOM      4  C3  UNL d   1       0.619   0.400  -1.224  0.00  0.00     0.023 A 
ATOM      5  C4  UNL d   1       1.206   1.466  -1.907  0.00  0.00     0.048 A 
ATOM      6  C5  UNL d   1       1.411   1.375  -3.285  0.00  0.00     0.003 A 
ATOM      7  I   UNL d   1       0.312   0.530   0.827  0.00  0.00    -0.146 I 
ENDROOT
TORSDOF 0
ENDMDL
