MODEL 1
REMARK minimizedAffinity -2.93838286
REMARK minimizedRMSD -1
REMARK  0 active torsions:
REMARK  status: ('A' for Active; 'I' for Inactive)
ROOT
ATOM      1  C   UNL d   1      -1.249   1.117   1.269  0.00  0.00     0.023 A 
ATOM      2  C1  UNL d   1      -0.243   0.169   1.084  0.00  0.00     0.003 A 
ATOM      3  C2  UNL d   1       0.420   0.083  -0.142  0.00  0.00     0.048 A 
ATOM      4  C3  UNL d   1       0.072   0.948  -1.178  0.00  0.00     0.023 A 
ATOM      5  C4  UNL d   1      -0.934   1.899  -0.998  0.00  0.00     0.048 A 
ATOM      6  C5  UNL d   1      -1.594   1.981   0.229  0.00  0.00     0.003 A 
ATOM      7  I   UNL d   1       1.058   0.822  -3.004  0.00  0.00    -0.146 I 
ENDROOT
TORSDOF 0
ENDMDL
