MODEL 1
REMARK minimizedAffinity 9.50951767
REMARK minimizedRMSD -1
REMARK  1 active torsions:
REMARK  status: ('A' for Active; 'I' for Inactive)
REMARK    1  A    between atoms: C1_2  and  C2_3 
ROOT
ATOM      1  C2  UNL d   1       4.008   4.539   0.199  0.00  0.00    -0.076 A 
ATOM      2  C3  UNL d   1       3.556   4.045   1.434  0.00  0.00     0.004 A 
ATOM      3  C4  UNL d   1       4.317   4.200   2.591  0.00  0.00    -0.003 A 
ATOM      4  C5  UNL d   1       5.543   4.854   2.532  0.00  0.00     0.000 A 
ATOM      5  C6  UNL d   1       5.999   5.366   1.318  0.00  0.00     0.000 A 
ATOM      6  C7  UNL d   1       5.237   5.232   0.145  0.00  0.00    -0.073 A 
ATOM      7  C8  UNL d   1       5.780   5.799  -1.138  0.00  0.00     0.078 C 
ENDROOT
BRANCH   1   8
ATOM      8  C1  UNL d   1       3.153   4.317  -1.028  0.00  0.00     0.053 C 
ATOM      9  C   UNL d   1       2.398   5.569  -1.447  0.00  0.00     0.018 C 
ENDBRANCH   1   8
TORSDOF 1
ENDMDL
