MODEL 1
REMARK minimizedAffinity 18.7852345
REMARK minimizedRMSD -1
REMARK  1 active torsions:
REMARK  status: ('A' for Active; 'I' for Inactive)
REMARK    1  A    between atoms: C1_2  and  C2_3 
ROOT
ATOM      1  C2  UNL d   1      -0.803   0.436  -1.233  0.00  0.00    -0.076 A 
ATOM      2  C3  UNL d   1       0.364  -0.348  -1.223  0.00  0.00     0.004 A 
ATOM      3  C4  UNL d   1       1.501   0.049  -1.924  0.00  0.00    -0.003 A 
ATOM      4  C5  UNL d   1       1.490   1.236  -2.648  0.00  0.00     0.000 A 
ATOM      5  C6  UNL d   1       0.347   2.035  -2.655  0.00  0.00     0.000 A 
ATOM      6  C7  UNL d   1      -0.803   1.658  -1.940  0.00  0.00    -0.073 A 
ATOM      7  C8  UNL d   1      -2.010   2.554  -1.988  0.00  0.00     0.078 C 
ENDROOT
BRANCH   1   8
ATOM      8  C1  UNL d   1      -2.014  -0.059  -0.476  0.00  0.00     0.053 C 
ATOM      9  C   UNL d   1      -1.965   0.301   1.001  0.00  0.00     0.018 C 
ENDBRANCH   1   8
TORSDOF 1
ENDMDL
