MODEL 1
REMARK minimizedAffinity 6.85395288
REMARK minimizedRMSD -1
REMARK  1 active torsions:
REMARK  status: ('A' for Active; 'I' for Inactive)
REMARK    1  A    between atoms: C1_2  and  C2_3 
ROOT
ATOM      1  C2  UNL d   1       1.929   2.359  -3.469  0.00  0.00    -0.076 A 
ATOM      2  C3  UNL d   1       2.514   1.793  -2.323  0.00  0.00     0.004 A 
ATOM      3  C4  UNL d   1       2.110   0.544  -1.854  0.00  0.00    -0.003 A 
ATOM      4  C5  UNL d   1       1.116  -0.160  -2.524  0.00  0.00     0.000 A 
ATOM      5  C6  UNL d   1       0.537   0.378  -3.673  0.00  0.00     0.000 A 
ATOM      6  C7  UNL d   1       0.944   1.629  -4.168  0.00  0.00    -0.073 A 
ATOM      7  C8  UNL d   1       0.281   2.164  -5.408  0.00  0.00     0.078 C 
ENDROOT
BRANCH   1   8
ATOM      8  C1  UNL d   1       2.387   3.729  -3.915  0.00  0.00     0.053 C 
ATOM      9  C   UNL d   1       3.160   4.466  -2.832  0.00  0.00     0.018 C 
ENDBRANCH   1   8
TORSDOF 1
ENDMDL
