MODEL 1
REMARK minimizedAffinity 3.52056646
REMARK minimizedRMSD -1
REMARK  1 active torsions:
REMARK  status: ('A' for Active; 'I' for Inactive)
REMARK    1  A    between atoms: C1_2  and  C2_3 
ROOT
ATOM      1  C2  UNL d   1       2.044   1.752  -2.303  0.00  0.00    -0.076 A 
ATOM      2  C3  UNL d   1       3.142   1.075  -1.745  0.00  0.00     0.004 A 
ATOM      3  C4  UNL d   1       3.005  -0.212  -1.228  0.00  0.00    -0.003 A 
ATOM      4  C5  UNL d   1       1.766  -0.844  -1.263  0.00  0.00     0.000 A 
ATOM      5  C6  UNL d   1       0.670  -0.195  -1.829  0.00  0.00     0.000 A 
ATOM      6  C7  UNL d   1       0.796   1.097  -2.369  0.00  0.00    -0.073 A 
ATOM      7  C8  UNL d   1      -0.421   1.753  -2.962  0.00  0.00     0.078 C 
ENDROOT
BRANCH   1   8
ATOM      8  C1  UNL d   1       2.248   3.157  -2.823  0.00  0.00     0.053 C 
ATOM      9  C   UNL d   1       2.471   4.165  -1.706  0.00  0.00     0.018 C 
ENDBRANCH   1   8
TORSDOF 1
ENDMDL
