MODEL 1
REMARK minimizedAffinity -0.107321016
REMARK minimizedRMSD -1
REMARK  1 active torsions:
REMARK  status: ('A' for Active; 'I' for Inactive)
REMARK    1  A    between atoms: C1_2  and  C2_3 
ROOT
ATOM      1  C2  UNL d   1       1.170   1.118  -1.946  0.00  0.00    -0.076 A 
ATOM      2  C3  UNL d   1      -0.046   1.721  -1.580  0.00  0.00     0.004 A 
ATOM      3  C4  UNL d   1      -0.140   2.506  -0.432  0.00  0.00    -0.003 A 
ATOM      4  C5  UNL d   1       0.981   2.703   0.368  0.00  0.00     0.000 A 
ATOM      5  C6  UNL d   1       2.199   2.127   0.010  0.00  0.00     0.000 A 
ATOM      6  C7  UNL d   1       2.315   1.345  -1.153  0.00  0.00    -0.073 A 
ATOM      7  C8  UNL d   1       3.652   0.743  -1.488  0.00  0.00     0.078 C 
ENDROOT
BRANCH   1   8
ATOM      8  C1  UNL d   1       1.205   0.255  -3.187  0.00  0.00     0.053 C 
ATOM      9  C   UNL d   1       1.372   1.070  -4.460  0.00  0.00     0.018 C 
ENDBRANCH   1   8
TORSDOF 1
ENDMDL
