MODEL 1
REMARK minimizedAffinity 19.2139168
REMARK minimizedRMSD -1
REMARK  1 active torsions:
REMARK  status: ('A' for Active; 'I' for Inactive)
REMARK    1  A    between atoms: C1_2  and  C2_3 
ROOT
ATOM      1  C2  UNL d   1      -3.452   4.010   4.015  0.00  0.00    -0.076 A 
ATOM      2  C3  UNL d   1      -2.252   4.563   4.493  0.00  0.00     0.004 A 
ATOM      3  C4  UNL d   1      -2.258   5.550   5.477  0.00  0.00    -0.003 A 
ATOM      4  C5  UNL d   1      -3.465   6.000   6.000  0.00  0.00     0.000 A 
ATOM      5  C6  UNL d   1      -4.665   5.450   5.550  0.00  0.00     0.000 A 
ATOM      6  C7  UNL d   1      -4.676   4.443   4.570  0.00  0.00    -0.073 A 
ATOM      7  C8  UNL d   1      -5.999   3.890   4.117  0.00  0.00     0.078 C 
ENDROOT
BRANCH   1   8
ATOM      8  C1  UNL d   1      -3.385   2.963   2.927  0.00  0.00     0.053 C 
ATOM      9  C   UNL d   1      -2.623   1.720   3.362  0.00  0.00     0.018 C 
ENDBRANCH   1   8
TORSDOF 1
ENDMDL
