MODEL 1
REMARK minimizedAffinity 15.9584932
REMARK minimizedRMSD -1
REMARK  1 active torsions:
REMARK  status: ('A' for Active; 'I' for Inactive)
REMARK    1  A    between atoms: C1_2  and  C2_3 
ROOT
ATOM      1  C2  UNL d   1      -3.706   0.466   3.721  0.00  0.00    -0.076 A 
ATOM      2  C3  UNL d   1      -2.601   1.317   3.902  0.00  0.00     0.004 A 
ATOM      3  C4  UNL d   1      -2.541   2.558   3.270  0.00  0.00    -0.003 A 
ATOM      4  C5  UNL d   1      -3.585   2.969   2.448  0.00  0.00     0.000 A 
ATOM      5  C6  UNL d   1      -4.696   2.145   2.272  0.00  0.00     0.000 A 
ATOM      6  C7  UNL d   1      -4.780   0.898   2.914  0.00  0.00    -0.073 A 
ATOM      7  C8  UNL d   1      -5.999   0.048   2.683  0.00  0.00     0.078 C 
ENDROOT
BRANCH   1   8
ATOM      8  C1  UNL d   1      -3.703  -0.880   4.410  0.00  0.00     0.053 C 
ATOM      9  C   UNL d   1      -4.296  -0.820   5.809  0.00  0.00     0.018 C 
ENDBRANCH   1   8
TORSDOF 1
ENDMDL
