MODEL 1
REMARK minimizedAffinity 16.2328968
REMARK minimizedRMSD -1
REMARK  1 active torsions:
REMARK  status: ('A' for Active; 'I' for Inactive)
REMARK    1  A    between atoms: C1_2  and  C2_3 
ROOT
ATOM      1  C2  UNL d   1      -3.486   3.960   3.841  0.00  0.00    -0.076 A 
ATOM      2  C3  UNL d   1      -2.350   4.162   4.644  0.00  0.00     0.004 A 
ATOM      3  C4  UNL d   1      -2.320   5.173   5.603  0.00  0.00    -0.003 A 
ATOM      4  C5  UNL d   1      -3.426   5.998   5.775  0.00  0.00     0.000 A 
ATOM      5  C6  UNL d   1      -4.567   5.801   4.999  0.00  0.00     0.000 A 
ATOM      6  C7  UNL d   1      -4.620   4.776   4.039  0.00  0.00    -0.073 A 
ATOM      7  C8  UNL d   1      -5.874   4.613   3.225  0.00  0.00     0.078 C 
ENDROOT
BRANCH   1   8
ATOM      8  C1  UNL d   1      -3.450   2.866   2.798  0.00  0.00     0.053 C 
ATOM      9  C   UNL d   1      -3.037   1.522   3.378  0.00  0.00     0.018 C 
ENDBRANCH   1   8
TORSDOF 1
ENDMDL
