MODEL 1
REMARK minimizedAffinity 5.87563992
REMARK minimizedRMSD -1
REMARK  1 active torsions:
REMARK  status: ('A' for Active; 'I' for Inactive)
REMARK    1  A    between atoms: C1_2  and  C2_3 
ROOT
ATOM      1  C2  UNL d   1       5.325  -3.441   5.241  0.00  0.00    -0.076 A 
ATOM      2  C3  UNL d   1       5.999  -2.208   5.214  0.00  0.00     0.004 A 
ATOM      3  C4  UNL d   1       5.480  -1.122   4.512  0.00  0.00    -0.003 A 
ATOM      4  C5  UNL d   1       4.278  -1.250   3.826  0.00  0.00     0.000 A 
ATOM      5  C6  UNL d   1       3.586  -2.461   3.857  0.00  0.00     0.000 A 
ATOM      6  C7  UNL d   1       4.088  -3.561   4.573  0.00  0.00    -0.073 A 
ATOM      7  C8  UNL d   1       3.304  -4.845   4.567  0.00  0.00     0.078 C 
ENDROOT
BRANCH   1   8
ATOM      8  C1  UNL d   1       5.950  -4.592   5.997  0.00  0.00     0.053 C 
ATOM      9  C   UNL d   1       5.942  -5.886   5.198  0.00  0.00     0.018 C 
ENDBRANCH   1   8
TORSDOF 1
ENDMDL
