MODEL 1
REMARK minimizedAffinity 19.4650917
REMARK minimizedRMSD -1
REMARK  1 active torsions:
REMARK  status: ('A' for Active; 'I' for Inactive)
REMARK    1  A    between atoms: C1_2  and  C2_3 
ROOT
ATOM      1  C2  UNL d   1       0.796  -1.009  -3.657  0.00  0.00    -0.076 A 
ATOM      2  C3  UNL d   1       0.421  -2.357  -3.796  0.00  0.00     0.004 A 
ATOM      3  C4  UNL d   1       0.851  -3.319  -2.884  0.00  0.00    -0.003 A 
ATOM      4  C5  UNL d   1       1.662  -2.948  -1.816  0.00  0.00     0.000 A 
ATOM      5  C6  UNL d   1       2.028  -1.613  -1.653  0.00  0.00     0.000 A 
ATOM      6  C7  UNL d   1       1.590  -0.628  -2.554  0.00  0.00    -0.073 A 
ATOM      7  C8  UNL d   1       2.020   0.796  -2.333  0.00  0.00     0.078 C 
ENDROOT
BRANCH   1   8
ATOM      8  C1  UNL d   1       0.321  -0.015  -4.693  0.00  0.00     0.053 C 
ATOM      9  C   UNL d   1      -0.079  -0.681  -6.000  0.00  0.00     0.018 C 
ENDBRANCH   1   8
TORSDOF 1
ENDMDL
