MODEL 1
REMARK minimizedAffinity 3.12003589
REMARK minimizedRMSD -1
REMARK  1 active torsions:
REMARK  status: ('A' for Active; 'I' for Inactive)
REMARK    1  A    between atoms: C1_2  and  C2_3 
ROOT
ATOM      1  C2  UNL d   1       0.918   1.281  -2.452  0.00  0.00    -0.076 A 
ATOM      2  C3  UNL d   1       1.246   1.042  -3.798  0.00  0.00     0.004 A 
ATOM      3  C4  UNL d   1       1.944   1.989  -4.546  0.00  0.00    -0.003 A 
ATOM      4  C5  UNL d   1       2.326   3.190  -3.960  0.00  0.00     0.000 A 
ATOM      5  C6  UNL d   1       2.024   3.437  -2.621  0.00  0.00     0.000 A 
ATOM      6  C7  UNL d   1       1.335   2.486  -1.848  0.00  0.00    -0.073 A 
ATOM      7  C8  UNL d   1       1.031   2.808  -0.411  0.00  0.00     0.078 C 
ENDROOT
BRANCH   1   8
ATOM      8  C1  UNL d   1       0.136   0.228  -1.699  0.00  0.00     0.053 C 
ATOM      9  C   UNL d   1       0.944  -1.038  -1.461  0.00  0.00     0.018 C 
ENDBRANCH   1   8
TORSDOF 1
ENDMDL
