MODEL 1
REMARK minimizedAffinity 9.49187946
REMARK minimizedRMSD -1
REMARK  1 active torsions:
REMARK  status: ('A' for Active; 'I' for Inactive)
REMARK    1  A    between atoms: C1_2  and  C2_3 
ROOT
ATOM      1  C2  UNL d   1      -3.615   0.698   4.037  0.00  0.00    -0.076 A 
ATOM      2  C3  UNL d   1      -4.751   0.915   3.237  0.00  0.00     0.004 A 
ATOM      3  C4  UNL d   1      -5.334  -0.129   2.520  0.00  0.00    -0.003 A 
ATOM      4  C5  UNL d   1      -4.791  -1.407   2.593  0.00  0.00     0.000 A 
ATOM      5  C6  UNL d   1      -3.676  -1.644   3.396  0.00  0.00     0.000 A 
ATOM      6  C7  UNL d   1      -3.086  -0.607   4.137  0.00  0.00    -0.073 A 
ATOM      7  C8  UNL d   1      -1.881  -0.918   4.982  0.00  0.00     0.078 C 
ENDROOT
BRANCH   1   8
ATOM      8  C1  UNL d   1      -3.010   1.874   4.769  0.00  0.00     0.053 C 
ATOM      9  C   UNL d   1      -3.812   2.270   5.999  0.00  0.00     0.018 C 
ENDBRANCH   1   8
TORSDOF 1
ENDMDL
