MODEL 1
REMARK minimizedAffinity 7.98561001
REMARK minimizedRMSD -1
REMARK  1 active torsions:
REMARK  status: ('A' for Active; 'I' for Inactive)
REMARK    1  A    between atoms: C1_2  and  C2_3 
ROOT
ATOM      1  C2  UNL d   1       1.520   3.021  -1.534  0.00  0.00    -0.076 A 
ATOM      2  C3  UNL d   1       0.787   1.888  -1.140  0.00  0.00     0.004 A 
ATOM      3  C4  UNL d   1       0.446   0.899  -2.061  0.00  0.00    -0.003 A 
ATOM      4  C5  UNL d   1       0.831   1.027  -3.391  0.00  0.00     0.000 A 
ATOM      5  C6  UNL d   1       1.573   2.136  -3.795  0.00  0.00     0.000 A 
ATOM      6  C7  UNL d   1       1.940   3.134  -2.876  0.00  0.00    -0.073 A 
ATOM      7  C8  UNL d   1       2.735   4.312  -3.369  0.00  0.00     0.078 C 
ENDROOT
BRANCH   1   8
ATOM      8  C1  UNL d   1       1.838   4.074  -0.497  0.00  0.00     0.053 C 
ATOM      9  C   UNL d   1       2.300   3.473   0.822  0.00  0.00     0.018 C 
ENDBRANCH   1   8
TORSDOF 1
ENDMDL
