MODEL 1
REMARK minimizedAffinity 3.28835678
REMARK minimizedRMSD -1
REMARK  1 active torsions:
REMARK  status: ('A' for Active; 'I' for Inactive)
REMARK    1  A    between atoms: C1_2  and  C2_3 
ROOT
ATOM      1  C2  UNL d   1       2.174   0.059  -1.980  0.00  0.00    -0.076 A 
ATOM      2  C3  UNL d   1       0.836   0.483  -1.903  0.00  0.00     0.004 A 
ATOM      3  C4  UNL d   1       0.359   1.503  -2.724  0.00  0.00    -0.003 A 
ATOM      4  C5  UNL d   1       1.212   2.115  -3.636  0.00  0.00     0.000 A 
ATOM      5  C6  UNL d   1       2.537   1.695  -3.738  0.00  0.00     0.000 A 
ATOM      6  C7  UNL d   1       3.031   0.657  -2.929  0.00  0.00    -0.073 A 
ATOM      7  C8  UNL d   1       4.471   0.248  -3.077  0.00  0.00     0.078 C 
ENDROOT
BRANCH   1   8
ATOM      8  C1  UNL d   1       2.643  -1.033  -1.045  0.00  0.00     0.053 C 
ATOM      9  C   UNL d   1       1.628  -2.158  -0.908  0.00  0.00     0.018 C 
ENDBRANCH   1   8
TORSDOF 1
ENDMDL
