MODEL 1
REMARK minimizedAffinity 6.52171755
REMARK minimizedRMSD -1
REMARK  1 active torsions:
REMARK  status: ('A' for Active; 'I' for Inactive)
REMARK    1  A    between atoms: C1_2  and  C2_3 
ROOT
ATOM      1  C2  UNL d   1       1.329   0.976  -2.495  0.00  0.00    -0.076 A 
ATOM      2  C3  UNL d   1       1.329   1.838  -3.606  0.00  0.00     0.004 A 
ATOM      3  C4  UNL d   1       2.464   1.983  -4.402  0.00  0.00    -0.003 A 
ATOM      4  C5  UNL d   1       3.617   1.267  -4.101  0.00  0.00     0.000 A 
ATOM      5  C6  UNL d   1       3.630   0.394  -3.014  0.00  0.00     0.000 A 
ATOM      6  C7  UNL d   1       2.489   0.225  -2.211  0.00  0.00    -0.073 A 
ATOM      7  C8  UNL d   1       2.561  -0.725  -1.047  0.00  0.00     0.078 C 
ENDROOT
BRANCH   1   8
ATOM      8  C1  UNL d   1       0.078   0.881  -1.652  0.00  0.00     0.053 C 
ATOM      9  C   UNL d   1      -0.115   2.095  -0.757  0.00  0.00     0.018 C 
ENDBRANCH   1   8
TORSDOF 1
ENDMDL
