MODEL 1
REMARK minimizedAffinity 4.17302799
REMARK minimizedRMSD -1
REMARK  1 active torsions:
REMARK  status: ('A' for Active; 'I' for Inactive)
REMARK    1  A    between atoms: C1_2  and  C2_3 
ROOT
ATOM      1  C2  UNL d   1       2.829   2.813  -3.217  0.00  0.00    -0.076 A 
ATOM      2  C3  UNL d   1       1.928   2.980  -2.151  0.00  0.00     0.004 A 
ATOM      3  C4  UNL d   1       0.975   2.006  -1.858  0.00  0.00    -0.003 A 
ATOM      4  C5  UNL d   1       0.908   0.848  -2.625  0.00  0.00     0.000 A 
ATOM      5  C6  UNL d   1       1.806   0.658  -3.675  0.00  0.00     0.000 A 
ATOM      6  C7  UNL d   1       2.783   1.622  -3.974  0.00  0.00    -0.073 A 
ATOM      7  C8  UNL d   1       3.722   1.368  -5.121  0.00  0.00     0.078 C 
ENDROOT
BRANCH   1   8
ATOM      8  C1  UNL d   1       3.823   3.915  -3.505  0.00  0.00     0.053 C 
ATOM      9  C   UNL d   1       4.534   4.401  -2.251  0.00  0.00     0.018 C 
ENDBRANCH   1   8
TORSDOF 1
ENDMDL
