MODEL 1
REMARK minimizedAffinity 14.3285656
REMARK minimizedRMSD -1
REMARK  1 active torsions:
REMARK  status: ('A' for Active; 'I' for Inactive)
REMARK    1  A    between atoms: C1_2  and  C2_3 
ROOT
ATOM      1  C2  UNL d   1      -3.322   0.883   1.128  0.00  0.00    -0.076 A 
ATOM      2  C3  UNL d   1      -2.662   1.036   2.360  0.00  0.00     0.004 A 
ATOM      3  C4  UNL d   1      -2.954   0.203   3.438  0.00  0.00    -0.003 A 
ATOM      4  C5  UNL d   1      -3.911  -0.797   3.303  0.00  0.00     0.000 A 
ATOM      5  C6  UNL d   1      -4.562  -0.975   2.083  0.00  0.00     0.000 A 
ATOM      6  C7  UNL d   1      -4.268  -0.154   0.980  0.00  0.00    -0.073 A 
ATOM      7  C8  UNL d   1      -5.005  -0.386  -0.310  0.00  0.00     0.078 C 
ENDROOT
BRANCH   1   8
ATOM      8  C1  UNL d   1      -2.983   1.833   0.002  0.00  0.00     0.053 C 
ATOM      9  C   UNL d   1      -2.994   3.288   0.444  0.00  0.00     0.018 C 
ENDBRANCH   1   8
TORSDOF 1
ENDMDL
