MODEL 1
REMARK minimizedAffinity -0.542480767
REMARK minimizedRMSD -1
REMARK  0 active torsions:
REMARK  status: ('A' for Active; 'I' for Inactive)
ROOT
ATOM      1  C   UNL d   1       4.053  -2.213  -0.821  0.00  0.00     0.172 C 
ATOM      2  N   UNL d   1       3.924  -3.208  -1.860  0.00  0.00    -0.070 N 
ATOM      3  C1  UNL d   1       4.068  -4.560  -1.693  0.00  0.00    -0.004 A 
ATOM      4  C2  UNL d   1       3.868  -5.160  -2.917  0.00  0.00    -0.047 A 
ATOM      5  C3  UNL d   1       3.597  -4.133  -3.853  0.00  0.00    -0.047 A 
ATOM      6  C4  UNL d   1       3.638  -2.935  -3.171  0.00  0.00    -0.004 A 
ENDROOT
TORSDOF 0
ENDMDL
