MODEL 1
REMARK minimizedAffinity 0.684584916
REMARK minimizedRMSD -1
REMARK  0 active torsions:
REMARK  status: ('A' for Active; 'I' for Inactive)
ROOT
ATOM      1  C   UNL d   1       3.710  -2.344  -1.760  0.00  0.00     0.172 C 
ATOM      2  N   UNL d   1       4.074  -3.680  -2.170  0.00  0.00    -0.070 N 
ATOM      3  C1  UNL d   1       3.528  -4.370  -3.218  0.00  0.00    -0.004 A 
ATOM      4  C2  UNL d   1       4.143  -5.602  -3.279  0.00  0.00    -0.047 A 
ATOM      5  C3  UNL d   1       5.091  -5.655  -2.230  0.00  0.00    -0.047 A 
ATOM      6  C4  UNL d   1       5.027  -4.452  -1.559  0.00  0.00    -0.004 A 
ENDROOT
TORSDOF 0
ENDMDL
