MODEL 1
REMARK minimizedAffinity -1.4179368
REMARK minimizedRMSD -1
REMARK  0 active torsions:
REMARK  status: ('A' for Active; 'I' for Inactive)
ROOT
ATOM      1  C   UNL d   1       4.221  -2.339  -1.354  0.00  0.00     0.172 C 
ATOM      2  N   UNL d   1       4.426  -3.720  -1.723  0.00  0.00    -0.070 N 
ATOM      3  C1  UNL d   1       5.262  -4.600  -1.090  0.00  0.00    -0.004 A 
ATOM      4  C2  UNL d   1       5.173  -5.811  -1.742  0.00  0.00    -0.047 A 
ATOM      5  C3  UNL d   1       4.252  -5.653  -2.805  0.00  0.00    -0.047 A 
ATOM      6  C4  UNL d   1       3.805  -4.349  -2.770  0.00  0.00    -0.004 A 
ENDROOT
TORSDOF 0
ENDMDL
