MODEL 1
REMARK minimizedAffinity -0.599784315
REMARK minimizedRMSD -1
REMARK  0 active torsions:
REMARK  status: ('A' for Active; 'I' for Inactive)
ROOT
ATOM      1  C   UNL d   1       3.416  -5.694  -1.272  0.00  0.00     0.172 C 
ATOM      2  N   UNL d   1       4.027  -4.392  -1.137  0.00  0.00    -0.070 N 
ATOM      3  C1  UNL d   1       3.408  -3.264  -0.670  0.00  0.00    -0.004 A 
ATOM      4  C2  UNL d   1       4.326  -2.237  -0.697  0.00  0.00    -0.047 A 
ATOM      5  C3  UNL d   1       5.539  -2.766  -1.197  0.00  0.00    -0.047 A 
ATOM      6  C4  UNL d   1       5.326  -4.102  -1.462  0.00  0.00    -0.004 A 
ENDROOT
TORSDOF 0
ENDMDL
