MODEL 1
REMARK minimizedAffinity -1.651788
REMARK minimizedRMSD -1
REMARK  0 active torsions:
REMARK  status: ('A' for Active; 'I' for Inactive)
ROOT
ATOM      1  C   UNL d   1       3.537  -0.731   1.014  0.00  0.00     0.172 C 
ATOM      2  N   UNL d   1       4.010  -1.918   0.341  0.00  0.00    -0.070 N 
ATOM      3  C1  UNL d   1       4.922  -1.946  -0.680  0.00  0.00    -0.004 A 
ATOM      4  C2  UNL d   1       5.106  -3.263  -1.045  0.00  0.00    -0.047 A 
ATOM      5  C3  UNL d   1       4.275  -4.052  -0.215  0.00  0.00    -0.047 A 
ATOM      6  C4  UNL d   1       3.608  -3.194   0.634  0.00  0.00    -0.004 A 
ENDROOT
TORSDOF 0
ENDMDL
