MODEL 1
REMARK minimizedAffinity 1.9563483
REMARK minimizedRMSD -1
REMARK  0 active torsions:
REMARK  status: ('A' for Active; 'I' for Inactive)
ROOT
ATOM      1  C   UNL d   1      -0.582   4.042  -1.537  0.00  0.00     0.172 C 
ATOM      2  N   UNL d   1      -1.379   2.845  -1.664  0.00  0.00    -0.070 N 
ATOM      3  C1  UNL d   1      -2.521   2.722  -2.409  0.00  0.00    -0.004 A 
ATOM      4  C2  UNL d   1      -2.979   1.429  -2.269  0.00  0.00    -0.047 A 
ATOM      5  C3  UNL d   1      -2.082   0.753  -1.410  0.00  0.00    -0.047 A 
ATOM      6  C4  UNL d   1      -1.100   1.652  -1.050  0.00  0.00    -0.004 A 
ENDROOT
TORSDOF 0
ENDMDL
