MODEL 1
REMARK minimizedAffinity -1.92143774
REMARK minimizedRMSD -1
REMARK  0 active torsions:
REMARK  status: ('A' for Active; 'I' for Inactive)
ROOT
ATOM      1  C   UNL d   1       2.854  -5.179  -1.739  0.00  0.00     0.172 C 
ATOM      2  N   UNL d   1       3.652  -4.076  -1.256  0.00  0.00    -0.070 N 
ATOM      3  C1  UNL d   1       3.165  -2.900  -0.751  0.00  0.00    -0.004 A 
ATOM      4  C2  UNL d   1       4.241  -2.113  -0.403  0.00  0.00    -0.047 A 
ATOM      5  C3  UNL d   1       5.415  -2.840  -0.710  0.00  0.00    -0.047 A 
ATOM      6  C4  UNL d   1       5.021  -4.052  -1.237  0.00  0.00    -0.004 A 
ENDROOT
TORSDOF 0
ENDMDL
