MODEL 1
REMARK minimizedAffinity 1.22917676
REMARK minimizedRMSD -1
REMARK  0 active torsions:
REMARK  status: ('A' for Active; 'I' for Inactive)
ROOT
ATOM      1  C   UNL d   1       4.105  -2.146  -1.212  0.00  0.00     0.172 C 
ATOM      2  N   UNL d   1       4.361  -3.532  -1.526  0.00  0.00    -0.070 N 
ATOM      3  C1  UNL d   1       3.855  -4.214  -2.601  0.00  0.00    -0.004 A 
ATOM      4  C2  UNL d   1       4.333  -5.505  -2.545  0.00  0.00    -0.047 A 
ATOM      5  C3  UNL d   1       5.154  -5.603  -1.396  0.00  0.00    -0.047 A 
ATOM      6  C4  UNL d   1       5.153  -4.368  -0.785  0.00  0.00    -0.004 A 
ENDROOT
TORSDOF 0
ENDMDL
