MODEL 1
REMARK minimizedAffinity -0.699291766
REMARK minimizedRMSD -1
REMARK  0 active torsions:
REMARK  status: ('A' for Active; 'I' for Inactive)
ROOT
ATOM      1  C   UNL d   1       4.626  -2.540  -0.533  0.00  0.00     0.172 C 
ATOM      2  N   UNL d   1       4.340  -3.449  -1.618  0.00  0.00    -0.070 N 
ATOM      3  C1  UNL d   1       3.466  -3.214  -2.646  0.00  0.00    -0.004 A 
ATOM      4  C2  UNL d   1       3.477  -4.319  -3.469  0.00  0.00    -0.047 A 
ATOM      5  C3  UNL d   1       4.388  -5.250  -2.917  0.00  0.00    -0.047 A 
ATOM      6  C4  UNL d   1       4.908  -4.685  -1.771  0.00  0.00    -0.004 A 
ENDROOT
TORSDOF 0
ENDMDL
