MODEL 1
REMARK minimizedAffinity -3.56316543
REMARK minimizedRMSD -1
REMARK  0 active torsions:
REMARK  status: ('A' for Active; 'I' for Inactive)
ROOT
ATOM      1  C   UNL d   1       3.063  -3.858  -3.673  0.00  0.00     0.172 C 
ATOM      2  N   UNL d   1       3.771  -3.565  -2.448  0.00  0.00    -0.070 N 
ATOM      3  C1  UNL d   1       3.765  -2.363  -1.792  0.00  0.00    -0.004 A 
ATOM      4  C2  UNL d   1       4.557  -2.491  -0.671  0.00  0.00    -0.047 A 
ATOM      5  C3  UNL d   1       5.057  -3.815  -0.655  0.00  0.00    -0.047 A 
ATOM      6  C4  UNL d   1       4.554  -4.458  -1.766  0.00  0.00    -0.004 A 
ENDROOT
TORSDOF 0
ENDMDL
