MODEL 1
REMARK minimizedAffinity -1.06118596
REMARK minimizedRMSD -1
REMARK  0 active torsions:
REMARK  status: ('A' for Active; 'I' for Inactive)
ROOT
ATOM      1  C   UNL d   1       4.474  -2.284  -0.890  0.00  0.00     0.172 C 
ATOM      2  N   UNL d   1       4.181  -3.272  -1.901  0.00  0.00    -0.070 N 
ATOM      3  C1  UNL d   1       4.434  -4.615  -1.802  0.00  0.00    -0.004 A 
ATOM      4  C2  UNL d   1       4.010  -5.211  -2.969  0.00  0.00    -0.047 A 
ATOM      5  C3  UNL d   1       3.485  -4.193  -3.799  0.00  0.00    -0.047 A 
ATOM      6  C4  UNL d   1       3.603  -3.002  -3.113  0.00  0.00    -0.004 A 
ENDROOT
TORSDOF 0
ENDMDL
