MODEL 1
REMARK minimizedAffinity -3.78901958
REMARK minimizedRMSD -1
REMARK  0 active torsions:
REMARK  status: ('A' for Active; 'I' for Inactive)
ROOT
ATOM      1  C   UNL d   1       0.237  -1.538  -0.498  0.00  0.00     0.023 A 
ATOM      2  C1  UNL d   1       1.567  -1.572  -0.080  0.00  0.00     0.003 A 
ATOM      3  C2  UNL d   1       2.180  -0.413   0.400  0.00  0.00     0.048 A 
ATOM      4  C3  UNL d   1       1.456   0.777   0.461  0.00  0.00     0.023 A 
ATOM      5  C4  UNL d   1       0.124   0.816   0.045  0.00  0.00     0.048 A 
ATOM      6  C5  UNL d   1      -0.484  -0.345  -0.435  0.00  0.00     0.003 A 
ATOM      7  I   UNL d   1       2.366   2.504   1.176  0.00  0.00    -0.146 I 
ENDROOT
TORSDOF 0
ENDMDL
