MODEL 1
REMARK minimizedAffinity -2.16527653
REMARK minimizedRMSD -1
REMARK  0 active torsions:
REMARK  status: ('A' for Active; 'I' for Inactive)
ROOT
ATOM      1  C   UNL d   1       0.171  -1.849  -1.059  0.00  0.00     0.023 A 
ATOM      2  C1  UNL d   1      -0.717  -0.799  -1.293  0.00  0.00     0.003 A 
ATOM      3  C2  UNL d   1      -0.524   0.433  -0.665  0.00  0.00     0.048 A 
ATOM      4  C3  UNL d   1       0.560   0.608   0.195  0.00  0.00     0.023 A 
ATOM      5  C4  UNL d   1       1.451  -0.440   0.432  0.00  0.00     0.048 A 
ATOM      6  C5  UNL d   1       1.253  -1.670  -0.198  0.00  0.00     0.003 A 
ATOM      7  I   UNL d   1       0.850   2.441   1.131  0.00  0.00    -0.146 I 
ENDROOT
TORSDOF 0
ENDMDL
