MODEL 1
REMARK minimizedAffinity 6.07133102
REMARK minimizedRMSD -1
REMARK  0 active torsions:
REMARK  status: ('A' for Active; 'I' for Inactive)
ROOT
ATOM      1  C   UNL d   1      -0.360  -2.676  -0.788  0.00  0.00     0.023 A 
ATOM      2  C1  UNL d   1      -1.194  -1.559  -0.838  0.00  0.00     0.003 A 
ATOM      3  C2  UNL d   1      -0.742  -0.326  -0.365  0.00  0.00     0.048 A 
ATOM      4  C3  UNL d   1       0.547  -0.217   0.156  0.00  0.00     0.023 A 
ATOM      5  C4  UNL d   1       1.386  -1.331   0.207  0.00  0.00     0.048 A 
ATOM      6  C5  UNL d   1       0.929  -2.562  -0.267  0.00  0.00     0.003 A 
ATOM      7  I   UNL d   1       1.224   1.618   0.860  0.00  0.00    -0.146 I 
ENDROOT
TORSDOF 0
ENDMDL
