MODEL 1
REMARK minimizedAffinity 6.29783344
REMARK minimizedRMSD -1
REMARK  0 active torsions:
REMARK  status: ('A' for Active; 'I' for Inactive)
ROOT
ATOM      1  C   UNL d   1      -0.391  -1.139  -0.233  0.00  0.00     0.023 A 
ATOM      2  C1  UNL d   1       0.049  -2.427  -0.540  0.00  0.00     0.003 A 
ATOM      3  C2  UNL d   1      -0.310  -3.018  -1.753  0.00  0.00     0.048 A 
ATOM      4  C3  UNL d   1      -1.108  -2.315  -2.655  0.00  0.00     0.023 A 
ATOM      5  C4  UNL d   1      -1.550  -1.026  -2.353  0.00  0.00     0.048 A 
ATOM      6  C5  UNL d   1      -1.190  -0.440  -1.138  0.00  0.00     0.003 A 
ATOM      7  I   UNL d   1      -1.643  -3.192  -4.462  0.00  0.00    -0.146 I 
ENDROOT
TORSDOF 0
ENDMDL
