MODEL 1
REMARK minimizedAffinity 3.49979782
REMARK minimizedRMSD -1
REMARK  0 active torsions:
REMARK  status: ('A' for Active; 'I' for Inactive)
ROOT
ATOM      1  C   UNL d   1       3.348   1.964   0.123  0.00  0.00     0.023 A 
ATOM      2  C1  UNL d   1       2.163   1.580   0.749  0.00  0.00     0.003 A 
ATOM      3  C2  UNL d   1       1.631   0.309   0.519  0.00  0.00     0.048 A 
ATOM      4  C3  UNL d   1       2.291  -0.572  -0.336  0.00  0.00     0.023 A 
ATOM      5  C4  UNL d   1       3.478  -0.192  -0.964  0.00  0.00     0.048 A 
ATOM      6  C5  UNL d   1       4.005   1.080  -0.732  0.00  0.00     0.003 A 
ATOM      7  I   UNL d   1       1.501  -2.464  -0.679  0.00  0.00    -0.146 I 
ENDROOT
TORSDOF 0
ENDMDL
