MODEL 1
REMARK minimizedAffinity 2.47161174
REMARK minimizedRMSD -1
REMARK  0 active torsions:
REMARK  status: ('A' for Active; 'I' for Inactive)
ROOT
ATOM      1  C   UNL d   1      -4.004   1.430   1.825  0.00  0.00     0.023 A 
ATOM      2  C1  UNL d   1      -2.957   1.990   2.559  0.00  0.00     0.003 A 
ATOM      3  C2  UNL d   1      -1.704   2.164   1.968  0.00  0.00     0.048 A 
ATOM      4  C3  UNL d   1      -1.504   1.779   0.643  0.00  0.00     0.023 A 
ATOM      5  C4  UNL d   1      -2.549   1.219  -0.095  0.00  0.00     0.048 A 
ATOM      6  C5  UNL d   1      -3.800   1.046   0.500  0.00  0.00     0.003 A 
ATOM      7  I   UNL d   1       0.360   2.038  -0.238  0.00  0.00    -0.146 I 
ENDROOT
TORSDOF 0
ENDMDL
