MODEL 1
REMARK minimizedAffinity 0.0129768793
REMARK minimizedRMSD -1
REMARK  0 active torsions:
REMARK  status: ('A' for Active; 'I' for Inactive)
ROOT
ATOM      1  C   UNL d   1      -2.664   1.971   2.119  0.00  0.00     0.023 A 
ATOM      2  C1  UNL d   1      -1.271   2.041   2.104  0.00  0.00     0.003 A 
ATOM      3  C2  UNL d   1      -0.540   1.249   1.216  0.00  0.00     0.048 A 
ATOM      4  C3  UNL d   1      -1.209   0.390   0.344  0.00  0.00     0.023 A 
ATOM      5  C4  UNL d   1      -2.603   0.317   0.355  0.00  0.00     0.048 A 
ATOM      6  C5  UNL d   1      -3.329   1.110   1.246  0.00  0.00     0.003 A 
ATOM      7  I   UNL d   1      -0.123  -0.789  -0.979  0.00  0.00    -0.146 I 
ENDROOT
TORSDOF 0
ENDMDL
