MODEL 1
REMARK minimizedAffinity 2.57163405
REMARK minimizedRMSD -1
REMARK  0 active torsions:
REMARK  status: ('A' for Active; 'I' for Inactive)
ROOT
ATOM      1  C   UNL d   1       0.010  -1.925  -1.411  0.00  0.00     0.023 A 
ATOM      2  C1  UNL d   1      -0.964  -1.015  -1.823  0.00  0.00     0.003 A 
ATOM      3  C2  UNL d   1      -1.013   0.261  -1.258  0.00  0.00     0.048 A 
ATOM      4  C3  UNL d   1      -0.084   0.621  -0.283  0.00  0.00     0.023 A 
ATOM      5  C4  UNL d   1       0.893  -0.285   0.131  0.00  0.00     0.048 A 
ATOM      6  C5  UNL d   1       0.937  -1.560  -0.436  0.00  0.00     0.003 A 
ATOM      7  I   UNL d   1      -0.154   2.520   0.559  0.00  0.00    -0.146 I 
ENDROOT
TORSDOF 0
ENDMDL
