MODEL 1
REMARK minimizedAffinity 1.13889837
REMARK minimizedRMSD -1
REMARK  1 active torsions:
REMARK  status: ('A' for Active; 'I' for Inactive)
REMARK    1  A    between atoms: C1_2  and  C2_3 
ROOT
ATOM      1  C2  UNL d   1       3.768  -5.750  -2.964  0.00  0.00    -0.073 A 
ATOM      2  C3  UNL d   1       2.515  -5.996  -3.538  0.00  0.00    -0.002 A 
ATOM      3  C4  UNL d   1       2.307  -5.773  -4.899  0.00  0.00     0.004 A 
ATOM      4  C5  UNL d   1       3.349  -5.310  -5.702  0.00  0.00    -0.004 A 
ATOM      5  C6  UNL d   1       4.612  -5.071  -5.150  0.00  0.00    -0.075 A 
ATOM      6  C7  UNL d   1       5.743  -4.570  -6.000  0.00  0.00     0.076 C 
ATOM      7  C8  UNL d   1       4.812  -5.294  -3.781  0.00  0.00     0.001 A 
ENDROOT
BRANCH   1   8
ATOM      8  C1  UNL d   1       3.999  -5.995  -1.496  0.00  0.00     0.053 C 
ATOM      9  C   UNL d   1       2.699  -6.000  -0.707  0.00  0.00     0.018 C 
ENDBRANCH   1   8
TORSDOF 1
ENDMDL
