MODEL 1
REMARK minimizedAffinity -1.64693975
REMARK minimizedRMSD -1
REMARK  1 active torsions:
REMARK  status: ('A' for Active; 'I' for Inactive)
REMARK    1  A    between atoms: C1_2  and  C2_3 
ROOT
ATOM      1  C2  UNL d   1       5.459  -3.193  -3.352  0.00  0.00    -0.073 A 
ATOM      2  C3  UNL d   1       5.988  -3.920  -4.425  0.00  0.00    -0.002 A 
ATOM      3  C4  UNL d   1       5.902  -5.313  -4.443  0.00  0.00     0.004 A 
ATOM      4  C5  UNL d   1       5.282  -5.992  -3.395  0.00  0.00    -0.004 A 
ATOM      5  C6  UNL d   1       4.738  -5.283  -2.319  0.00  0.00    -0.075 A 
ATOM      6  C7  UNL d   1       4.070  -5.999  -1.182  0.00  0.00     0.076 C 
ATOM      7  C8  UNL d   1       4.830  -3.885  -2.307  0.00  0.00     0.001 A 
ENDROOT
BRANCH   1   8
ATOM      8  C1  UNL d   1       5.543  -1.689  -3.331  0.00  0.00     0.053 C 
ATOM      9  C   UNL d   1       4.388  -1.064  -2.565  0.00  0.00     0.018 C 
ENDBRANCH   1   8
TORSDOF 1
ENDMDL
