MODEL 1
REMARK minimizedAffinity -0.0424446538
REMARK minimizedRMSD -1
REMARK  1 active torsions:
REMARK  status: ('A' for Active; 'I' for Inactive)
REMARK    1  A    between atoms: C1_2  and  C2_3 
ROOT
ATOM      1  C2  UNL d   1       4.087  -0.558  -3.888  0.00  0.00    -0.073 A 
ATOM      2  C3  UNL d   1       4.875  -0.978  -4.966  0.00  0.00    -0.002 A 
ATOM      3  C4  UNL d   1       5.187  -0.092  -5.998  0.00  0.00     0.004 A 
ATOM      4  C5  UNL d   1       4.721   1.222  -5.961  0.00  0.00    -0.004 A 
ATOM      5  C6  UNL d   1       3.943   1.664  -4.886  0.00  0.00    -0.075 A 
ATOM      6  C7  UNL d   1       3.432   3.074  -4.832  0.00  0.00     0.076 C 
ATOM      7  C8  UNL d   1       3.631   0.768  -3.855  0.00  0.00     0.001 A 
ENDROOT
BRANCH   1   8
ATOM      8  C1  UNL d   1       3.752  -1.509  -2.768  0.00  0.00     0.053 C 
ATOM      9  C   UNL d   1       3.430  -0.776  -1.476  0.00  0.00     0.018 C 
ENDBRANCH   1   8
TORSDOF 1
ENDMDL
