MODEL 1
REMARK minimizedAffinity -1.46919155
REMARK minimizedRMSD -1
REMARK  1 active torsions:
REMARK  status: ('A' for Active; 'I' for Inactive)
REMARK    1  A    between atoms: C1_2  and  C2_3 
ROOT
ATOM      1  C2  UNL d   1       2.824  -5.982  -3.194  0.00  0.00    -0.073 A 
ATOM      2  C3  UNL d   1       1.642  -5.997  -3.943  0.00  0.00    -0.002 A 
ATOM      3  C4  UNL d   1       1.691  -6.000  -5.338  0.00  0.00     0.004 A 
ATOM      4  C5  UNL d   1       2.921  -5.995  -5.997  0.00  0.00    -0.004 A 
ATOM      5  C6  UNL d   1       4.113  -5.993  -5.265  0.00  0.00    -0.075 A 
ATOM      6  C7  UNL d   1       5.443  -5.985  -5.959  0.00  0.00     0.076 C 
ATOM      7  C8  UNL d   1       4.055  -5.987  -3.865  0.00  0.00     0.001 A 
ENDROOT
BRANCH   1   8
ATOM      8  C1  UNL d   1       2.775  -5.986  -1.688  0.00  0.00     0.053 C 
ATOM      9  C   UNL d   1       3.706  -4.946  -1.085  0.00  0.00     0.018 C 
ENDBRANCH   1   8
TORSDOF 1
ENDMDL
