MODEL 1
REMARK minimizedAffinity 0.907424152
REMARK minimizedRMSD -1
REMARK  1 active torsions:
REMARK  status: ('A' for Active; 'I' for Inactive)
REMARK    1  A    between atoms: C1_2  and  C2_3 
ROOT
ATOM      1  C2  UNL d   1       1.365  -3.908   4.713  0.00  0.00    -0.073 A 
ATOM      2  C3  UNL d   1       2.249  -4.723   3.996  0.00  0.00    -0.002 A 
ATOM      3  C4  UNL d   1       2.967  -4.206   2.918  0.00  0.00     0.004 A 
ATOM      4  C5  UNL d   1       2.816  -2.869   2.550  0.00  0.00    -0.004 A 
ATOM      5  C6  UNL d   1       1.946  -2.036   3.261  0.00  0.00    -0.075 A 
ATOM      6  C7  UNL d   1       1.770  -0.596   2.876  0.00  0.00     0.076 C 
ATOM      7  C8  UNL d   1       1.226  -2.564   4.341  0.00  0.00     0.001 A 
ENDROOT
BRANCH   1   8
ATOM      8  C1  UNL d   1       0.592  -4.461   5.883  0.00  0.00     0.053 C 
ATOM      9  C   UNL d   1       0.736  -5.970   6.000  0.00  0.00     0.018 C 
ENDBRANCH   1   8
TORSDOF 1
ENDMDL
