MODEL 1
REMARK minimizedAffinity 2.26408005
REMARK minimizedRMSD -1
REMARK  1 active torsions:
REMARK  status: ('A' for Active; 'I' for Inactive)
REMARK    1  A    between atoms: C1_2  and  C2_3 
ROOT
ATOM      1  C2  UNL d   1       1.269  -3.904   4.794  0.00  0.00    -0.073 A 
ATOM      2  C3  UNL d   1       2.186  -4.678   4.075  0.00  0.00    -0.002 A 
ATOM      3  C4  UNL d   1       2.846  -4.142   2.968  0.00  0.00     0.004 A 
ATOM      4  C5  UNL d   1       2.602  -2.826   2.575  0.00  0.00    -0.004 A 
ATOM      5  C6  UNL d   1       1.698  -2.032   3.289  0.00  0.00    -0.075 A 
ATOM      6  C7  UNL d   1       1.423  -0.616   2.878  0.00  0.00     0.076 C 
ATOM      7  C8  UNL d   1       1.037  -2.579   4.397  0.00  0.00     0.001 A 
ENDROOT
BRANCH   1   8
ATOM      8  C1  UNL d   1       0.558  -4.476   5.993  0.00  0.00     0.053 C 
ATOM      9  C   UNL d   1       0.585  -5.997   5.999  0.00  0.00     0.018 C 
ENDBRANCH   1   8
TORSDOF 1
ENDMDL
