MODEL 1
REMARK minimizedAffinity -0.39861849
REMARK minimizedRMSD -1
REMARK  0 active torsions:
REMARK  status: ('A' for Active; 'I' for Inactive)
ROOT
ATOM      1  C2' OXE d   1      -0.250   0.453  -0.894  0.00  0.00     0.078 C 
ATOM      2  C1' OXE d   1       0.921  -0.930   1.250  0.00  0.00     0.078 C 
ATOM      3  C1  OXE d   1       1.278   0.525   1.073  0.00  0.00    -0.078 A 
ATOM      4  C2  OXE d   1       0.737   1.181  -0.006  0.00  0.00    -0.078 A 
ATOM      5  C3  OXE d   1       0.990   2.538  -0.185  0.00  0.00     0.003 A 
ATOM      6  C4  OXE d   1       1.911   3.202   0.634  0.00  0.00    -0.002 A 
ATOM      7  C5  OXE d   1       2.505   2.541   1.715  0.00  0.00    -0.002 A 
ATOM      8  C6  OXE d   1       2.167   1.217   1.973  0.00  0.00     0.003 A 
ENDROOT
TORSDOF 0
ENDMDL
