MODEL 1
REMARK minimizedAffinity -1.70582592
REMARK minimizedRMSD -1
REMARK  0 active torsions:
REMARK  status: ('A' for Active; 'I' for Inactive)
ROOT
ATOM      1  C2' OXE d   1      -2.856  -0.681  -0.795  0.00  0.00     0.078 C 
ATOM      2  C1' OXE d   1      -1.124   0.969  -2.264  0.00  0.00     0.078 C 
ATOM      3  C1  OXE d   1      -0.574   0.290  -1.035  0.00  0.00    -0.078 A 
ATOM      4  C2  OXE d   1      -1.441  -0.478  -0.296  0.00  0.00    -0.078 A 
ATOM      5  C3  OXE d   1      -0.972  -1.170   0.817  0.00  0.00     0.003 A 
ATOM      6  C4  OXE d   1       0.335  -0.969   1.277  0.00  0.00    -0.002 A 
ATOM      7  C5  OXE d   1       1.223  -0.159   0.562  0.00  0.00    -0.002 A 
ATOM      8  C6  OXE d   1       0.798   0.442  -0.618  0.00  0.00     0.003 A 
ENDROOT
TORSDOF 0
ENDMDL
