MODEL 1
REMARK minimizedAffinity -1.0923866
REMARK minimizedRMSD -1
REMARK  0 active torsions:
REMARK  status: ('A' for Active; 'I' for Inactive)
ROOT
ATOM      1  C2' OXE d   1       1.378   0.339   0.699  0.00  0.00     0.078 C 
ATOM      2  C1' OXE d   1       0.158  -2.002   1.654  0.00  0.00     0.078 C 
ATOM      3  C1  OXE d   1      -0.394  -1.385   0.393  0.00  0.00    -0.078 A 
ATOM      4  C2  OXE d   1       0.179  -0.214  -0.041  0.00  0.00    -0.078 A 
ATOM      5  C3  OXE d   1      -0.256   0.368  -1.228  0.00  0.00     0.003 A 
ATOM      6  C4  OXE d   1      -1.372  -0.144  -1.901  0.00  0.00    -0.002 A 
ATOM      7  C5  OXE d   1      -1.996  -1.314  -1.454  0.00  0.00    -0.002 A 
ATOM      8  C6  OXE d   1      -1.493  -1.969  -0.335  0.00  0.00     0.003 A 
ENDROOT
TORSDOF 0
ENDMDL
