MODEL 1
REMARK minimizedAffinity -1.8085407
REMARK minimizedRMSD -1
REMARK  0 active torsions:
REMARK  status: ('A' for Active; 'I' for Inactive)
ROOT
ATOM      1  C2' OXE d   1      -0.661   0.741  -2.254  0.00  0.00     0.078 C 
ATOM      2  C1' OXE d   1      -2.598  -0.931  -1.100  0.00  0.00     0.078 C 
ATOM      3  C1  OXE d   1      -1.249  -0.850  -0.430  0.00  0.00    -0.078 A 
ATOM      4  C2  OXE d   1      -0.292  -0.066  -1.028  0.00  0.00    -0.078 A 
ATOM      5  C3  OXE d   1       0.951   0.087  -0.421  0.00  0.00     0.003 A 
ATOM      6  C4  OXE d   1       1.288  -0.670   0.707  0.00  0.00    -0.002 A 
ATOM      7  C5  OXE d   1       0.341  -1.505   1.310  0.00  0.00    -0.002 A 
ATOM      8  C6  OXE d   1      -0.943  -1.574   0.780  0.00  0.00     0.003 A 
ENDROOT
TORSDOF 0
ENDMDL
