MODEL 1
REMARK minimizedAffinity -3.73717642
REMARK minimizedRMSD -1
REMARK  0 active torsions:
REMARK  status: ('A' for Active; 'I' for Inactive)
ROOT
ATOM      1  C2' OXE d   1       1.878  -0.587  -0.012  0.00  0.00     0.078 C 
ATOM      2  C1' OXE d   1      -0.564   0.797   0.069  0.00  0.00     0.078 C 
ATOM      3  C1  OXE d   1       0.691   1.564   0.401  0.00  0.00    -0.078 A 
ATOM      4  C2  OXE d   1       1.876   0.868   0.405  0.00  0.00    -0.078 A 
ATOM      5  C3  OXE d   1       3.070   1.540   0.651  0.00  0.00     0.003 A 
ATOM      6  C4  OXE d   1       3.059   2.884   1.045  0.00  0.00    -0.002 A 
ATOM      7  C5  OXE d   1       1.859   3.601   1.087  0.00  0.00    -0.002 A 
ATOM      8  C6  OXE d   1       0.674   2.969   0.727  0.00  0.00     0.003 A 
ENDROOT
TORSDOF 0
ENDMDL
