MODEL 1
REMARK minimizedAffinity -0.0430611931
REMARK minimizedRMSD -1
REMARK  0 active torsions:
REMARK  status: ('A' for Active; 'I' for Inactive)
ROOT
ATOM      1  C2' OXE d   1       0.148   2.298   0.071  0.00  0.00     0.078 C 
ATOM      2  C1' OXE d   1      -0.622  -0.060  -1.244  0.00  0.00     0.078 C 
ATOM      3  C1  OXE d   1      -0.058  -0.183   0.149  0.00  0.00    -0.078 A 
ATOM      4  C2  OXE d   1       0.359   0.971   0.767  0.00  0.00    -0.078 A 
ATOM      5  C3  OXE d   1       0.836   0.920   2.074  0.00  0.00     0.003 A 
ATOM      6  C4  OXE d   1       1.038  -0.313   2.707  0.00  0.00    -0.002 A 
ATOM      7  C5  OXE d   1       0.657  -1.504   2.080  0.00  0.00    -0.002 A 
ATOM      8  C6  OXE d   1       0.069  -1.453   0.820  0.00  0.00     0.003 A 
ENDROOT
TORSDOF 0
ENDMDL
