MODEL 1
REMARK minimizedAffinity 0.498559862
REMARK minimizedRMSD -1
REMARK  0 active torsions:
REMARK  status: ('A' for Active; 'I' for Inactive)
ROOT
ATOM      1  C2' OXE d   1       1.298   0.401   0.562  0.00  0.00     0.078 C 
ATOM      2  C1' OXE d   1      -0.414  -1.694   1.307  0.00  0.00     0.078 C 
ATOM      3  C1  OXE d   1      -0.844  -0.806   0.167  0.00  0.00    -0.078 A 
ATOM      4  C2  OXE d   1      -0.022   0.246  -0.161  0.00  0.00    -0.078 A 
ATOM      5  C3  OXE d   1      -0.345   1.063  -1.240  0.00  0.00     0.003 A 
ATOM      6  C4  OXE d   1      -1.573   0.918  -1.897  0.00  0.00    -0.002 A 
ATOM      7  C5  OXE d   1      -2.443  -0.122  -1.553  0.00  0.00    -0.002 A 
ATOM      8  C6  OXE d   1      -2.076  -1.016  -0.554  0.00  0.00     0.003 A 
ENDROOT
TORSDOF 0
ENDMDL
