MODEL 1
REMARK minimizedAffinity -2.48838472
REMARK minimizedRMSD -1
REMARK  0 active torsions:
REMARK  status: ('A' for Active; 'I' for Inactive)
ROOT
ATOM      1  C2' OXE d   1       0.261  -1.110   0.775  0.00  0.00     0.078 C 
ATOM      2  C1' OXE d   1      -0.178   0.337  -1.589  0.00  0.00     0.078 C 
ATOM      3  C1  OXE d   1       0.882   0.841  -0.643  0.00  0.00    -0.078 A 
ATOM      4  C2  OXE d   1       1.058   0.153   0.534  0.00  0.00    -0.078 A 
ATOM      5  C3  OXE d   1       2.061   0.544   1.417  0.00  0.00     0.003 A 
ATOM      6  C4  OXE d   1       2.787   1.719   1.191  0.00  0.00    -0.002 A 
ATOM      7  C5  OXE d   1       2.596   2.457   0.018  0.00  0.00    -0.002 A 
ATOM      8  C6  OXE d   1       1.679   2.009  -0.927  0.00  0.00     0.003 A 
ENDROOT
TORSDOF 0
ENDMDL
