MODEL 1
REMARK minimizedAffinity -2.30411577
REMARK minimizedRMSD -1
REMARK  0 active torsions:
REMARK  status: ('A' for Active; 'I' for Inactive)
ROOT
ATOM      1  C2' OXE d   1       1.541   0.353   0.321  0.00  0.00     0.078 C 
ATOM      2  C1' OXE d   1       0.086  -1.822   1.338  0.00  0.00     0.078 C 
ATOM      3  C1  OXE d   1      -0.507  -1.057   0.181  0.00  0.00    -0.078 A 
ATOM      4  C2  OXE d   1       0.189   0.034  -0.279  0.00  0.00    -0.078 A 
ATOM      5  C3  OXE d   1      -0.287   0.741  -1.379  0.00  0.00     0.003 A 
ATOM      6  C4  OXE d   1      -1.543   0.446  -1.923  0.00  0.00    -0.002 A 
ATOM      7  C5  OXE d   1      -2.287  -0.637  -1.443  0.00  0.00    -0.002 A 
ATOM      8  C6  OXE d   1      -1.765  -1.423  -0.421  0.00  0.00     0.003 A 
ENDROOT
TORSDOF 0
ENDMDL
