MODEL 1
REMARK minimizedAffinity -2.9752717
REMARK minimizedRMSD -1
REMARK  0 active torsions:
REMARK  status: ('A' for Active; 'I' for Inactive)
ROOT
ATOM      1  C2' OXE d   1      -2.563  -1.073  -1.948  0.00  0.00     0.078 C 
ATOM      2  C1' OXE d   1      -0.447   0.634  -2.647  0.00  0.00     0.078 C 
ATOM      3  C1  OXE d   1      -0.329  -0.142  -1.359  0.00  0.00    -0.078 A 
ATOM      4  C2  OXE d   1      -1.390  -0.939  -1.002  0.00  0.00    -0.078 A 
ATOM      5  C3  OXE d   1      -1.309  -1.719   0.148  0.00  0.00     0.003 A 
ATOM      6  C4  OXE d   1      -0.225  -1.582   1.023  0.00  0.00    -0.002 A 
ATOM      7  C5  OXE d   1       0.848  -0.745   0.698  0.00  0.00    -0.002 A 
ATOM      8  C6  OXE d   1       0.831  -0.052  -0.507  0.00  0.00     0.003 A 
ENDROOT
TORSDOF 0
ENDMDL
