MODEL 1
REMARK minimizedAffinity -1.02092552
REMARK minimizedRMSD -1
REMARK  0 active torsions:
REMARK  status: ('A' for Active; 'I' for Inactive)
ROOT
ATOM      1  C2' OXE d   1       1.630   0.363   0.277  0.00  0.00     0.078 C 
ATOM      2  C1' OXE d   1      -0.020  -1.569   1.470  0.00  0.00     0.078 C 
ATOM      3  C1  OXE d   1      -0.510  -0.910   0.204  0.00  0.00    -0.078 A 
ATOM      4  C2  OXE d   1       0.283   0.068  -0.347  0.00  0.00    -0.078 A 
ATOM      5  C3  OXE d   1      -0.095   0.669  -1.543  0.00  0.00     0.003 A 
ATOM      6  C4  OXE d   1      -1.347   0.398  -2.108  0.00  0.00    -0.002 A 
ATOM      7  C5  OXE d   1      -2.188  -0.566  -1.541  0.00  0.00    -0.002 A 
ATOM      8  C6  OXE d   1      -1.766  -1.258  -0.411  0.00  0.00     0.003 A 
ENDROOT
TORSDOF 0
ENDMDL
