MODEL 1
REMARK minimizedAffinity 1.72938967
REMARK minimizedRMSD -1
REMARK  0 active torsions:
REMARK  status: ('A' for Active; 'I' for Inactive)
ROOT
ATOM      1  C2' OXE d   1       0.048   1.953  -0.137  0.00  0.00     0.078 C 
ATOM      2  C1' OXE d   1      -1.912   0.551   1.302  0.00  0.00     0.078 C 
ATOM      3  C1  OXE d   1      -1.804   0.287  -0.179  0.00  0.00    -0.078 A 
ATOM      4  C2  OXE d   1      -0.873   1.012  -0.884  0.00  0.00    -0.078 A 
ATOM      5  C3  OXE d   1      -0.695   0.769  -2.242  0.00  0.00     0.003 A 
ATOM      6  C4  OXE d   1      -1.558  -0.095  -2.927  0.00  0.00    -0.002 A 
ATOM      7  C5  OXE d   1      -2.539  -0.814  -2.235  0.00  0.00    -0.002 A 
ATOM      8  C6  OXE d   1      -2.647  -0.666  -0.857  0.00  0.00     0.003 A 
ENDROOT
TORSDOF 0
ENDMDL
