MODEL 1
REMARK minimizedAffinity 1.46820784
REMARK minimizedRMSD -1
REMARK  0 active torsions:
REMARK  status: ('A' for Active; 'I' for Inactive)
ROOT
ATOM      1  C2' OXE d   1       1.810   0.682  -0.130  0.00  0.00     0.078 C 
ATOM      2  C1' OXE d   1       0.493  -1.175   1.512  0.00  0.00     0.078 C 
ATOM      3  C1  OXE d   1      -0.224  -0.698   0.274  0.00  0.00    -0.078 A 
ATOM      4  C2  OXE d   1       0.409   0.245  -0.499  0.00  0.00    -0.078 A 
ATOM      5  C3  OXE d   1      -0.185   0.679  -1.681  0.00  0.00     0.003 A 
ATOM      6  C4  OXE d   1      -1.486   0.278  -2.009  0.00  0.00    -0.002 A 
ATOM      7  C5  OXE d   1      -2.164  -0.652  -1.215  0.00  0.00    -0.002 A 
ATOM      8  C6  OXE d   1      -1.532  -1.182  -0.095  0.00  0.00     0.003 A 
ENDROOT
TORSDOF 0
ENDMDL
