MODEL 1
REMARK minimizedAffinity -2.20070815
REMARK minimizedRMSD -1
REMARK  0 active torsions:
REMARK  status: ('A' for Active; 'I' for Inactive)
ROOT
ATOM      1  C2' OXE d   1      -0.621   0.834  -1.169  0.00  0.00     0.078 C 
ATOM      2  C1' OXE d   1       0.669  -0.677   0.814  0.00  0.00     0.078 C 
ATOM      3  C1  OXE d   1       1.066   0.770   0.663  0.00  0.00    -0.078 A 
ATOM      4  C2  OXE d   1       0.463   1.489  -0.341  0.00  0.00    -0.078 A 
ATOM      5  C3  OXE d   1       0.754   2.842  -0.489  0.00  0.00     0.003 A 
ATOM      6  C4  OXE d   1       1.765   3.438   0.274  0.00  0.00    -0.002 A 
ATOM      7  C5  OXE d   1       2.420   2.713   1.275  0.00  0.00    -0.002 A 
ATOM      8  C6  OXE d   1       2.053   1.392   1.510  0.00  0.00     0.003 A 
ENDROOT
TORSDOF 0
ENDMDL
