MODEL 1
REMARK minimizedAffinity -0.378488064
REMARK minimizedRMSD -1
REMARK  0 active torsions:
REMARK  status: ('A' for Active; 'I' for Inactive)
ROOT
ATOM      1  C2' OXE d   1       3.378   1.566  -0.140  0.00  0.00     0.078 C 
ATOM      2  C1' OXE d   1       2.602   1.812   2.547  0.00  0.00     0.078 C 
ATOM      3  C1  OXE d   1       1.724   0.994   1.633  0.00  0.00    -0.078 A 
ATOM      4  C2  OXE d   1       2.086   0.917   0.310  0.00  0.00    -0.078 A 
ATOM      5  C3  OXE d   1       1.342   0.131  -0.564  0.00  0.00     0.003 A 
ATOM      6  C4  OXE d   1       0.143  -0.458  -0.143  0.00  0.00    -0.002 A 
ATOM      7  C5  OXE d   1      -0.265  -0.360   1.192  0.00  0.00    -0.002 A 
ATOM      8  C6  OXE d   1       0.535   0.325   2.100  0.00  0.00     0.003 A 
ENDROOT
TORSDOF 0
ENDMDL
