MODEL 1
REMARK minimizedAffinity 8.33228683
REMARK minimizedRMSD -1
REMARK  3 active torsions:
REMARK  status: ('A' for Active; 'I' for Inactive)
REMARK    1  A    between atoms: C3'_2  and  C2'_3 
REMARK    2  A    between atoms: C2'_3  and  C1'_4 
REMARK    3  A    between atoms: C1'_4  and  C1_5 
ROOT
ATOM      1  C1  N4B d   1       1.876  -0.456   4.516  0.00  0.00    -0.075 A 
ATOM      2  C2  N4B d   1       1.179   0.770   4.599  0.00  0.00     0.002 A 
ATOM      3  C3  N4B d   1       0.419   1.200   3.540  0.00  0.00     0.002 A 
ATOM      4  C4  N4B d   1       0.357   0.435   2.385  0.00  0.00    -0.004 A 
ATOM      5  C5  N4B d   1       1.012  -0.760   2.322  0.00  0.00     0.002 A 
ATOM      6  C6  N4B d   1       1.776  -1.207   3.381  0.00  0.00     0.002 A 
ENDROOT
BRANCH   1   7
ATOM      7  C1' N4B d   1       2.788  -0.927   5.616  0.00  0.00     0.057 C 
BRANCH   7   8
ATOM      8  C2' N4B d   1       4.030  -0.041   5.651  0.00  0.00     0.009 C 
BRANCH   8   9
ATOM      9  C3' N4B d   1       5.281  -0.830   5.998  0.00  0.00     0.004 C 
ATOM     10  C4' N4B d   1       5.052  -2.312   5.999  0.00  0.00     0.003 C 
ENDBRANCH   8   9
ENDBRANCH   7   8
ENDBRANCH   1   7
TORSDOF 3
ENDMDL
