MODEL 1
REMARK minimizedAffinity 17.2111034
REMARK minimizedRMSD -1
REMARK  3 active torsions:
REMARK  status: ('A' for Active; 'I' for Inactive)
REMARK    1  A    between atoms: C3'_2  and  C2'_3 
REMARK    2  A    between atoms: C2'_3  and  C1'_4 
REMARK    3  A    between atoms: C1'_4  and  C1_5 
ROOT
ATOM      1  C1  N4B d   1       0.648  -0.754  -3.628  0.00  0.00    -0.075 A 
ATOM      2  C2  N4B d   1      -0.515  -1.096  -4.353  0.00  0.00     0.002 A 
ATOM      3  C3  N4B d   1      -1.540  -1.765  -3.730  0.00  0.00     0.002 A 
ATOM      4  C4  N4B d   1      -1.418  -2.117  -2.394  0.00  0.00    -0.004 A 
ATOM      5  C5  N4B d   1      -0.302  -1.760  -1.694  0.00  0.00     0.002 A 
ATOM      6  C6  N4B d   1       0.734  -1.084  -2.307  0.00  0.00     0.002 A 
ENDROOT
BRANCH   1   7
ATOM      7  C1' N4B d   1       1.831  -0.099  -4.288  0.00  0.00     0.057 C 
BRANCH   7   8
ATOM      8  C2' N4B d   1       3.115  -0.692  -3.716  0.00  0.00     0.009 C 
BRANCH   8   9
ATOM      9  C3' N4B d   1       4.332   0.148  -4.062  0.00  0.00     0.004 C 
ATOM     10  C4' N4B d   1       4.230   0.790  -5.413  0.00  0.00     0.003 C 
ENDBRANCH   8   9
ENDBRANCH   7   8
ENDBRANCH   1   7
TORSDOF 3
ENDMDL
