MODEL 1
REMARK minimizedAffinity 10.8426895
REMARK minimizedRMSD -1
REMARK  3 active torsions:
REMARK  status: ('A' for Active; 'I' for Inactive)
REMARK    1  A    between atoms: C3'_2  and  C2'_3 
REMARK    2  A    between atoms: C2'_3  and  C1'_4 
REMARK    3  A    between atoms: C1'_4  and  C1_5 
ROOT
ATOM      1  C1  N4B d   1      -0.695  -1.499  -3.809  0.00  0.00    -0.075 A 
ATOM      2  C2  N4B d   1      -0.038  -0.728  -2.825  0.00  0.00     0.002 A 
ATOM      3  C3  N4B d   1       1.214  -0.222  -3.073  0.00  0.00     0.002 A 
ATOM      4  C4  N4B d   1       1.835  -0.489  -4.284  0.00  0.00    -0.004 A 
ATOM      5  C5  N4B d   1       1.183  -1.213  -5.239  0.00  0.00     0.002 A 
ATOM      6  C6  N4B d   1      -0.078  -1.724  -5.006  0.00  0.00     0.002 A 
ENDROOT
BRANCH   1   7
ATOM      7  C1' N4B d   1      -2.030  -2.145  -3.552  0.00  0.00     0.057 C 
BRANCH   7   8
ATOM      8  C2' N4B d   1      -1.810  -3.588  -3.108  0.00  0.00     0.009 C 
BRANCH   8   9
ATOM      9  C3' N4B d   1      -2.002  -4.570  -4.251  0.00  0.00     0.004 C 
ATOM     10  C4' N4B d   1      -1.838  -5.998  -3.824  0.00  0.00     0.003 C 
ENDBRANCH   8   9
ENDBRANCH   7   8
ENDBRANCH   1   7
TORSDOF 3
ENDMDL
