MODEL 1
REMARK minimizedAffinity 6.13165808
REMARK minimizedRMSD -1
REMARK  3 active torsions:
REMARK  status: ('A' for Active; 'I' for Inactive)
REMARK    1  A    between atoms: C3'_2  and  C2'_3 
REMARK    2  A    between atoms: C2'_3  and  C1'_4 
REMARK    3  A    between atoms: C1'_4  and  C1_5 
ROOT
ATOM      1  C1  N4B d   1       3.297  -2.704   4.900  0.00  0.00    -0.075 A 
ATOM      2  C2  N4B d   1       3.850  -1.404   4.886  0.00  0.00     0.002 A 
ATOM      3  C3  N4B d   1       3.427  -0.489   3.953  0.00  0.00     0.002 A 
ATOM      4  C4  N4B d   1       2.472  -0.855   3.017  0.00  0.00    -0.004 A 
ATOM      5  C5  N4B d   1       1.925  -2.104   3.054  0.00  0.00     0.002 A 
ATOM      6  C6  N4B d   1       2.337  -3.033   3.988  0.00  0.00     0.002 A 
ENDROOT
BRANCH   1   7
ATOM      7  C1' N4B d   1       3.789  -3.765   5.846  0.00  0.00     0.057 C 
BRANCH   7   8
ATOM      8  C2' N4B d   1       5.309  -3.684   5.944  0.00  0.00     0.009 C 
BRANCH   8   9
ATOM      9  C3' N4B d   1       5.993  -4.494   4.855  0.00  0.00     0.004 C 
ATOM     10  C4' N4B d   1       6.000  -5.965   5.145  0.00  0.00     0.003 C 
ENDBRANCH   8   9
ENDBRANCH   7   8
ENDBRANCH   1   7
TORSDOF 3
ENDMDL
