MODEL 1
REMARK minimizedAffinity 6.43841028
REMARK minimizedRMSD -1
REMARK  0 active torsions:
REMARK  status: ('A' for Active; 'I' for Inactive)
ROOT
ATOM      1  C   UNL d   1      -4.964   3.552   3.729  0.00  0.00     0.077 C 
ATOM      2  C1  UNL d   1      -4.174   2.373   4.214  0.00  0.00    -0.074 A 
ATOM      3  C2  UNL d   1      -3.798   2.263   5.557  0.00  0.00    -0.005 A 
ATOM      4  C3  UNL d   1      -3.072   1.156   5.995  0.00  0.00     0.006 A 
ATOM      5  C4  UNL d   1      -2.714   0.150   5.097  0.00  0.00    -0.005 A 
ATOM      6  C5  UNL d   1      -3.082   0.242   3.751  0.00  0.00    -0.074 A 
ATOM      7  C6  UNL d   1      -2.714  -0.835   2.775  0.00  0.00     0.077 C 
ATOM      8  C7  UNL d   1      -3.817   1.354   3.320  0.00  0.00    -0.001 A 
ENDROOT
TORSDOF 0
ENDMDL
