MODEL 1
REMARK minimizedAffinity 11.8397121
REMARK minimizedRMSD -1
REMARK  0 active torsions:
REMARK  status: ('A' for Active; 'I' for Inactive)
ROOT
ATOM      1  C   UNL d   1      -4.815  -5.992  -2.246  0.00  0.00     0.077 C 
ATOM      2  C1  UNL d   1      -4.818  -5.733  -0.769  0.00  0.00    -0.074 A 
ATOM      3  C2  UNL d   1      -5.997  -5.384  -0.102  0.00  0.00    -0.005 A 
ATOM      4  C3  UNL d   1      -5.986  -5.156   1.274  0.00  0.00     0.006 A 
ATOM      5  C4  UNL d   1      -4.798  -5.274   1.996  0.00  0.00    -0.005 A 
ATOM      6  C5  UNL d   1      -3.609  -5.623   1.347  0.00  0.00    -0.074 A 
ATOM      7  C6  UNL d   1      -2.325  -5.764   2.110  0.00  0.00     0.077 C 
ATOM      8  C7  UNL d   1      -3.630  -5.857  -0.035  0.00  0.00    -0.001 A 
ENDROOT
TORSDOF 0
ENDMDL
