MODEL 1
REMARK minimizedAffinity 8.78158569
REMARK minimizedRMSD -1
REMARK  0 active torsions:
REMARK  status: ('A' for Active; 'I' for Inactive)
ROOT
ATOM      1  C   UNL d   1       1.993  -0.890  -1.907  0.00  0.00     0.077 C 
ATOM      2  C1  UNL d   1       1.942   0.384  -1.117  0.00  0.00    -0.074 A 
ATOM      3  C2  UNL d   1       2.370   1.593  -1.675  0.00  0.00    -0.005 A 
ATOM      4  C3  UNL d   1       2.308   2.772  -0.932  0.00  0.00     0.006 A 
ATOM      5  C4  UNL d   1       1.818   2.753   0.375  0.00  0.00    -0.005 A 
ATOM      6  C5  UNL d   1       1.385   1.554   0.949  0.00  0.00    -0.074 A 
ATOM      7  C6  UNL d   1       0.847   1.518   2.348  0.00  0.00     0.077 C 
ATOM      8  C7  UNL d   1       1.444   0.375   0.193  0.00  0.00    -0.001 A 
ENDROOT
TORSDOF 0
ENDMDL
