MODEL 1
REMARK minimizedAffinity 16.6636295
REMARK minimizedRMSD -1
REMARK  0 active torsions:
REMARK  status: ('A' for Active; 'I' for Inactive)
ROOT
ATOM      1  C   UNL d   1       3.268   1.910   1.513  0.00  0.00     0.077 C 
ATOM      2  C1  UNL d   1       2.108   1.413   2.324  0.00  0.00    -0.074 A 
ATOM      3  C2  UNL d   1       0.984   0.859   1.704  0.00  0.00    -0.005 A 
ATOM      4  C3  UNL d   1      -0.083   0.392   2.472  0.00  0.00     0.006 A 
ATOM      5  C4  UNL d   1      -0.036   0.474   3.864  0.00  0.00    -0.005 A 
ATOM      6  C5  UNL d   1       1.080   1.024   4.501  0.00  0.00    -0.074 A 
ATOM      7  C6  UNL d   1       1.151   1.110   5.997  0.00  0.00     0.077 C 
ATOM      8  C7  UNL d   1       2.152   1.485   3.723  0.00  0.00    -0.001 A 
ENDROOT
TORSDOF 0
ENDMDL
