MODEL 1
REMARK minimizedAffinity 18.4335499
REMARK minimizedRMSD -1
REMARK  0 active torsions:
REMARK  status: ('A' for Active; 'I' for Inactive)
ROOT
ATOM      1  C   UNL d   1       2.284  -1.646  -0.528  0.00  0.00     0.077 C 
ATOM      2  C1  UNL d   1       2.732  -0.242  -0.809  0.00  0.00    -0.074 A 
ATOM      3  C2  UNL d   1       2.420   0.383  -2.021  0.00  0.00    -0.005 A 
ATOM      4  C3  UNL d   1       2.835   1.692  -2.264  0.00  0.00     0.006 A 
ATOM      5  C4  UNL d   1       3.564   2.388  -1.299  0.00  0.00    -0.005 A 
ATOM      6  C5  UNL d   1       3.885   1.780  -0.082  0.00  0.00    -0.074 A 
ATOM      7  C6  UNL d   1       4.660   2.517   0.969  0.00  0.00     0.077 C 
ATOM      8  C7  UNL d   1       3.458   0.466   0.158  0.00  0.00    -0.001 A 
ENDROOT
TORSDOF 0
ENDMDL
