MODEL 1
REMARK minimizedAffinity 8.1081686
REMARK minimizedRMSD -1
REMARK  0 active torsions:
REMARK  status: ('A' for Active; 'I' for Inactive)
ROOT
ATOM      1  C   UNL d   1      -5.999  -0.998  -5.551  0.00  0.00     0.077 C 
ATOM      2  C1  UNL d   1      -5.237  -2.282  -5.696  0.00  0.00    -0.074 A 
ATOM      3  C2  UNL d   1      -3.839  -2.288  -5.732  0.00  0.00    -0.005 A 
ATOM      4  C3  UNL d   1      -3.144  -3.491  -5.858  0.00  0.00     0.006 A 
ATOM      5  C4  UNL d   1      -3.839  -4.698  -5.949  0.00  0.00    -0.005 A 
ATOM      6  C5  UNL d   1      -5.237  -4.711  -5.913  0.00  0.00    -0.074 A 
ATOM      7  C6  UNL d   1      -5.999  -6.000  -6.000  0.00  0.00     0.077 C 
ATOM      8  C7  UNL d   1      -5.928  -3.499  -5.780  0.00  0.00    -0.001 A 
ENDROOT
TORSDOF 0
ENDMDL
