MODEL 1
REMARK minimizedAffinity 18.8459454
REMARK minimizedRMSD -1
REMARK  0 active torsions:
REMARK  status: ('A' for Active; 'I' for Inactive)
ROOT
ATOM      1  C   UNL d   1      -4.287   2.294   6.000  0.00  0.00     0.077 C 
ATOM      2  C1  UNL d   1      -3.719   1.892   4.671  0.00  0.00    -0.074 A 
ATOM      3  C2  UNL d   1      -4.556   1.567   3.600  0.00  0.00    -0.005 A 
ATOM      4  C3  UNL d   1      -4.013   1.205   2.367  0.00  0.00     0.006 A 
ATOM      5  C4  UNL d   1      -2.629   1.164   2.194  0.00  0.00    -0.005 A 
ATOM      6  C5  UNL d   1      -1.776   1.487   3.253  0.00  0.00    -0.074 A 
ATOM      7  C6  UNL d   1      -0.286   1.458   3.081  0.00  0.00     0.077 C 
ATOM      8  C7  UNL d   1      -2.329   1.857   4.487  0.00  0.00    -0.001 A 
ENDROOT
TORSDOF 0
ENDMDL
