MODEL 1
REMARK minimizedAffinity 15.9836864
REMARK minimizedRMSD -1
REMARK  0 active torsions:
REMARK  status: ('A' for Active; 'I' for Inactive)
ROOT
ATOM      1  C   UNL d   1       1.291   5.227   0.433  0.00  0.00     0.077 C 
ATOM      2  C1  UNL d   1       1.224   3.957   1.229  0.00  0.00    -0.074 A 
ATOM      3  C2  UNL d   1       2.391   3.294   1.623  0.00  0.00    -0.005 A 
ATOM      4  C3  UNL d   1       2.313   2.119   2.371  0.00  0.00     0.006 A 
ATOM      5  C4  UNL d   1       1.070   1.596   2.731  0.00  0.00    -0.005 A 
ATOM      6  C5  UNL d   1      -0.107   2.246   2.346  0.00  0.00    -0.074 A 
ATOM      7  C6  UNL d   1      -1.450   1.704   2.733  0.00  0.00     0.077 C 
ATOM      8  C7  UNL d   1      -0.020   3.430   1.601  0.00  0.00    -0.001 A 
ENDROOT
TORSDOF 0
ENDMDL
