MODEL 1
REMARK minimizedAffinity 10.5083008
REMARK minimizedRMSD -1
REMARK  0 active torsions:
REMARK  status: ('A' for Active; 'I' for Inactive)
ROOT
ATOM      1  C   UNL d   1      -3.354   5.834  -5.082  0.00  0.00     0.077 C 
ATOM      2  C1  UNL d   1      -2.452   4.636  -5.103  0.00  0.00    -0.074 A 
ATOM      3  C2  UNL d   1      -1.380   4.559  -5.998  0.00  0.00    -0.005 A 
ATOM      4  C3  UNL d   1      -0.543   3.442  -5.999  0.00  0.00     0.006 A 
ATOM      5  C4  UNL d   1      -0.770   2.394  -5.107  0.00  0.00    -0.005 A 
ATOM      6  C5  UNL d   1      -1.836   2.454  -4.204  0.00  0.00    -0.074 A 
ATOM      7  C6  UNL d   1      -2.088   1.340  -3.232  0.00  0.00     0.077 C 
ATOM      8  C7  UNL d   1      -2.668   3.582  -4.204  0.00  0.00    -0.001 A 
ENDROOT
TORSDOF 0
ENDMDL
