MODEL 1
REMARK minimizedAffinity 9.01616573
REMARK minimizedRMSD -1
REMARK  0 active torsions:
REMARK  status: ('A' for Active; 'I' for Inactive)
ROOT
ATOM      1  C   UNL d   1       1.854  -0.218  -0.430  0.00  0.00     0.077 C 
ATOM      2  C1  UNL d   1       2.730   0.901   0.049  0.00  0.00    -0.074 A 
ATOM      3  C2  UNL d   1       2.400   1.633   1.193  0.00  0.00    -0.005 A 
ATOM      4  C3  UNL d   1       3.229   2.665   1.632  0.00  0.00     0.006 A 
ATOM      5  C4  UNL d   1       4.396   2.975   0.932  0.00  0.00    -0.005 A 
ATOM      6  C5  UNL d   1       4.743   2.253  -0.214  0.00  0.00    -0.074 A 
ATOM      7  C6  UNL d   1       5.998   2.566  -0.973  0.00  0.00     0.077 C 
ATOM      8  C7  UNL d   1       3.908   1.213  -0.645  0.00  0.00    -0.001 A 
ENDROOT
TORSDOF 0
ENDMDL
