MODEL 1
REMARK minimizedAffinity 5.62896299
REMARK minimizedRMSD -1
REMARK  0 active torsions:
REMARK  status: ('A' for Active; 'I' for Inactive)
ROOT
ATOM      1  C   UNL d   1       2.128   0.083  -0.023  0.00  0.00     0.077 C 
ATOM      2  C1  UNL d   1       2.184  -1.253  -0.702  0.00  0.00    -0.074 A 
ATOM      3  C2  UNL d   1       1.470  -1.492  -1.880  0.00  0.00    -0.005 A 
ATOM      4  C3  UNL d   1       1.539  -2.737  -2.505  0.00  0.00     0.006 A 
ATOM      5  C4  UNL d   1       2.323  -3.754  -1.960  0.00  0.00    -0.005 A 
ATOM      6  C5  UNL d   1       3.045  -3.534  -0.783  0.00  0.00    -0.074 A 
ATOM      7  C6  UNL d   1       3.900  -4.614  -0.188  0.00  0.00     0.077 C 
ATOM      8  C7  UNL d   1       2.976  -2.278  -0.164  0.00  0.00    -0.001 A 
ENDROOT
TORSDOF 0
ENDMDL
