MODEL 1
REMARK minimizedAffinity 10.9100447
REMARK minimizedRMSD -1
REMARK  0 active torsions:
REMARK  status: ('A' for Active; 'I' for Inactive)
ROOT
ATOM      1  C   UNL d   1       3.141  -3.993   0.064  0.00  0.00     0.077 C 
ATOM      2  C1  UNL d   1       2.490  -2.776  -0.522  0.00  0.00    -0.074 A 
ATOM      3  C2  UNL d   1       1.771  -2.851  -1.720  0.00  0.00    -0.005 A 
ATOM      4  C3  UNL d   1       1.163  -1.713  -2.248  0.00  0.00     0.006 A 
ATOM      5  C4  UNL d   1       1.268  -0.489  -1.586  0.00  0.00    -0.005 A 
ATOM      6  C5  UNL d   1       1.982  -0.394  -0.387  0.00  0.00    -0.074 A 
ATOM      7  C6  UNL d   1       2.095   0.912   0.342  0.00  0.00     0.077 C 
ATOM      8  C7  UNL d   1       2.584  -1.544   0.141  0.00  0.00    -0.001 A 
ENDROOT
TORSDOF 0
ENDMDL
