MODEL 1
REMARK minimizedAffinity 1.85901749
REMARK minimizedRMSD -1
REMARK  0 active torsions:
REMARK  status: ('A' for Active; 'I' for Inactive)
ROOT
ATOM      1  C   UNL d   1      -5.503  -2.256  -5.808  0.00  0.00     0.077 C 
ATOM      2  C1  UNL d   1      -4.774  -3.567  -5.800  0.00  0.00    -0.074 A 
ATOM      3  C2  UNL d   1      -5.457  -4.770  -6.000  0.00  0.00    -0.005 A 
ATOM      4  C3  UNL d   1      -4.764  -5.981  -5.999  0.00  0.00     0.006 A 
ATOM      5  C4  UNL d   1      -3.383  -6.000  -5.798  0.00  0.00    -0.005 A 
ATOM      6  C5  UNL d   1      -2.683  -4.806  -5.598  0.00  0.00    -0.074 A 
ATOM      7  C6  UNL d   1      -1.197  -4.807  -5.391  0.00  0.00     0.077 C 
ATOM      8  C7  UNL d   1      -3.385  -3.593  -5.607  0.00  0.00    -0.001 A 
ENDROOT
TORSDOF 0
ENDMDL
