MODEL 1
REMARK minimizedAffinity 10.3408394
REMARK minimizedRMSD -1
REMARK  0 active torsions:
REMARK  status: ('A' for Active; 'I' for Inactive)
ROOT
ATOM      1  C   UNL d   1      -4.441  -6.000  -6.000  0.00  0.00     0.077 C 
ATOM      2  C1  UNL d   1      -3.588  -4.937  -5.374  0.00  0.00    -0.074 A 
ATOM      3  C2  UNL d   1      -3.408  -3.699  -5.999  0.00  0.00    -0.005 A 
ATOM      4  C3  UNL d   1      -2.619  -2.717  -5.400  0.00  0.00     0.006 A 
ATOM      5  C4  UNL d   1      -2.003  -2.963  -4.173  0.00  0.00    -0.005 A 
ATOM      6  C5  UNL d   1      -2.171  -4.194  -3.533  0.00  0.00    -0.074 A 
ATOM      7  C6  UNL d   1      -1.524  -4.471  -2.208  0.00  0.00     0.077 C 
ATOM      8  C7  UNL d   1      -2.971  -5.174  -4.137  0.00  0.00    -0.001 A 
ENDROOT
TORSDOF 0
ENDMDL
