MODEL 1
REMARK minimizedAffinity 16.8306007
REMARK minimizedRMSD -1
REMARK  0 active torsions:
REMARK  status: ('A' for Active; 'I' for Inactive)
ROOT
ATOM      1  C   UNL d   1      -5.940  -1.746  -5.798  0.00  0.00     0.077 C 
ATOM      2  C1  UNL d   1      -4.811  -2.589  -5.284  0.00  0.00    -0.074 A 
ATOM      3  C2  UNL d   1      -4.002  -2.143  -4.234  0.00  0.00    -0.005 A 
ATOM      4  C3  UNL d   1      -2.961  -2.942  -3.760  0.00  0.00     0.006 A 
ATOM      5  C4  UNL d   1      -2.719  -4.192  -4.331  0.00  0.00    -0.005 A 
ATOM      6  C5  UNL d   1      -3.518  -4.654  -5.381  0.00  0.00    -0.074 A 
ATOM      7  C6  UNL d   1      -3.278  -6.000  -5.999  0.00  0.00     0.077 C 
ATOM      8  C7  UNL d   1      -4.566  -3.849  -5.847  0.00  0.00    -0.001 A 
ENDROOT
TORSDOF 0
ENDMDL
