MODEL 1
REMARK minimizedAffinity -1.48234951
REMARK minimizedRMSD -1
REMARK  0 active torsions:
REMARK  status: ('A' for Active; 'I' for Inactive)
ROOT
ATOM      1  N1  IND d   1      -1.817   0.903  -1.271  0.00  0.00    -0.196 N 
ATOM      2  C2  IND d   1      -0.909   1.144  -2.263  0.00  0.00     0.054 A 
ATOM      3  C3  IND d   1       0.324   0.742  -1.880  0.00  0.00    -0.031 A 
ATOM      4  C4  IND d   1       1.061  -0.430   0.290  0.00  0.00     0.051 A 
ATOM      5  C5  IND d   1       0.594  -0.829   1.511  0.00  0.00    -0.031 A 
ATOM      6  C6  IND d   1      -0.728  -0.670   1.873  0.00  0.00     0.015 A 
ATOM      7  C7  IND d   1      -1.638  -0.115   1.020  0.00  0.00    -0.016 A 
ATOM      8  C8  IND d   1      -1.166   0.298  -0.218  0.00  0.00    -0.047 A 
ATOM      9  C9  IND d   1       0.183   0.179  -0.575  0.00  0.00    -0.096 A 
ATOM     10  HN1 IND d   1      -2.655   1.096  -1.299  0.00  0.00     0.298 HD
ENDROOT
TORSDOF 0
ENDMDL
