MODEL 1
REMARK minimizedAffinity -5.83896589
REMARK minimizedRMSD -1
REMARK  0 active torsions:
REMARK  status: ('A' for Active; 'I' for Inactive)
ROOT
ATOM      1  N1  IND d   1      -0.684   0.389  -0.307  0.00  0.00    -0.196 N 
ATOM      2  C2  IND d   1       0.674   0.352  -0.153  0.00  0.00     0.054 A 
ATOM      3  C3  IND d   1       0.996   0.231   1.155  0.00  0.00    -0.031 A 
ATOM      4  C4  IND d   1      -0.545  -0.023   3.201  0.00  0.00     0.051 A 
ATOM      5  C5  IND d   1      -1.862  -0.010   3.567  0.00  0.00    -0.031 A 
ATOM      6  C6  IND d   1      -2.874   0.138   2.640  0.00  0.00     0.015 A 
ATOM      7  C7  IND d   1      -2.606   0.266   1.307  0.00  0.00    -0.016 A 
ATOM      8  C8  IND d   1      -1.269   0.260   0.933  0.00  0.00    -0.047 A 
ATOM      9  C9  IND d   1      -0.236   0.153   1.873  0.00  0.00    -0.096 A 
ATOM     10  HN1 IND d   1      -1.102   0.479  -1.053  0.00  0.00     0.298 HD
ENDROOT
TORSDOF 0
ENDMDL
