MODEL 1
REMARK minimizedAffinity -3.90991831
REMARK minimizedRMSD -1
REMARK  0 active torsions:
REMARK  status: ('A' for Active; 'I' for Inactive)
ROOT
ATOM      1  N1  IND d   1      -0.293   0.210  -0.726  0.00  0.00    -0.196 N 
ATOM      2  C2  IND d   1       0.772   1.067  -0.735  0.00  0.00     0.054 A 
ATOM      3  C3  IND d   1       1.301   1.173   0.504  0.00  0.00    -0.031 A 
ATOM      4  C4  IND d   1       0.642  -0.046   2.674  0.00  0.00     0.051 A 
ATOM      5  C5  IND d   1      -0.293  -0.899   3.188  0.00  0.00    -0.031 A 
ATOM      6  C6  IND d   1      -1.295  -1.439   2.408  0.00  0.00     0.015 A 
ATOM      7  C7  IND d   1      -1.392  -1.153   1.076  0.00  0.00    -0.016 A 
ATOM      8  C8  IND d   1      -0.448  -0.282   0.551  0.00  0.00    -0.047 A 
ATOM      9  C9  IND d   1       0.545   0.303   1.347  0.00  0.00    -0.096 A 
ATOM     10  HN1 IND d   1      -0.784   0.012  -1.404  0.00  0.00     0.298 HD
ENDROOT
TORSDOF 0
ENDMDL
