MODEL 1
REMARK minimizedAffinity -1.62219608
REMARK minimizedRMSD -1
REMARK  0 active torsions:
REMARK  status: ('A' for Active; 'I' for Inactive)
ROOT
ATOM      1  N1  IND d   1      -0.619   0.429  -0.590  0.00  0.00    -0.196 N 
ATOM      2  C2  IND d   1       0.744   0.325  -0.596  0.00  0.00     0.054 A 
ATOM      3  C3  IND d   1       1.204   0.098   0.655  0.00  0.00    -0.031 A 
ATOM      4  C4  IND d   1      -0.108  -0.239   2.844  0.00  0.00     0.051 A 
ATOM      5  C5  IND d   1      -1.374  -0.197   3.358  0.00  0.00    -0.031 A 
ATOM      6  C6  IND d   1      -2.475   0.058   2.566  0.00  0.00     0.015 A 
ATOM      7  C7  IND d   1      -2.352   0.270   1.222  0.00  0.00    -0.016 A 
ATOM      8  C8  IND d   1      -1.068   0.236   0.698  0.00  0.00    -0.047 A 
ATOM      9  C9  IND d   1       0.058   0.020   1.504  0.00  0.00    -0.096 A 
ATOM     10  HN1 IND d   1      -1.112   0.589  -1.276  0.00  0.00     0.298 HD
ENDROOT
TORSDOF 0
ENDMDL
