MODEL 1
REMARK minimizedAffinity 4.0679903
REMARK minimizedRMSD -1
REMARK  0 active torsions:
REMARK  status: ('A' for Active; 'I' for Inactive)
ROOT
ATOM      1  N1  IND d   1       1.864   2.326   1.216  0.00  0.00    -0.196 N 
ATOM      2  C2  IND d   1       1.598   2.620  -0.092  0.00  0.00     0.054 A 
ATOM      3  C3  IND d   1       0.562   1.875  -0.540  0.00  0.00    -0.031 A 
ATOM      4  C4  IND d   1      -0.908   0.186   0.730  0.00  0.00     0.051 A 
ATOM      5  C5  IND d   1      -1.028  -0.444   1.938  0.00  0.00    -0.031 A 
ATOM      6  C6  IND d   1      -0.174  -0.174   2.988  0.00  0.00     0.015 A 
ATOM      7  C7  IND d   1       0.828   0.747   2.873  0.00  0.00    -0.016 A 
ATOM      8  C8  IND d   1       0.957   1.382   1.647  0.00  0.00    -0.047 A 
ATOM      9  C9  IND d   1       0.121   1.082   0.564  0.00  0.00    -0.096 A 
ATOM     10  HN1 IND d   1       2.492   2.673   1.690  0.00  0.00     0.298 HD
ENDROOT
TORSDOF 0
ENDMDL
