MODEL 1
REMARK minimizedAffinity 3.95701122
REMARK minimizedRMSD -1
REMARK  0 active torsions:
REMARK  status: ('A' for Active; 'I' for Inactive)
ROOT
ATOM      1  N1  IND d   1      -1.155   0.687  -0.381  0.00  0.00    -0.196 N 
ATOM      2  C2  IND d   1      -2.481   0.580  -0.693  0.00  0.00     0.054 A 
ATOM      3  C3  IND d   1      -3.179   0.119   0.369  0.00  0.00    -0.031 A 
ATOM      4  C4  IND d   1      -2.363  -0.429   2.749  0.00  0.00     0.051 A 
ATOM      5  C5  IND d   1      -1.228  -0.522   3.504  0.00  0.00    -0.031 A 
ATOM      6  C6  IND d   1       0.015  -0.207   2.993  0.00  0.00     0.015 A 
ATOM      7  C7  IND d   1       0.168   0.224   1.705  0.00  0.00    -0.016 A 
ATOM      8  C8  IND d   1      -0.983   0.313   0.934  0.00  0.00    -0.047 A 
ATOM      9  C9  IND d   1      -2.241  -0.045   1.434  0.00  0.00    -0.096 A 
ATOM     10  HN1 IND d   1      -0.533   0.945  -0.915  0.00  0.00     0.298 HD
ENDROOT
TORSDOF 0
ENDMDL
