MODEL 1
REMARK minimizedAffinity -3.55044985
REMARK minimizedRMSD -1
REMARK  0 active torsions:
REMARK  status: ('A' for Active; 'I' for Inactive)
ROOT
ATOM      1  N1  IND d   1       1.029  -0.306   1.961  0.00  0.00    -0.196 N 
ATOM      2  C2  IND d   1       0.337  -0.237   3.138  0.00  0.00     0.054 A 
ATOM      3  C3  IND d   1      -0.968   0.027   2.902  0.00  0.00    -0.031 A 
ATOM      4  C4  IND d   1      -2.206   0.281   0.659  0.00  0.00     0.051 A 
ATOM      5  C5  IND d   1      -1.991   0.336  -0.690  0.00  0.00    -0.031 A 
ATOM      6  C6  IND d   1      -0.734   0.173  -1.235  0.00  0.00     0.015 A 
ATOM      7  C7  IND d   1       0.359  -0.062  -0.449  0.00  0.00    -0.016 A 
ATOM      8  C8  IND d   1       0.145  -0.111   0.921  0.00  0.00    -0.047 A 
ATOM      9  C9  IND d   1      -1.121   0.095   1.483  0.00  0.00    -0.096 A 
ATOM     10  HN1 IND d   1       1.873  -0.447   1.883  0.00  0.00     0.298 HD
ENDROOT
TORSDOF 0
ENDMDL
