MODEL 1
REMARK minimizedAffinity -3.48761797
REMARK minimizedRMSD -1
REMARK  0 active torsions:
REMARK  status: ('A' for Active; 'I' for Inactive)
ROOT
ATOM      1  N1  IND d   1      -1.204   0.010  -0.842  0.00  0.00    -0.196 N 
ATOM      2  C2  IND d   1      -0.302   0.530  -1.728  0.00  0.00     0.054 A 
ATOM      3  C3  IND d   1       0.887   0.737  -1.120  0.00  0.00    -0.031 A 
ATOM      4  C4  IND d   1       1.608   0.199   1.292  0.00  0.00     0.051 A 
ATOM      5  C5  IND d   1       1.121  -0.252   2.486  0.00  0.00    -0.031 A 
ATOM      6  C6  IND d   1      -0.192  -0.650   2.635  0.00  0.00     0.015 A 
ATOM      7  C7  IND d   1      -1.068  -0.621   1.586  0.00  0.00    -0.016 A 
ATOM      8  C8  IND d   1      -0.578  -0.157   0.374  0.00  0.00    -0.047 A 
ATOM      9  C9  IND d   1       0.742   0.288   0.228  0.00  0.00    -0.096 A 
ATOM     10  HN1 IND d   1      -2.025  -0.181  -1.015  0.00  0.00     0.298 HD
ENDROOT
TORSDOF 0
ENDMDL
