MODEL 1
REMARK minimizedAffinity -5.38650227
REMARK minimizedRMSD -1
REMARK  0 active torsions:
REMARK  status: ('A' for Active; 'I' for Inactive)
ROOT
ATOM      1  N1  IND d   1      -0.953   0.159  -0.374  0.00  0.00    -0.196 N 
ATOM      2  C2  IND d   1       0.412   0.224  -0.359  0.00  0.00     0.054 A 
ATOM      3  C3  IND d   1       0.877   0.058   0.900  0.00  0.00    -0.031 A 
ATOM      4  C4  IND d   1      -0.418  -0.435   3.070  0.00  0.00     0.051 A 
ATOM      5  C5  IND d   1      -1.687  -0.549   3.565  0.00  0.00    -0.031 A 
ATOM      6  C6  IND d   1      -2.798  -0.433   2.755  0.00  0.00     0.015 A 
ATOM      7  C7  IND d   1      -2.682  -0.209   1.413  0.00  0.00    -0.016 A 
ATOM      8  C8  IND d   1      -1.395  -0.086   0.908  0.00  0.00    -0.047 A 
ATOM      9  C9  IND d   1      -0.264  -0.160   1.731  0.00  0.00    -0.096 A 
ATOM     10  HN1 IND d   1      -1.453   0.256  -1.067  0.00  0.00     0.298 HD
ENDROOT
TORSDOF 0
ENDMDL
