MODEL 1
REMARK minimizedAffinity -5.28655243
REMARK minimizedRMSD -1
REMARK  0 active torsions:
REMARK  status: ('A' for Active; 'I' for Inactive)
ROOT
ATOM      1  N1  IND d   1      -0.283   0.647  -0.425  0.00  0.00    -0.196 N 
ATOM      2  C2  IND d   1       1.080   0.637  -0.318  0.00  0.00     0.054 A 
ATOM      3  C3  IND d   1       1.449   0.375   0.956  0.00  0.00    -0.031 A 
ATOM      4  C4  IND d   1      -0.012  -0.169   3.004  0.00  0.00     0.051 A 
ATOM      5  C5  IND d   1      -1.316  -0.243   3.408  0.00  0.00    -0.031 A 
ATOM      6  C6  IND d   1      -2.363  -0.021   2.537  0.00  0.00     0.015 A 
ATOM      7  C7  IND d   1      -2.144   0.272   1.220  0.00  0.00    -0.016 A 
ATOM      8  C8  IND d   1      -0.822   0.354   0.808  0.00  0.00    -0.047 A 
ATOM      9  C9  IND d   1       0.245   0.172   1.697  0.00  0.00    -0.096 A 
ATOM     10  HN1 IND d   1      -0.729   0.810  -1.143  0.00  0.00     0.298 HD
ENDROOT
TORSDOF 0
ENDMDL
