MODEL 1
REMARK minimizedAffinity -2.84698963
REMARK minimizedRMSD -1
REMARK  0 active torsions:
REMARK  status: ('A' for Active; 'I' for Inactive)
ROOT
ATOM      1  N1  IND d   1      -0.815   0.406  -1.261  0.00  0.00    -0.196 N 
ATOM      2  C2  IND d   1       0.513   0.185  -1.028  0.00  0.00     0.054 A 
ATOM      3  C3  IND d   1       0.731  -0.021   0.290  0.00  0.00    -0.031 A 
ATOM      4  C4  IND d   1      -0.959  -0.140   2.229  0.00  0.00     0.051 A 
ATOM      5  C5  IND d   1      -2.284   0.034   2.515  0.00  0.00    -0.031 A 
ATOM      6  C6  IND d   1      -3.206   0.345   1.537  0.00  0.00     0.015 A 
ATOM      7  C7  IND d   1      -2.838   0.483   0.228  0.00  0.00    -0.016 A 
ATOM      8  C8  IND d   1      -1.492   0.313  -0.065  0.00  0.00    -0.047 A 
ATOM      9  C9  IND d   1      -0.545   0.039   0.930  0.00  0.00    -0.096 A 
ATOM     10  HN1 IND d   1      -1.169   0.576  -2.027  0.00  0.00     0.298 HD
ENDROOT
TORSDOF 0
ENDMDL
