MODEL 1
REMARK minimizedAffinity 3.37255692
REMARK minimizedRMSD -1
REMARK  0 active torsions:
REMARK  status: ('A' for Active; 'I' for Inactive)
ROOT
ATOM      1  N1  IND d   1      -0.755   0.491   0.474  0.00  0.00    -0.196 N 
ATOM      2  C2  IND d   1      -0.481   0.385  -0.862  0.00  0.00     0.054 A 
ATOM      3  C3  IND d   1      -0.942  -0.791  -1.344  0.00  0.00    -0.031 A 
ATOM      4  C4  IND d   1      -2.264  -2.646  -0.145  0.00  0.00     0.051 A 
ATOM      5  C5  IND d   1      -2.722  -3.017   1.088  0.00  0.00    -0.031 A 
ATOM      6  C6  IND d   1      -2.547  -2.221   2.201  0.00  0.00     0.015 A 
ATOM      7  C7  IND d   1      -1.914  -1.013   2.120  0.00  0.00    -0.016 A 
ATOM      8  C8  IND d   1      -1.441  -0.636   0.871  0.00  0.00    -0.047 A 
ATOM      9  C9  IND d   1      -1.579  -1.459  -0.254  0.00  0.00    -0.096 A 
ATOM     10  HN1 IND d   1      -0.535   1.150   0.980  0.00  0.00     0.298 HD
ENDROOT
TORSDOF 0
ENDMDL
