MODEL 1
REMARK minimizedAffinity -2.40805078
REMARK minimizedRMSD -1
REMARK  0 active torsions:
REMARK  status: ('A' for Active; 'I' for Inactive)
ROOT
ATOM      1  N1  IND d   1      -0.281  -0.934   0.027  0.00  0.00    -0.196 N 
ATOM      2  C2  IND d   1       0.535  -0.143  -0.734  0.00  0.00     0.054 A 
ATOM      3  C3  IND d   1       1.020   0.880   0.004  0.00  0.00    -0.031 A 
ATOM      4  C4  IND d   1       0.689   1.394   2.505  0.00  0.00     0.051 A 
ATOM      5  C5  IND d   1      -0.001   0.977   3.608  0.00  0.00    -0.031 A 
ATOM      6  C6  IND d   1      -0.835  -0.122   3.574  0.00  0.00     0.015 A 
ATOM      7  C7  IND d   1      -1.001  -0.855   2.433  0.00  0.00    -0.016 A 
ATOM      8  C8  IND d   1      -0.307  -0.430   1.309  0.00  0.00    -0.047 A 
ATOM      9  C9  IND d   1       0.507   0.709   1.327  0.00  0.00    -0.096 A 
ATOM     10  HN1 IND d   1      -0.706  -1.628  -0.248  0.00  0.00     0.298 HD
ENDROOT
TORSDOF 0
ENDMDL
