MODEL 1
REMARK minimizedAffinity -5.36440372
REMARK minimizedRMSD -1
REMARK  0 active torsions:
REMARK  status: ('A' for Active; 'I' for Inactive)
ROOT
ATOM      1  N1  IND d   1      -0.930   0.353  -0.712  0.00  0.00    -0.196 N 
ATOM      2  C2  IND d   1       0.432   0.457  -0.757  0.00  0.00     0.054 A 
ATOM      3  C3  IND d   1       0.959   0.269   0.474  0.00  0.00    -0.031 A 
ATOM      4  C4  IND d   1      -0.220  -0.323   2.685  0.00  0.00     0.051 A 
ATOM      5  C5  IND d   1      -1.461  -0.488   3.233  0.00  0.00    -0.031 A 
ATOM      6  C6  IND d   1      -2.612  -0.382   2.478  0.00  0.00     0.015 A 
ATOM      7  C7  IND d   1      -2.563  -0.117   1.139  0.00  0.00    -0.016 A 
ATOM      8  C8  IND d   1      -1.305   0.058   0.580  0.00  0.00    -0.047 A 
ATOM      9  C9  IND d   1      -0.136  -0.006   1.349  0.00  0.00    -0.096 A 
ATOM     10  HN1 IND d   1      -1.463   0.454  -1.379  0.00  0.00     0.298 HD
ENDROOT
TORSDOF 0
ENDMDL
