MODEL 1
REMARK minimizedAffinity -3.29657555
REMARK minimizedRMSD -1
REMARK  0 active torsions:
REMARK  status: ('A' for Active; 'I' for Inactive)
ROOT
ATOM      1  N1  IND d   1       4.499  -1.127  -4.013  0.00  0.00    -0.196 N 
ATOM      2  C2  IND d   1       4.956   0.161  -4.061  0.00  0.00     0.054 A 
ATOM      3  C3  IND d   1       3.935   1.029  -3.878  0.00  0.00    -0.031 A 
ATOM      4  C4  IND d   1       1.454   0.555  -3.382  0.00  0.00     0.051 A 
ATOM      5  C5  IND d   1       0.552  -0.467  -3.279  0.00  0.00    -0.031 A 
ATOM      6  C6  IND d   1       0.928  -1.788  -3.416  0.00  0.00     0.015 A 
ATOM      7  C7  IND d   1       2.227  -2.138  -3.651  0.00  0.00    -0.016 A 
ATOM      8  C8  IND d   1       3.145  -1.103  -3.762  0.00  0.00    -0.047 A 
ATOM      9  C9  IND d   1       2.762   0.242  -3.667  0.00  0.00    -0.096 A 
ATOM     10  HN1 IND d   1       4.977  -1.833  -4.122  0.00  0.00     0.298 HD
ENDROOT
TORSDOF 0
ENDMDL
