MODEL 1
REMARK minimizedAffinity -0.653025568
REMARK minimizedRMSD -1
REMARK  0 active torsions:
REMARK  status: ('A' for Active; 'I' for Inactive)
ROOT
ATOM      1  C   UNL d   1      -0.346   0.594   0.158  0.00  0.00     0.172 C 
ATOM      2  N   UNL d   1       0.534   1.068  -0.884  0.00  0.00    -0.070 N 
ATOM      3  C1  UNL d   1       1.396   0.295  -1.615  0.00  0.00    -0.004 A 
ATOM      4  C2  UNL d   1       2.054   1.119  -2.502  0.00  0.00    -0.047 A 
ATOM      5  C3  UNL d   1       1.571   2.433  -2.297  0.00  0.00    -0.047 A 
ATOM      6  C4  UNL d   1       0.631   2.373  -1.289  0.00  0.00    -0.004 A 
ENDROOT
TORSDOF 0
ENDMDL
