MODEL 1
REMARK minimizedAffinity -2.07564473
REMARK minimizedRMSD -1
REMARK  0 active torsions:
REMARK  status: ('A' for Active; 'I' for Inactive)
ROOT
ATOM      1  C   UNL d   1       0.731   2.489  -2.321  0.00  0.00     0.172 C 
ATOM      2  N   UNL d   1       0.567   2.166  -0.923  0.00  0.00    -0.070 N 
ATOM      3  C1  UNL d   1       0.822   3.009   0.126  0.00  0.00    -0.004 A 
ATOM      4  C2  UNL d   1       0.541   2.330   1.292  0.00  0.00    -0.047 A 
ATOM      5  C3  UNL d   1       0.104   1.033   0.931  0.00  0.00    -0.047 A 
ATOM      6  C4  UNL d   1       0.129   0.959  -0.446  0.00  0.00    -0.004 A 
ENDROOT
TORSDOF 0
ENDMDL
