MODEL 1
REMARK minimizedAffinity -2.36411548
REMARK minimizedRMSD -1
REMARK  0 active torsions:
REMARK  status: ('A' for Active; 'I' for Inactive)
ROOT
ATOM      1  C   UNL d   1      -2.250   5.626  -4.127  0.00  0.00     0.172 C 
ATOM      2  N   UNL d   1      -1.805   4.483  -4.889  0.00  0.00    -0.070 N 
ATOM      3  C1  UNL d   1      -0.522   4.253  -5.308  0.00  0.00    -0.004 A 
ATOM      4  C2  UNL d   1      -0.511   3.061  -6.000  0.00  0.00    -0.047 A 
ATOM      5  C3  UNL d   1      -1.834   2.558  -5.998  0.00  0.00    -0.047 A 
ATOM      6  C4  UNL d   1      -2.615   3.458  -5.303  0.00  0.00    -0.004 A 
ENDROOT
TORSDOF 0
ENDMDL
