MODEL 1
REMARK minimizedAffinity -1.77670705
REMARK minimizedRMSD -1
REMARK  0 active torsions:
REMARK  status: ('A' for Active; 'I' for Inactive)
ROOT
ATOM      1  C   UNL d   1      -0.844   3.748  -6.000  0.00  0.00     0.172 C 
ATOM      2  N   UNL d   1      -2.137   4.391  -5.999  0.00  0.00    -0.070 N 
ATOM      3  C1  UNL d   1      -2.357   5.743  -5.998  0.00  0.00    -0.004 A 
ATOM      4  C2  UNL d   1      -3.719   5.949  -5.999  0.00  0.00    -0.047 A 
ATOM      5  C3  UNL d   1      -4.340   4.678  -6.000  0.00  0.00    -0.047 A 
ATOM      6  C4  UNL d   1      -3.338   3.731  -6.000  0.00  0.00    -0.004 A 
ENDROOT
TORSDOF 0
ENDMDL
