MODEL 1
REMARK minimizedAffinity -2.51965427
REMARK minimizedRMSD -1
REMARK  0 active torsions:
REMARK  status: ('A' for Active; 'I' for Inactive)
ROOT
ATOM      1  C   UNL d   1      -3.542   3.757  -6.000  0.00  0.00     0.172 C 
ATOM      2  N   UNL d   1      -2.098   3.773  -5.995  0.00  0.00    -0.070 N 
ATOM      3  C1  UNL d   1      -1.311   4.894  -5.986  0.00  0.00    -0.004 A 
ATOM      4  C2  UNL d   1       0.005   4.486  -5.983  0.00  0.00    -0.047 A 
ATOM      5  C3  UNL d   1       0.010   3.071  -5.993  0.00  0.00    -0.047 A 
ATOM      6  C4  UNL d   1      -1.305   2.655  -6.000  0.00  0.00    -0.004 A 
ENDROOT
TORSDOF 0
ENDMDL
