MODEL 1
REMARK minimizedAffinity -0.866302311
REMARK minimizedRMSD -1
REMARK  0 active torsions:
REMARK  status: ('A' for Active; 'I' for Inactive)
ROOT
ATOM      1  C   UNL d   1      -2.542   5.887  -5.982  0.00  0.00     0.172 C 
ATOM      2  N   UNL d   1      -1.338   5.091  -5.984  0.00  0.00    -0.070 N 
ATOM      3  C1  UNL d   1      -1.286   3.723  -5.989  0.00  0.00    -0.004 A 
ATOM      4  C2  UNL d   1       0.041   3.351  -5.990  0.00  0.00    -0.047 A 
ATOM      5  C3  UNL d   1       0.813   4.537  -5.985  0.00  0.00    -0.047 A 
ATOM      6  C4  UNL d   1      -0.066   5.599  -5.982  0.00  0.00    -0.004 A 
ENDROOT
TORSDOF 0
ENDMDL
