MODEL 1
REMARK minimizedAffinity 0.360274702
REMARK minimizedRMSD -1
REMARK  0 active torsions:
REMARK  status: ('A' for Active; 'I' for Inactive)
ROOT
ATOM      1  C   UNL d   1      -2.416   2.958  -5.958  0.00  0.00     0.172 C 
ATOM      2  N   UNL d   1      -1.135   3.624  -5.974  0.00  0.00    -0.070 N 
ATOM      3  C1  UNL d   1       0.087   3.005  -5.986  0.00  0.00    -0.004 A 
ATOM      4  C2  UNL d   1       1.056   3.985  -5.999  0.00  0.00    -0.047 A 
ATOM      5  C3  UNL d   1       0.394   5.236  -5.995  0.00  0.00    -0.047 A 
ATOM      6  C4  UNL d   1      -0.962   4.983  -5.979  0.00  0.00    -0.004 A 
ENDROOT
TORSDOF 0
ENDMDL
