MODEL 1
REMARK minimizedAffinity -2.08559012
REMARK minimizedRMSD -1
REMARK  0 active torsions:
REMARK  status: ('A' for Active; 'I' for Inactive)
ROOT
ATOM      1  C   UNL d   1      -2.682   5.971  -6.000  0.00  0.00     0.172 C 
ATOM      2  N   UNL d   1      -1.921   4.744  -6.000  0.00  0.00    -0.070 N 
ATOM      3  C1  UNL d   1      -2.446   3.479  -5.999  0.00  0.00    -0.004 A 
ATOM      4  C2  UNL d   1      -1.397   2.586  -5.999  0.00  0.00    -0.047 A 
ATOM      5  C3  UNL d   1      -0.199   3.340  -6.000  0.00  0.00    -0.047 A 
ATOM      6  C4  UNL d   1      -0.553   4.673  -6.000  0.00  0.00    -0.004 A 
ENDROOT
TORSDOF 0
ENDMDL
