MODEL 1
REMARK minimizedAffinity -1.2129724
REMARK minimizedRMSD -1
REMARK  0 active torsions:
REMARK  status: ('A' for Active; 'I' for Inactive)
ROOT
ATOM      1  C   UNL d   1      -3.412   5.946  -5.973  0.00  0.00     0.172 C 
ATOM      2  N   UNL d   1      -2.562   4.779  -5.981  0.00  0.00    -0.070 N 
ATOM      3  C1  UNL d   1      -2.990   3.479  -5.972  0.00  0.00    -0.004 A 
ATOM      4  C2  UNL d   1      -1.877   2.667  -5.984  0.00  0.00    -0.047 A 
ATOM      5  C3  UNL d   1      -0.739   3.509  -6.000  0.00  0.00    -0.047 A 
ATOM      6  C4  UNL d   1      -1.192   4.812  -5.997  0.00  0.00    -0.004 A 
ENDROOT
TORSDOF 0
ENDMDL
