MODEL 1
REMARK minimizedAffinity -2.5099237
REMARK minimizedRMSD -1
REMARK  0 active torsions:
REMARK  status: ('A' for Active; 'I' for Inactive)
ROOT
ATOM      1  C   UNL d   1      -3.025   6.000  -5.996  0.00  0.00     0.172 C 
ATOM      2  N   UNL d   1      -2.218   4.802  -5.991  0.00  0.00    -0.070 N 
ATOM      3  C1  UNL d   1      -0.850   4.761  -5.977  0.00  0.00    -0.004 A 
ATOM      4  C2  UNL d   1      -0.467   3.437  -5.976  0.00  0.00    -0.047 A 
ATOM      5  C3  UNL d   1      -1.647   2.655  -5.991  0.00  0.00    -0.047 A 
ATOM      6  C4  UNL d   1      -2.716   3.525  -6.000  0.00  0.00    -0.004 A 
ENDROOT
TORSDOF 0
ENDMDL
