MODEL 1
REMARK minimizedAffinity -2.00842547
REMARK minimizedRMSD -1
REMARK  0 active torsions:
REMARK  status: ('A' for Active; 'I' for Inactive)
ROOT
ATOM      1  C   UNL d   1      -2.985   2.990  -5.979  0.00  0.00     0.172 C 
ATOM      2  N   UNL d   1      -1.579   3.319  -5.984  0.00  0.00    -0.070 N 
ATOM      3  C1  UNL d   1      -1.055   4.585  -5.994  0.00  0.00    -0.004 A 
ATOM      4  C2  UNL d   1       0.318   4.473  -5.996  0.00  0.00    -0.047 A 
ATOM      5  C3  UNL d   1       0.631   3.093  -5.988  0.00  0.00    -0.047 A 
ATOM      6  C4  UNL d   1      -0.562   2.402  -5.980  0.00  0.00    -0.004 A 
ENDROOT
TORSDOF 0
ENDMDL
