MODEL 1
REMARK minimizedAffinity 2.78077888
REMARK minimizedRMSD -1
REMARK  0 active torsions:
REMARK  status: ('A' for Active; 'I' for Inactive)
ROOT
ATOM      1  C   UNL d   1       2.643   2.800   2.437  0.00  0.00     0.172 C 
ATOM      2  N   UNL d   1       1.268   2.521   2.093  0.00  0.00    -0.070 N 
ATOM      3  C1  UNL d   1       0.204   2.574   2.953  0.00  0.00    -0.004 A 
ATOM      4  C2  UNL d   1      -0.930   2.243   2.241  0.00  0.00    -0.047 A 
ATOM      5  C3  UNL d   1      -0.532   1.982   0.909  0.00  0.00    -0.047 A 
ATOM      6  C4  UNL d   1       0.834   2.161   0.845  0.00  0.00    -0.004 A 
ENDROOT
TORSDOF 0
ENDMDL
