MODEL 1
REMARK minimizedAffinity 3.28439569
REMARK minimizedRMSD -1
REMARK  0 active torsions:
REMARK  status: ('A' for Active; 'I' for Inactive)
ROOT
ATOM      1  C   UNL d   1       2.327   2.779  -1.498  0.00  0.00     0.172 C 
ATOM      2  N   UNL d   1       2.260   1.574  -2.291  0.00  0.00    -0.070 N 
ATOM      3  C1  UNL d   1       1.972   0.322  -1.818  0.00  0.00    -0.004 A 
ATOM      4  C2  UNL d   1       2.006  -0.550  -2.884  0.00  0.00    -0.047 A 
ATOM      5  C3  UNL d   1       2.328   0.203  -4.038  0.00  0.00    -0.047 A 
ATOM      6  C4  UNL d   1       2.480   1.515  -3.642  0.00  0.00    -0.004 A 
ENDROOT
TORSDOF 0
ENDMDL
