MODEL 1
REMARK minimizedAffinity -2.07516551
REMARK minimizedRMSD -1
REMARK  0 active torsions:
REMARK  status: ('A' for Active; 'I' for Inactive)
ROOT
ATOM      1  C   UNL d   1      -3.155   5.536  -5.983  0.00  0.00     0.172 C 
ATOM      2  N   UNL d   1      -1.771   5.125  -5.988  0.00  0.00    -0.070 N 
ATOM      3  C1  UNL d   1      -0.689   5.964  -5.988  0.00  0.00    -0.004 A 
ATOM      4  C2  UNL d   1       0.449   5.187  -5.993  0.00  0.00    -0.047 A 
ATOM      5  C3  UNL d   1       0.036   3.833  -5.997  0.00  0.00    -0.047 A 
ATOM      6  C4  UNL d   1      -1.343   3.824  -5.994  0.00  0.00    -0.004 A 
ENDROOT
TORSDOF 0
ENDMDL
