MODEL 1
REMARK minimizedAffinity 7.88190365
REMARK minimizedRMSD -1
REMARK  0 active torsions:
REMARK  status: ('A' for Active; 'I' for Inactive)
ROOT
ATOM      1  C   UNL d   1       4.032   1.968  -2.679  0.00  0.00     0.124 A 
ATOM      2  C1  UNL d   1       2.710   1.543  -2.680  0.00  0.00     0.062 A 
ATOM      3  C2  UNL d   1       1.871   1.863  -1.616  0.00  0.00     0.162 A 
ATOM      4  C3  UNL d   1       2.351   2.612  -0.542  0.00  0.00    -0.034 A 
ATOM      5  C4  UNL d   1       3.682   3.034  -0.547  0.00  0.00     0.162 A 
ATOM      6  C5  UNL d   1       4.516   2.713  -1.613  0.00  0.00     0.062 A 
ATOM      7  F   UNL d   1       5.793   3.124  -1.609  0.00  0.00    -0.097 F 
ATOM      8  F1  UNL d   1       4.176   3.756   0.470  0.00  0.00    -0.096 F 
ATOM      9  I   UNL d   1       1.100   3.091   1.051  0.00  0.00    -0.060 I 
ATOM     10  F2  UNL d   1       0.599   1.439  -1.644  0.00  0.00    -0.096 F 
ATOM     11  F3  UNL d   1       2.240   0.823  -3.709  0.00  0.00    -0.097 F 
ATOM     12  F4  UNL d   1       4.837   1.659  -3.703  0.00  0.00    -0.092 F 
ENDROOT
TORSDOF 0
ENDMDL
