MODEL 1
REMARK minimizedAffinity 1.70528364
REMARK minimizedRMSD -1
REMARK  0 active torsions:
REMARK  status: ('A' for Active; 'I' for Inactive)
ROOT
ATOM      1  C   UNL d   1       5.754  -2.382   2.468  0.00  0.00     0.124 A 
ATOM      2  C1  UNL d   1       5.760  -3.707   2.054  0.00  0.00     0.062 A 
ATOM      3  C2  UNL d   1       5.522  -4.727   2.971  0.00  0.00     0.162 A 
ATOM      4  C3  UNL d   1       5.275  -4.427   4.310  0.00  0.00    -0.034 A 
ATOM      5  C4  UNL d   1       5.272  -3.092   4.719  0.00  0.00     0.162 A 
ATOM      6  C5  UNL d   1       5.511  -2.076   3.799  0.00  0.00     0.062 A 
ATOM      7  F   UNL d   1       5.505  -0.796   4.201  0.00  0.00    -0.097 F 
ATOM      8  F1  UNL d   1       5.039  -2.767   5.999  0.00  0.00    -0.096 F 
ATOM      9  I   UNL d   1       4.919  -5.949   5.684  0.00  0.00    -0.060 I 
ATOM     10  F2  UNL d   1       5.533  -5.999   2.543  0.00  0.00    -0.096 F 
ATOM     11  F3  UNL d   1       5.995  -4.006   0.769  0.00  0.00    -0.097 F 
ATOM     12  F4  UNL d   1       5.984  -1.402   1.584  0.00  0.00    -0.092 F 
ENDROOT
TORSDOF 0
ENDMDL
