MODEL 1
REMARK minimizedAffinity -0.397976041
REMARK minimizedRMSD -1
REMARK  0 active torsions:
REMARK  status: ('A' for Active; 'I' for Inactive)
ROOT
ATOM      1  C   UNL d   1       5.729  -2.400   2.385  0.00  0.00     0.124 A 
ATOM      2  C1  UNL d   1       5.591  -2.026   3.714  0.00  0.00     0.062 A 
ATOM      3  C2  UNL d   1       5.588  -2.992   4.717  0.00  0.00     0.162 A 
ATOM      4  C3  UNL d   1       5.726  -4.342   4.394  0.00  0.00    -0.034 A 
ATOM      5  C4  UNL d   1       5.864  -4.711   3.054  0.00  0.00     0.162 A 
ATOM      6  C5  UNL d   1       5.866  -3.742   2.056  0.00  0.00     0.062 A 
ATOM      7  F   UNL d   1       6.000  -4.105   0.772  0.00  0.00    -0.097 F 
ATOM      8  F1  UNL d   1       5.999  -6.000   2.709  0.00  0.00    -0.096 F 
ATOM      9  I   UNL d   1       5.723  -5.789   5.890  0.00  0.00    -0.060 I 
ATOM     10  F2  UNL d   1       5.453  -2.602   5.993  0.00  0.00    -0.096 F 
ATOM     11  F3  UNL d   1       5.458  -0.731   4.035  0.00  0.00    -0.097 F 
ATOM     12  F4  UNL d   1       5.730  -1.469   1.423  0.00  0.00    -0.092 F 
ENDROOT
TORSDOF 0
ENDMDL
