MODEL 1
REMARK minimizedAffinity -0.375782758
REMARK minimizedRMSD -1
REMARK  0 active torsions:
REMARK  status: ('A' for Active; 'I' for Inactive)
ROOT
ATOM      1  C   UNL d   1       5.889  -2.393   2.223  0.00  0.00     0.124 A 
ATOM      2  C1  UNL d   1       5.889  -2.101   3.579  0.00  0.00     0.062 A 
ATOM      3  C2  UNL d   1       5.773  -3.124   4.516  0.00  0.00     0.162 A 
ATOM      4  C3  UNL d   1       5.657  -4.450   4.099  0.00  0.00    -0.034 A 
ATOM      5  C4  UNL d   1       5.657  -4.736   2.733  0.00  0.00     0.162 A 
ATOM      6  C5  UNL d   1       5.773  -3.710   1.801  0.00  0.00     0.062 A 
ATOM      7  F   UNL d   1       5.773  -3.995   0.490  0.00  0.00    -0.097 F 
ATOM      8  F1  UNL d   1       5.547  -6.000   2.297  0.00  0.00    -0.096 F 
ATOM      9  I   UNL d   1       5.484  -5.982   5.496  0.00  0.00    -0.060 I 
ATOM     10  F2  UNL d   1       5.776  -2.812   5.821  0.00  0.00    -0.096 F 
ATOM     11  F3  UNL d   1       6.000  -0.829   3.990  0.00  0.00    -0.097 F 
ATOM     12  F4  UNL d   1       6.000  -1.407   1.324  0.00  0.00    -0.092 F 
ENDROOT
TORSDOF 0
ENDMDL
