MODEL 1
REMARK minimizedAffinity -0.594037056
REMARK minimizedRMSD -1
REMARK  0 active torsions:
REMARK  status: ('A' for Active; 'I' for Inactive)
ROOT
ATOM      1  C   UNL d   1       5.634  -2.394   2.421  0.00  0.00     0.124 A 
ATOM      2  C1  UNL d   1       5.818  -3.707   2.012  0.00  0.00     0.062 A 
ATOM      3  C2  UNL d   1       5.818  -4.739   2.946  0.00  0.00     0.162 A 
ATOM      4  C3  UNL d   1       5.631  -4.461   4.300  0.00  0.00    -0.034 A 
ATOM      5  C4  UNL d   1       5.447  -3.137   4.705  0.00  0.00     0.162 A 
ATOM      6  C5  UNL d   1       5.448  -2.110   3.766  0.00  0.00     0.062 A 
ATOM      7  F   UNL d   1       5.270  -0.842   4.164  0.00  0.00    -0.097 F 
ATOM      8  F1  UNL d   1       5.264  -2.835   5.999  0.00  0.00    -0.096 F 
ATOM      9  I   UNL d   1       5.629  -6.000   5.701  0.00  0.00    -0.060 I 
ATOM     10  F2  UNL d   1       5.998  -5.998   2.522  0.00  0.00    -0.096 F 
ATOM     11  F3  UNL d   1       5.999  -3.984   0.712  0.00  0.00    -0.097 F 
ATOM     12  F4  UNL d   1       5.636  -1.404   1.519  0.00  0.00    -0.092 F 
ENDROOT
TORSDOF 0
ENDMDL
