MODEL 1
REMARK minimizedAffinity 16.8905792
REMARK minimizedRMSD -1
REMARK  0 active torsions:
REMARK  status: ('A' for Active; 'I' for Inactive)
ROOT
ATOM      1  C   UNL d   1       2.160   4.371   1.406  0.00  0.00     0.124 A 
ATOM      2  C1  UNL d   1       1.838   3.331   0.545  0.00  0.00     0.062 A 
ATOM      3  C2  UNL d   1       0.518   2.909   0.420  0.00  0.00     0.162 A 
ATOM      4  C3  UNL d   1      -0.492   3.529   1.156  0.00  0.00    -0.034 A 
ATOM      5  C4  UNL d   1      -0.160   4.574   2.020  0.00  0.00     0.162 A 
ATOM      6  C5  UNL d   1       1.161   4.992   2.142  0.00  0.00     0.062 A 
ATOM      7  F   UNL d   1       1.470   5.997   2.974  0.00  0.00    -0.097 F 
ATOM      8  F1  UNL d   1      -1.106   5.192   2.743  0.00  0.00    -0.096 F 
ATOM      9  I   UNL d   1      -2.467   2.901   0.971  0.00  0.00    -0.060 I 
ATOM     10  F2  UNL d   1       0.236   1.901  -0.420  0.00  0.00    -0.096 F 
ATOM     11  F3  UNL d   1       2.802   2.729  -0.167  0.00  0.00    -0.097 F 
ATOM     12  F4  UNL d   1       3.432   4.775   1.525  0.00  0.00    -0.092 F 
ENDROOT
TORSDOF 0
ENDMDL
