MODEL 1
REMARK minimizedAffinity -1.14360952
REMARK minimizedRMSD -1
REMARK  0 active torsions:
REMARK  status: ('A' for Active; 'I' for Inactive)
ROOT
ATOM      1  C   UNL d   1       5.999  -2.380   2.331  0.00  0.00     0.124 A 
ATOM      2  C1  UNL d   1       5.999  -3.712   1.943  0.00  0.00     0.062 A 
ATOM      3  C2  UNL d   1       6.000  -4.721   2.902  0.00  0.00     0.162 A 
ATOM      4  C3  UNL d   1       5.999  -4.401   4.259  0.00  0.00    -0.034 A 
ATOM      5  C4  UNL d   1       6.000  -3.059   4.643  0.00  0.00     0.162 A 
ATOM      6  C5  UNL d   1       5.999  -2.054   3.680  0.00  0.00     0.062 A 
ATOM      7  F   UNL d   1       5.999  -0.768   4.058  0.00  0.00    -0.097 F 
ATOM      8  F1  UNL d   1       5.999  -2.716   5.939  0.00  0.00    -0.096 F 
ATOM      9  I   UNL d   1       5.999  -5.907   5.696  0.00  0.00    -0.060 I 
ATOM     10  F2  UNL d   1       6.000  -6.000   2.497  0.00  0.00    -0.096 F 
ATOM     11  F3  UNL d   1       6.000  -4.029   0.640  0.00  0.00    -0.097 F 
ATOM     12  F4  UNL d   1       6.000  -1.411   1.407  0.00  0.00    -0.092 F 
ENDROOT
TORSDOF 0
ENDMDL
