MODEL 1
REMARK minimizedAffinity 6.11406851
REMARK minimizedRMSD -1
REMARK  0 active torsions:
REMARK  status: ('A' for Active; 'I' for Inactive)
ROOT
ATOM      1  C   UNL d   1       4.406  -2.758   2.502  0.00  0.00     0.124 A 
ATOM      2  C1  UNL d   1       5.075  -2.701   3.717  0.00  0.00     0.062 A 
ATOM      3  C2  UNL d   1       4.788  -3.626   4.717  0.00  0.00     0.162 A 
ATOM      4  C3  UNL d   1       3.828  -4.616   4.506  0.00  0.00    -0.034 A 
ATOM      5  C4  UNL d   1       3.160  -4.665   3.282  0.00  0.00     0.162 A 
ATOM      6  C5  UNL d   1       3.450  -3.739   2.286  0.00  0.00     0.062 A 
ATOM      7  F   UNL d   1       2.803  -3.795   1.112  0.00  0.00    -0.097 F 
ATOM      8  F1  UNL d   1       2.231  -5.604   3.046  0.00  0.00    -0.096 F 
ATOM      9  I   UNL d   1       3.397  -6.000   6.000  0.00  0.00    -0.060 I 
ATOM     10  F2  UNL d   1       5.450  -3.547   5.881  0.00  0.00    -0.096 F 
ATOM     11  F3  UNL d   1       5.999  -1.753   3.929  0.00  0.00    -0.097 F 
ATOM     12  F4  UNL d   1       4.684  -1.866   1.541  0.00  0.00    -0.092 F 
ENDROOT
TORSDOF 0
ENDMDL
