MODEL 1
REMARK minimizedAffinity 2.49140763
REMARK minimizedRMSD -1
REMARK  0 active torsions:
REMARK  status: ('A' for Active; 'I' for Inactive)
ROOT
ATOM      1  C   UNL d   1       5.966  -3.847   1.552  0.00  0.00     0.124 A 
ATOM      2  C1  UNL d   1       5.979  -2.466   1.689  0.00  0.00     0.062 A 
ATOM      3  C2  UNL d   1       5.976  -1.888   2.955  0.00  0.00     0.162 A 
ATOM      4  C3  UNL d   1       5.961  -2.691   4.095  0.00  0.00    -0.034 A 
ATOM      5  C4  UNL d   1       5.947  -4.079   3.950  0.00  0.00     0.162 A 
ATOM      6  C5  UNL d   1       5.950  -4.652   2.682  0.00  0.00     0.062 A 
ATOM      7  F   UNL d   1       5.938  -5.987   2.552  0.00  0.00    -0.097 F 
ATOM      8  F1  UNL d   1       5.932  -4.881   5.025  0.00  0.00    -0.096 F 
ATOM      9  I   UNL d   1       5.956  -1.830   5.990  0.00  0.00    -0.060 I 
ATOM     10  F2  UNL d   1       5.989  -0.550   3.057  0.00  0.00    -0.096 F 
ATOM     11  F3  UNL d   1       5.994  -1.686   0.598  0.00  0.00    -0.097 F 
ATOM     12  F4  UNL d   1       5.969  -4.400   0.333  0.00  0.00    -0.092 F 
ENDROOT
TORSDOF 0
ENDMDL
