MODEL 1
REMARK minimizedAffinity 8.03947735
REMARK minimizedRMSD -1
REMARK  0 active torsions:
REMARK  status: ('A' for Active; 'I' for Inactive)
ROOT
ATOM      1  C   UNL d   1       5.906  -2.371   2.366  0.00  0.00     0.124 A 
ATOM      2  C1  UNL d   1       5.843  -1.939   3.684  0.00  0.00     0.062 A 
ATOM      3  C2  UNL d   1       5.805  -2.864   4.723  0.00  0.00     0.162 A 
ATOM      4  C3  UNL d   1       5.830  -4.231   4.449  0.00  0.00    -0.034 A 
ATOM      5  C4  UNL d   1       5.892  -4.658   3.121  0.00  0.00     0.162 A 
ATOM      6  C5  UNL d   1       5.930  -3.729   2.086  0.00  0.00     0.062 A 
ATOM      7  F   UNL d   1       5.990  -4.149   0.814  0.00  0.00    -0.097 F 
ATOM      8  F1  UNL d   1       5.918  -5.966   2.822  0.00  0.00    -0.096 F 
ATOM      9  I   UNL d   1       5.774  -5.618   5.999  0.00  0.00    -0.060 I 
ATOM     10  F2  UNL d   1       5.745  -2.418   5.987  0.00  0.00    -0.096 F 
ATOM     11  F3  UNL d   1       5.819  -0.626   3.957  0.00  0.00    -0.097 F 
ATOM     12  F4  UNL d   1       5.941  -1.478   1.369  0.00  0.00    -0.092 F 
ENDROOT
TORSDOF 0
ENDMDL
