MODEL 1
REMARK minimizedAffinity -5.83448887
REMARK minimizedRMSD -1
REMARK  0 active torsions:
REMARK  status: ('A' for Active; 'I' for Inactive)
ROOT
ATOM      1  C   UNL d   1       0.367  -1.972  -2.934  0.00  0.00     0.078 C 
ATOM      2  C1  UNL d   1       0.141  -1.888  -1.454  0.00  0.00    -0.077 A 
ATOM      3  C2  UNL d   1       0.203  -0.661  -0.784  0.00  0.00    -0.001 A 
ATOM      4  C3  UNL d   1       0.001  -0.599   0.596  0.00  0.00     0.003 A 
ATOM      5  C4  UNL d   1      -0.264  -1.762   1.317  0.00  0.00    -0.005 A 
ATOM      6  C5  UNL d   1      -0.326  -2.988   0.658  0.00  0.00     0.003 A 
ATOM      7  C6  UNL d   1      -0.123  -3.052  -0.721  0.00  0.00    -0.001 A 
ENDROOT
TORSDOF 0
ENDMDL
