MODEL 1
REMARK minimizedAffinity -4.46881676
REMARK minimizedRMSD -1
REMARK  0 active torsions:
REMARK  status: ('A' for Active; 'I' for Inactive)
ROOT
ATOM      1  C   UNL d   1       0.648   0.928  -0.251  0.00  0.00     0.078 C 
ATOM      2  C1  UNL d   1       0.203  -0.484  -0.012  0.00  0.00    -0.077 A 
ATOM      3  C2  UNL d   1       0.834  -1.557  -0.655  0.00  0.00    -0.001 A 
ATOM      4  C3  UNL d   1       0.403  -2.865  -0.431  0.00  0.00     0.003 A 
ATOM      5  C4  UNL d   1      -0.660  -3.113   0.435  0.00  0.00    -0.005 A 
ATOM      6  C5  UNL d   1      -1.295  -2.052   1.077  0.00  0.00     0.003 A 
ATOM      7  C6  UNL d   1      -0.866  -0.743   0.855  0.00  0.00    -0.001 A 
ENDROOT
TORSDOF 0
ENDMDL
