MODEL 1
REMARK minimizedAffinity -3.68889761
REMARK minimizedRMSD -1
REMARK  0 active torsions:
REMARK  status: ('A' for Active; 'I' for Inactive)
ROOT
ATOM      1  C   UNL d   1      -0.625  -2.692  -2.895  0.00  0.00     0.078 C 
ATOM      2  C1  UNL d   1      -0.592  -1.701  -1.770  0.00  0.00    -0.077 A 
ATOM      3  C2  UNL d   1      -1.029  -2.052  -0.487  0.00  0.00    -0.001 A 
ATOM      4  C3  UNL d   1      -1.002  -1.116   0.549  0.00  0.00     0.003 A 
ATOM      5  C4  UNL d   1      -0.539   0.177   0.311  0.00  0.00    -0.005 A 
ATOM      6  C5  UNL d   1      -0.104   0.536  -0.963  0.00  0.00     0.003 A 
ATOM      7  C6  UNL d   1      -0.131  -0.399  -1.999  0.00  0.00    -0.001 A 
ENDROOT
TORSDOF 0
ENDMDL
