MODEL 1
REMARK minimizedAffinity -5.29129314
REMARK minimizedRMSD -1
REMARK  0 active torsions:
REMARK  status: ('A' for Active; 'I' for Inactive)
ROOT
ATOM      1  C   UNL d   1       0.372   0.685  -0.448  0.00  0.00     0.078 C 
ATOM      2  C1  UNL d   1       0.073  -0.784  -0.405  0.00  0.00    -0.077 A 
ATOM      3  C2  UNL d   1       0.171  -1.574  -1.556  0.00  0.00    -0.001 A 
ATOM      4  C3  UNL d   1      -0.120  -2.938  -1.503  0.00  0.00     0.003 A 
ATOM      5  C4  UNL d   1      -0.512  -3.524  -0.301  0.00  0.00    -0.005 A 
ATOM      6  C5  UNL d   1      -0.614  -2.745   0.850  0.00  0.00     0.003 A 
ATOM      7  C6  UNL d   1      -0.324  -1.381   0.799  0.00  0.00    -0.001 A 
ENDROOT
TORSDOF 0
ENDMDL
