MODEL 1
REMARK minimizedAffinity -4.55596495
REMARK minimizedRMSD -1
REMARK  0 active torsions:
REMARK  status: ('A' for Active; 'I' for Inactive)
ROOT
ATOM      1  C   UNL d   1      -0.570  -3.059   0.367  0.00  0.00     0.078 C 
ATOM      2  C1  UNL d   1      -0.360  -1.585   0.183  0.00  0.00    -0.077 A 
ATOM      3  C2  UNL d   1       0.031  -1.062  -1.055  0.00  0.00    -0.001 A 
ATOM      4  C3  UNL d   1       0.232   0.311  -1.210  0.00  0.00     0.003 A 
ATOM      5  C4  UNL d   1       0.045   1.171  -0.129  0.00  0.00    -0.005 A 
ATOM      6  C5  UNL d   1      -0.342   0.659   1.107  0.00  0.00     0.003 A 
ATOM      7  C6  UNL d   1      -0.543  -0.713   1.264  0.00  0.00    -0.001 A 
ENDROOT
TORSDOF 0
ENDMDL
