MODEL 1
REMARK minimizedAffinity -5.59314966
REMARK minimizedRMSD -1
REMARK  0 active torsions:
REMARK  status: ('A' for Active; 'I' for Inactive)
ROOT
ATOM      1  C   UNL d   1       0.442   1.241   0.456  0.00  0.00     0.078 C 
ATOM      2  C1  UNL d   1       0.230  -0.242   0.394  0.00  0.00    -0.077 A 
ATOM      3  C2  UNL d   1      -0.444  -0.917   1.418  0.00  0.00    -0.001 A 
ATOM      4  C3  UNL d   1      -0.626  -2.300   1.352  0.00  0.00     0.003 A 
ATOM      5  C4  UNL d   1      -0.135  -3.019   0.264  0.00  0.00    -0.005 A 
ATOM      6  C5  UNL d   1       0.538  -2.355  -0.760  0.00  0.00     0.003 A 
ATOM      7  C6  UNL d   1       0.721  -0.973  -0.695  0.00  0.00    -0.001 A 
ENDROOT
TORSDOF 0
ENDMDL
