MODEL 1
REMARK minimizedAffinity -3.05280685
REMARK minimizedRMSD -1
REMARK  0 active torsions:
REMARK  status: ('A' for Active; 'I' for Inactive)
ROOT
ATOM      1  C   UNL d   1       1.149   1.383   0.090  0.00  0.00     0.078 C 
ATOM      2  C1  UNL d   1       0.470   0.089   0.425  0.00  0.00    -0.077 A 
ATOM      3  C2  UNL d   1       1.061  -1.140   0.105  0.00  0.00    -0.001 A 
ATOM      4  C3  UNL d   1       0.413  -2.337   0.414  0.00  0.00     0.003 A 
ATOM      5  C4  UNL d   1      -0.830  -2.317   1.044  0.00  0.00    -0.005 A 
ATOM      6  C5  UNL d   1      -1.427  -1.099   1.364  0.00  0.00     0.003 A 
ATOM      7  C6  UNL d   1      -0.781   0.099   1.055  0.00  0.00    -0.001 A 
ENDROOT
TORSDOF 0
ENDMDL
