MODEL 1
REMARK minimizedAffinity -4.61997938
REMARK minimizedRMSD -1
REMARK  0 active torsions:
REMARK  status: ('A' for Active; 'I' for Inactive)
ROOT
ATOM      1  C   UNL d   1      -0.809  -0.828   0.313  0.00  0.00     0.078 C 
ATOM      2  C1  UNL d   1       0.032   0.411   0.392  0.00  0.00    -0.077 A 
ATOM      3  C2  UNL d   1      -0.378   1.601  -0.222  0.00  0.00    -0.001 A 
ATOM      4  C3  UNL d   1       0.419   2.744  -0.148  0.00  0.00     0.003 A 
ATOM      5  C4  UNL d   1       1.632   2.709   0.536  0.00  0.00    -0.005 A 
ATOM      6  C5  UNL d   1       2.050   1.528   1.148  0.00  0.00     0.003 A 
ATOM      7  C6  UNL d   1       1.254   0.384   1.076  0.00  0.00    -0.001 A 
ENDROOT
TORSDOF 0
ENDMDL
