MODEL 1
REMARK minimizedAffinity -2.86082339
REMARK minimizedRMSD -1
REMARK  0 active torsions:
REMARK  status: ('A' for Active; 'I' for Inactive)
ROOT
ATOM      1  C   UNL d   1       0.371   1.274  -0.066  0.00  0.00     0.078 C 
ATOM      2  C1  UNL d   1       0.012  -0.152   0.232  0.00  0.00    -0.077 A 
ATOM      3  C2  UNL d   1      -1.194  -0.475   0.866  0.00  0.00    -0.001 A 
ATOM      4  C3  UNL d   1      -1.510  -1.805   1.145  0.00  0.00     0.003 A 
ATOM      5  C4  UNL d   1      -0.626  -2.823   0.796  0.00  0.00    -0.005 A 
ATOM      6  C5  UNL d   1       0.578  -2.511   0.167  0.00  0.00     0.003 A 
ATOM      7  C6  UNL d   1       0.896  -1.182  -0.114  0.00  0.00    -0.001 A 
ENDROOT
TORSDOF 0
ENDMDL
