MODEL 1
REMARK minimizedAffinity -5.49119949
REMARK minimizedRMSD -1
REMARK  0 active torsions:
REMARK  status: ('A' for Active; 'I' for Inactive)
ROOT
ATOM      1  C   UNL d   1       0.962   1.316   0.379  0.00  0.00     0.078 C 
ATOM      2  C1  UNL d   1       0.461  -0.095   0.305  0.00  0.00    -0.077 A 
ATOM      3  C2  UNL d   1      -0.319  -0.639   1.333  0.00  0.00    -0.001 A 
ATOM      4  C3  UNL d   1      -0.770  -1.957   1.255  0.00  0.00     0.003 A 
ATOM      5  C4  UNL d   1      -0.445  -2.744   0.152  0.00  0.00    -0.005 A 
ATOM      6  C5  UNL d   1       0.334  -2.213  -0.874  0.00  0.00     0.003 A 
ATOM      7  C6  UNL d   1       0.785  -0.894  -0.798  0.00  0.00    -0.001 A 
ENDROOT
TORSDOF 0
ENDMDL
