MODEL 1
REMARK minimizedAffinity -5.01969433
REMARK minimizedRMSD -1
REMARK  0 active torsions:
REMARK  status: ('A' for Active; 'I' for Inactive)
ROOT
ATOM      1  C   UNL d   1       0.506   1.782   0.326  0.00  0.00     0.078 C 
ATOM      2  C1  UNL d   1       0.069   0.352   0.427  0.00  0.00    -0.077 A 
ATOM      3  C2  UNL d   1      -0.579  -0.125   1.573  0.00  0.00    -0.001 A 
ATOM      4  C3  UNL d   1      -0.972  -1.462   1.657  0.00  0.00     0.003 A 
ATOM      5  C4  UNL d   1      -0.720  -2.333   0.599  0.00  0.00    -0.005 A 
ATOM      6  C5  UNL d   1      -0.074  -1.868  -0.544  0.00  0.00     0.003 A 
ATOM      7  C6  UNL d   1       0.319  -0.532  -0.630  0.00  0.00    -0.001 A 
ENDROOT
TORSDOF 0
ENDMDL
