MODEL 1
REMARK minimizedAffinity -4.43250561
REMARK minimizedRMSD -1
REMARK  0 active torsions:
REMARK  status: ('A' for Active; 'I' for Inactive)
ROOT
ATOM      1  C   UNL d   1      -0.272  -3.532   0.420  0.00  0.00     0.078 C 
ATOM      2  C1  UNL d   1      -0.158  -2.049   0.229  0.00  0.00    -0.077 A 
ATOM      3  C2  UNL d   1       0.334  -1.512  -0.966  0.00  0.00    -0.001 A 
ATOM      4  C3  UNL d   1       0.444  -0.130  -1.126  0.00  0.00     0.003 A 
ATOM      5  C4  UNL d   1       0.066   0.727  -0.094  0.00  0.00    -0.005 A 
ATOM      6  C5  UNL d   1      -0.423   0.201   1.100  0.00  0.00     0.003 A 
ATOM      7  C6  UNL d   1      -0.534  -1.181   1.262  0.00  0.00    -0.001 A 
ENDROOT
TORSDOF 0
ENDMDL
