MODEL 1
REMARK minimizedAffinity -3.44578052
REMARK minimizedRMSD -1
REMARK  0 active torsions:
REMARK  status: ('A' for Active; 'I' for Inactive)
ROOT
ATOM      1  C   UNL d   1       0.352  -1.687  -2.341  0.00  0.00     0.078 C 
ATOM      2  C1  UNL d   1       0.043  -1.634  -0.874  0.00  0.00    -0.077 A 
ATOM      3  C2  UNL d   1      -0.012  -2.803  -0.106  0.00  0.00    -0.001 A 
ATOM      4  C3  UNL d   1      -0.311  -2.739   1.256  0.00  0.00     0.003 A 
ATOM      5  C4  UNL d   1      -0.558  -1.509   1.861  0.00  0.00    -0.005 A 
ATOM      6  C5  UNL d   1      -0.508  -0.340   1.104  0.00  0.00     0.003 A 
ATOM      7  C6  UNL d   1      -0.210  -0.402  -0.258  0.00  0.00    -0.001 A 
ENDROOT
TORSDOF 0
ENDMDL
