MODEL 1
REMARK minimizedAffinity -1.49307883
REMARK minimizedRMSD -1
REMARK  0 active torsions:
REMARK  status: ('A' for Active; 'I' for Inactive)
ROOT
ATOM      1  C   UNL d   1       1.033  -2.859   0.033  0.00  0.00     0.077 C 
ATOM      2  C1  UNL d   1       0.261  -1.593   0.262  0.00  0.00    -0.074 A 
ATOM      3  C2  UNL d   1      -0.891  -1.588   1.056  0.00  0.00    -0.005 A 
ATOM      4  C3  UNL d   1      -1.593  -0.401   1.268  0.00  0.00     0.006 A 
ATOM      5  C4  UNL d   1      -1.152   0.790   0.690  0.00  0.00    -0.005 A 
ATOM      6  C5  UNL d   1      -0.001   0.804  -0.106  0.00  0.00    -0.074 A 
ATOM      7  C6  UNL d   1       0.492   2.077  -0.726  0.00  0.00     0.077 C 
ATOM      8  C7  UNL d   1       0.703  -0.391  -0.308  0.00  0.00    -0.001 A 
ENDROOT
TORSDOF 0
ENDMDL
