MODEL 1
REMARK minimizedAffinity -2.73257804
REMARK minimizedRMSD -1
REMARK  0 active torsions:
REMARK  status: ('A' for Active; 'I' for Inactive)
ROOT
ATOM      1  C   UNL d   1       0.741   0.759  -2.402  0.00  0.00     0.077 C 
ATOM      2  C1  UNL d   1       0.158   0.344  -1.084  0.00  0.00    -0.074 A 
ATOM      3  C2  UNL d   1      -0.366   1.293  -0.200  0.00  0.00    -0.005 A 
ATOM      4  C3  UNL d   1      -0.915   0.891   1.018  0.00  0.00     0.006 A 
ATOM      5  C4  UNL d   1      -0.945  -0.460   1.364  0.00  0.00    -0.005 A 
ATOM      6  C5  UNL d   1      -0.426  -1.423   0.492  0.00  0.00    -0.074 A 
ATOM      7  C6  UNL d   1      -0.460  -2.881   0.844  0.00  0.00     0.077 C 
ATOM      8  C7  UNL d   1       0.117  -1.012  -0.733  0.00  0.00    -0.001 A 
ENDROOT
TORSDOF 0
ENDMDL
