MODEL 1
REMARK minimizedAffinity -2.60888243
REMARK minimizedRMSD -1
REMARK  0 active torsions:
REMARK  status: ('A' for Active; 'I' for Inactive)
ROOT
ATOM      1  C   UNL d   1      -0.458  -2.282   0.749  0.00  0.00     0.077 C 
ATOM      2  C1  UNL d   1      -0.016  -1.068  -0.013  0.00  0.00    -0.074 A 
ATOM      3  C2  UNL d   1       0.431  -1.172  -1.335  0.00  0.00    -0.005 A 
ATOM      4  C3  UNL d   1       0.829  -0.033  -2.034  0.00  0.00     0.006 A 
ATOM      5  C4  UNL d   1       0.786   1.219  -1.421  0.00  0.00    -0.005 A 
ATOM      6  C5  UNL d   1       0.341   1.343  -0.101  0.00  0.00    -0.074 A 
ATOM      7  C6  UNL d   1       0.278   2.683   0.570  0.00  0.00     0.077 C 
ATOM      8  C7  UNL d   1      -0.064   0.195   0.593  0.00  0.00    -0.001 A 
ENDROOT
TORSDOF 0
ENDMDL
