MODEL 1
REMARK minimizedAffinity -3.80418181
REMARK minimizedRMSD -1
REMARK  0 active torsions:
REMARK  status: ('A' for Active; 'I' for Inactive)
ROOT
ATOM      1  C   UNL d   1      -2.671  -2.841   1.303  0.00  0.00     0.077 C 
ATOM      2  C1  UNL d   1      -1.385  -2.329   0.725  0.00  0.00    -0.074 A 
ATOM      3  C2  UNL d   1      -0.414  -3.210   0.239  0.00  0.00    -0.005 A 
ATOM      4  C3  UNL d   1       0.773  -2.718  -0.304  0.00  0.00     0.006 A 
ATOM      5  C4  UNL d   1       1.000  -1.343  -0.366  0.00  0.00    -0.005 A 
ATOM      6  C5  UNL d   1       0.041  -0.447   0.115  0.00  0.00    -0.074 A 
ATOM      7  C6  UNL d   1       0.265   1.035   0.046  0.00  0.00     0.077 C 
ATOM      8  C7  UNL d   1      -1.153  -0.948   0.652  0.00  0.00    -0.001 A 
ENDROOT
TORSDOF 0
ENDMDL
