MODEL 1
REMARK minimizedAffinity -3.74842262
REMARK minimizedRMSD -1
REMARK  0 active torsions:
REMARK  status: ('A' for Active; 'I' for Inactive)
ROOT
ATOM      1  C   UNL d   1       1.095  -3.007  -0.003  0.00  0.00     0.077 C 
ATOM      2  C1  UNL d   1       0.548  -1.610  -0.017  0.00  0.00    -0.074 A 
ATOM      3  C2  UNL d   1       0.960  -0.686  -0.983  0.00  0.00    -0.005 A 
ATOM      4  C3  UNL d   1       0.435   0.606  -0.989  0.00  0.00     0.006 A 
ATOM      5  C4  UNL d   1      -0.507   0.986  -0.032  0.00  0.00    -0.005 A 
ATOM      6  C5  UNL d   1      -0.932   0.075   0.941  0.00  0.00    -0.074 A 
ATOM      7  C6  UNL d   1      -1.950   0.465   1.970  0.00  0.00     0.077 C 
ATOM      8  C7  UNL d   1      -0.405  -1.223   0.936  0.00  0.00    -0.001 A 
ENDROOT
TORSDOF 0
ENDMDL
