MODEL 1
REMARK minimizedAffinity -4.50094271
REMARK minimizedRMSD -1
REMARK  0 active torsions:
REMARK  status: ('A' for Active; 'I' for Inactive)
ROOT
ATOM      1  C   UNL d   1       0.752   0.762  -2.464  0.00  0.00     0.077 C 
ATOM      2  C1  UNL d   1       0.654  -0.228  -1.342  0.00  0.00    -0.074 A 
ATOM      3  C2  UNL d   1       1.176  -1.519  -1.475  0.00  0.00    -0.005 A 
ATOM      4  C3  UNL d   1       1.086  -2.426  -0.419  0.00  0.00     0.006 A 
ATOM      5  C4  UNL d   1       0.474  -2.053   0.778  0.00  0.00    -0.005 A 
ATOM      6  C5  UNL d   1      -0.053  -0.766   0.929  0.00  0.00    -0.074 A 
ATOM      7  C6  UNL d   1      -0.705  -0.345   2.213  0.00  0.00     0.077 C 
ATOM      8  C7  UNL d   1       0.048   0.142  -0.134  0.00  0.00    -0.001 A 
ENDROOT
TORSDOF 0
ENDMDL
