MODEL 1
REMARK minimizedAffinity 0.745821476
REMARK minimizedRMSD -1
REMARK  0 active torsions:
REMARK  status: ('A' for Active; 'I' for Inactive)
ROOT
ATOM      1  C   UNL d   1       1.895   2.733   0.738  0.00  0.00     0.077 C 
ATOM      2  C1  UNL d   1       1.019   1.556   0.429  0.00  0.00    -0.074 A 
ATOM      3  C2  UNL d   1      -0.225   1.402   1.050  0.00  0.00    -0.005 A 
ATOM      4  C3  UNL d   1      -1.033   0.307   0.746  0.00  0.00     0.006 A 
ATOM      5  C4  UNL d   1      -0.606  -0.644  -0.182  0.00  0.00    -0.005 A 
ATOM      6  C5  UNL d   1       0.634  -0.507  -0.814  0.00  0.00    -0.074 A 
ATOM      7  C6  UNL d   1       1.103  -1.515  -1.820  0.00  0.00     0.077 C 
ATOM      8  C7  UNL d   1       1.437   0.600  -0.507  0.00  0.00    -0.001 A 
ENDROOT
TORSDOF 0
ENDMDL
