MODEL 1
REMARK minimizedAffinity -5.91501236
REMARK minimizedRMSD -1
REMARK  0 active torsions:
REMARK  status: ('A' for Active; 'I' for Inactive)
ROOT
ATOM      1  C   UNL d   1       0.248   1.284  -0.481  0.00  0.00     0.077 C 
ATOM      2  C1  UNL d   1      -0.084  -0.172  -0.335  0.00  0.00    -0.074 A 
ATOM      3  C2  UNL d   1      -0.656  -0.664   0.842  0.00  0.00    -0.005 A 
ATOM      4  C3  UNL d   1      -0.968  -2.019   0.959  0.00  0.00     0.006 A 
ATOM      5  C4  UNL d   1      -0.711  -2.893  -0.098  0.00  0.00    -0.005 A 
ATOM      6  C5  UNL d   1      -0.140  -2.418  -1.283  0.00  0.00    -0.074 A 
ATOM      7  C6  UNL d   1       0.133  -3.342  -2.432  0.00  0.00     0.077 C 
ATOM      8  C7  UNL d   1       0.164  -1.055  -1.396  0.00  0.00    -0.001 A 
ENDROOT
TORSDOF 0
ENDMDL
