MODEL 1
REMARK minimizedAffinity -2.58977604
REMARK minimizedRMSD -1
REMARK  0 active torsions:
REMARK  status: ('A' for Active; 'I' for Inactive)
ROOT
ATOM      1  C   UNL d   1       0.447   0.951  -2.183  0.00  0.00     0.077 C 
ATOM      2  C1  UNL d   1      -0.032   0.169  -0.997  0.00  0.00    -0.074 A 
ATOM      3  C2  UNL d   1      -0.839   0.764  -0.022  0.00  0.00    -0.005 A 
ATOM      4  C3  UNL d   1      -1.285   0.022   1.071  0.00  0.00     0.006 A 
ATOM      5  C4  UNL d   1      -0.928  -1.321   1.201  0.00  0.00    -0.005 A 
ATOM      6  C5  UNL d   1      -0.122  -1.933   0.236  0.00  0.00    -0.074 A 
ATOM      7  C6  UNL d   1       0.262  -3.378   0.355  0.00  0.00     0.077 C 
ATOM      8  C7  UNL d   1       0.316  -1.182  -0.863  0.00  0.00    -0.001 A 
ENDROOT
TORSDOF 0
ENDMDL
