MODEL 1
REMARK minimizedAffinity -3.73608232
REMARK minimizedRMSD -1
REMARK  0 active torsions:
REMARK  status: ('A' for Active; 'I' for Inactive)
ROOT
ATOM      1  C   UNL d   1       0.406  -3.614   0.447  0.00  0.00     0.077 C 
ATOM      2  C1  UNL d   1       0.210  -2.152   0.177  0.00  0.00    -0.074 A 
ATOM      3  C2  UNL d   1       0.897  -1.514  -0.861  0.00  0.00    -0.005 A 
ATOM      4  C3  UNL d   1       0.697  -0.156  -1.106  0.00  0.00     0.006 A 
ATOM      5  C4  UNL d   1      -0.191   0.577  -0.318  0.00  0.00    -0.005 A 
ATOM      6  C5  UNL d   1      -0.888  -0.044   0.724  0.00  0.00    -0.074 A 
ATOM      7  C6  UNL d   1      -1.853   0.727   1.575  0.00  0.00     0.077 C 
ATOM      8  C7  UNL d   1      -0.686  -1.411   0.960  0.00  0.00    -0.001 A 
ENDROOT
TORSDOF 0
ENDMDL
