MODEL 1
REMARK minimizedAffinity -4.32520771
REMARK minimizedRMSD -1
REMARK  0 active torsions:
REMARK  status: ('A' for Active; 'I' for Inactive)
ROOT
ATOM      1  C   UNL d   1       0.729  -3.283   0.451  0.00  0.00     0.077 C 
ATOM      2  C1  UNL d   1       0.140  -1.903   0.449  0.00  0.00    -0.074 A 
ATOM      3  C2  UNL d   1      -1.245  -1.713   0.476  0.00  0.00    -0.005 A 
ATOM      4  C3  UNL d   1      -1.779  -0.425   0.484  0.00  0.00     0.006 A 
ATOM      5  C4  UNL d   1      -0.933   0.686   0.463  0.00  0.00    -0.005 A 
ATOM      6  C5  UNL d   1       0.454   0.515   0.436  0.00  0.00    -0.074 A 
ATOM      7  C6  UNL d   1       1.377   1.698   0.423  0.00  0.00     0.077 C 
ATOM      8  C7  UNL d   1       0.983  -0.783   0.436  0.00  0.00    -0.001 A 
ENDROOT
TORSDOF 0
ENDMDL
