MODEL 1
REMARK minimizedAffinity -4.17950201
REMARK minimizedRMSD -1
REMARK  0 active torsions:
REMARK  status: ('A' for Active; 'I' for Inactive)
ROOT
ATOM      1  C   UNL d   1       0.481  -3.506   0.396  0.00  0.00     0.077 C 
ATOM      2  C1  UNL d   1      -0.011  -2.103   0.594  0.00  0.00    -0.074 A 
ATOM      3  C2  UNL d   1      -1.278  -1.855   1.131  0.00  0.00    -0.005 A 
ATOM      4  C3  UNL d   1      -1.719  -0.545   1.318  0.00  0.00     0.006 A 
ATOM      5  C4  UNL d   1      -0.898   0.529   0.970  0.00  0.00    -0.005 A 
ATOM      6  C5  UNL d   1       0.373   0.300   0.432  0.00  0.00    -0.074 A 
ATOM      7  C6  UNL d   1       1.272   1.442   0.062  0.00  0.00     0.077 C 
ATOM      8  C7  UNL d   1       0.811  -1.020   0.254  0.00  0.00    -0.001 A 
ENDROOT
TORSDOF 0
ENDMDL
