MODEL 1
REMARK minimizedAffinity -3.56744671
REMARK minimizedRMSD -1
REMARK  0 active torsions:
REMARK  status: ('A' for Active; 'I' for Inactive)
ROOT
ATOM      1  C   UNL d   1      -0.390  -2.538   1.064  0.00  0.00     0.077 C 
ATOM      2  C1  UNL d   1      -0.107  -1.368   0.170  0.00  0.00    -0.074 A 
ATOM      3  C2  UNL d   1       0.202  -1.553  -1.181  0.00  0.00    -0.005 A 
ATOM      4  C3  UNL d   1       0.453  -0.454  -2.002  0.00  0.00     0.006 A 
ATOM      5  C4  UNL d   1       0.398   0.839  -1.482  0.00  0.00    -0.005 A 
ATOM      6  C5  UNL d   1       0.089   1.044  -0.133  0.00  0.00    -0.074 A 
ATOM      7  C6  UNL d   1       0.015   2.428   0.440  0.00  0.00     0.077 C 
ATOM      8  C7  UNL d   1      -0.169  -0.065   0.684  0.00  0.00    -0.001 A 
ENDROOT
TORSDOF 0
ENDMDL
