MODEL 1
REMARK minimizedAffinity -4.12280989
REMARK minimizedRMSD -1
REMARK  0 active torsions:
REMARK  status: ('A' for Active; 'I' for Inactive)
ROOT
ATOM      1  C   UNL d   1       0.818  -3.122   0.260  0.00  0.00     0.077 C 
ATOM      2  C1  UNL d   1      -0.034  -1.893   0.369  0.00  0.00    -0.074 A 
ATOM      3  C2  UNL d   1      -0.970  -1.756   1.400  0.00  0.00    -0.005 A 
ATOM      4  C3  UNL d   1      -1.748  -0.603   1.494  0.00  0.00     0.006 A 
ATOM      5  C4  UNL d   1      -1.600   0.423   0.560  0.00  0.00    -0.005 A 
ATOM      6  C5  UNL d   1      -0.670   0.304  -0.477  0.00  0.00    -0.074 A 
ATOM      7  C6  UNL d   1      -0.491   1.402  -1.484  0.00  0.00     0.077 C 
ATOM      8  C7  UNL d   1       0.114  -0.855  -0.561  0.00  0.00    -0.001 A 
ENDROOT
TORSDOF 0
ENDMDL
