MODEL 1
REMARK minimizedAffinity -2.31442833
REMARK minimizedRMSD -1
REMARK  0 active torsions:
REMARK  status: ('A' for Active; 'I' for Inactive)
ROOT
ATOM      1  C   UNL d   1       1.100  -0.101  -0.171  0.00  0.00    -0.002 A 
ATOM      2  C1  UNL d   1       0.685   1.085  -0.760  0.00  0.00     0.010 A 
ATOM      3  C2  UNL d   1      -0.426   1.108  -1.605  0.00  0.00     0.041 A 
ATOM      4  C3  UNL d   1      -1.122  -0.092  -1.849  0.00  0.00    -0.075 A 
ATOM      5  S   UNL d   1      -2.512  -0.304  -2.847  0.00  0.00     0.015 SA
ATOM      6  C4  UNL d   1      -2.588  -1.974  -2.515  0.00  0.00     0.022 A 
ATOM      7  C5  UNL d   1      -1.586  -2.377  -1.665  0.00  0.00     0.026 A 
ATOM      8  C6  UNL d   1      -0.724  -1.299  -1.267  0.00  0.00    -0.082 A 
ATOM      9  C7  UNL d   1       0.407  -1.290  -0.416  0.00  0.00     0.045 A 
ENDROOT
TORSDOF 0
ENDMDL
