MODEL 1
REMARK minimizedAffinity 2.86310649
REMARK minimizedRMSD -1
REMARK  0 active torsions:
REMARK  status: ('A' for Active; 'I' for Inactive)
ROOT
ATOM      1  C   UNL d   1      -4.105   5.998  -1.781  0.00  0.00    -0.002 A 
ATOM      2  C1  UNL d   1      -4.617   5.998  -3.071  0.00  0.00     0.010 A 
ATOM      3  C2  UNL d   1      -3.762   5.999  -4.175  0.00  0.00     0.041 A 
ATOM      4  C3  UNL d   1      -2.370   5.999  -3.959  0.00  0.00    -0.075 A 
ATOM      5  S   UNL d   1      -1.132   6.000  -5.158  0.00  0.00     0.015 SA
ATOM      6  C4  UNL d   1       0.106   6.000  -3.987  0.00  0.00     0.022 A 
ATOM      7  C5  UNL d   1      -0.395   5.999  -2.707  0.00  0.00     0.026 A 
ATOM      8  C6  UNL d   1      -1.830   5.999  -2.669  0.00  0.00    -0.082 A 
ATOM      9  C7  UNL d   1      -2.723   5.998  -1.571  0.00  0.00     0.045 A 
ENDROOT
TORSDOF 0
ENDMDL
