MODEL 1
REMARK minimizedAffinity 9.94397354
REMARK minimizedRMSD -1
REMARK  0 active torsions:
REMARK  status: ('A' for Active; 'I' for Inactive)
ROOT
ATOM      1  C   UNL d   1       1.667   6.000  -6.000  0.00  0.00    -0.002 A 
ATOM      2  C1  UNL d   1       0.760   5.216  -5.300  0.00  0.00     0.010 A 
ATOM      3  C2  UNL d   1       1.201   4.140  -4.526  0.00  0.00     0.041 A 
ATOM      4  C3  UNL d   1       2.581   3.864  -4.466  0.00  0.00    -0.075 A 
ATOM      5  S   UNL d   1       3.350   2.598  -3.583  0.00  0.00     0.015 SA
ATOM      6  C4  UNL d   1       4.900   3.069  -4.114  0.00  0.00     0.022 A 
ATOM      7  C5  UNL d   1       4.850   4.163  -4.945  0.00  0.00     0.026 A 
ATOM      8  C6  UNL d   1       3.513   4.639  -5.162  0.00  0.00    -0.082 A 
ATOM      9  C7  UNL d   1       3.035   5.722  -5.938  0.00  0.00     0.045 A 
ENDROOT
TORSDOF 0
ENDMDL
