MODEL 1
REMARK minimizedAffinity 10.2506104
REMARK minimizedRMSD -1
REMARK  0 active torsions:
REMARK  status: ('A' for Active; 'I' for Inactive)
ROOT
ATOM      1  C   UNL d   1       1.898   2.081   0.030  0.00  0.00    -0.002 A 
ATOM      2  C1  UNL d   1       1.517   1.210  -0.982  0.00  0.00     0.010 A 
ATOM      3  C2  UNL d   1       0.706   0.109  -0.703  0.00  0.00     0.041 A 
ATOM      4  C3  UNL d   1       0.278  -0.104   0.622  0.00  0.00    -0.075 A 
ATOM      5  S   UNL d   1      -0.721  -1.386   1.199  0.00  0.00     0.015 SA
ATOM      6  C4  UNL d   1      -0.666  -0.808   2.801  0.00  0.00     0.022 A 
ATOM      7  C5  UNL d   1       0.091   0.334   2.912  0.00  0.00     0.026 A 
ATOM      8  C6  UNL d   1       0.648   0.759   1.658  0.00  0.00    -0.082 A 
ATOM      9  C7  UNL d   1       1.471   1.866   1.343  0.00  0.00     0.045 A 
ENDROOT
TORSDOF 0
ENDMDL
