MODEL 1
REMARK minimizedAffinity 0.0646255836
REMARK minimizedRMSD -1
REMARK  0 active torsions:
REMARK  status: ('A' for Active; 'I' for Inactive)
ROOT
ATOM      1  C   UNL d   1       4.164   1.948   1.758  0.00  0.00    -0.002 A 
ATOM      2  C1  UNL d   1       3.639   1.114   2.735  0.00  0.00     0.010 A 
ATOM      3  C2  UNL d   1       2.288   0.762   2.718  0.00  0.00     0.041 A 
ATOM      4  C3  UNL d   1       1.465   1.267   1.691  0.00  0.00    -0.075 A 
ATOM      5  S   UNL d   1      -0.218   0.971   1.468  0.00  0.00     0.015 SA
ATOM      6  C4  UNL d   1      -0.281   1.945   0.071  0.00  0.00     0.022 A 
ATOM      7  C5  UNL d   1       0.944   2.490  -0.232  0.00  0.00     0.026 A 
ATOM      8  C6  UNL d   1       1.971   2.109   0.696  0.00  0.00    -0.082 A 
ATOM      9  C7  UNL d   1       3.345   2.447   0.742  0.00  0.00     0.045 A 
ENDROOT
TORSDOF 0
ENDMDL
