MODEL 1
REMARK minimizedAffinity 3.41024065
REMARK minimizedRMSD -1
REMARK  0 active torsions:
REMARK  status: ('A' for Active; 'I' for Inactive)
ROOT
ATOM      1  C   UNL d   1       0.477   0.693  -0.056  0.00  0.00    -0.002 A 
ATOM      2  C1  UNL d   1       1.148   1.403   0.929  0.00  0.00     0.010 A 
ATOM      3  C2  UNL d   1       0.712   1.364   2.255  0.00  0.00     0.041 A 
ATOM      4  C3  UNL d   1      -0.420   0.590   2.578  0.00  0.00    -0.075 A 
ATOM      5  S   UNL d   1      -1.134   0.392   4.134  0.00  0.00     0.015 SA
ATOM      6  C4  UNL d   1      -2.347  -0.641   3.528  0.00  0.00     0.022 A 
ATOM      7  C5  UNL d   1      -2.225  -0.841   2.174  0.00  0.00     0.026 A 
ATOM      8  C6  UNL d   1      -1.112  -0.135   1.603  0.00  0.00    -0.082 A 
ATOM      9  C7  UNL d   1      -0.646  -0.074   0.268  0.00  0.00     0.045 A 
ENDROOT
TORSDOF 0
ENDMDL
