MODEL 1
REMARK minimizedAffinity 5.8800602
REMARK minimizedRMSD -1
REMARK  0 active torsions:
REMARK  status: ('A' for Active; 'I' for Inactive)
ROOT
ATOM      1  C   UNL d   1       1.580   2.333   1.313  0.00  0.00    -0.002 A 
ATOM      2  C1  UNL d   1       1.184   1.130   1.878  0.00  0.00     0.010 A 
ATOM      3  C2  UNL d   1       0.983   0.002   1.080  0.00  0.00     0.041 A 
ATOM      4  C3  UNL d   1       1.190   0.104  -0.309  0.00  0.00    -0.075 A 
ATOM      5  S   UNL d   1       1.006  -1.145  -1.483  0.00  0.00     0.015 SA
ATOM      6  C4  UNL d   1       1.449  -0.111  -2.763  0.00  0.00     0.022 A 
ATOM      7  C5  UNL d   1       1.734   1.160  -2.324  0.00  0.00     0.026 A 
ATOM      8  C6  UNL d   1       1.590   1.305  -0.902  0.00  0.00    -0.082 A 
ATOM      9  C7  UNL d   1       1.785   2.431  -0.066  0.00  0.00     0.045 A 
ENDROOT
TORSDOF 0
ENDMDL
