MODEL 1
REMARK minimizedAffinity 1.1906265
REMARK minimizedRMSD -1
REMARK  0 active torsions:
REMARK  status: ('A' for Active; 'I' for Inactive)
ROOT
ATOM      1  C   UNL d   1       2.595   5.672  -5.816  0.00  0.00    -0.002 A 
ATOM      2  C1  UNL d   1       3.128   5.594  -4.537  0.00  0.00     0.010 A 
ATOM      3  C2  UNL d   1       2.296   5.646  -3.417  0.00  0.00     0.041 A 
ATOM      4  C3  UNL d   1       0.906   5.777  -3.605  0.00  0.00    -0.075 A 
ATOM      5  S   UNL d   1      -0.306   5.860  -2.382  0.00  0.00     0.015 SA
ATOM      6  C4  UNL d   1      -1.559   6.000  -3.528  0.00  0.00     0.022 A 
ATOM      7  C5  UNL d   1      -1.083   5.986  -4.818  0.00  0.00     0.026 A 
ATOM      8  C6  UNL d   1       0.346   5.856  -4.884  0.00  0.00    -0.082 A 
ATOM      9  C7  UNL d   1       1.215   5.802  -5.999  0.00  0.00     0.045 A 
ENDROOT
TORSDOF 0
ENDMDL
