MODEL 1
REMARK minimizedAffinity -2.58227372
REMARK minimizedRMSD -1
REMARK  0 active torsions:
REMARK  status: ('A' for Active; 'I' for Inactive)
ROOT
ATOM      1  C   UNL d   1       1.239   5.989  -5.973  0.00  0.00    -0.002 A 
ATOM      2  C1  UNL d   1       1.936   5.994  -4.773  0.00  0.00     0.010 A 
ATOM      3  C2  UNL d   1       1.253   5.998  -3.555  0.00  0.00     0.041 A 
ATOM      4  C3  UNL d   1      -0.156   5.994  -3.564  0.00  0.00    -0.075 A 
ATOM      5  S   UNL d   1      -1.204   5.996  -2.195  0.00  0.00     0.015 SA
ATOM      6  C4  UNL d   1      -2.601   5.990  -3.171  0.00  0.00     0.022 A 
ATOM      7  C5  UNL d   1      -2.294   5.986  -4.511  0.00  0.00     0.026 A 
ATOM      8  C6  UNL d   1      -0.880   5.988  -4.760  0.00  0.00    -0.082 A 
ATOM      9  C7  UNL d   1      -0.158   5.985  -5.978  0.00  0.00     0.045 A 
ENDROOT
TORSDOF 0
ENDMDL
