MODEL 1
REMARK minimizedAffinity 2.44290876
REMARK minimizedRMSD -1
REMARK  0 active torsions:
REMARK  status: ('A' for Active; 'I' for Inactive)
ROOT
ATOM      1  C   UNL d   1      -5.501   5.998  -2.786  0.00  0.00    -0.002 A 
ATOM      2  C1  UNL d   1      -5.028   5.999  -1.481  0.00  0.00     0.010 A 
ATOM      3  C2  UNL d   1      -3.656   5.998  -1.223  0.00  0.00     0.041 A 
ATOM      4  C3  UNL d   1      -2.758   5.997  -2.309  0.00  0.00    -0.075 A 
ATOM      5  S   UNL d   1      -1.036   5.997  -2.234  0.00  0.00     0.015 SA
ATOM      6  C4  UNL d   1      -0.887   5.996  -3.932  0.00  0.00     0.022 A 
ATOM      7  C5  UNL d   1      -2.112   5.996  -4.556  0.00  0.00     0.026 A 
ATOM      8  C6  UNL d   1      -3.211   5.997  -3.632  0.00  0.00    -0.082 A 
ATOM      9  C7  UNL d   1      -4.608   5.998  -3.860  0.00  0.00     0.045 A 
ENDROOT
TORSDOF 0
ENDMDL
