MODEL 1
REMARK minimizedAffinity 11.4527197
REMARK minimizedRMSD -1
REMARK  0 active torsions:
REMARK  status: ('A' for Active; 'I' for Inactive)
ROOT
ATOM      1  C   UNL d   1      -0.302   3.721  -0.958  0.00  0.00     0.124 A 
ATOM      2  C1  UNL d   1       0.558   3.859   0.122  0.00  0.00     0.062 A 
ATOM      3  C2  UNL d   1       0.641   2.857   1.084  0.00  0.00     0.162 A 
ATOM      4  C3  UNL d   1      -0.139   1.706   0.970  0.00  0.00    -0.034 A 
ATOM      5  C4  UNL d   1      -1.002   1.574  -0.119  0.00  0.00     0.162 A 
ATOM      6  C5  UNL d   1      -1.081   2.579  -1.078  0.00  0.00     0.062 A 
ATOM      7  F   UNL d   1      -1.913   2.443  -2.121  0.00  0.00    -0.097 F 
ATOM      8  F1  UNL d   1      -1.766   0.480  -0.260  0.00  0.00    -0.096 F 
ATOM      9  I   UNL d   1      -0.018   0.204   2.406  0.00  0.00    -0.060 I 
ATOM     10  F2  UNL d   1       1.480   3.017   2.118  0.00  0.00    -0.096 F 
ATOM     11  F3  UNL d   1       1.311   4.962   0.241  0.00  0.00    -0.097 F 
ATOM     12  F4  UNL d   1      -0.380   4.688  -1.882  0.00  0.00    -0.092 F 
ENDROOT
TORSDOF 0
ENDMDL
