MODEL 1
REMARK minimizedAffinity 5.17482233
REMARK minimizedRMSD -1
REMARK  0 active torsions:
REMARK  status: ('A' for Active; 'I' for Inactive)
ROOT
ATOM      1  C   UNL d   1       0.445   2.270   2.033  0.00  0.00     0.124 A 
ATOM      2  C1  UNL d   1       0.259   0.897   2.114  0.00  0.00     0.062 A 
ATOM      3  C2  UNL d   1      -0.224   0.190   1.016  0.00  0.00     0.162 A 
ATOM      4  C3  UNL d   1      -0.523   0.855  -0.173  0.00  0.00    -0.034 A 
ATOM      5  C4  UNL d   1      -0.334   2.236  -0.247  0.00  0.00     0.162 A 
ATOM      6  C5  UNL d   1       0.149   2.938   0.853  0.00  0.00     0.062 A 
ATOM      7  F   UNL d   1       0.328   4.265   0.773  0.00  0.00    -0.097 F 
ATOM      8  F1  UNL d   1      -0.611   2.907  -1.375  0.00  0.00    -0.096 F 
ATOM      9  I   UNL d   1      -1.244  -0.199  -1.817  0.00  0.00    -0.060 I 
ATOM     10  F2  UNL d   1      -0.394  -1.136   1.123  0.00  0.00    -0.096 F 
ATOM     11  F3  UNL d   1       0.544   0.249   3.253  0.00  0.00    -0.097 F 
ATOM     12  F4  UNL d   1       0.908   2.948   3.090  0.00  0.00    -0.092 F 
ENDROOT
TORSDOF 0
ENDMDL
