MODEL 1
REMARK minimizedAffinity 18.624176
REMARK minimizedRMSD -1
REMARK  0 active torsions:
REMARK  status: ('A' for Active; 'I' for Inactive)
ROOT
ATOM      1  C   UNL d   1       0.377   3.088  -0.841  0.00  0.00     0.124 A 
ATOM      2  C1  UNL d   1       0.846   1.786  -0.946  0.00  0.00     0.062 A 
ATOM      3  C2  UNL d   1       1.025   1.011   0.197  0.00  0.00     0.162 A 
ATOM      4  C3  UNL d   1       0.733   1.537   1.455  0.00  0.00    -0.034 A 
ATOM      5  C4  UNL d   1       0.262   2.848   1.553  0.00  0.00     0.162 A 
ATOM      6  C5  UNL d   1       0.086   3.617   0.408  0.00  0.00     0.062 A 
ATOM      7  F   UNL d   1      -0.367   4.875   0.511  0.00  0.00    -0.097 F 
ATOM      8  F1  UNL d   1      -0.028   3.384   2.748  0.00  0.00    -0.096 F 
ATOM      9  I   UNL d   1       0.998   0.382   3.166  0.00  0.00    -0.060 I 
ATOM     10  F2  UNL d   1       1.479  -0.244   0.065  0.00  0.00    -0.096 F 
ATOM     11  F3  UNL d   1       1.130   1.272  -2.152  0.00  0.00    -0.097 F 
ATOM     12  F4  UNL d   1       0.208   3.831  -1.942  0.00  0.00    -0.092 F 
ENDROOT
TORSDOF 0
ENDMDL
