MODEL 1
REMARK minimizedAffinity 20.1436939
REMARK minimizedRMSD -1
REMARK  0 active torsions:
REMARK  status: ('A' for Active; 'I' for Inactive)
ROOT
ATOM      1  C   UNL d   1       0.113   2.271   0.046  0.00  0.00     0.124 A 
ATOM      2  C1  UNL d   1       1.014   1.232   0.233  0.00  0.00     0.062 A 
ATOM      3  C2  UNL d   1       1.028   0.525   1.432  0.00  0.00     0.162 A 
ATOM      4  C3  UNL d   1       0.137   0.853   2.453  0.00  0.00    -0.034 A 
ATOM      5  C4  UNL d   1      -0.767   1.899   2.258  0.00  0.00     0.162 A 
ATOM      6  C5  UNL d   1      -0.777   2.603   1.058  0.00  0.00     0.062 A 
ATOM      7  F   UNL d   1      -1.649   3.606   0.879  0.00  0.00    -0.097 F 
ATOM      8  F1  UNL d   1      -1.638   2.241   3.219  0.00  0.00    -0.096 F 
ATOM      9  I   UNL d   1       0.154  -0.202   4.247  0.00  0.00    -0.060 I 
ATOM     10  F2  UNL d   1       1.911  -0.474   1.586  0.00  0.00    -0.096 F 
ATOM     11  F3  UNL d   1       1.875   0.909  -0.743  0.00  0.00    -0.097 F 
ATOM     12  F4  UNL d   1       0.102   2.950  -1.108  0.00  0.00    -0.092 F 
ENDROOT
TORSDOF 0
ENDMDL
