MODEL 1
REMARK minimizedAffinity 20.1666679
REMARK minimizedRMSD -1
REMARK  0 active torsions:
REMARK  status: ('A' for Active; 'I' for Inactive)
ROOT
ATOM      1  C   UNL d   1      -0.867   1.939  -2.705  0.00  0.00     0.124 A 
ATOM      2  C1  UNL d   1       0.169   1.125  -2.270  0.00  0.00     0.062 A 
ATOM      3  C2  UNL d   1       0.610   1.197  -0.951  0.00  0.00     0.162 A 
ATOM      4  C3  UNL d   1       0.013   2.086  -0.057  0.00  0.00    -0.034 A 
ATOM      5  C4  UNL d   1      -1.028   2.902  -0.502  0.00  0.00     0.162 A 
ATOM      6  C5  UNL d   1      -1.465   2.827  -1.821  0.00  0.00     0.062 A 
ATOM      7  F   UNL d   1      -2.467   3.614  -2.239  0.00  0.00    -0.097 F 
ATOM      8  F1  UNL d   1      -1.625   3.768   0.331  0.00  0.00    -0.096 F 
ATOM      9  I   UNL d   1       0.669   2.196   1.915  0.00  0.00    -0.060 I 
ATOM     10  F2  UNL d   1       1.613   0.399  -0.559  0.00  0.00    -0.096 F 
ATOM     11  F3  UNL d   1       0.749   0.268  -3.122  0.00  0.00    -0.097 F 
ATOM     12  F4  UNL d   1      -1.289   1.869  -3.974  0.00  0.00    -0.092 F 
ENDROOT
TORSDOF 0
ENDMDL
