MODEL 1
REMARK minimizedAffinity 12.7058887
REMARK minimizedRMSD -1
REMARK  0 active torsions:
REMARK  status: ('A' for Active; 'I' for Inactive)
ROOT
ATOM      1  C   UNL d   1      -0.687   1.758   0.717  0.00  0.00     0.124 A 
ATOM      2  C1  UNL d   1      -0.836   1.678   2.095  0.00  0.00     0.062 A 
ATOM      3  C2  UNL d   1      -0.095   0.755   2.827  0.00  0.00     0.162 A 
ATOM      4  C3  UNL d   1       0.804  -0.095   2.183  0.00  0.00    -0.034 A 
ATOM      5  C4  UNL d   1       0.948  -0.009   0.797  0.00  0.00     0.162 A 
ATOM      6  C5  UNL d   1       0.205   0.914   0.070  0.00  0.00     0.062 A 
ATOM      7  F   UNL d   1       0.350   0.990  -1.261  0.00  0.00    -0.097 F 
ATOM      8  F1  UNL d   1       1.804  -0.812   0.145  0.00  0.00    -0.096 F 
ATOM      9  I   UNL d   1       1.915  -1.476   3.273  0.00  0.00    -0.060 I 
ATOM     10  F2  UNL d   1      -0.259   0.700   4.157  0.00  0.00    -0.096 F 
ATOM     11  F3  UNL d   1      -1.698   2.491   2.723  0.00  0.00    -0.097 F 
ATOM     12  F4  UNL d   1      -1.403   2.646   0.015  0.00  0.00    -0.092 F 
ENDROOT
TORSDOF 0
ENDMDL
