MODEL 1
REMARK minimizedAffinity 11.5503454
REMARK minimizedRMSD -1
REMARK  0 active torsions:
REMARK  status: ('A' for Active; 'I' for Inactive)
ROOT
ATOM      1  C   UNL d   1       1.249  -2.794  -0.133  0.00  0.00     0.124 A 
ATOM      2  C1  UNL d   1       1.323  -1.411  -0.033  0.00  0.00     0.062 A 
ATOM      3  C2  UNL d   1       0.299  -0.616  -0.539  0.00  0.00     0.162 A 
ATOM      4  C3  UNL d   1      -0.810  -1.202  -1.150  0.00  0.00    -0.034 A 
ATOM      5  C4  UNL d   1      -0.877  -2.593  -1.248  0.00  0.00     0.162 A 
ATOM      6  C5  UNL d   1       0.149  -3.383  -0.740  0.00  0.00     0.062 A 
ATOM      7  F   UNL d   1       0.074  -4.718  -0.838  0.00  0.00    -0.097 F 
ATOM      8  F1  UNL d   1      -1.929  -3.189  -1.829  0.00  0.00    -0.096 F 
ATOM      9  I   UNL d   1      -2.343  -0.017  -1.909  0.00  0.00    -0.060 I 
ATOM     10  F2  UNL d   1       0.398   0.717  -0.429  0.00  0.00    -0.096 F 
ATOM     11  F3  UNL d   1       2.386  -0.840   0.552  0.00  0.00    -0.097 F 
ATOM     12  F4  UNL d   1       2.236  -3.556   0.354  0.00  0.00    -0.092 F 
ENDROOT
TORSDOF 0
ENDMDL
