MODEL 1
REMARK minimizedAffinity 11.1070642
REMARK minimizedRMSD -1
REMARK  0 active torsions:
REMARK  status: ('A' for Active; 'I' for Inactive)
ROOT
ATOM      1  C   UNL d   1       0.967   2.017   1.922  0.00  0.00     0.124 A 
ATOM      2  C1  UNL d   1       0.939   0.642   1.731  0.00  0.00     0.062 A 
ATOM      3  C2  UNL d   1       0.567   0.114   0.498  0.00  0.00     0.162 A 
ATOM      4  C3  UNL d   1       0.221   0.961  -0.555  0.00  0.00    -0.034 A 
ATOM      5  C4  UNL d   1       0.250   2.343  -0.355  0.00  0.00     0.162 A 
ATOM      6  C5  UNL d   1       0.623   2.866   0.879  0.00  0.00     0.062 A 
ATOM      7  F   UNL d   1       0.649   4.194   1.061  0.00  0.00    -0.097 F 
ATOM      8  F1  UNL d   1      -0.077   3.186  -1.346  0.00  0.00    -0.096 F 
ATOM      9  I   UNL d   1      -0.336   0.175  -2.400  0.00  0.00    -0.060 I 
ATOM     10  F2  UNL d   1       0.549  -1.218   0.342  0.00  0.00    -0.096 F 
ATOM     11  F3  UNL d   1       1.270  -0.179   2.737  0.00  0.00    -0.097 F 
ATOM     12  F4  UNL d   1       1.325   2.522   3.109  0.00  0.00    -0.092 F 
ENDROOT
TORSDOF 0
ENDMDL
