MODEL 1
REMARK minimizedAffinity 8.87274933
REMARK minimizedRMSD -1
REMARK  0 active torsions:
REMARK  status: ('A' for Active; 'I' for Inactive)
ROOT
ATOM      1  C   UNL d   1       1.427   3.972   0.879  0.00  0.00     0.124 A 
ATOM      2  C1  UNL d   1       1.578   3.364   2.118  0.00  0.00     0.062 A 
ATOM      3  C2  UNL d   1       1.176   2.045   2.304  0.00  0.00     0.162 A 
ATOM      4  C3  UNL d   1       0.621   1.322   1.248  0.00  0.00    -0.034 A 
ATOM      5  C4  UNL d   1       0.472   1.940   0.005  0.00  0.00     0.162 A 
ATOM      6  C5  UNL d   1       0.875   3.259  -0.176  0.00  0.00     0.062 A 
ATOM      7  F   UNL d   1       0.729   3.845  -1.374  0.00  0.00    -0.097 F 
ATOM      8  F1  UNL d   1      -0.058   1.275  -1.032  0.00  0.00    -0.096 F 
ATOM      9  I   UNL d   1       0.019  -0.651   1.522  0.00  0.00    -0.060 I 
ATOM     10  F2  UNL d   1       1.333   1.483   3.512  0.00  0.00    -0.096 F 
ATOM     11  F3  UNL d   1       2.110   4.050   3.140  0.00  0.00    -0.097 F 
ATOM     12  F4  UNL d   1       1.814   5.242   0.704  0.00  0.00    -0.092 F 
ENDROOT
TORSDOF 0
ENDMDL
