MODEL 1
REMARK minimizedAffinity -2.08925915
REMARK minimizedRMSD -1
REMARK  0 active torsions:
REMARK  status: ('A' for Active; 'I' for Inactive)
ROOT
ATOM      1  C1  BNZ d   1       0.280  -4.079   5.999  0.00  0.00     0.000 A 
ATOM      2  C2  BNZ d   1       1.123  -3.000   5.999  0.00  0.00     0.000 A 
ATOM      3  C3  BNZ d   1       0.959  -1.984   5.100  0.00  0.00     0.000 A 
ATOM      4  C4  BNZ d   1      -0.022  -2.066   4.178  0.00  0.00     0.000 A 
ATOM      5  C5  BNZ d   1      -0.874  -3.152   4.159  0.00  0.00     0.000 A 
ATOM      6  C6  BNZ d   1      -0.730  -4.155   5.090  0.00  0.00     0.000 A 
ENDROOT
TORSDOF 0
ENDMDL
