MODEL 1
REMARK minimizedAffinity -2.55370331
REMARK minimizedRMSD -1
REMARK  0 active torsions:
REMARK  status: ('A' for Active; 'I' for Inactive)
ROOT
ATOM      1  C1  BNZ d   1       3.166   1.880   5.584  0.00  0.00     0.000 A 
ATOM      2  C2  BNZ d   1       1.912   2.241   5.999  0.00  0.00     0.000 A 
ATOM      3  C3  BNZ d   1       1.524   3.552   5.997  0.00  0.00     0.000 A 
ATOM      4  C4  BNZ d   1       2.403   4.503   5.618  0.00  0.00     0.000 A 
ATOM      5  C5  BNZ d   1       3.674   4.156   5.206  0.00  0.00     0.000 A 
ATOM      6  C6  BNZ d   1       4.048   2.832   5.173  0.00  0.00     0.000 A 
ENDROOT
TORSDOF 0
ENDMDL
