MODEL 1
REMARK minimizedAffinity 2.72840929
REMARK minimizedRMSD -1
REMARK  0 active torsions:
REMARK  status: ('A' for Active; 'I' for Inactive)
ROOT
ATOM      1  C1  BNZ d   1       3.430   0.609  -0.548  0.00  0.00     0.000 A 
ATOM      2  C2  BNZ d   1       4.751   0.379  -0.828  0.00  0.00     0.000 A 
ATOM      3  C3  BNZ d   1       5.717   1.250  -0.408  0.00  0.00     0.000 A 
ATOM      4  C4  BNZ d   1       5.359   2.368   0.255  0.00  0.00     0.000 A 
ATOM      5  C5  BNZ d   1       4.031   2.619   0.537  0.00  0.00     0.000 A 
ATOM      6  C6  BNZ d   1       3.064   1.720   0.147  0.00  0.00     0.000 A 
ENDROOT
TORSDOF 0
ENDMDL
