MODEL 1
REMARK minimizedAffinity 0.376855344
REMARK minimizedRMSD -1
REMARK  0 active torsions:
REMARK  status: ('A' for Active; 'I' for Inactive)
ROOT
ATOM      1  C1  BNZ d   1       3.434   3.182   5.952  0.00  0.00     0.000 A 
ATOM      2  C2  BNZ d   1       3.860   4.036   4.970  0.00  0.00     0.000 A 
ATOM      3  C3  BNZ d   1       4.749   3.622   4.019  0.00  0.00     0.000 A 
ATOM      4  C4  BNZ d   1       5.242   2.368   4.073  0.00  0.00     0.000 A 
ATOM      5  C5  BNZ d   1       4.830   1.497   5.063  0.00  0.00     0.000 A 
ATOM      6  C6  BNZ d   1       3.905   1.906   5.996  0.00  0.00     0.000 A 
ENDROOT
TORSDOF 0
ENDMDL
