MODEL 1
REMARK minimizedAffinity 0.35007742
REMARK minimizedRMSD -1
REMARK  0 active torsions:
REMARK  status: ('A' for Active; 'I' for Inactive)
ROOT
ATOM      1  C1  BNZ d   1       0.017  -4.797   3.487  0.00  0.00     0.000 A 
ATOM      2  C2  BNZ d   1      -0.523  -5.708   4.356  0.00  0.00     0.000 A 
ATOM      3  C3  BNZ d   1      -0.018  -5.857   5.617  0.00  0.00     0.000 A 
ATOM      4  C4  BNZ d   1       1.050  -5.125   5.994  0.00  0.00     0.000 A 
ATOM      5  C5  BNZ d   1       1.612  -4.209   5.127  0.00  0.00     0.000 A 
ATOM      6  C6  BNZ d   1       1.076  -4.033   3.872  0.00  0.00     0.000 A 
ENDROOT
TORSDOF 0
ENDMDL
