MODEL 1
REMARK minimizedAffinity 21.9838333
REMARK minimizedRMSD -1
REMARK  0 active torsions:
REMARK  status: ('A' for Active; 'I' for Inactive)
ROOT
ATOM      1  C   UNL d   1       3.558   4.786   5.412  0.00  0.00     0.124 A 
ATOM      2  C1  UNL d   1       4.227   3.570   5.399  0.00  0.00     0.062 A 
ATOM      3  C2  UNL d   1       3.521   2.381   5.561  0.00  0.00     0.162 A 
ATOM      4  C3  UNL d   1       2.137   2.403   5.738  0.00  0.00    -0.034 A 
ATOM      5  C4  UNL d   1       1.472   3.630   5.751  0.00  0.00     0.162 A 
ATOM      6  C5  UNL d   1       2.182   4.815   5.587  0.00  0.00     0.062 A 
ATOM      7  F   UNL d   1       1.535   5.990   5.600  0.00  0.00    -0.097 F 
ATOM      8  F1  UNL d   1       0.142   3.688   5.918  0.00  0.00    -0.096 F 
ATOM      9  I   UNL d   1       1.078   0.628   5.982  0.00  0.00    -0.060 I 
ATOM     10  F2  UNL d   1       4.193   1.221   5.545  0.00  0.00    -0.096 F 
ATOM     11  F3  UNL d   1       5.556   3.539   5.230  0.00  0.00    -0.097 F 
ATOM     12  F4  UNL d   1       4.240   5.928   5.256  0.00  0.00    -0.092 F 
ENDROOT
TORSDOF 0
ENDMDL
