MODEL 1
REMARK minimizedAffinity 3.42407441
REMARK minimizedRMSD -1
REMARK  0 active torsions:
REMARK  status: ('A' for Active; 'I' for Inactive)
ROOT
ATOM      1  C   UNL d   1       3.550   4.662   5.883  0.00  0.00     0.124 A 
ATOM      2  C1  UNL d   1       2.320   4.022   5.937  0.00  0.00     0.062 A 
ATOM      3  C2  UNL d   1       2.254   2.631   5.948  0.00  0.00     0.162 A 
ATOM      4  C3  UNL d   1       3.423   1.871   5.907  0.00  0.00    -0.034 A 
ATOM      5  C4  UNL d   1       4.657   2.523   5.853  0.00  0.00     0.162 A 
ATOM      6  C5  UNL d   1       4.717   3.912   5.842  0.00  0.00     0.062 A 
ATOM      7  F   UNL d   1       5.907   4.529   5.790  0.00  0.00    -0.097 F 
ATOM      8  F1  UNL d   1       5.800   1.823   5.812  0.00  0.00    -0.096 F 
ATOM      9  I   UNL d   1       3.330  -0.208   5.924  0.00  0.00    -0.060 I 
ATOM     10  F2  UNL d   1       1.052   2.039   6.000  0.00  0.00    -0.096 F 
ATOM     11  F3  UNL d   1       1.191   4.744   5.976  0.00  0.00    -0.097 F 
ATOM     12  F4  UNL d   1       3.610   6.000   5.872  0.00  0.00    -0.092 F 
ENDROOT
TORSDOF 0
ENDMDL
