MODEL 1
REMARK minimizedAffinity 12.7645292
REMARK minimizedRMSD -1
REMARK  0 active torsions:
REMARK  status: ('A' for Active; 'I' for Inactive)
ROOT
ATOM      1  C   UNL d   1       3.183  -0.473   2.383  0.00  0.00     0.124 A 
ATOM      2  C1  UNL d   1       2.974  -0.857   3.700  0.00  0.00     0.062 A 
ATOM      3  C2  UNL d   1       3.173   0.053   4.735  0.00  0.00     0.162 A 
ATOM      4  C3  UNL d   1       3.582   1.357   4.456  0.00  0.00    -0.034 A 
ATOM      5  C4  UNL d   1       3.791   1.736   3.128  0.00  0.00     0.162 A 
ATOM      6  C5  UNL d   1       3.591   0.823   2.098  0.00  0.00     0.062 A 
ATOM      7  F   UNL d   1       3.792   1.196   0.826  0.00  0.00    -0.097 F 
ATOM      8  F1  UNL d   1       4.184   2.982   2.825  0.00  0.00    -0.096 F 
ATOM      9  I   UNL d   1       3.881   2.721   5.999  0.00  0.00    -0.060 I 
ATOM     10  F2  UNL d   1       2.964  -0.345   5.998  0.00  0.00    -0.096 F 
ATOM     11  F3  UNL d   1       2.581  -2.108   3.978  0.00  0.00    -0.097 F 
ATOM     12  F4  UNL d   1       2.991  -1.350   1.390  0.00  0.00    -0.092 F 
ENDROOT
TORSDOF 0
ENDMDL
