MODEL 1
REMARK minimizedAffinity 7.87116861
REMARK minimizedRMSD -1
REMARK  0 active torsions:
REMARK  status: ('A' for Active; 'I' for Inactive)
ROOT
ATOM      1  C   UNL d   1       3.273   1.851   5.617  0.00  0.00     0.124 A 
ATOM      2  C1  UNL d   1       3.911   3.068   5.421  0.00  0.00     0.062 A 
ATOM      3  C2  UNL d   1       3.178   4.251   5.419  0.00  0.00     0.162 A 
ATOM      4  C3  UNL d   1       1.797   4.223   5.614  0.00  0.00    -0.034 A 
ATOM      5  C4  UNL d   1       1.162   2.995   5.809  0.00  0.00     0.162 A 
ATOM      6  C5  UNL d   1       1.899   1.816   5.811  0.00  0.00     0.062 A 
ATOM      7  F   UNL d   1       1.281   0.641   6.000  0.00  0.00    -0.097 F 
ATOM      8  F1  UNL d   1      -0.164   2.932   6.000  0.00  0.00    -0.096 F 
ATOM      9  I   UNL d   1       0.697   5.989   5.612  0.00  0.00    -0.060 I 
ATOM     10  F2  UNL d   1       3.821   5.412   5.228  0.00  0.00    -0.096 F 
ATOM     11  F3  UNL d   1       5.238   3.104   5.233  0.00  0.00    -0.097 F 
ATOM     12  F4  UNL d   1       3.981   0.714   5.617  0.00  0.00    -0.092 F 
ENDROOT
TORSDOF 0
ENDMDL
