MODEL 1
REMARK minimizedAffinity 13.1550732
REMARK minimizedRMSD -1
REMARK  0 active torsions:
REMARK  status: ('A' for Active; 'I' for Inactive)
ROOT
ATOM      1  C   UNL d   1       3.488   2.039   5.996  0.00  0.00     0.124 A 
ATOM      2  C1  UNL d   1       2.107   1.895   5.994  0.00  0.00     0.062 A 
ATOM      3  C2  UNL d   1       1.286   3.018   5.994  0.00  0.00     0.162 A 
ATOM      4  C3  UNL d   1       1.843   4.297   5.995  0.00  0.00    -0.034 A 
ATOM      5  C4  UNL d   1       3.232   4.434   5.998  0.00  0.00     0.162 A 
ATOM      6  C5  UNL d   1       4.049   3.308   5.998  0.00  0.00     0.062 A 
ATOM      7  F   UNL d   1       5.382   3.450   5.999  0.00  0.00    -0.097 F 
ATOM      8  F1  UNL d   1       3.801   5.649   5.999  0.00  0.00    -0.096 F 
ATOM      9  I   UNL d   1       0.618   5.980   5.995  0.00  0.00    -0.060 I 
ATOM     10  F2  UNL d   1      -0.045   2.849   5.992  0.00  0.00    -0.096 F 
ATOM     11  F3  UNL d   1       1.563   0.669   5.993  0.00  0.00    -0.097 F 
ATOM     12  F4  UNL d   1       4.276   0.956   5.996  0.00  0.00    -0.092 F 
ENDROOT
TORSDOF 0
ENDMDL
