MODEL 1
REMARK minimizedAffinity 14.051405
REMARK minimizedRMSD -1
REMARK  0 active torsions:
REMARK  status: ('A' for Active; 'I' for Inactive)
ROOT
ATOM      1  C   UNL d   1      -3.019   0.360   0.229  0.00  0.00     0.124 A 
ATOM      2  C1  UNL d   1      -2.035   0.291  -0.748  0.00  0.00     0.062 A 
ATOM      3  C2  UNL d   1      -2.382   0.335  -2.095  0.00  0.00     0.162 A 
ATOM      4  C3  UNL d   1      -3.720   0.450  -2.473  0.00  0.00    -0.034 A 
ATOM      5  C4  UNL d   1      -4.704   0.518  -1.485  0.00  0.00     0.162 A 
ATOM      6  C5  UNL d   1      -4.352   0.474  -0.140  0.00  0.00     0.062 A 
ATOM      7  F   UNL d   1      -5.303   0.541   0.802  0.00  0.00    -0.097 F 
ATOM      8  F1  UNL d   1      -5.999   0.629  -1.814  0.00  0.00    -0.096 F 
ATOM      9  I   UNL d   1      -4.243   0.516  -4.487  0.00  0.00    -0.060 I 
ATOM     10  F2  UNL d   1      -1.411   0.266  -3.017  0.00  0.00    -0.096 F 
ATOM     11  F3  UNL d   1      -0.747   0.181  -0.393  0.00  0.00    -0.097 F 
ATOM     12  F4  UNL d   1      -2.682   0.317   1.525  0.00  0.00    -0.092 F 
ENDROOT
TORSDOF 0
ENDMDL
