MODEL 1
REMARK minimizedAffinity 26.9942589
REMARK minimizedRMSD -1
REMARK  0 active torsions:
REMARK  status: ('A' for Active; 'I' for Inactive)
ROOT
ATOM      1  C   UNL d   1      -5.434   4.624   3.265  0.00  0.00     0.124 A 
ATOM      2  C1  UNL d   1      -5.224   3.394   3.873  0.00  0.00     0.062 A 
ATOM      3  C2  UNL d   1      -4.638   2.352   3.161  0.00  0.00     0.162 A 
ATOM      4  C3  UNL d   1      -4.257   2.534   1.832  0.00  0.00    -0.034 A 
ATOM      5  C4  UNL d   1      -4.472   3.774   1.226  0.00  0.00     0.162 A 
ATOM      6  C5  UNL d   1      -5.058   4.812   1.942  0.00  0.00     0.062 A 
ATOM      7  F   UNL d   1      -5.261   6.000   1.352  0.00  0.00    -0.097 F 
ATOM      8  F1  UNL d   1      -4.117   3.984  -0.050  0.00  0.00    -0.096 F 
ATOM      9  I   UNL d   1      -3.380   0.978   0.764  0.00  0.00    -0.060 I 
ATOM     10  F2  UNL d   1      -4.447   1.174   3.775  0.00  0.00    -0.096 F 
ATOM     11  F3  UNL d   1      -5.587   3.209   5.151  0.00  0.00    -0.097 F 
ATOM     12  F4  UNL d   1      -5.999   5.625   3.952  0.00  0.00    -0.092 F 
ENDROOT
TORSDOF 0
ENDMDL
