MODEL 1
REMARK minimizedAffinity -2.06230831
REMARK minimizedRMSD -1
REMARK  0 active torsions:
REMARK  status: ('A' for Active; 'I' for Inactive)
ROOT
ATOM      1  C   UNL d   1      -1.327  -0.880   2.709  0.00  0.00     0.020 A 
ATOM      2  C1  UNL d   1      -1.289  -2.211   2.298  0.00  0.00     0.020 A 
ATOM      3  C2  UNL d   1      -0.879  -2.531   1.002  0.00  0.00     0.034 A 
ATOM      4  C3  UNL d   1      -0.506  -1.517   0.112  0.00  0.00     0.017 A 
ATOM      5  C4  UNL d   1      -0.544  -0.180   0.526  0.00  0.00     0.017 A 
ATOM      6  C5  UNL d   1      -0.955   0.134   1.825  0.00  0.00     0.034 A 
ATOM      7 Cl   UNL d   1      -0.098   1.125  -0.515  0.00  0.00    -0.070 Cl
ATOM      8 Cl1  UNL d   1      -0.009  -1.984  -1.476  0.00  0.00    -0.070 Cl
ENDROOT
TORSDOF 0
ENDMDL
