MODEL 1
REMARK minimizedAffinity -3.42846584
REMARK minimizedRMSD -1
REMARK  0 active torsions:
REMARK  status: ('A' for Active; 'I' for Inactive)
ROOT
ATOM      1  C   UNL d   1      -0.640  -2.241   1.375  0.00  0.00     0.020 A 
ATOM      2  C1  UNL d   1      -0.355  -3.315   0.532  0.00  0.00     0.020 A 
ATOM      3  C2  UNL d   1      -0.064  -3.087  -0.815  0.00  0.00     0.034 A 
ATOM      4  C3  UNL d   1      -0.057  -1.782  -1.322  0.00  0.00     0.017 A 
ATOM      5  C4  UNL d   1      -0.343  -0.706  -0.475  0.00  0.00     0.017 A 
ATOM      6  C5  UNL d   1      -0.634  -0.940   0.872  0.00  0.00     0.034 A 
ATOM      7 Cl   UNL d   1      -0.353   0.932  -1.029  0.00  0.00    -0.070 Cl
ATOM      8 Cl1  UNL d   1       0.312  -1.574  -2.997  0.00  0.00    -0.070 Cl
ENDROOT
TORSDOF 0
ENDMDL
