MODEL 1
REMARK minimizedAffinity 4.62343836
REMARK minimizedRMSD -1
REMARK  0 active torsions:
REMARK  status: ('A' for Active; 'I' for Inactive)
ROOT
ATOM      1  C   UNL d   1      -1.949  -1.948   1.180  0.00  0.00     0.020 A 
ATOM      2  C1  UNL d   1      -1.785  -2.675   0.001  0.00  0.00     0.020 A 
ATOM      3  C2  UNL d   1      -1.165  -2.084  -1.102  0.00  0.00     0.034 A 
ATOM      4  C3  UNL d   1      -0.707  -0.764  -1.029  0.00  0.00     0.017 A 
ATOM      5  C4  UNL d   1      -0.873  -0.035   0.154  0.00  0.00     0.017 A 
ATOM      6  C5  UNL d   1      -1.494  -0.631   1.256  0.00  0.00     0.034 A 
ATOM      7 Cl   UNL d   1      -0.334   1.598   0.320  0.00  0.00    -0.070 Cl
ATOM      8 Cl1  UNL d   1       0.051  -0.097  -2.432  0.00  0.00    -0.070 Cl
ENDROOT
TORSDOF 0
ENDMDL
