MODEL 1
REMARK minimizedAffinity -3.96061921
REMARK minimizedRMSD -1
REMARK  0 active torsions:
REMARK  status: ('A' for Active; 'I' for Inactive)
ROOT
ATOM      1  C   UNL d   1      -1.094  -1.686   1.561  0.00  0.00     0.020 A 
ATOM      2  C1  UNL d   1      -0.824  -2.883   0.898  0.00  0.00     0.020 A 
ATOM      3  C2  UNL d   1      -0.336  -2.861  -0.411  0.00  0.00     0.034 A 
ATOM      4  C3  UNL d   1      -0.118  -1.640  -1.060  0.00  0.00     0.017 A 
ATOM      5  C4  UNL d   1      -0.390  -0.440  -0.393  0.00  0.00     0.017 A 
ATOM      6  C5  UNL d   1      -0.878  -0.468   0.917  0.00  0.00     0.034 A 
ATOM      7 Cl   UNL d   1      -0.145   1.105  -1.129  0.00  0.00    -0.070 Cl
ATOM      8 Cl1  UNL d   1       0.487  -1.688  -2.678  0.00  0.00    -0.070 Cl
ENDROOT
TORSDOF 0
ENDMDL
