MODEL 1
REMARK minimizedAffinity -5.26521063
REMARK minimizedRMSD -1
REMARK  0 active torsions:
REMARK  status: ('A' for Active; 'I' for Inactive)
ROOT
ATOM      1  C   UNL d   1      -0.320  -3.446   0.039  0.00  0.00     0.020 A 
ATOM      2  C1  UNL d   1      -0.411  -2.591   1.136  0.00  0.00     0.020 A 
ATOM      3  C2  UNL d   1      -0.300  -1.211   0.957  0.00  0.00     0.034 A 
ATOM      4  C3  UNL d   1      -0.097  -0.681  -0.323  0.00  0.00     0.017 A 
ATOM      5  C4  UNL d   1      -0.006  -1.541  -1.424  0.00  0.00     0.017 A 
ATOM      6  C5  UNL d   1      -0.118  -2.922  -1.239  0.00  0.00     0.034 A 
ATOM      7 Cl   UNL d   1       0.244  -0.962  -3.033  0.00  0.00    -0.070 Cl
ATOM      8 Cl1  UNL d   1       0.031   1.035  -0.472  0.00  0.00    -0.070 Cl
ENDROOT
TORSDOF 0
ENDMDL
