MODEL 1
REMARK minimizedAffinity -5.50936651
REMARK minimizedRMSD -1
REMARK  0 active torsions:
REMARK  status: ('A' for Active; 'I' for Inactive)
ROOT
ATOM      1  C   UNL d   1       0.196  -2.560  -0.089  0.00  0.00     0.020 A 
ATOM      2  C1  UNL d   1      -0.879  -2.998   0.683  0.00  0.00     0.020 A 
ATOM      3  C2  UNL d   1      -1.688  -2.071   1.344  0.00  0.00     0.034 A 
ATOM      4  C3  UNL d   1      -1.423  -0.701   1.235  0.00  0.00     0.017 A 
ATOM      5  C4  UNL d   1      -0.343  -0.262   0.460  0.00  0.00     0.017 A 
ATOM      6  C5  UNL d   1       0.463  -1.195  -0.200  0.00  0.00     0.034 A 
ATOM      7 Cl   UNL d   1       0.047   1.412   0.277  0.00  0.00    -0.070 Cl
ATOM      8 Cl1  UNL d   1      -2.464   0.389   2.079  0.00  0.00    -0.070 Cl
ENDROOT
TORSDOF 0
ENDMDL
