MODEL 1
REMARK minimizedAffinity -4.20632362
REMARK minimizedRMSD -1
REMARK  0 active torsions:
REMARK  status: ('A' for Active; 'I' for Inactive)
ROOT
ATOM      1  C   UNL d   1      -0.069  -3.374  -0.046  0.00  0.00     0.020 A 
ATOM      2  C1  UNL d   1       0.718  -2.794  -1.040  0.00  0.00     0.020 A 
ATOM      3  C2  UNL d   1       0.804  -1.404  -1.141  0.00  0.00     0.034 A 
ATOM      4  C3  UNL d   1       0.101  -0.589  -0.247  0.00  0.00     0.017 A 
ATOM      5  C4  UNL d   1      -0.688  -1.171   0.751  0.00  0.00     0.017 A 
ATOM      6  C5  UNL d   1      -0.770  -2.564   0.848  0.00  0.00     0.034 A 
ATOM      7 Cl   UNL d   1      -1.584  -0.231   1.891  0.00  0.00    -0.070 Cl
ATOM      8 Cl1  UNL d   1       0.253   1.123  -0.430  0.00  0.00    -0.070 Cl
ENDROOT
TORSDOF 0
ENDMDL
