MODEL 1
REMARK minimizedAffinity 8.38617611
REMARK minimizedRMSD -1
REMARK  0 active torsions:
REMARK  status: ('A' for Active; 'I' for Inactive)
ROOT
ATOM      1  C   UNL d   1       1.509   0.540  -0.566  0.00  0.00     0.020 A 
ATOM      2  C1  UNL d   1       0.184   0.533  -1.001  0.00  0.00     0.020 A 
ATOM      3  C2  UNL d   1      -0.836   0.154  -0.126  0.00  0.00     0.034 A 
ATOM      4  C3  UNL d   1      -0.533  -0.219   1.189  0.00  0.00     0.017 A 
ATOM      5  C4  UNL d   1       0.797  -0.211   1.624  0.00  0.00     0.017 A 
ATOM      6  C5  UNL d   1       1.814   0.169   0.744  0.00  0.00     0.034 A 
ATOM      7 Cl   UNL d   1       1.248  -0.658   3.232  0.00  0.00    -0.070 Cl
ATOM      8 Cl1  UNL d   1      -1.845  -0.676   2.217  0.00  0.00    -0.070 Cl
ENDROOT
TORSDOF 0
ENDMDL
