MODEL 1
REMARK minimizedAffinity -3.34088612
REMARK minimizedRMSD -1
REMARK  0 active torsions:
REMARK  status: ('A' for Active; 'I' for Inactive)
ROOT
ATOM      1  C   UNL d   1       0.121  -3.808  -2.210  0.00  0.00     0.020 A 
ATOM      2  C1  UNL d   1       0.599  -2.712  -2.928  0.00  0.00     0.020 A 
ATOM      3  C2  UNL d   1       0.684  -1.460  -2.316  0.00  0.00     0.034 A 
ATOM      4  C3  UNL d   1       0.291  -1.300  -0.982  0.00  0.00     0.017 A 
ATOM      5  C4  UNL d   1      -0.189  -2.400  -0.263  0.00  0.00     0.017 A 
ATOM      6  C5  UNL d   1      -0.272  -3.652  -0.880  0.00  0.00     0.034 A 
ATOM      7 Cl   UNL d   1      -0.693  -2.281   1.386  0.00  0.00    -0.070 Cl
ATOM      8 Cl1  UNL d   1       0.423   0.277  -0.289  0.00  0.00    -0.070 Cl
ENDROOT
TORSDOF 0
ENDMDL
