MODEL 1
REMARK minimizedAffinity -4.91309547
REMARK minimizedRMSD -1
REMARK  0 active torsions:
REMARK  status: ('A' for Active; 'I' for Inactive)
ROOT
ATOM      1  C   UNL d   1      -1.088  -0.952   1.338  0.00  0.00     0.020 A 
ATOM      2  C1  UNL d   1      -0.833   0.100   0.459  0.00  0.00     0.020 A 
ATOM      3  C2  UNL d   1      -0.346  -0.165  -0.823  0.00  0.00     0.034 A 
ATOM      4  C3  UNL d   1      -0.112  -1.483  -1.229  0.00  0.00     0.017 A 
ATOM      5  C4  UNL d   1      -0.368  -2.538  -0.346  0.00  0.00     0.017 A 
ATOM      6  C5  UNL d   1      -0.856  -2.268   0.936  0.00  0.00     0.034 A 
ATOM      7 Cl   UNL d   1      -0.105  -4.192  -0.775  0.00  0.00    -0.070 Cl
ATOM      8 Cl1  UNL d   1       0.491  -1.737  -2.828  0.00  0.00    -0.070 Cl
ENDROOT
TORSDOF 0
ENDMDL
