MODEL 1
REMARK minimizedAffinity 4.83492756
REMARK minimizedRMSD -1
REMARK  0 active torsions:
REMARK  status: ('A' for Active; 'I' for Inactive)
ROOT
ATOM      1  C   UNL d   1       2.590   3.760   1.984  0.00  0.00     0.020 A 
ATOM      2  C1  UNL d   1       2.691   3.759   0.593  0.00  0.00     0.020 A 
ATOM      3  C2  UNL d   1       1.757   4.456  -0.176  0.00  0.00     0.034 A 
ATOM      4  C3  UNL d   1       0.717   5.157   0.445  0.00  0.00     0.017 A 
ATOM      5  C4  UNL d   1       0.616   5.158   1.841  0.00  0.00     0.017 A 
ATOM      6  C5  UNL d   1       1.554   4.458   2.606  0.00  0.00     0.034 A 
ATOM      7 Cl   UNL d   1      -0.640   6.000   2.679  0.00  0.00    -0.070 Cl
ATOM      8 Cl1  UNL d   1      -0.402   5.998  -0.568  0.00  0.00    -0.070 Cl
ENDROOT
TORSDOF 0
ENDMDL
