MODEL 1
REMARK minimizedAffinity -4.1369524
REMARK minimizedRMSD -1
REMARK  0 active torsions:
REMARK  status: ('A' for Active; 'I' for Inactive)
ROOT
ATOM      1  C   UNL d   1       0.325  -3.110  -0.634  0.00  0.00     0.020 A 
ATOM      2  C1  UNL d   1       0.770  -2.136  -1.526  0.00  0.00     0.020 A 
ATOM      3  C2  UNL d   1       0.544  -0.785  -1.255  0.00  0.00     0.034 A 
ATOM      4  C3  UNL d   1      -0.128  -0.404  -0.088  0.00  0.00     0.017 A 
ATOM      5  C4  UNL d   1      -0.575  -1.383   0.808  0.00  0.00     0.017 A 
ATOM      6  C5  UNL d   1      -0.346  -2.734   0.531  0.00  0.00     0.034 A 
ATOM      7 Cl   UNL d   1      -1.411  -0.991   2.268  0.00  0.00    -0.070 Cl
ATOM      8 Cl1  UNL d   1      -0.372   1.284   0.184  0.00  0.00    -0.070 Cl
ENDROOT
TORSDOF 0
ENDMDL
