MODEL 1
REMARK minimizedAffinity 4.95150709
REMARK minimizedRMSD -1
REMARK  0 active torsions:
REMARK  status: ('A' for Active; 'I' for Inactive)
ROOT
ATOM      1  C   UNL d   1      -2.112  -0.933   2.115  0.00  0.00     0.020 A 
ATOM      2  C1  UNL d   1      -1.924  -1.961   1.192  0.00  0.00     0.020 A 
ATOM      3  C2  UNL d   1      -1.188  -1.728   0.028  0.00  0.00     0.034 A 
ATOM      4  C3  UNL d   1      -0.636  -0.465  -0.216  0.00  0.00     0.017 A 
ATOM      5  C4  UNL d   1      -0.825   0.566   0.712  0.00  0.00     0.017 A 
ATOM      6  C5  UNL d   1      -1.563   0.328   1.875  0.00  0.00     0.034 A 
ATOM      7 Cl   UNL d   1      -0.175   2.151   0.481  0.00  0.00    -0.070 Cl
ATOM      8 Cl1  UNL d   1       0.263  -0.249  -1.675  0.00  0.00    -0.070 Cl
ENDROOT
TORSDOF 0
ENDMDL
