MODEL 1
REMARK minimizedAffinity 1.92761075
REMARK minimizedRMSD -1
REMARK  0 active torsions:
REMARK  status: ('A' for Active; 'I' for Inactive)
ROOT
ATOM      1  C   UNL d   1      -0.797   0.265   0.332  0.00  0.00     0.020 A 
ATOM      2  C1  UNL d   1      -2.162   0.046   0.516  0.00  0.00     0.020 A 
ATOM      3  C2  UNL d   1      -2.624  -0.512   1.710  0.00  0.00     0.034 A 
ATOM      4  C3  UNL d   1      -1.721  -0.853   2.724  0.00  0.00     0.017 A 
ATOM      5  C4  UNL d   1      -0.351  -0.632   2.537  0.00  0.00     0.017 A 
ATOM      6  C5  UNL d   1       0.106  -0.073   1.340  0.00  0.00     0.034 A 
ATOM      7 Cl   UNL d   1       0.824  -1.027   3.742  0.00  0.00    -0.070 Cl
ATOM      8 Cl1  UNL d   1      -2.362  -1.539   4.174  0.00  0.00    -0.070 Cl
ENDROOT
TORSDOF 0
ENDMDL
