MODEL 1
REMARK minimizedAffinity -0.117212839
REMARK minimizedRMSD -1
REMARK  0 active torsions:
REMARK  status: ('A' for Active; 'I' for Inactive)
ROOT
ATOM      1  C   UNL d   1      -2.428  -1.070   0.807  0.00  0.00     0.020 A 
ATOM      2  C1  UNL d   1      -2.421  -0.056   1.764  0.00  0.00     0.020 A 
ATOM      3  C2  UNL d   1      -1.588   1.053   1.600  0.00  0.00     0.034 A 
ATOM      4  C3  UNL d   1      -0.758   1.151   0.477  0.00  0.00     0.017 A 
ATOM      5  C4  UNL d   1      -0.766   0.133  -0.483  0.00  0.00     0.017 A 
ATOM      6  C5  UNL d   1      -1.602  -0.976  -0.314  0.00  0.00     0.034 A 
ATOM      7 Cl   UNL d   1       0.230   0.182  -1.895  0.00  0.00    -0.070 Cl
ATOM      8 Cl1  UNL d   1       0.245   2.550   0.339  0.00  0.00    -0.070 Cl
ENDROOT
TORSDOF 0
ENDMDL
