MODEL 1
REMARK minimizedAffinity -2.81867242
REMARK minimizedRMSD -1
REMARK  0 active torsions:
REMARK  status: ('A' for Active; 'I' for Inactive)
ROOT
ATOM      1  C   UNL d   1      -1.332  -1.161   2.007  0.00  0.00     0.020 A 
ATOM      2  C1  UNL d   1      -1.460  -1.966   0.875  0.00  0.00     0.020 A 
ATOM      3  C2  UNL d   1      -1.060  -1.484  -0.373  0.00  0.00     0.034 A 
ATOM      4  C3  UNL d   1      -0.530  -0.195  -0.493  0.00  0.00     0.017 A 
ATOM      5  C4  UNL d   1      -0.401   0.612   0.643  0.00  0.00     0.017 A 
ATOM      6  C5  UNL d   1      -0.803   0.125   1.891  0.00  0.00     0.034 A 
ATOM      7 Cl   UNL d   1       0.245   2.214   0.574  0.00  0.00    -0.070 Cl
ATOM      8 Cl1  UNL d   1      -0.055   0.336  -2.067  0.00  0.00    -0.070 Cl
ENDROOT
TORSDOF 0
ENDMDL
