MODEL 1
REMARK minimizedAffinity 0.2225153
REMARK minimizedRMSD -1
REMARK  0 active torsions:
REMARK  status: ('A' for Active; 'I' for Inactive)
ROOT
ATOM      1  C   UNL d   1      -1.799   0.683   1.263  0.00  0.00     0.020 A 
ATOM      2  C1  UNL d   1      -2.284  -0.511   1.796  0.00  0.00     0.020 A 
ATOM      3  C2  UNL d   1      -2.064  -1.715   1.124  0.00  0.00     0.034 A 
ATOM      4  C3  UNL d   1      -1.357  -1.728  -0.084  0.00  0.00     0.017 A 
ATOM      5  C4  UNL d   1      -0.871  -0.529  -0.618  0.00  0.00     0.017 A 
ATOM      6  C5  UNL d   1      -1.094   0.674   0.059  0.00  0.00     0.034 A 
ATOM      7 Cl   UNL d   1       0.010  -0.466  -2.104  0.00  0.00    -0.070 Cl
ATOM      8 Cl1  UNL d   1      -1.121  -3.254  -0.860  0.00  0.00    -0.070 Cl
ENDROOT
TORSDOF 0
ENDMDL
