MODEL 1
REMARK minimizedAffinity -3.65286875
REMARK minimizedRMSD -1
REMARK  0 active torsions:
REMARK  status: ('A' for Active; 'I' for Inactive)
ROOT
ATOM      1  C   UNL d   1      -0.135  -3.426  -2.001  0.00  0.00     0.020 A 
ATOM      2  C1  UNL d   1       0.312  -2.377  -2.804  0.00  0.00     0.020 A 
ATOM      3  C2  UNL d   1       0.336  -1.074  -2.301  0.00  0.00     0.034 A 
ATOM      4  C3  UNL d   1      -0.087  -0.817  -0.992  0.00  0.00     0.017 A 
ATOM      5  C4  UNL d   1      -0.536  -1.871  -0.187  0.00  0.00     0.017 A 
ATOM      6  C5  UNL d   1      -0.558  -3.173  -0.696  0.00  0.00     0.034 A 
ATOM      7 Cl   UNL d   1      -1.074  -1.631   1.438  0.00  0.00    -0.070 Cl
ATOM      8 Cl1  UNL d   1      -0.030   0.818  -0.436  0.00  0.00    -0.070 Cl
ENDROOT
TORSDOF 0
ENDMDL
