MODEL 1
REMARK minimizedAffinity 13.4604492
REMARK minimizedRMSD -1
REMARK  0 active torsions:
REMARK  status: ('A' for Active; 'I' for Inactive)
ROOT
ATOM      1  N1  IND d   1       2.292   0.639  -2.705  0.00  0.00    -0.196 N 
ATOM      2  C2  IND d   1       2.134  -0.423  -3.550  0.00  0.00     0.054 A 
ATOM      3  C3  IND d   1       2.606  -0.120  -4.780  0.00  0.00    -0.031 A 
ATOM      4  C4  IND d   1       3.772   2.023  -5.602  0.00  0.00     0.051 A 
ATOM      5  C5  IND d   1       4.110   3.286  -5.204  0.00  0.00    -0.031 A 
ATOM      6  C6  IND d   1       3.858   3.739  -3.925  0.00  0.00     0.015 A 
ATOM      7  C7  IND d   1       3.264   2.939  -2.990  0.00  0.00    -0.016 A 
ATOM      8  C8  IND d   1       2.913   1.659  -3.393  0.00  0.00    -0.047 A 
ATOM      9  C9  IND d   1       3.128   1.207  -4.702  0.00  0.00    -0.096 A 
ATOM     10  HN1 IND d   1       2.045   0.667  -1.882  0.00  0.00     0.298 HD
ENDROOT
TORSDOF 0
ENDMDL
