MODEL 1
REMARK minimizedAffinity 15.2829103
REMARK minimizedRMSD -1
REMARK  0 active torsions:
REMARK  status: ('A' for Active; 'I' for Inactive)
ROOT
ATOM      1  N1  IND d   1      -5.643  -3.101  -3.217  0.00  0.00    -0.196 N 
ATOM      2  C2  IND d   1      -5.496  -1.835  -2.724  0.00  0.00     0.054 A 
ATOM      3  C3  IND d   1      -5.034  -1.875  -1.454  0.00  0.00    -0.031 A 
ATOM      4  C4  IND d   1      -4.355  -3.906  -0.024  0.00  0.00     0.051 A 
ATOM      5  C5  IND d   1      -4.346  -5.272  -0.030  0.00  0.00    -0.031 A 
ATOM      6  C6  IND d   1      -4.775  -6.000  -1.121  0.00  0.00     0.015 A 
ATOM      7  C7  IND d   1      -5.220  -5.385  -2.256  0.00  0.00    -0.016 A 
ATOM      8  C8  IND d   1      -5.237  -3.997  -2.252  0.00  0.00    -0.047 A 
ATOM      9  C9  IND d   1      -4.843  -3.254  -1.132  0.00  0.00    -0.096 A 
ATOM     10  HN1 IND d   1      -5.939  -3.304  -3.998  0.00  0.00     0.298 HD
ENDROOT
TORSDOF 0
ENDMDL
