MODEL 1
REMARK minimizedAffinity 14.2971249
REMARK minimizedRMSD -1
REMARK  0 active torsions:
REMARK  status: ('A' for Active; 'I' for Inactive)
ROOT
ATOM      1  N1  IND d   1       0.006  -3.921  -5.253  0.00  0.00    -0.196 N 
ATOM      2  C2  IND d   1      -1.175  -3.886  -5.941  0.00  0.00     0.054 A 
ATOM      3  C3  IND d   1      -1.647  -2.620  -6.000  0.00  0.00    -0.031 A 
ATOM      4  C4  IND d   1      -0.595  -0.439  -5.126  0.00  0.00     0.051 A 
ATOM      5  C5  IND d   1       0.462   0.031  -4.398  0.00  0.00    -0.031 A 
ATOM      6  C6  IND d   1       1.442  -0.809  -3.910  0.00  0.00     0.015 A 
ATOM      7  C7  IND d   1       1.407  -2.155  -4.143  0.00  0.00    -0.016 A 
ATOM      8  C8  IND d   1       0.332  -2.637  -4.876  0.00  0.00    -0.047 A 
ATOM      9  C9  IND d   1      -0.688  -1.795  -5.337  0.00  0.00    -0.096 A 
ATOM     10  HN1 IND d   1       0.467  -4.627  -5.084  0.00  0.00     0.298 HD
ENDROOT
TORSDOF 0
ENDMDL
