MODEL 1
REMARK minimizedAffinity 15.0538692
REMARK minimizedRMSD -1
REMARK  0 active torsions:
REMARK  status: ('A' for Active; 'I' for Inactive)
ROOT
ATOM      1  N1  IND d   1       2.046  -1.872  -3.912  0.00  0.00    -0.196 N 
ATOM      2  C2  IND d   1       0.831  -1.479  -3.425  0.00  0.00     0.054 A 
ATOM      3  C3  IND d   1       0.554  -0.215  -3.816  0.00  0.00    -0.031 A 
ATOM      4  C4  IND d   1       1.905   1.359  -5.341  0.00  0.00     0.051 A 
ATOM      5  C5  IND d   1       3.098   1.458  -6.000  0.00  0.00    -0.031 A 
ATOM      6  C6  IND d   1       4.019   0.430  -5.999  0.00  0.00     0.015 A 
ATOM      7  C7  IND d   1       3.775  -0.745  -5.346  0.00  0.00    -0.016 A 
ATOM      8  C8  IND d   1       2.568  -0.846  -4.669  0.00  0.00    -0.047 A 
ATOM      9  C9  IND d   1       1.647   0.210  -4.631  0.00  0.00    -0.096 A 
ATOM     10  HN1 IND d   1       2.422  -2.632  -3.770  0.00  0.00     0.298 HD
ENDROOT
TORSDOF 0
ENDMDL
