MODEL 1
REMARK minimizedAffinity 16.9080772
REMARK minimizedRMSD -1
REMARK  0 active torsions:
REMARK  status: ('A' for Active; 'I' for Inactive)
ROOT
ATOM      1  N1  IND d   1       1.750   4.885  -5.248  0.00  0.00    -0.196 N 
ATOM      2  C2  IND d   1       2.014   5.998  -4.499  0.00  0.00     0.054 A 
ATOM      3  C3  IND d   1       3.305   6.000  -4.100  0.00  0.00    -0.031 A 
ATOM      4  C4  IND d   1       5.188   4.331  -4.643  0.00  0.00     0.051 A 
ATOM      5  C5  IND d   1       5.422   3.135  -5.261  0.00  0.00    -0.031 A 
ATOM      6  C6  IND d   1       4.424   2.448  -5.922  0.00  0.00     0.015 A 
ATOM      7  C7  IND d   1       3.152   2.940  -6.000  0.00  0.00    -0.016 A 
ATOM      8  C8  IND d   1       2.909   4.151  -5.367  0.00  0.00    -0.047 A 
ATOM      9  C9  IND d   1       3.908   4.832  -4.659  0.00  0.00    -0.096 A 
ATOM     10  HN1 IND d   1       0.987   4.678  -5.587  0.00  0.00     0.298 HD
ENDROOT
TORSDOF 0
ENDMDL
