MODEL 1
REMARK minimizedAffinity 17.8700924
REMARK minimizedRMSD -1
REMARK  0 active torsions:
REMARK  status: ('A' for Active; 'I' for Inactive)
ROOT
ATOM      1  N1  IND d   1       1.211  -1.937  -2.899  0.00  0.00    -0.196 N 
ATOM      2  C2  IND d   1       0.750  -0.857  -2.201  0.00  0.00     0.054 A 
ATOM      3  C3  IND d   1       1.120   0.291  -2.811  0.00  0.00    -0.031 A 
ATOM      4  C4  IND d   1       2.398   0.631  -5.020  0.00  0.00     0.051 A 
ATOM      5  C5  IND d   1       3.058  -0.057  -5.999  0.00  0.00    -0.031 A 
ATOM      6  C6  IND d   1       3.136  -1.435  -5.997  0.00  0.00     0.015 A 
ATOM      7  C7  IND d   1       2.543  -2.180  -5.016  0.00  0.00    -0.016 A 
ATOM      8  C8  IND d   1       1.878  -1.484  -4.016  0.00  0.00    -0.047 A 
ATOM      9  C9  IND d   1       1.833  -0.085  -3.991  0.00  0.00    -0.096 A 
ATOM     10  HN1 IND d   1       1.103  -2.761  -2.678  0.00  0.00     0.298 HD
ENDROOT
TORSDOF 0
ENDMDL
