MODEL 1
REMARK minimizedAffinity 15.4328117
REMARK minimizedRMSD -1
REMARK  0 active torsions:
REMARK  status: ('A' for Active; 'I' for Inactive)
ROOT
ATOM      1  N1  IND d   1       1.258   0.216  -4.581  0.00  0.00    -0.196 N 
ATOM      2  C2  IND d   1       1.784  -0.028  -3.343  0.00  0.00     0.054 A 
ATOM      3  C3  IND d   1       1.244  -1.148  -2.814  0.00  0.00    -0.031 A 
ATOM      4  C4  IND d   1      -0.447  -2.793  -3.846  0.00  0.00     0.051 A 
ATOM      5  C5  IND d   1      -1.243  -2.973  -4.943  0.00  0.00    -0.031 A 
ATOM      6  C6  IND d   1      -1.244  -2.083  -5.997  0.00  0.00     0.015 A 
ATOM      7  C7  IND d   1      -0.437  -0.980  -5.999  0.00  0.00    -0.016 A 
ATOM      8  C8  IND d   1       0.367  -0.790  -4.884  0.00  0.00    -0.047 A 
ATOM      9  C9  IND d   1       0.341  -1.667  -3.793  0.00  0.00    -0.096 A 
ATOM     10  HN1 IND d   1       1.450   0.886  -5.085  0.00  0.00     0.298 HD
ENDROOT
TORSDOF 0
ENDMDL
