MODEL 1
REMARK minimizedAffinity 7.68892288
REMARK minimizedRMSD -1
REMARK  0 active torsions:
REMARK  status: ('A' for Active; 'I' for Inactive)
ROOT
ATOM      1  N1  IND d   1      -5.257  -5.226  -1.956  0.00  0.00    -0.196 N 
ATOM      2  C2  IND d   1      -4.599  -6.000  -1.040  0.00  0.00     0.054 A 
ATOM      3  C3  IND d   1      -4.180  -5.245  -0.001  0.00  0.00    -0.031 A 
ATOM      4  C4  IND d   1      -4.551  -2.738   0.455  0.00  0.00     0.051 A 
ATOM      5  C5  IND d   1      -5.063  -1.605  -0.111  0.00  0.00    -0.031 A 
ATOM      6  C6  IND d   1      -5.681  -1.621  -1.345  0.00  0.00     0.015 A 
ATOM      7  C7  IND d   1      -5.820  -2.779  -2.056  0.00  0.00    -0.016 A 
ATOM      8  C8  IND d   1      -5.295  -3.931  -1.488  0.00  0.00    -0.047 A 
ATOM      9  C9  IND d   1      -4.629  -3.913  -0.255  0.00  0.00    -0.096 A 
ATOM     10  HN1 IND d   1      -5.590  -5.502  -2.699  0.00  0.00     0.298 HD
ENDROOT
TORSDOF 0
ENDMDL
