MODEL 1
REMARK minimizedAffinity 15.1071377
REMARK minimizedRMSD -1
REMARK  0 active torsions:
REMARK  status: ('A' for Active; 'I' for Inactive)
ROOT
ATOM      1  N1  IND d   1       1.275   2.726  -2.646  0.00  0.00    -0.196 N 
ATOM      2  C2  IND d   1       1.966   2.575  -1.476  0.00  0.00     0.054 A 
ATOM      3  C3  IND d   1       3.236   3.015  -1.619  0.00  0.00    -0.031 A 
ATOM      4  C4  IND d   1       4.365   4.118  -3.653  0.00  0.00     0.051 A 
ATOM      5  C5  IND d   1       4.148   4.437  -4.964  0.00  0.00    -0.031 A 
ATOM      6  C6  IND d   1       2.937   4.200  -5.581  0.00  0.00     0.015 A 
ATOM      7  C7  IND d   1       1.889   3.643  -4.904  0.00  0.00    -0.016 A 
ATOM      8  C8  IND d   1       2.108   3.311  -3.575  0.00  0.00    -0.047 A 
ATOM      9  C9  IND d   1       3.349   3.510  -2.955  0.00  0.00    -0.096 A 
ATOM     10  HN1 IND d   1       0.458   2.495  -2.780  0.00  0.00     0.298 HD
ENDROOT
TORSDOF 0
ENDMDL
