MODEL 1
REMARK minimizedAffinity 18.1972103
REMARK minimizedRMSD -1
REMARK  0 active torsions:
REMARK  status: ('A' for Active; 'I' for Inactive)
ROOT
ATOM      1  N1  IND d   1       3.479   6.000  -4.120  0.00  0.00    -0.196 N 
ATOM      2  C2  IND d   1       2.171   6.000  -4.517  0.00  0.00     0.054 A 
ATOM      3  C3  IND d   1       1.909   4.910  -5.273  0.00  0.00    -0.031 A 
ATOM      4  C4  IND d   1       3.450   2.946  -5.902  0.00  0.00     0.051 A 
ATOM      5  C5  IND d   1       4.744   2.518  -5.803  0.00  0.00    -0.031 A 
ATOM      6  C6  IND d   1       5.701   3.241  -5.121  0.00  0.00     0.015 A 
ATOM      7  C7  IND d   1       5.396   4.420  -4.502  0.00  0.00    -0.016 A 
ATOM      8  C8  IND d   1       4.085   4.862  -4.606  0.00  0.00    -0.047 A 
ATOM      9  C9  IND d   1       3.119   4.153  -5.332  0.00  0.00    -0.096 A 
ATOM     10  HN1 IND d   1       3.860   6.608  -3.647  0.00  0.00     0.298 HD
ENDROOT
TORSDOF 0
ENDMDL
