MODEL 1
REMARK minimizedAffinity 7.60454035
REMARK minimizedRMSD -1
REMARK  0 active torsions:
REMARK  status: ('A' for Active; 'I' for Inactive)
ROOT
ATOM      1  N1  IND d   1       1.935   3.953  -1.033  0.00  0.00    -0.196 N 
ATOM      2  C2  IND d   1       1.821   2.599  -0.880  0.00  0.00     0.054 A 
ATOM      3  C3  IND d   1       2.372   1.958  -1.934  0.00  0.00    -0.031 A 
ATOM      4  C4  IND d   1       3.608   2.928  -3.974  0.00  0.00     0.051 A 
ATOM      5  C5  IND d   1       3.933   4.113  -4.573  0.00  0.00    -0.031 A 
ATOM      6  C6  IND d   1       3.605   5.329  -4.010  0.00  0.00     0.015 A 
ATOM      7  C7  IND d   1       2.946   5.406  -2.816  0.00  0.00    -0.016 A 
ATOM      8  C8  IND d   1       2.608   4.206  -2.208  0.00  0.00    -0.047 A 
ATOM      9  C9  IND d   1       2.901   2.968  -2.795  0.00  0.00    -0.096 A 
ATOM     10  HN1 IND d   1       1.637   4.546  -0.486  0.00  0.00     0.298 HD
ENDROOT
TORSDOF 0
ENDMDL
