MODEL 1
REMARK minimizedAffinity 12.9026022
REMARK minimizedRMSD -1
REMARK  0 active torsions:
REMARK  status: ('A' for Active; 'I' for Inactive)
ROOT
ATOM      1  N1  IND d   1      -1.439  -5.814  -5.975  0.00  0.00    -0.196 N 
ATOM      2  C2  IND d   1      -2.794  -5.997  -5.988  0.00  0.00     0.054 A 
ATOM      3  C3  IND d   1      -3.430  -4.805  -5.962  0.00  0.00    -0.031 A 
ATOM      4  C4  IND d   1      -2.447  -2.426  -5.999  0.00  0.00     0.051 A 
ATOM      5  C5  IND d   1      -1.260  -1.750  -5.953  0.00  0.00    -0.031 A 
ATOM      6  C6  IND d   1      -0.048  -2.407  -5.914  0.00  0.00     0.015 A 
ATOM      7  C7  IND d   1       0.024  -3.772  -5.930  0.00  0.00    -0.016 A 
ATOM      8  C8  IND d   1      -1.180  -4.461  -5.970  0.00  0.00    -0.047 A 
ATOM      9  C9  IND d   1      -2.415  -3.800  -5.968  0.00  0.00    -0.096 A 
ATOM     10  HN1 IND d   1      -0.848  -6.439  -5.970  0.00  0.00     0.298 HD
ENDROOT
TORSDOF 0
ENDMDL
