MODEL 1
REMARK minimizedAffinity 12.6842813
REMARK minimizedRMSD -1
REMARK  0 active torsions:
REMARK  status: ('A' for Active; 'I' for Inactive)
ROOT
ATOM      1  N1  IND d   1       0.985  -0.495  -3.013  0.00  0.00    -0.196 N 
ATOM      2  C2  IND d   1       1.904  -1.024  -3.876  0.00  0.00     0.054 A 
ATOM      3  C3  IND d   1       2.886  -0.129  -4.125  0.00  0.00    -0.031 A 
ATOM      4  C4  IND d   1       3.241   2.225  -3.144  0.00  0.00     0.051 A 
ATOM      5  C5  IND d   1       2.647   3.158  -2.341  0.00  0.00    -0.031 A 
ATOM      6  C6  IND d   1       1.446   2.915  -1.706  0.00  0.00     0.015 A 
ATOM      7  C7  IND d   1       0.797   1.721  -1.842  0.00  0.00    -0.016 A 
ATOM      8  C8  IND d   1       1.393   0.773  -2.662  0.00  0.00    -0.047 A 
ATOM      9  C9  IND d   1       2.591   1.030  -3.343  0.00  0.00    -0.096 A 
ATOM     10  HN1 IND d   1       0.273  -0.888  -2.735  0.00  0.00     0.298 HD
ENDROOT
TORSDOF 0
ENDMDL
