MODEL 1
REMARK minimizedAffinity 7.9919529
REMARK minimizedRMSD -1
REMARK  0 active torsions:
REMARK  status: ('A' for Active; 'I' for Inactive)
ROOT
ATOM      1  N1  IND d   1       2.955  -0.035  -4.172  0.00  0.00    -0.196 N 
ATOM      2  C2  IND d   1       2.000  -0.958  -4.498  0.00  0.00     0.054 A 
ATOM      3  C3  IND d   1       0.934  -0.842  -3.674  0.00  0.00    -0.031 A 
ATOM      4  C4  IND d   1       0.500   0.858  -1.790  0.00  0.00     0.051 A 
ATOM      5  C5  IND d   1       1.097   1.873  -1.097  0.00  0.00    -0.031 A 
ATOM      6  C6  IND d   1       2.368   2.315  -1.401  0.00  0.00     0.015 A 
ATOM      7  C7  IND d   1       3.089   1.763  -2.423  0.00  0.00    -0.016 A 
ATOM      8  C8  IND d   1       2.489   0.727  -3.124  0.00  0.00    -0.047 A 
ATOM      9  C9  IND d   1       1.216   0.246  -2.792  0.00  0.00    -0.096 A 
ATOM     10  HN1 IND d   1       3.719   0.054  -4.558  0.00  0.00     0.298 HD
ENDROOT
TORSDOF 0
ENDMDL
