MODEL 1
REMARK minimizedAffinity 4.1012888
REMARK minimizedRMSD -1
REMARK  0 active torsions:
REMARK  status: ('A' for Active; 'I' for Inactive)
ROOT
ATOM      1  N1  IND d   1      -0.213  -3.640  -4.647  0.00  0.00    -0.196 N 
ATOM      2  C2  IND d   1      -1.316  -3.632  -5.454  0.00  0.00     0.054 A 
ATOM      3  C3  IND d   1      -1.775  -2.370  -5.612  0.00  0.00    -0.031 A 
ATOM      4  C4  IND d   1      -0.810  -0.156  -4.719  0.00  0.00     0.051 A 
ATOM      5  C5  IND d   1       0.167   0.342  -3.904  0.00  0.00    -0.031 A 
ATOM      6  C6  IND d   1       1.088  -0.478  -3.285  0.00  0.00     0.015 A 
ATOM      7  C7  IND d   1       1.073  -1.832  -3.467  0.00  0.00    -0.016 A 
ATOM      8  C8  IND d   1       0.077  -2.342  -4.288  0.00  0.00    -0.047 A 
ATOM      9  C9  IND d   1      -0.886  -1.519  -4.886  0.00  0.00    -0.096 A 
ATOM     10  HN1 IND d   1       0.226  -4.338  -4.404  0.00  0.00     0.298 HD
ENDROOT
TORSDOF 0
ENDMDL
