MODEL 1
REMARK minimizedAffinity -5.83584881
REMARK minimizedRMSD -1
REMARK  0 active torsions:
REMARK  status: ('A' for Active; 'I' for Inactive)
ROOT
ATOM      1  C   UNL d   1      -0.881   3.409  -1.327  0.00  0.00     0.077 C 
ATOM      2  C1  UNL d   1      -0.462   2.325  -0.379  0.00  0.00    -0.074 A 
ATOM      3  C2  UNL d   1      -0.434   2.549   1.001  0.00  0.00    -0.005 A 
ATOM      4  C3  UNL d   1      -0.052   1.528   1.872  0.00  0.00     0.006 A 
ATOM      5  C4  UNL d   1       0.306   0.276   1.371  0.00  0.00    -0.005 A 
ATOM      6  C5  UNL d   1       0.284   0.033  -0.006  0.00  0.00    -0.074 A 
ATOM      7  C6  UNL d   1       0.656  -1.310  -0.559  0.00  0.00     0.077 C 
ATOM      8  C7  UNL d   1      -0.108   1.062  -0.873  0.00  0.00    -0.001 A 
ENDROOT
TORSDOF 0
ENDMDL
