MODEL 1
REMARK minimizedAffinity -2.77328086
REMARK minimizedRMSD -1
REMARK  0 active torsions:
REMARK  status: ('A' for Active; 'I' for Inactive)
ROOT
ATOM      1  C   UNL d   1       0.011  -3.622  -1.291  0.00  0.00     0.077 C 
ATOM      2  C1  UNL d   1       0.163  -2.238  -0.734  0.00  0.00    -0.074 A 
ATOM      3  C2  UNL d   1      -0.625  -1.182  -1.204  0.00  0.00    -0.005 A 
ATOM      4  C3  UNL d   1      -0.478   0.097  -0.669  0.00  0.00     0.006 A 
ATOM      5  C4  UNL d   1       0.456   0.334   0.340  0.00  0.00    -0.005 A 
ATOM      6  C5  UNL d   1       1.252  -0.709   0.823  0.00  0.00    -0.074 A 
ATOM      7  C6  UNL d   1       2.254  -0.473   1.914  0.00  0.00     0.077 C 
ATOM      8  C7  UNL d   1       1.094  -1.993   0.285  0.00  0.00    -0.001 A 
ENDROOT
TORSDOF 0
ENDMDL
