MODEL 1
REMARK minimizedAffinity -4.92046547
REMARK minimizedRMSD -1
REMARK  0 active torsions:
REMARK  status: ('A' for Active; 'I' for Inactive)
ROOT
ATOM      1  C   UNL d   1       0.380   3.222  -0.627  0.00  0.00     0.077 C 
ATOM      2  C1  UNL d   1       0.274   1.930   0.129  0.00  0.00    -0.074 A 
ATOM      3  C2  UNL d   1       0.197   1.919   1.525  0.00  0.00    -0.005 A 
ATOM      4  C3  UNL d   1       0.089   0.710   2.213  0.00  0.00     0.006 A 
ATOM      5  C4  UNL d   1       0.057  -0.496   1.514  0.00  0.00    -0.005 A 
ATOM      6  C5  UNL d   1       0.132  -0.504   0.117  0.00  0.00    -0.074 A 
ATOM      7  C6  UNL d   1       0.089  -1.792  -0.651  0.00  0.00     0.077 C 
ATOM      8  C7  UNL d   1       0.233   0.714  -0.568  0.00  0.00    -0.001 A 
ENDROOT
TORSDOF 0
ENDMDL
