MODEL 1
REMARK minimizedAffinity -4.57900333
REMARK minimizedRMSD -1
REMARK  0 active torsions:
REMARK  status: ('A' for Active; 'I' for Inactive)
ROOT
ATOM      1  C   UNL d   1       0.745  -1.819  -1.121  0.00  0.00     0.077 C 
ATOM      2  C1  UNL d   1       0.378  -0.396  -0.822  0.00  0.00    -0.074 A 
ATOM      3  C2  UNL d   1       0.240   0.543  -1.849  0.00  0.00    -0.005 A 
ATOM      4  C3  UNL d   1      -0.111   1.860  -1.556  0.00  0.00     0.006 A 
ATOM      5  C4  UNL d   1      -0.328   2.252  -0.234  0.00  0.00    -0.005 A 
ATOM      6  C5  UNL d   1      -0.196   1.327   0.806  0.00  0.00    -0.074 A 
ATOM      7  C6  UNL d   1      -0.435   1.730   2.231  0.00  0.00     0.077 C 
ATOM      8  C7  UNL d   1       0.150   0.004   0.503  0.00  0.00    -0.001 A 
ENDROOT
TORSDOF 0
ENDMDL
