MODEL 1
REMARK minimizedAffinity -3.20162773
REMARK minimizedRMSD -1
REMARK  0 active torsions:
REMARK  status: ('A' for Active; 'I' for Inactive)
ROOT
ATOM      1  C   UNL d   1       0.077   2.216   1.950  0.00  0.00     0.077 C 
ATOM      2  C1  UNL d   1       0.204   1.563   0.606  0.00  0.00    -0.074 A 
ATOM      3  C2  UNL d   1      -0.022   2.287  -0.569  0.00  0.00    -0.005 A 
ATOM      4  C3  UNL d   1       0.109   1.669  -1.813  0.00  0.00     0.006 A 
ATOM      5  C4  UNL d   1       0.467   0.323  -1.894  0.00  0.00    -0.005 A 
ATOM      6  C5  UNL d   1       0.698  -0.417  -0.729  0.00  0.00    -0.074 A 
ATOM      7  C6  UNL d   1       1.093  -1.863  -0.799  0.00  0.00     0.077 C 
ATOM      8  C7  UNL d   1       0.571   0.213   0.516  0.00  0.00    -0.001 A 
ENDROOT
TORSDOF 0
ENDMDL
