MODEL 1
REMARK minimizedAffinity -4.42977953
REMARK minimizedRMSD -1
REMARK  0 active torsions:
REMARK  status: ('A' for Active; 'I' for Inactive)
ROOT
ATOM      1  C   UNL d   1      -0.624   3.941  -1.654  0.00  0.00     0.077 C 
ATOM      2  C1  UNL d   1      -0.419   3.087  -0.438  0.00  0.00    -0.074 A 
ATOM      3  C2  UNL d   1      -0.633   3.600   0.845  0.00  0.00    -0.005 A 
ATOM      4  C3  UNL d   1      -0.447   2.791   1.967  0.00  0.00     0.006 A 
ATOM      5  C4  UNL d   1      -0.048   1.463   1.816  0.00  0.00    -0.005 A 
ATOM      6  C5  UNL d   1       0.170   0.932   0.541  0.00  0.00    -0.074 A 
ATOM      7  C6  UNL d   1       0.590  -0.497   0.361  0.00  0.00     0.077 C 
ATOM      8  C7  UNL d   1      -0.025   1.749  -0.581  0.00  0.00    -0.001 A 
ENDROOT
TORSDOF 0
ENDMDL
