MODEL 1
REMARK minimizedAffinity 0.427602053
REMARK minimizedRMSD -1
REMARK  0 active torsions:
REMARK  status: ('A' for Active; 'I' for Inactive)
ROOT
ATOM      1  C   UNL d   1       0.202   1.087  -2.579  0.00  0.00     0.077 C 
ATOM      2  C1  UNL d   1       0.337   0.705  -1.135  0.00  0.00    -0.074 A 
ATOM      3  C2  UNL d   1       0.776  -0.571  -0.767  0.00  0.00    -0.005 A 
ATOM      4  C3  UNL d   1       0.905  -0.908   0.580  0.00  0.00     0.006 A 
ATOM      5  C4  UNL d   1       0.597   0.025   1.571  0.00  0.00    -0.005 A 
ATOM      6  C5  UNL d   1       0.157   1.305   1.222  0.00  0.00    -0.074 A 
ATOM      7  C6  UNL d   1      -0.169   2.323   2.274  0.00  0.00     0.077 C 
ATOM      8  C7  UNL d   1       0.037   1.639  -0.134  0.00  0.00    -0.001 A 
ENDROOT
TORSDOF 0
ENDMDL
