MODEL 1
REMARK minimizedAffinity -2.40970397
REMARK minimizedRMSD -1
REMARK  0 active torsions:
REMARK  status: ('A' for Active; 'I' for Inactive)
ROOT
ATOM      1  C1  BNZ d   1       0.042   0.675   1.295  0.00  0.00     0.000 A 
ATOM      2  C2  BNZ d   1       0.241   1.995   1.601  0.00  0.00     0.000 A 
ATOM      3  C3  BNZ d   1       1.021   2.788   0.807  0.00  0.00     0.000 A 
ATOM      4  C4  BNZ d   1       1.632   2.252  -0.268  0.00  0.00     0.000 A 
ATOM      5  C5  BNZ d   1       1.449   0.921  -0.586  0.00  0.00     0.000 A 
ATOM      6  C6  BNZ d   1       0.632   0.135   0.194  0.00  0.00     0.000 A 
ENDROOT
TORSDOF 0
ENDMDL
