MODEL 1
REMARK minimizedAffinity -3.7155149
REMARK minimizedRMSD -1
REMARK  0 active torsions:
REMARK  status: ('A' for Active; 'I' for Inactive)
ROOT
ATOM      1  C1  BNZ d   1       0.671   1.741   2.464  0.00  0.00     0.000 A 
ATOM      2  C2  BNZ d   1      -0.062   0.664   2.042  0.00  0.00     0.000 A 
ATOM      3  C3  BNZ d   1      -0.428   0.537   0.731  0.00  0.00     0.000 A 
ATOM      4  C4  BNZ d   1      -0.096   1.505  -0.147  0.00  0.00     0.000 A 
ATOM      5  C5  BNZ d   1       0.635   2.601   0.264  0.00  0.00     0.000 A 
ATOM      6  C6  BNZ d   1       1.035   2.707   1.577  0.00  0.00     0.000 A 
ENDROOT
TORSDOF 0
ENDMDL
