MODEL 1
REMARK minimizedAffinity -3.45128131
REMARK minimizedRMSD -1
REMARK  0 active torsions:
REMARK  status: ('A' for Active; 'I' for Inactive)
ROOT
ATOM      1  C1  BNZ d   1      -0.476  -1.169  -0.474  0.00  0.00     0.000 A 
ATOM      2  C2  BNZ d   1      -0.845   0.121  -0.199  0.00  0.00     0.000 A 
ATOM      3  C3  BNZ d   1       0.098   1.090   0.006  0.00  0.00     0.000 A 
ATOM      4  C4  BNZ d   1       1.405   0.759  -0.024  0.00  0.00     0.000 A 
ATOM      5  C5  BNZ d   1       1.792  -0.539  -0.291  0.00  0.00     0.000 A 
ATOM      6  C6  BNZ d   1       0.841  -1.503  -0.536  0.00  0.00     0.000 A 
ENDROOT
TORSDOF 0
ENDMDL
