MODEL 1
REMARK minimizedAffinity -3.68144155
REMARK minimizedRMSD -1
REMARK  0 active torsions:
REMARK  status: ('A' for Active; 'I' for Inactive)
ROOT
ATOM      1  C1  BNZ d   1       0.492   1.702  -0.375  0.00  0.00     0.000 A 
ATOM      2  C2  BNZ d   1      -0.401   0.666  -0.443  0.00  0.00     0.000 A 
ATOM      3  C3  BNZ d   1       0.031  -0.625  -0.562  0.00  0.00     0.000 A 
ATOM      4  C4  BNZ d   1       1.353  -0.876  -0.653  0.00  0.00     0.000 A 
ATOM      5  C5  BNZ d   1       2.266   0.158  -0.595  0.00  0.00     0.000 A 
ATOM      6  C6  BNZ d   1       1.829   1.453  -0.436  0.00  0.00     0.000 A 
ENDROOT
TORSDOF 0
ENDMDL
