MODEL 1
REMARK minimizedAffinity -4.49878311
REMARK minimizedRMSD -1
REMARK  0 active torsions:
REMARK  status: ('A' for Active; 'I' for Inactive)
ROOT
ATOM      1  C1  BNZ d   1       1.480   0.379  -0.195  0.00  0.00     0.000 A 
ATOM      2  C2  BNZ d   1       0.544  -0.621  -0.219  0.00  0.00     0.000 A 
ATOM      3  C3  BNZ d   1      -0.606  -0.521   0.514  0.00  0.00     0.000 A 
ATOM      4  C4  BNZ d   1      -0.800   0.557   1.300  0.00  0.00     0.000 A 
ATOM      5  C5  BNZ d   1       0.138   1.569   1.342  0.00  0.00     0.000 A 
ATOM      6  C6  BNZ d   1       1.276   1.484   0.573  0.00  0.00     0.000 A 
ENDROOT
TORSDOF 0
ENDMDL
