MODEL 1
REMARK minimizedAffinity -4.05792999
REMARK minimizedRMSD -1
REMARK  0 active torsions:
REMARK  status: ('A' for Active; 'I' for Inactive)
ROOT
ATOM      1  C1  BNZ d   1       0.418   1.574  -0.726  0.00  0.00     0.000 A 
ATOM      2  C2  BNZ d   1      -0.556   0.612  -0.768  0.00  0.00     0.000 A 
ATOM      3  C3  BNZ d   1      -0.312  -0.651  -0.307  0.00  0.00     0.000 A 
ATOM      4  C4  BNZ d   1       0.915  -0.962   0.158  0.00  0.00     0.000 A 
ATOM      5  C5  BNZ d   1       1.910  -0.006   0.198  0.00  0.00     0.000 A 
ATOM      6  C6  BNZ d   1       1.650   1.275  -0.231  0.00  0.00     0.000 A 
ENDROOT
TORSDOF 0
ENDMDL
