MODEL 1
REMARK minimizedAffinity -4.85513449
REMARK minimizedRMSD -1
REMARK  0 active torsions:
REMARK  status: ('A' for Active; 'I' for Inactive)
ROOT
ATOM      1  C1  BNZ d   1       2.914   1.084   2.335  0.00  0.00     0.000 A 
ATOM      2  C2  BNZ d   1       2.975   1.535   1.043  0.00  0.00     0.000 A 
ATOM      3  C3  BNZ d   1       1.967   2.295   0.519  0.00  0.00     0.000 A 
ATOM      4  C4  BNZ d   1       0.882   2.569   1.272  0.00  0.00     0.000 A 
ATOM      5  C5  BNZ d   1       0.802   2.113   2.573  0.00  0.00     0.000 A 
ATOM      6  C6  BNZ d   1       1.836   1.382   3.110  0.00  0.00     0.000 A 
ENDROOT
TORSDOF 0
ENDMDL
