MODEL 1
REMARK minimizedAffinity -4.69400883
REMARK minimizedRMSD -1
REMARK  0 active torsions:
REMARK  status: ('A' for Active; 'I' for Inactive)
ROOT
ATOM      1  C1  BNZ d   1      -0.046  -0.109   0.439  0.00  0.00     0.000 A 
ATOM      2  C2  BNZ d   1      -0.467   0.744   1.424  0.00  0.00     0.000 A 
ATOM      3  C3  BNZ d   1       0.029   2.015   1.507  0.00  0.00     0.000 A 
ATOM      4  C4  BNZ d   1       0.973   2.417   0.632  0.00  0.00     0.000 A 
ATOM      5  C5  BNZ d   1       1.414   1.565  -0.361  0.00  0.00     0.000 A 
ATOM      6  C6  BNZ d   1       0.884   0.299  -0.466  0.00  0.00     0.000 A 
ENDROOT
TORSDOF 0
ENDMDL
