MODEL 1
REMARK minimizedAffinity -2.27887321
REMARK minimizedRMSD -1
REMARK  0 active torsions:
REMARK  status: ('A' for Active; 'I' for Inactive)
ROOT
ATOM      1  C1  BNZ d   1       1.731   1.934   0.113  0.00  0.00     0.000 A 
ATOM      2  C2  BNZ d   1       1.001   2.504   1.121  0.00  0.00     0.000 A 
ATOM      3  C3  BNZ d   1       0.063   1.781   1.803  0.00  0.00     0.000 A 
ATOM      4  C4  BNZ d   1      -0.172   0.501   1.449  0.00  0.00     0.000 A 
ATOM      5  C5  BNZ d   1       0.549  -0.086   0.429  0.00  0.00     0.000 A 
ATOM      6  C6  BNZ d   1       1.519   0.634  -0.229  0.00  0.00     0.000 A 
ENDROOT
TORSDOF 0
ENDMDL
