MODEL 1
REMARK minimizedAffinity -3.69115758
REMARK minimizedRMSD -1
REMARK  0 active torsions:
REMARK  status: ('A' for Active; 'I' for Inactive)
ROOT
ATOM      1  C1  BNZ d   1       0.386  -0.415  -0.170  0.00  0.00     0.000 A 
ATOM      2  C2  BNZ d   1       0.065   0.916  -0.159  0.00  0.00     0.000 A 
ATOM      3  C3  BNZ d   1       0.984   1.860  -0.522  0.00  0.00     0.000 A 
ATOM      4  C4  BNZ d   1       2.233   1.476  -0.856  0.00  0.00     0.000 A 
ATOM      5  C5  BNZ d   1       2.575   0.138  -0.863  0.00  0.00     0.000 A 
ATOM      6  C6  BNZ d   1       1.635  -0.812  -0.535  0.00  0.00     0.000 A 
ENDROOT
TORSDOF 0
ENDMDL
