MODEL 1
REMARK minimizedAffinity -4.63553715
REMARK minimizedRMSD -1
REMARK  0 active torsions:
REMARK  status: ('A' for Active; 'I' for Inactive)
ROOT
ATOM      1  C1  BNZ d   1      -0.601   1.068   1.532  0.00  0.00     0.000 A 
ATOM      2  C2  BNZ d   1       0.099   2.244   1.596  0.00  0.00     0.000 A 
ATOM      3  C3  BNZ d   1       1.157   2.475   0.762  0.00  0.00     0.000 A 
ATOM      4  C4  BNZ d   1       1.539   1.516  -0.106  0.00  0.00     0.000 A 
ATOM      5  C5  BNZ d   1       0.850   0.321  -0.176  0.00  0.00     0.000 A 
ATOM      6  C6  BNZ d   1      -0.239   0.108   0.638  0.00  0.00     0.000 A 
ENDROOT
TORSDOF 0
ENDMDL
