MODEL 1
REMARK minimizedAffinity -3.26990366
REMARK minimizedRMSD -1
REMARK  0 active torsions:
REMARK  status: ('A' for Active; 'I' for Inactive)
ROOT
ATOM      1  C1  BNZ d   1      -0.746  -0.453  -0.478  0.00  0.00     0.000 A 
ATOM      2  C2  BNZ d   1      -0.813   0.835  -0.016  0.00  0.00     0.000 A 
ATOM      3  C3  BNZ d   1       0.262   1.414   0.598  0.00  0.00     0.000 A 
ATOM      4  C4  BNZ d   1       1.386   0.693   0.786  0.00  0.00     0.000 A 
ATOM      5  C5  BNZ d   1       1.466  -0.609   0.335  0.00  0.00     0.000 A 
ATOM      6  C6  BNZ d   1       0.395  -1.176  -0.318  0.00  0.00     0.000 A 
ENDROOT
TORSDOF 0
ENDMDL
