MODEL 1
REMARK minimizedAffinity -4.82035828
REMARK minimizedRMSD -1
REMARK  0 active torsions:
REMARK  status: ('A' for Active; 'I' for Inactive)
ROOT
ATOM      1  C1  BNZ d   1       0.796   1.804   2.138  0.00  0.00     0.000 A 
ATOM      2  C2  BNZ d   1       0.179   0.775   1.478  0.00  0.00     0.000 A 
ATOM      3  C3  BNZ d   1       0.120   0.754   0.113  0.00  0.00     0.000 A 
ATOM      4  C4  BNZ d   1       0.642   1.780  -0.589  0.00  0.00     0.000 A 
ATOM      5  C5  BNZ d   1       1.259   2.830   0.062  0.00  0.00     0.000 A 
ATOM      6  C6  BNZ d   1       1.351   2.828   1.435  0.00  0.00     0.000 A 
ENDROOT
TORSDOF 0
ENDMDL
