MODEL 1
REMARK minimizedAffinity -3.34956264
REMARK minimizedRMSD -1
REMARK  0 active torsions:
REMARK  status: ('A' for Active; 'I' for Inactive)
ROOT
ATOM      1  C1  BNZ d   1      -0.637  -0.722   0.800  0.00  0.00     0.000 A 
ATOM      2  C2  BNZ d   1      -0.260   0.579   1.000  0.00  0.00     0.000 A 
ATOM      3  C3  BNZ d   1       0.871   1.078   0.416  0.00  0.00     0.000 A 
ATOM      4  C4  BNZ d   1       1.644   0.266  -0.333  0.00  0.00     0.000 A 
ATOM      5  C5  BNZ d   1       1.282  -1.051  -0.536  0.00  0.00     0.000 A 
ATOM      6  C6  BNZ d   1       0.123  -1.539   0.021  0.00  0.00     0.000 A 
ENDROOT
TORSDOF 0
ENDMDL
