MODEL 1
REMARK minimizedAffinity -4.27161741
REMARK minimizedRMSD -1
REMARK  0 active torsions:
REMARK  status: ('A' for Active; 'I' for Inactive)
ROOT
ATOM      1  C1  BNZ d   1      -0.928  -0.977   0.455  0.00  0.00     0.000 A 
ATOM      2  C2  BNZ d   1       0.259  -1.177  -0.197  0.00  0.00     0.000 A 
ATOM      3  C3  BNZ d   1       1.215  -0.201  -0.225  0.00  0.00     0.000 A 
ATOM      4  C4  BNZ d   1       0.968   0.987   0.363  0.00  0.00     0.000 A 
ATOM      5  C5  BNZ d   1      -0.228   1.208   1.016  0.00  0.00     0.000 A 
ATOM      6  C6  BNZ d   1      -1.173   0.209   1.076  0.00  0.00     0.000 A 
ENDROOT
TORSDOF 0
ENDMDL
