MODEL 1
REMARK minimizedAffinity -5.27321339
REMARK minimizedRMSD -1
REMARK  0 active torsions:
REMARK  status: ('A' for Active; 'I' for Inactive)
ROOT
ATOM      1  C1  BNZ d   1      -0.274   0.187   1.562  0.00  0.00     0.000 A 
ATOM      2  C2  BNZ d   1      -0.036   1.515   1.796  0.00  0.00     0.000 A 
ATOM      3  C3  BNZ d   1       0.771   2.238   0.963  0.00  0.00     0.000 A 
ATOM      4  C4  BNZ d   1       1.371   1.624  -0.077  0.00  0.00     0.000 A 
ATOM      5  C5  BNZ d   1       1.148   0.283  -0.321  0.00  0.00     0.000 A 
ATOM      6  C6  BNZ d   1       0.304  -0.432   0.497  0.00  0.00     0.000 A 
ENDROOT
TORSDOF 0
ENDMDL
