MODEL 1
REMARK minimizedAffinity 1.78555954
REMARK minimizedRMSD -1
REMARK  1 active torsions:
REMARK  status: ('A' for Active; 'I' for Inactive)
REMARK    1  A    between atoms: N_2  and  C1_3 
ROOT
ATOM      1  C1  UNL d   1      -2.119  -0.462   2.379  0.00  0.00     0.143 A 
ATOM      2  C2  UNL d   1      -3.077  -1.316   2.937  0.00  0.00    -0.057 A 
ATOM      3  C3  UNL d   1      -2.775  -2.126   4.038  0.00  0.00     0.033 A 
ATOM      4  C4  UNL d   1      -1.496  -2.118   4.585  0.00  0.00    -0.042 A 
ATOM      5  C5  UNL d   1      -0.521  -1.295   4.032  0.00  0.00     0.033 A 
ATOM      6  C6  UNL d   1      -0.831  -0.484   2.936  0.00  0.00    -0.057 A 
ENDROOT
BRANCH   1   7
ATOM      7  N   UNL d   1      -2.330   0.294   1.224  0.00  0.00    -0.732 N 
ATOM      8  C   UNL d   1      -2.009  -0.247  -0.080  0.00  0.00     0.284 C 
ATOM      9  H3  UNL d   1      -3.203   0.815   1.254  0.00  0.00     0.395 HD
ENDBRANCH   1   7
TORSDOF 1
ENDMDL
