MODEL 1
REMARK minimizedAffinity 2.26574707
REMARK minimizedRMSD -1
REMARK  1 active torsions:
REMARK  status: ('A' for Active; 'I' for Inactive)
REMARK    1  A    between atoms: N_2  and  C1_3 
ROOT
ATOM      1  C1  UNL d   1       0.640  -0.327   1.416  0.00  0.00     0.143 A 
ATOM      2  C2  UNL d   1       0.438  -0.818   0.122  0.00  0.00    -0.057 A 
ATOM      3  C3  UNL d   1      -0.805  -0.702  -0.512  0.00  0.00     0.033 A 
ATOM      4  C4  UNL d   1      -1.879  -0.117   0.150  0.00  0.00    -0.042 A 
ATOM      5  C5  UNL d   1      -1.708   0.356   1.446  0.00  0.00     0.033 A 
ATOM      6  C6  UNL d   1      -0.462   0.243   2.072  0.00  0.00    -0.057 A 
ENDROOT
BRANCH   1   7
ATOM      7  N   UNL d   1       1.824  -0.499   2.138  0.00  0.00    -0.732 N 
ATOM      8  C   UNL d   1       1.790  -0.934   3.518  0.00  0.00     0.284 C 
ATOM      9  H3  UNL d   1       2.557  -0.936   1.583  0.00  0.00     0.395 HD
ENDBRANCH   1   7
TORSDOF 1
ENDMDL
