MODEL 1
REMARK minimizedAffinity 2.51920557
REMARK minimizedRMSD -1
REMARK  1 active torsions:
REMARK  status: ('A' for Active; 'I' for Inactive)
REMARK    1  A    between atoms: N_2  and  C1_3 
ROOT
ATOM      1  C1  UNL d   1       0.570  -0.789   2.430  0.00  0.00     0.143 A 
ATOM      2  C2  UNL d   1       1.924  -0.615   2.122  0.00  0.00    -0.057 A 
ATOM      3  C3  UNL d   1       2.928  -1.014   3.012  0.00  0.00     0.033 A 
ATOM      4  C4  UNL d   1       2.594  -1.569   4.243  0.00  0.00    -0.042 A 
ATOM      5  C5  UNL d   1       1.255  -1.728   4.581  0.00  0.00     0.033 A 
ATOM      6  C6  UNL d   1       0.257  -1.334   3.685  0.00  0.00    -0.057 A 
ENDROOT
BRANCH   1   7
ATOM      7  N   UNL d   1      -0.476  -0.323   1.629  0.00  0.00    -0.732 N 
ATOM      8  C   UNL d   1      -1.757   0.013   2.212  0.00  0.00     0.284 C 
ATOM      9  H3  UNL d   1      -0.158   0.331   0.917  0.00  0.00     0.395 HD
ENDBRANCH   1   7
TORSDOF 1
ENDMDL
