MODEL 1
REMARK minimizedAffinity -3.21661687
REMARK minimizedRMSD -1
REMARK  1 active torsions:
REMARK  status: ('A' for Active; 'I' for Inactive)
REMARK    1  A    between atoms: N_2  and  C1_3 
ROOT
ATOM      1  C1  UNL d   1       1.274  -0.821   3.447  0.00  0.00     0.143 A 
ATOM      2  C2  UNL d   1       1.654  -0.655   2.111  0.00  0.00    -0.057 A 
ATOM      3  C3  UNL d   1       0.756  -0.164   1.156  0.00  0.00     0.033 A 
ATOM      4  C4  UNL d   1      -0.552   0.144   1.517  0.00  0.00    -0.042 A 
ATOM      5  C5  UNL d   1      -0.959  -0.037   2.834  0.00  0.00     0.033 A 
ATOM      6  C6  UNL d   1      -0.055  -0.522   3.784  0.00  0.00    -0.057 A 
ENDROOT
BRANCH   1   7
ATOM      7  N   UNL d   1       2.092  -1.398   4.422  0.00  0.00    -0.732 N 
ATOM      8  C   UNL d   1       1.832  -1.174   5.828  0.00  0.00     0.284 C 
ATOM      9  H3  UNL d   1       2.352  -2.355   4.194  0.00  0.00     0.395 HD
ENDBRANCH   1   7
TORSDOF 1
ENDMDL
