MODEL 1
REMARK minimizedAffinity 6.42476082
REMARK minimizedRMSD -1
REMARK  1 active torsions:
REMARK  status: ('A' for Active; 'I' for Inactive)
REMARK    1  A    between atoms: N_2  and  C1_3 
ROOT
ATOM      1  C1  UNL d   1      -0.329  -0.644   3.248  0.00  0.00     0.143 A 
ATOM      2  C2  UNL d   1       0.668  -0.518   2.275  0.00  0.00    -0.057 A 
ATOM      3  C3  UNL d   1       2.002  -0.835   2.557  0.00  0.00     0.033 A 
ATOM      4  C4  UNL d   1       2.368  -1.259   3.830  0.00  0.00    -0.042 A 
ATOM      5  C5  UNL d   1       1.398  -1.368   4.820  0.00  0.00     0.033 A 
ATOM      6  C6  UNL d   1       0.066  -1.056   4.530  0.00  0.00    -0.057 A 
ENDROOT
BRANCH   1   7
ATOM      7  N   UNL d   1      -1.656  -0.251   3.058  0.00  0.00    -0.732 N 
ATOM      8  C   UNL d   1      -2.049   0.461   1.861  0.00  0.00     0.284 C 
ATOM      9  H3  UNL d   1      -2.319  -0.963   3.355  0.00  0.00     0.395 HD
ENDBRANCH   1   7
TORSDOF 1
ENDMDL
