MODEL 1
REMARK minimizedAffinity -1.41813219
REMARK minimizedRMSD -1
REMARK  1 active torsions:
REMARK  status: ('A' for Active; 'I' for Inactive)
REMARK    1  A    between atoms: N_2  and  C1_3 
ROOT
ATOM      1  C1  UNL d   1      -1.674  -0.577   3.368  0.00  0.00     0.143 A 
ATOM      2  C2  UNL d   1      -0.299  -0.694   3.595  0.00  0.00    -0.057 A 
ATOM      3  C3  UNL d   1       0.210  -1.621   4.513  0.00  0.00     0.033 A 
ATOM      4  C4  UNL d   1      -0.654  -2.431   5.242  0.00  0.00    -0.042 A 
ATOM      5  C5  UNL d   1      -2.026  -2.315   5.051  0.00  0.00     0.033 A 
ATOM      6  C6  UNL d   1      -2.527  -1.392   4.128  0.00  0.00    -0.057 A 
ENDROOT
BRANCH   1   7
ATOM      7  N   UNL d   1      -2.246   0.393   2.541  0.00  0.00    -0.732 N 
ATOM      8  C   UNL d   1      -2.218   0.246   1.102  0.00  0.00     0.284 C 
ATOM      9  H3  UNL d   1      -3.129   0.743   2.907  0.00  0.00     0.395 HD
ENDBRANCH   1   7
TORSDOF 1
ENDMDL
