MODEL 1
REMARK minimizedAffinity 3.28836346
REMARK minimizedRMSD -1
REMARK  1 active torsions:
REMARK  status: ('A' for Active; 'I' for Inactive)
REMARK    1  A    between atoms: N_2  and  C1_3 
ROOT
ATOM      1  C1  UNL d   1      -0.121   0.302   0.577  0.00  0.00     0.143 A 
ATOM      2  C2  UNL d   1      -1.021  -0.095  -0.417  0.00  0.00    -0.057 A 
ATOM      3  C3  UNL d   1      -2.346  -0.425  -0.108  0.00  0.00     0.033 A 
ATOM      4  C4  UNL d   1      -2.788  -0.390   1.211  0.00  0.00    -0.042 A 
ATOM      5  C5  UNL d   1      -1.905  -0.021   2.219  0.00  0.00     0.033 A 
ATOM      6  C6  UNL d   1      -0.584   0.313   1.903  0.00  0.00    -0.057 A 
ENDROOT
BRANCH   1   7
ATOM      7  N   UNL d   1       1.235   0.547   0.347  0.00  0.00    -0.732 N 
ATOM      8  C   UNL d   1       1.809   1.844   0.634  0.00  0.00     0.284 C 
ATOM      9  H3  UNL d   1       1.823  -0.237   0.619  0.00  0.00     0.395 HD
ENDBRANCH   1   7
TORSDOF 1
ENDMDL
