MODEL 1
REMARK minimizedAffinity -5.30537271
REMARK minimizedRMSD -1
REMARK  1 active torsions:
REMARK  status: ('A' for Active; 'I' for Inactive)
REMARK    1  A    between atoms: C3_4  and  O_7 
ROOT
ATOM      1  C   UNL d   1       0.208  -0.297  -0.328  0.00  0.00    -0.033 A 
ATOM      2  C1  UNL d   1       0.651  -1.317  -1.172  0.00  0.00     0.039 A 
ATOM      3  C2  UNL d   1       0.626  -2.644  -0.739  0.00  0.00    -0.080 A 
ATOM      4  C3  UNL d   1       0.155  -2.937   0.538  0.00  0.00     0.150 A 
ATOM      5  C4  UNL d   1      -0.292  -1.926   1.382  0.00  0.00    -0.007 A 
ATOM      6  C5  UNL d   1      -0.265  -0.602   0.948  0.00  0.00     0.039 A 
ENDROOT
BRANCH   4   7
ATOM      7  O   UNL d   1       0.115  -4.217   1.006  0.00  0.00    -0.526 OA
ATOM      8  H5  UNL d   1       0.482  -4.805   0.325  0.00  0.00     0.418 HD
ENDBRANCH   4   7
TORSDOF 1
ENDMDL
