MODEL 1
REMARK minimizedAffinity -2.7006855
REMARK minimizedRMSD -1
REMARK  1 active torsions:
REMARK  status: ('A' for Active; 'I' for Inactive)
REMARK    1  A    between atoms: C3_4  and  O_7 
ROOT
ATOM      1  C   UNL d   1       0.576  -0.759  -0.432  0.00  0.00    -0.033 A 
ATOM      2  C1  UNL d   1      -0.608  -0.857   0.300  0.00  0.00     0.039 A 
ATOM      3  C2  UNL d   1      -1.273  -2.081   0.396  0.00  0.00    -0.080 A 
ATOM      4  C3  UNL d   1      -0.743  -3.198  -0.243  0.00  0.00     0.150 A 
ATOM      5  C4  UNL d   1       0.439  -3.109  -0.972  0.00  0.00    -0.007 A 
ATOM      6  C5  UNL d   1       1.101  -1.885  -1.067  0.00  0.00     0.039 A 
ENDROOT
BRANCH   4   7
ATOM      7  O   UNL d   1      -1.358  -4.413  -0.183  0.00  0.00    -0.526 OA
ATOM      8  H5  UNL d   1      -2.178  -4.318   0.330  0.00  0.00     0.418 HD
ENDBRANCH   4   7
TORSDOF 1
ENDMDL
