MODEL 1
REMARK minimizedAffinity -5.59591818
REMARK minimizedRMSD -1
REMARK  1 active torsions:
REMARK  status: ('A' for Active; 'I' for Inactive)
REMARK    1  A    between atoms: C3_4  and  O_7 
ROOT
ATOM      1  C   UNL d   1      -0.069  -2.642   0.179  0.00  0.00    -0.033 A 
ATOM      2  C1  UNL d   1      -0.064  -1.260   0.378  0.00  0.00     0.039 A 
ATOM      3  C2  UNL d   1       0.086  -0.397  -0.709  0.00  0.00    -0.080 A 
ATOM      4  C3  UNL d   1       0.229  -0.928  -1.988  0.00  0.00     0.150 A 
ATOM      5  C4  UNL d   1       0.221  -2.304  -2.194  0.00  0.00    -0.007 A 
ATOM      6  C5  UNL d   1       0.072  -3.164  -1.107  0.00  0.00     0.039 A 
ENDROOT
BRANCH   4   7
ATOM      7  O   UNL d   1       0.384  -0.126  -3.080  0.00  0.00    -0.526 OA
ATOM      8  H5  UNL d   1       0.399   0.799  -2.782  0.00  0.00     0.418 HD
ENDBRANCH   4   7
TORSDOF 1
ENDMDL
