MODEL 1
REMARK minimizedAffinity -0.998255312
REMARK minimizedRMSD -1
REMARK  1 active torsions:
REMARK  status: ('A' for Active; 'I' for Inactive)
REMARK    1  A    between atoms: C3_4  and  O_7 
ROOT
ATOM      1  C   UNL d   1       1.916   4.082   1.033  0.00  0.00    -0.033 A 
ATOM      2  C1  UNL d   1       0.520   4.070   1.055  0.00  0.00     0.039 A 
ATOM      3  C2  UNL d   1      -0.176   2.923   0.667  0.00  0.00    -0.080 A 
ATOM      4  C3  UNL d   1       0.535   1.797   0.260  0.00  0.00     0.150 A 
ATOM      5  C4  UNL d   1       1.926   1.801   0.239  0.00  0.00    -0.007 A 
ATOM      6  C5  UNL d   1       2.619   2.947   0.626  0.00  0.00     0.039 A 
ENDROOT
BRANCH   4   7
ATOM      7  O   UNL d   1      -0.101   0.657  -0.132  0.00  0.00    -0.526 OA
ATOM      8  H5  UNL d   1      -1.060   0.810  -0.093  0.00  0.00     0.418 HD
ENDBRANCH   4   7
TORSDOF 1
ENDMDL
