MODEL 1
REMARK minimizedAffinity -4.79010773
REMARK minimizedRMSD -1
REMARK  1 active torsions:
REMARK  status: ('A' for Active; 'I' for Inactive)
REMARK    1  A    between atoms: C3_4  and  O_7 
ROOT
ATOM      1  C   UNL d   1       0.199  -3.468  -1.425  0.00  0.00    -0.033 A 
ATOM      2  C1  UNL d   1       0.322  -2.397  -2.313  0.00  0.00     0.039 A 
ATOM      3  C2  UNL d   1       0.182  -1.087  -1.853  0.00  0.00    -0.080 A 
ATOM      4  C3  UNL d   1      -0.081  -0.860  -0.505  0.00  0.00     0.150 A 
ATOM      5  C4  UNL d   1      -0.201  -1.922   0.386  0.00  0.00    -0.007 A 
ATOM      6  C5  UNL d   1      -0.062  -3.230  -0.075  0.00  0.00     0.039 A 
ENDROOT
BRANCH   4   7
ATOM      7  O   UNL d   1      -0.231   0.401  -0.010  0.00  0.00    -0.526 OA
ATOM      8  H5  UNL d   1      -0.150   1.032  -0.745  0.00  0.00     0.418 HD
ENDBRANCH   4   7
TORSDOF 1
ENDMDL
