MODEL 1
REMARK minimizedAffinity -1.64038074
REMARK minimizedRMSD -1
REMARK  1 active torsions:
REMARK  status: ('A' for Active; 'I' for Inactive)
REMARK    1  A    between atoms: C3_4  and  O_7 
ROOT
ATOM      1  C   UNL d   1      -0.865  -0.361   1.027  0.00  0.00    -0.033 A 
ATOM      2  C1  UNL d   1      -0.479   0.796   0.349  0.00  0.00     0.039 A 
ATOM      3  C2  UNL d   1      -0.009   0.715  -0.963  0.00  0.00    -0.080 A 
ATOM      4  C3  UNL d   1       0.068  -0.528  -1.586  0.00  0.00     0.150 A 
ATOM      5  C4  UNL d   1      -0.319  -1.685  -0.918  0.00  0.00    -0.007 A 
ATOM      6  C5  UNL d   1      -0.787  -1.602   0.393  0.00  0.00     0.039 A 
ENDROOT
BRANCH   4   7
ATOM      7  O   UNL d   1       0.524  -0.657  -2.864  0.00  0.00    -0.526 OA
ATOM      8  H5  UNL d   1       0.782   0.221  -3.189  0.00  0.00     0.418 HD
ENDBRANCH   4   7
TORSDOF 1
ENDMDL
