MODEL 1
REMARK minimizedAffinity -5.35943174
REMARK minimizedRMSD -1
REMARK  1 active torsions:
REMARK  status: ('A' for Active; 'I' for Inactive)
REMARK    1  A    between atoms: C3_4  and  O_7 
ROOT
ATOM      1  C   UNL d   1      -0.294  -3.853  -0.538  0.00  0.00    -0.033 A 
ATOM      2  C1  UNL d   1       0.510  -3.258  -1.512  0.00  0.00     0.039 A 
ATOM      3  C2  UNL d   1       0.820  -1.899  -1.428  0.00  0.00    -0.080 A 
ATOM      4  C3  UNL d   1       0.323  -1.148  -0.366  0.00  0.00     0.150 A 
ATOM      5  C4  UNL d   1      -0.475  -1.736   0.610  0.00  0.00    -0.007 A 
ATOM      6  C5  UNL d   1      -0.785  -3.093   0.524  0.00  0.00     0.039 A 
ENDROOT
BRANCH   4   7
ATOM      7  O   UNL d   1       0.595   0.182  -0.245  0.00  0.00    -0.526 OA
ATOM      8  H5  UNL d   1       1.133   0.457  -1.006  0.00  0.00     0.418 HD
ENDBRANCH   4   7
TORSDOF 1
ENDMDL
