MODEL 1
REMARK minimizedAffinity -5.02335787
REMARK minimizedRMSD -1
REMARK  1 active torsions:
REMARK  status: ('A' for Active; 'I' for Inactive)
REMARK    1  A    between atoms: C3_4  and  O_7 
ROOT
ATOM      1  C   UNL d   1       0.761  -1.435  -0.998  0.00  0.00    -0.033 A 
ATOM      2  C1  UNL d   1       0.268  -2.052   0.154  0.00  0.00     0.039 A 
ATOM      3  C2  UNL d   1      -0.060  -3.409   0.135  0.00  0.00    -0.080 A 
ATOM      4  C3  UNL d   1       0.110  -4.137  -1.040  0.00  0.00     0.150 A 
ATOM      5  C4  UNL d   1       0.604  -3.529  -2.189  0.00  0.00    -0.007 A 
ATOM      6  C5  UNL d   1       0.930  -2.174  -2.169  0.00  0.00     0.039 A 
ENDROOT
BRANCH   4   7
ATOM      7  O   UNL d   1      -0.201  -5.462  -1.108  0.00  0.00    -0.526 OA
ATOM      8  H5  UNL d   1      -0.558  -5.739  -0.247  0.00  0.00     0.418 HD
ENDBRANCH   4   7
TORSDOF 1
ENDMDL
