MODEL 1
REMARK minimizedAffinity -4.67596769
REMARK minimizedRMSD -1
REMARK  1 active torsions:
REMARK  status: ('A' for Active; 'I' for Inactive)
REMARK    1  A    between atoms: C3_4  and  O_7 
ROOT
ATOM      1  C   UNL d   1      -0.293  -3.452   0.039  0.00  0.00    -0.033 A 
ATOM      2  C1  UNL d   1      -0.229  -2.819  -1.203  0.00  0.00     0.039 A 
ATOM      3  C2  UNL d   1      -0.159  -1.426  -1.276  0.00  0.00    -0.080 A 
ATOM      4  C3  UNL d   1      -0.153  -0.680  -0.101  0.00  0.00     0.150 A 
ATOM      5  C4  UNL d   1      -0.213  -1.305   1.141  0.00  0.00    -0.007 A 
ATOM      6  C5  UNL d   1      -0.284  -2.696   1.211  0.00  0.00     0.039 A 
ENDROOT
BRANCH   4   7
ATOM      7  O   UNL d   1      -0.091   0.682  -0.121  0.00  0.00    -0.526 OA
ATOM      8  H5  UNL d   1      -0.084   0.975  -1.048  0.00  0.00     0.418 HD
ENDBRANCH   4   7
TORSDOF 1
ENDMDL
