MODEL 1
REMARK minimizedAffinity -4.77769327
REMARK minimizedRMSD -1
REMARK  1 active torsions:
REMARK  status: ('A' for Active; 'I' for Inactive)
REMARK    1  A    between atoms: C3_4  and  O_7 
ROOT
ATOM      1  C   UNL d   1       0.275  -4.217  -0.904  0.00  0.00    -0.033 A 
ATOM      2  C1  UNL d   1      -0.270  -3.830   0.321  0.00  0.00     0.039 A 
ATOM      3  C2  UNL d   1      -0.500  -2.479   0.589  0.00  0.00    -0.080 A 
ATOM      4  C3  UNL d   1      -0.183  -1.527  -0.376  0.00  0.00     0.150 A 
ATOM      5  C4  UNL d   1       0.357  -1.907  -1.601  0.00  0.00    -0.007 A 
ATOM      6  C5  UNL d   1       0.587  -3.256  -1.866  0.00  0.00     0.039 A 
ENDROOT
BRANCH   4   7
ATOM      7  O   UNL d   1      -0.385  -0.197  -0.158  0.00  0.00    -0.526 OA
ATOM      8  H5  UNL d   1      -0.736  -0.082   0.741  0.00  0.00     0.418 HD
ENDBRANCH   4   7
TORSDOF 1
ENDMDL
