MODEL 1
REMARK minimizedAffinity -5.64066172
REMARK minimizedRMSD -1
REMARK  1 active torsions:
REMARK  status: ('A' for Active; 'I' for Inactive)
REMARK    1  A    between atoms: C3_4  and  O_7 
ROOT
ATOM      1  C   UNL d   1       0.350  -3.419   0.550  0.00  0.00    -0.033 A 
ATOM      2  C1  UNL d   1       0.342  -2.029   0.687  0.00  0.00     0.039 A 
ATOM      3  C2  UNL d   1       0.300  -1.214  -0.446  0.00  0.00    -0.080 A 
ATOM      4  C3  UNL d   1       0.265  -1.800  -1.708  0.00  0.00     0.150 A 
ATOM      5  C4  UNL d   1       0.269  -3.183  -1.852  0.00  0.00    -0.007 A 
ATOM      6  C5  UNL d   1       0.312  -3.996  -0.720  0.00  0.00     0.039 A 
ENDROOT
BRANCH   4   7
ATOM      7  O   UNL d   1       0.229  -1.045  -2.843  0.00  0.00    -0.526 OA
ATOM      8  H5  UNL d   1       0.260  -0.108  -2.590  0.00  0.00     0.418 HD
ENDBRANCH   4   7
TORSDOF 1
ENDMDL
