MODEL 1
REMARK minimizedAffinity -5.01865053
REMARK minimizedRMSD -1
REMARK  1 active torsions:
REMARK  status: ('A' for Active; 'I' for Inactive)
REMARK    1  A    between atoms: C3_4  and  O_7 
ROOT
ATOM      1  C   UNL d   1       0.595  -3.973  -1.064  0.00  0.00    -0.033 A 
ATOM      2  C1  UNL d   1       0.292  -3.100  -2.110  0.00  0.00     0.039 A 
ATOM      3  C2  UNL d   1       0.008  -1.759  -1.843  0.00  0.00    -0.080 A 
ATOM      4  C3  UNL d   1       0.032  -1.305  -0.527  0.00  0.00     0.150 A 
ATOM      5  C4  UNL d   1       0.337  -2.168   0.520  0.00  0.00    -0.007 A 
ATOM      6  C5  UNL d   1       0.619  -3.507   0.251  0.00  0.00     0.039 A 
ENDROOT
BRANCH   4   7
ATOM      7  O   UNL d   1      -0.243  -0.006  -0.217  0.00  0.00    -0.526 OA
ATOM      8  H5  UNL d   1      -0.464   0.466  -1.037  0.00  0.00     0.418 HD
ENDBRANCH   4   7
TORSDOF 1
ENDMDL
