MODEL 1
REMARK minimizedAffinity -4.94268894
REMARK minimizedRMSD -1
REMARK  1 active torsions:
REMARK  status: ('A' for Active; 'I' for Inactive)
REMARK    1  A    between atoms: C3_4  and  O_7 
ROOT
ATOM      1  C   UNL d   1       0.722  -1.208   0.292  0.00  0.00    -0.033 A 
ATOM      2  C1  UNL d   1       0.254   0.006  -0.215  0.00  0.00     0.039 A 
ATOM      3  C2  UNL d   1       0.230   0.225  -1.594  0.00  0.00    -0.080 A 
ATOM      4  C3  UNL d   1       0.675  -0.775  -2.453  0.00  0.00     0.150 A 
ATOM      5  C4  UNL d   1       1.139  -1.988  -1.955  0.00  0.00    -0.007 A 
ATOM      6  C5  UNL d   1       1.163  -2.205  -0.578  0.00  0.00     0.039 A 
ENDROOT
BRANCH   4   7
ATOM      7  O   UNL d   1       0.674  -0.605  -3.806  0.00  0.00    -0.526 OA
ATOM      8  H5  UNL d   1       0.354   0.291  -4.003  0.00  0.00     0.418 HD
ENDBRANCH   4   7
TORSDOF 1
ENDMDL
