MODEL 1
REMARK minimizedAffinity -4.1233511
REMARK minimizedRMSD -1
REMARK  1 active torsions:
REMARK  status: ('A' for Active; 'I' for Inactive)
REMARK    1  A    between atoms: C3_4  and  O_7 
ROOT
ATOM      1  C   UNL d   1       1.806   0.466  -1.746  0.00  0.00    -0.033 A 
ATOM      2  C1  UNL d   1       0.485   0.549  -1.301  0.00  0.00     0.039 A 
ATOM      3  C2  UNL d   1       0.093   1.598  -0.466  0.00  0.00    -0.080 A 
ATOM      4  C3  UNL d   1       1.029   2.555  -0.086  0.00  0.00     0.150 A 
ATOM      5  C4  UNL d   1       2.345   2.480  -0.529  0.00  0.00    -0.007 A 
ATOM      6  C5  UNL d   1       2.735   1.432  -1.361  0.00  0.00     0.039 A 
ENDROOT
BRANCH   4   7
ATOM      7  O   UNL d   1       0.694   3.594   0.731  0.00  0.00    -0.526 OA
ATOM      8  H5  UNL d   1      -0.240   3.500   0.981  0.00  0.00     0.418 HD
ENDBRANCH   4   7
TORSDOF 1
ENDMDL
