MODEL 1
REMARK minimizedAffinity -5.05258131
REMARK minimizedRMSD -1
REMARK  1 active torsions:
REMARK  status: ('A' for Active; 'I' for Inactive)
REMARK    1  A    between atoms: C3_4  and  O_7 
ROOT
ATOM      1  C   UNL d   1      -0.320  -2.539   0.205  0.00  0.00    -0.033 A 
ATOM      2  C1  UNL d   1      -1.190  -1.703   0.908  0.00  0.00     0.039 A 
ATOM      3  C2  UNL d   1      -0.971  -0.324   0.928  0.00  0.00    -0.080 A 
ATOM      4  C3  UNL d   1       0.118   0.205   0.243  0.00  0.00     0.150 A 
ATOM      5  C4  UNL d   1       0.987  -0.621  -0.462  0.00  0.00    -0.007 A 
ATOM      6  C5  UNL d   1       0.768  -1.998  -0.481  0.00  0.00     0.039 A 
ENDROOT
BRANCH   4   7
ATOM      7  O   UNL d   1       0.375   1.544   0.238  0.00  0.00    -0.526 OA
ATOM      8  H5  UNL d   1      -0.291   1.987   0.790  0.00  0.00     0.418 HD
ENDBRANCH   4   7
TORSDOF 1
ENDMDL
