MODEL 1
REMARK minimizedAffinity -4.5192337
REMARK minimizedRMSD -1
REMARK  1 active torsions:
REMARK  status: ('A' for Active; 'I' for Inactive)
REMARK    1  A    between atoms: C3_4  and  O_7 
ROOT
ATOM      1  C   UNL d   1      -0.371  -3.599  -1.426  0.00  0.00    -0.033 A 
ATOM      2  C1  UNL d   1       0.153  -2.812  -2.453  0.00  0.00     0.039 A 
ATOM      3  C2  UNL d   1       0.472  -1.474  -2.216  0.00  0.00    -0.080 A 
ATOM      4  C3  UNL d   1       0.265  -0.936  -0.949  0.00  0.00     0.150 A 
ATOM      5  C4  UNL d   1      -0.253  -1.715   0.080  0.00  0.00    -0.007 A 
ATOM      6  C5  UNL d   1      -0.573  -3.051  -0.159  0.00  0.00     0.039 A 
ENDROOT
BRANCH   4   7
ATOM      7  O   UNL d   1       0.557   0.367  -0.671  0.00  0.00    -0.526 OA
ATOM      8  H5  UNL d   1       0.880   0.790  -1.484  0.00  0.00     0.418 HD
ENDBRANCH   4   7
TORSDOF 1
ENDMDL
