MODEL 1
REMARK minimizedAffinity -3.06995749
REMARK minimizedRMSD -1
REMARK  1 active torsions:
REMARK  status: ('A' for Active; 'I' for Inactive)
REMARK    1  A    between atoms: C3_4  and  O_7 
ROOT
ATOM      1  C   UNL d   1       0.443  -4.159  -1.567  0.00  0.00    -0.033 A 
ATOM      2  C1  UNL d   1      -0.099  -3.848  -0.319  0.00  0.00     0.039 A 
ATOM      3  C2  UNL d   1      -0.098  -2.528   0.136  0.00  0.00    -0.080 A 
ATOM      4  C3  UNL d   1       0.448  -1.530  -0.666  0.00  0.00     0.150 A 
ATOM      5  C4  UNL d   1       0.987  -1.831  -1.912  0.00  0.00    -0.007 A 
ATOM      6  C5  UNL d   1       0.985  -3.150  -2.365  0.00  0.00     0.039 A 
ENDROOT
BRANCH   4   7
ATOM      7  O   UNL d   1       0.476  -0.228  -0.263  0.00  0.00    -0.526 OA
ATOM      8  H5  UNL d   1       0.096  -0.174   0.630  0.00  0.00     0.418 HD
ENDBRANCH   4   7
TORSDOF 1
ENDMDL
