MODEL 1
REMARK minimizedAffinity -3.12268519
REMARK minimizedRMSD -1
REMARK  0 active torsions:
REMARK  status: ('A' for Active; 'I' for Inactive)
ROOT
ATOM      1  C   UNL d   1       0.406  -0.294  -1.586  0.00  0.00     0.078 C 
ATOM      2  C1  UNL d   1      -0.041   0.043  -0.195  0.00  0.00    -0.077 A 
ATOM      3  C2  UNL d   1       0.795   0.747   0.681  0.00  0.00    -0.001 A 
ATOM      4  C3  UNL d   1       0.369   1.045   1.976  0.00  0.00     0.003 A 
ATOM      5  C4  UNL d   1      -0.893   0.643   2.408  0.00  0.00    -0.005 A 
ATOM      6  C5  UNL d   1      -1.731  -0.060   1.544  0.00  0.00     0.003 A 
ATOM      7  C6  UNL d   1      -1.307  -0.359   0.249  0.00  0.00    -0.001 A 
ENDROOT
TORSDOF 0
ENDMDL
