MODEL 1
REMARK minimizedAffinity -4.95082808
REMARK minimizedRMSD -1
REMARK  0 active torsions:
REMARK  status: ('A' for Active; 'I' for Inactive)
ROOT
ATOM      1  C   UNL d   1       0.704  -0.155  -1.291  0.00  0.00     0.078 C 
ATOM      2  C1  UNL d   1       0.043   0.353  -0.045  0.00  0.00    -0.077 A 
ATOM      3  C2  UNL d   1      -1.336   0.591  -0.006  0.00  0.00    -0.001 A 
ATOM      4  C3  UNL d   1      -1.937   1.073   1.158  0.00  0.00     0.003 A 
ATOM      5  C4  UNL d   1      -1.166   1.322   2.292  0.00  0.00    -0.005 A 
ATOM      6  C5  UNL d   1       0.207   1.090   2.262  0.00  0.00     0.003 A 
ATOM      7  C6  UNL d   1       0.810   0.607   1.099  0.00  0.00    -0.001 A 
ENDROOT
TORSDOF 0
ENDMDL
