MODEL 1
REMARK minimizedAffinity -4.5378952
REMARK minimizedRMSD -1
REMARK  0 active torsions:
REMARK  status: ('A' for Active; 'I' for Inactive)
ROOT
ATOM      1  C   UNL d   1       0.732  -0.126  -1.764  0.00  0.00     0.078 C 
ATOM      2  C1  UNL d   1      -0.023   0.169  -0.502  0.00  0.00    -0.077 A 
ATOM      3  C2  UNL d   1      -1.296  -0.370  -0.281  0.00  0.00    -0.001 A 
ATOM      4  C3  UNL d   1      -1.991  -0.079   0.894  0.00  0.00     0.003 A 
ATOM      5  C4  UNL d   1      -1.421   0.751   1.857  0.00  0.00    -0.005 A 
ATOM      6  C5  UNL d   1      -0.155   1.293   1.645  0.00  0.00     0.003 A 
ATOM      7  C6  UNL d   1       0.541   1.004   0.470  0.00  0.00    -0.001 A 
ENDROOT
TORSDOF 0
ENDMDL
