MODEL 1
REMARK minimizedAffinity -5.13046312
REMARK minimizedRMSD -1
REMARK  0 active torsions:
REMARK  status: ('A' for Active; 'I' for Inactive)
ROOT
ATOM      1  C   UNL d   1      -1.927  -0.091   0.559  0.00  0.00     0.078 C 
ATOM      2  C1  UNL d   1      -0.771   0.250   1.451  0.00  0.00    -0.077 A 
ATOM      3  C2  UNL d   1       0.549   0.059   1.025  0.00  0.00    -0.001 A 
ATOM      4  C3  UNL d   1       1.615   0.371   1.870  0.00  0.00     0.003 A 
ATOM      5  C4  UNL d   1       1.372   0.875   3.146  0.00  0.00    -0.005 A 
ATOM      6  C5  UNL d   1       0.062   1.065   3.580  0.00  0.00     0.003 A 
ATOM      7  C6  UNL d   1      -1.006   0.754   2.736  0.00  0.00    -0.001 A 
ENDROOT
TORSDOF 0
ENDMDL
