MODEL 1
REMARK minimizedAffinity -4.9551487
REMARK minimizedRMSD -1
REMARK  0 active torsions:
REMARK  status: ('A' for Active; 'I' for Inactive)
ROOT
ATOM      1  C   UNL d   1       0.646  -0.293  -0.858  0.00  0.00     0.078 C 
ATOM      2  C1  UNL d   1       0.089   0.328   0.388  0.00  0.00    -0.077 A 
ATOM      3  C2  UNL d   1      -0.985  -0.258   1.068  0.00  0.00    -0.001 A 
ATOM      4  C3  UNL d   1      -1.499   0.337   2.221  0.00  0.00     0.003 A 
ATOM      5  C4  UNL d   1      -0.947   1.522   2.704  0.00  0.00    -0.005 A 
ATOM      6  C5  UNL d   1       0.121   2.114   2.032  0.00  0.00     0.003 A 
ATOM      7  C6  UNL d   1       0.636   1.521   0.879  0.00  0.00    -0.001 A 
ENDROOT
TORSDOF 0
ENDMDL
