MODEL 1
REMARK minimizedAffinity -5.03294039
REMARK minimizedRMSD -1
REMARK  0 active torsions:
REMARK  status: ('A' for Active; 'I' for Inactive)
ROOT
ATOM      1  C   UNL d   1       0.304  -0.253  -1.505  0.00  0.00     0.078 C 
ATOM      2  C1  UNL d   1      -0.124   0.107  -0.114  0.00  0.00    -0.077 A 
ATOM      3  C2  UNL d   1      -1.404  -0.216   0.353  0.00  0.00    -0.001 A 
ATOM      4  C3  UNL d   1      -1.793   0.134   1.647  0.00  0.00     0.003 A 
ATOM      5  C4  UNL d   1      -0.908   0.808   2.485  0.00  0.00    -0.005 A 
ATOM      6  C5  UNL d   1       0.368   1.135   2.029  0.00  0.00     0.003 A 
ATOM      7  C6  UNL d   1       0.758   0.787   0.736  0.00  0.00    -0.001 A 
ENDROOT
TORSDOF 0
ENDMDL
