MODEL 1
REMARK minimizedAffinity 0.521275818
REMARK minimizedRMSD -1
REMARK  0 active torsions:
REMARK  status: ('A' for Active; 'I' for Inactive)
ROOT
ATOM      1  N1  IND d   1      -2.616   0.354  -5.702  0.00  0.00    -0.196 N 
ATOM      2  C2  IND d   1      -3.804  -0.081  -5.185  0.00  0.00     0.054 A 
ATOM      3  C3  IND d   1      -4.099   0.594  -4.051  0.00  0.00    -0.031 A 
ATOM      4  C4  IND d   1      -2.825   2.523  -2.917  0.00  0.00     0.051 A 
ATOM      5  C5  IND d   1      -1.667   3.243  -2.999  0.00  0.00    -0.031 A 
ATOM      6  C6  IND d   1      -0.748   3.035  -4.007  0.00  0.00     0.015 A 
ATOM      7  C7  IND d   1      -0.960   2.103  -4.983  0.00  0.00    -0.016 A 
ATOM      8  C8  IND d   1      -2.132   1.364  -4.899  0.00  0.00    -0.047 A 
ATOM      9  C9  IND d   1      -3.048   1.541  -3.854  0.00  0.00    -0.096 A 
ATOM     10  HN1 IND d   1      -2.234   0.048  -6.409  0.00  0.00     0.298 HD
ENDROOT
TORSDOF 0
ENDMDL
