MODEL 1
REMARK minimizedAffinity 1.11755788
REMARK minimizedRMSD -1
REMARK  0 active torsions:
REMARK  status: ('A' for Active; 'I' for Inactive)
ROOT
ATOM      1  N1  IND d   1      -1.176  -0.393  -1.102  0.00  0.00    -0.196 N 
ATOM      2  C2  IND d   1      -2.092  -0.385  -0.087  0.00  0.00     0.054 A 
ATOM      3  C3  IND d   1      -1.486  -0.632   1.095  0.00  0.00    -0.031 A 
ATOM      4  C4  IND d   1       1.013  -0.978   1.612  0.00  0.00     0.051 A 
ATOM      5  C5  IND d   1       2.230  -1.108   1.005  0.00  0.00    -0.031 A 
ATOM      6  C6  IND d   1       2.378  -1.001  -0.363  0.00  0.00     0.015 A 
ATOM      7  C7  IND d   1       1.310  -0.748  -1.177  0.00  0.00    -0.016 A 
ATOM      8  C8  IND d   1       0.071  -0.623  -0.565  0.00  0.00    -0.047 A 
ATOM      9  C9  IND d   1      -0.091  -0.772   0.818  0.00  0.00    -0.096 A 
ATOM     10  HN1 IND d   1      -1.350  -0.274  -1.936  0.00  0.00     0.298 HD
ENDROOT
TORSDOF 0
ENDMDL
