MODEL 1
REMARK minimizedAffinity 8.3926487
REMARK minimizedRMSD -1
REMARK  0 active torsions:
REMARK  status: ('A' for Active; 'I' for Inactive)
ROOT
ATOM      1  N1  IND d   1       3.707   4.658  -0.192  0.00  0.00    -0.196 N 
ATOM      2  C2  IND d   1       4.048   5.187   1.022  0.00  0.00     0.054 A 
ATOM      3  C3  IND d   1       4.718   4.275   1.761  0.00  0.00    -0.031 A 
ATOM      4  C4  IND d   1       5.454   1.887   1.138  0.00  0.00     0.051 A 
ATOM      5  C5  IND d   1       5.341   0.948   0.152  0.00  0.00    -0.031 A 
ATOM      6  C6  IND d   1       4.667   1.204  -1.025  0.00  0.00     0.015 A 
ATOM      7  C7  IND d   1       4.087   2.418  -1.264  0.00  0.00    -0.016 A 
ATOM      8  C8  IND d   1       4.193   3.371  -0.261  0.00  0.00    -0.047 A 
ATOM      9  C9  IND d   1       4.840   3.103   0.952  0.00  0.00    -0.096 A 
ATOM     10  HN1 IND d   1       3.263   5.062  -0.808  0.00  0.00     0.298 HD
ENDROOT
TORSDOF 0
ENDMDL
