MODEL 1
REMARK minimizedAffinity -0.989511013
REMARK minimizedRMSD -1
REMARK  0 active torsions:
REMARK  status: ('A' for Active; 'I' for Inactive)
ROOT
ATOM      1  N1  IND d   1       4.488   5.940   1.532  0.00  0.00    -0.196 N 
ATOM      2  C2  IND d   1       5.816   5.952   1.855  0.00  0.00     0.054 A 
ATOM      3  C3  IND d   1       5.974   6.000   3.197  0.00  0.00    -0.031 A 
ATOM      4  C4  IND d   1       4.192   5.961   5.055  0.00  0.00     0.051 A 
ATOM      5  C5  IND d   1       2.840   5.989   5.251  0.00  0.00    -0.031 A 
ATOM      6  C6  IND d   1       1.950   6.000   4.197  0.00  0.00     0.015 A 
ATOM      7  C7  IND d   1       2.381   5.971   2.901  0.00  0.00    -0.016 A 
ATOM      8  C8  IND d   1       3.753   5.949   2.697  0.00  0.00    -0.047 A 
ATOM      9  C9  IND d   1       4.662   5.982   3.763  0.00  0.00    -0.096 A 
ATOM     10  HN1 IND d   1       4.166   5.928   0.735  0.00  0.00     0.298 HD
ENDROOT
TORSDOF 0
ENDMDL
