MODEL 1
REMARK minimizedAffinity -0.760191143
REMARK minimizedRMSD -1
REMARK  0 active torsions:
REMARK  status: ('A' for Active; 'I' for Inactive)
ROOT
ATOM      1  N1  IND d   1      -1.099  -0.417  -0.410  0.00  0.00    -0.196 N 
ATOM      2  C2  IND d   1      -2.219  -0.099   0.308  0.00  0.00     0.054 A 
ATOM      3  C3  IND d   1      -2.073  -0.477   1.598  0.00  0.00    -0.031 A 
ATOM      4  C4  IND d   1      -0.044  -1.541   2.771  0.00  0.00     0.051 A 
ATOM      5  C5  IND d   1       1.199  -2.052   2.522  0.00  0.00    -0.031 A 
ATOM      6  C6  IND d   1       1.752  -2.041   1.258  0.00  0.00     0.015 A 
ATOM      7  C7  IND d   1       1.083  -1.507   0.193  0.00  0.00    -0.016 A 
ATOM      8  C8  IND d   1      -0.182  -0.993   0.441  0.00  0.00    -0.047 A 
ATOM      9  C9  IND d   1      -0.765  -1.040   1.714  0.00  0.00    -0.096 A 
ATOM     10  HN1 IND d   1      -0.987  -0.280  -1.251  0.00  0.00     0.298 HD
ENDROOT
TORSDOF 0
ENDMDL
