MODEL 1
REMARK minimizedAffinity -3.50926447
REMARK minimizedRMSD -1
REMARK  0 active torsions:
REMARK  status: ('A' for Active; 'I' for Inactive)
ROOT
ATOM      1  N1  IND d   1       5.987   5.677   2.652  0.00  0.00    -0.196 N 
ATOM      2  C2  IND d   1       5.265   5.393   1.526  0.00  0.00     0.054 A 
ATOM      3  C3  IND d   1       3.954   5.258   1.829  0.00  0.00    -0.031 A 
ATOM      4  C4  IND d   1       2.758   5.562   4.088  0.00  0.00     0.051 A 
ATOM      5  C5  IND d   1       3.001   5.789   5.413  0.00  0.00    -0.031 A 
ATOM      6  C6  IND d   1       4.277   5.997   5.895  0.00  0.00     0.015 A 
ATOM      7  C7  IND d   1       5.361   5.997   5.064  0.00  0.00    -0.016 A 
ATOM      8  C8  IND d   1       5.119   5.760   3.719  0.00  0.00    -0.047 A 
ATOM      9  C9  IND d   1       3.831   5.506   3.230  0.00  0.00    -0.096 A 
ATOM     10  HN1 IND d   1       6.839   5.785   2.687  0.00  0.00     0.298 HD
ENDROOT
TORSDOF 0
ENDMDL
