MODEL 1
REMARK minimizedAffinity 2.12340379
REMARK minimizedRMSD -1
REMARK  0 active torsions:
REMARK  status: ('A' for Active; 'I' for Inactive)
ROOT
ATOM      1  N1  IND d   1      -0.211   0.852  -1.227  0.00  0.00    -0.196 N 
ATOM      2  C2  IND d   1       0.035  -0.439  -0.850  0.00  0.00     0.054 A 
ATOM      3  C3  IND d   1       1.256  -0.830  -1.281  0.00  0.00    -0.031 A 
ATOM      4  C4  IND d   1       3.057   0.518  -2.533  0.00  0.00     0.051 A 
ATOM      5  C5  IND d   1       3.279   1.728  -3.127  0.00  0.00    -0.031 A 
ATOM      6  C6  IND d   1       2.330   2.730  -3.115  0.00  0.00     0.015 A 
ATOM      7  C7  IND d   1       1.123   2.562  -2.497  0.00  0.00    -0.016 A 
ATOM      8  C8  IND d   1       0.893   1.331  -1.898  0.00  0.00    -0.047 A 
ATOM      9  C9  IND d   1       1.835   0.296  -1.944  0.00  0.00    -0.096 A 
ATOM     10  HN1 IND d   1      -0.933   1.291  -1.071  0.00  0.00     0.298 HD
ENDROOT
TORSDOF 0
ENDMDL
