MODEL 1
REMARK minimizedAffinity 2.0855701
REMARK minimizedRMSD -1
REMARK  0 active torsions:
REMARK  status: ('A' for Active; 'I' for Inactive)
ROOT
ATOM      1  N1  IND d   1       1.602  -3.455   0.740  0.00  0.00    -0.196 N 
ATOM      2  C2  IND d   1       1.938  -4.394   1.675  0.00  0.00     0.054 A 
ATOM      3  C3  IND d   1       1.359  -4.104   2.862  0.00  0.00    -0.031 A 
ATOM      4  C4  IND d   1      -0.258  -2.196   3.471  0.00  0.00     0.051 A 
ATOM      5  C5  IND d   1      -0.831  -1.066   2.960  0.00  0.00    -0.031 A 
ATOM      6  C6  IND d   1      -0.621  -0.668   1.655  0.00  0.00     0.015 A 
ATOM      7  C7  IND d   1       0.165  -1.394   0.806  0.00  0.00    -0.016 A 
ATOM      8  C8  IND d   1       0.755  -2.539   1.324  0.00  0.00    -0.047 A 
ATOM      9  C9  IND d   1       0.579  -2.925   2.659  0.00  0.00    -0.096 A 
ATOM     10  HN1 IND d   1       1.874  -3.439  -0.075  0.00  0.00     0.298 HD
ENDROOT
TORSDOF 0
ENDMDL
