MODEL 1
REMARK minimizedAffinity 9.88230991
REMARK minimizedRMSD -1
REMARK  0 active torsions:
REMARK  status: ('A' for Active; 'I' for Inactive)
ROOT
ATOM      1  C   UNL d   1      -2.365  -0.103   2.361  0.00  0.00     0.023 A 
ATOM      2  C1  UNL d   1      -1.144  -0.446   2.942  0.00  0.00     0.003 A 
ATOM      3  C2  UNL d   1      -0.014  -0.623   2.141  0.00  0.00     0.048 A 
ATOM      4  C3  UNL d   1      -0.111  -0.454   0.760  0.00  0.00     0.023 A 
ATOM      5  C4  UNL d   1      -1.331  -0.110   0.175  0.00  0.00     0.048 A 
ATOM      6  C5  UNL d   1      -2.458   0.065   0.979  0.00  0.00     0.003 A 
ATOM      7  I   UNL d   1       1.570  -0.717  -0.433  0.00  0.00    -0.146 I 
ENDROOT
TORSDOF 0
ENDMDL
