MODEL 1
REMARK minimizedAffinity 1.68345618
REMARK minimizedRMSD -1
REMARK  0 active torsions:
REMARK  status: ('A' for Active; 'I' for Inactive)
ROOT
ATOM      1  C   UNL d   1       0.107  -3.583   2.952  0.00  0.00     0.023 A 
ATOM      2  C1  UNL d   1      -0.630  -2.400   3.001  0.00  0.00     0.003 A 
ATOM      3  C2  UNL d   1      -0.357  -1.368   2.101  0.00  0.00     0.048 A 
ATOM      4  C3  UNL d   1       0.655  -1.526   1.154  0.00  0.00     0.023 A 
ATOM      5  C4  UNL d   1       1.395  -2.708   1.101  0.00  0.00     0.048 A 
ATOM      6  C5  UNL d   1       1.118  -3.737   2.003  0.00  0.00     0.003 A 
ATOM      7  I   UNL d   1       1.063   0.009  -0.187  0.00  0.00    -0.146 I 
ENDROOT
TORSDOF 0
ENDMDL
