MODEL 1
REMARK minimizedAffinity 7.96469307
REMARK minimizedRMSD -1
REMARK  0 active torsions:
REMARK  status: ('A' for Active; 'I' for Inactive)
ROOT
ATOM      1  C   UNL d   1      -1.312  -3.066   3.481  0.00  0.00     0.023 A 
ATOM      2  C1  UNL d   1      -0.215  -3.729   2.930  0.00  0.00     0.003 A 
ATOM      3  C2  UNL d   1       0.665  -3.044   2.088  0.00  0.00     0.048 A 
ATOM      4  C3  UNL d   1       0.442  -1.698   1.803  0.00  0.00     0.023 A 
ATOM      5  C4  UNL d   1      -0.654  -1.031   2.353  0.00  0.00     0.048 A 
ATOM      6  C5  UNL d   1      -1.531  -1.719   3.193  0.00  0.00     0.003 A 
ATOM      7  I   UNL d   1       1.750  -0.677   0.551  0.00  0.00    -0.146 I 
ENDROOT
TORSDOF 0
ENDMDL
