MODEL 1
REMARK minimizedAffinity 7.75581026
REMARK minimizedRMSD -1
REMARK  0 active torsions:
REMARK  status: ('A' for Active; 'I' for Inactive)
ROOT
ATOM      1  C   UNL d   1       2.716  -2.623  -0.099  0.00  0.00     0.023 A 
ATOM      2  C1  UNL d   1       2.031  -1.444  -0.396  0.00  0.00     0.003 A 
ATOM      3  C2  UNL d   1       1.110  -0.923   0.515  0.00  0.00     0.048 A 
ATOM      4  C3  UNL d   1       0.881  -1.583   1.722  0.00  0.00     0.023 A 
ATOM      5  C4  UNL d   1       1.565  -2.762   2.023  0.00  0.00     0.048 A 
ATOM      6  C5  UNL d   1       2.484  -3.281   1.108  0.00  0.00     0.003 A 
ATOM      7  I   UNL d   1      -0.489  -0.808   3.080  0.00  0.00    -0.146 I 
ENDROOT
TORSDOF 0
ENDMDL
