MODEL 1
REMARK minimizedAffinity -1.94379771
REMARK minimizedRMSD -1
REMARK  0 active torsions:
REMARK  status: ('A' for Active; 'I' for Inactive)
ROOT
ATOM      1  C   UNL d   1       1.555   6.000   4.342  0.00  0.00     0.023 A 
ATOM      2  C1  UNL d   1       1.776   5.592   3.026  0.00  0.00     0.003 A 
ATOM      3  C2  UNL d   1       3.050   5.184   2.625  0.00  0.00     0.048 A 
ATOM      4  C3  UNL d   1       4.098   5.185   3.545  0.00  0.00     0.023 A 
ATOM      5  C4  UNL d   1       3.881   5.592   4.863  0.00  0.00     0.048 A 
ATOM      6  C5  UNL d   1       2.606   6.000   5.259  0.00  0.00     0.003 A 
ATOM      7  I   UNL d   1       5.995   4.578   2.951  0.00  0.00    -0.146 I 
ENDROOT
TORSDOF 0
ENDMDL
