MODEL 1
REMARK minimizedAffinity -0.0146297822
REMARK minimizedRMSD -1
REMARK  0 active torsions:
REMARK  status: ('A' for Active; 'I' for Inactive)
ROOT
ATOM      1  C   UNL d   1      -0.042  -0.075   0.660  0.00  0.00     0.023 A 
ATOM      2  C1  UNL d   1       0.871  -0.433  -0.332  0.00  0.00     0.003 A 
ATOM      3  C2  UNL d   1       1.665  -1.571  -0.175  0.00  0.00     0.048 A 
ATOM      4  C3  UNL d   1       1.540  -2.347   0.976  0.00  0.00     0.023 A 
ATOM      5  C4  UNL d   1       0.628  -1.993   1.972  0.00  0.00     0.048 A 
ATOM      6  C5  UNL d   1      -0.163  -0.854   1.811  0.00  0.00     0.003 A 
ATOM      7  I   UNL d   1       2.721  -4.041   1.213  0.00  0.00    -0.146 I 
ENDROOT
TORSDOF 0
ENDMDL
