MODEL 1
REMARK minimizedAffinity 0.639920056
REMARK minimizedRMSD -1
REMARK  0 active torsions:
REMARK  status: ('A' for Active; 'I' for Inactive)
ROOT
ATOM      1  C   UNL d   1       3.933  -1.117  -1.673  0.00  0.00     0.078 C 
ATOM      2  C1  UNL d   1       2.740  -0.856  -0.803  0.00  0.00    -0.077 A 
ATOM      3  C2  UNL d   1       2.192   0.428  -0.697  0.00  0.00    -0.001 A 
ATOM      4  C3  UNL d   1       1.087   0.658   0.125  0.00  0.00     0.003 A 
ATOM      5  C4  UNL d   1       0.521  -0.391   0.847  0.00  0.00    -0.005 A 
ATOM      6  C5  UNL d   1       1.061  -1.671   0.750  0.00  0.00     0.003 A 
ATOM      7  C6  UNL d   1       2.166  -1.903  -0.071  0.00  0.00    -0.001 A 
ENDROOT
TORSDOF 0
ENDMDL
