MODEL 1
REMARK minimizedAffinity -2.56170774
REMARK minimizedRMSD -1
REMARK  0 active torsions:
REMARK  status: ('A' for Active; 'I' for Inactive)
ROOT
ATOM      1  C   UNL d   1       0.668  -0.806   1.503  0.00  0.00     0.078 C 
ATOM      2  C1  UNL d   1       1.670  -0.563   0.414  0.00  0.00    -0.077 A 
ATOM      3  C2  UNL d   1       1.888   0.725  -0.091  0.00  0.00    -0.001 A 
ATOM      4  C3  UNL d   1       2.817   0.935  -1.112  0.00  0.00     0.003 A 
ATOM      5  C4  UNL d   1       3.534  -0.138  -1.636  0.00  0.00    -0.005 A 
ATOM      6  C5  UNL d   1       3.322  -1.423  -1.142  0.00  0.00     0.003 A 
ATOM      7  C6  UNL d   1       2.394  -1.635  -0.121  0.00  0.00    -0.001 A 
ENDROOT
TORSDOF 0
ENDMDL
