MODEL 1
REMARK minimizedAffinity 3.413167
REMARK minimizedRMSD -1
REMARK  0 active torsions:
REMARK  status: ('A' for Active; 'I' for Inactive)
ROOT
ATOM      1  C   UNL d   1      -0.846   5.994  -1.613  0.00  0.00     0.078 C 
ATOM      2  C1  UNL d   1      -0.869   4.767  -2.475  0.00  0.00    -0.077 A 
ATOM      3  C2  UNL d   1      -2.079   4.221  -2.920  0.00  0.00    -0.001 A 
ATOM      4  C3  UNL d   1      -2.086   3.073  -3.714  0.00  0.00     0.003 A 
ATOM      5  C4  UNL d   1      -0.886   2.460  -4.068  0.00  0.00    -0.005 A 
ATOM      6  C5  UNL d   1       0.323   2.995  -3.628  0.00  0.00     0.003 A 
ATOM      7  C6  UNL d   1       0.332   4.143  -2.834  0.00  0.00    -0.001 A 
ENDROOT
TORSDOF 0
ENDMDL
