MODEL 1
REMARK minimizedAffinity -6.28027105
REMARK minimizedRMSD -1
REMARK  0 active torsions:
REMARK  status: ('A' for Active; 'I' for Inactive)
ROOT
ATOM      1  C   UNL d   1       4.006  -0.667  -1.897  0.00  0.00     0.078 C 
ATOM      2  C1  UNL d   1       2.772  -0.541  -1.056  0.00  0.00    -0.077 A 
ATOM      3  C2  UNL d   1       2.207  -1.660  -0.432  0.00  0.00    -0.001 A 
ATOM      4  C3  UNL d   1       1.052  -1.530   0.341  0.00  0.00     0.003 A 
ATOM      5  C4  UNL d   1       0.451  -0.282   0.496  0.00  0.00    -0.005 A 
ATOM      6  C5  UNL d   1       1.005   0.837  -0.123  0.00  0.00     0.003 A 
ATOM      7  C6  UNL d   1       2.160   0.708  -0.896  0.00  0.00    -0.001 A 
ENDROOT
TORSDOF 0
ENDMDL
