MODEL 1
REMARK minimizedAffinity -4.44105959
REMARK minimizedRMSD -1
REMARK  0 active torsions:
REMARK  status: ('A' for Active; 'I' for Inactive)
ROOT
ATOM      1  C   UNL d   1       4.144  -0.809  -1.865  0.00  0.00     0.078 C 
ATOM      2  C1  UNL d   1       2.986  -0.565  -0.944  0.00  0.00    -0.077 A 
ATOM      3  C2  UNL d   1       2.261   0.631  -1.000  0.00  0.00    -0.001 A 
ATOM      4  C3  UNL d   1       1.191   0.849  -0.130  0.00  0.00     0.003 A 
ATOM      5  C4  UNL d   1       0.838  -0.124   0.803  0.00  0.00    -0.005 A 
ATOM      6  C5  UNL d   1       1.556  -1.317   0.867  0.00  0.00     0.003 A 
ATOM      7  C6  UNL d   1       2.626  -1.536  -0.002  0.00  0.00    -0.001 A 
ENDROOT
TORSDOF 0
ENDMDL
