MODEL 1
REMARK minimizedAffinity -6.82150745
REMARK minimizedRMSD -1
REMARK  0 active torsions:
REMARK  status: ('A' for Active; 'I' for Inactive)
ROOT
ATOM      1  C   UNL d   1       4.216  -0.482  -2.048  0.00  0.00     0.078 C 
ATOM      2  C1  UNL d   1       2.995  -0.438  -1.179  0.00  0.00    -0.077 A 
ATOM      3  C2  UNL d   1       2.380  -1.617  -0.739  0.00  0.00    -0.001 A 
ATOM      4  C3  UNL d   1       1.239  -1.562   0.062  0.00  0.00     0.003 A 
ATOM      5  C4  UNL d   1       0.700  -0.330   0.429  0.00  0.00    -0.005 A 
ATOM      6  C5  UNL d   1       1.303   0.849  -0.006  0.00  0.00     0.003 A 
ATOM      7  C6  UNL d   1       2.445   0.795  -0.806  0.00  0.00    -0.001 A 
ENDROOT
TORSDOF 0
ENDMDL
