MODEL 1
REMARK minimizedAffinity -2.53099298
REMARK minimizedRMSD -1
REMARK  0 active torsions:
REMARK  status: ('A' for Active; 'I' for Inactive)
ROOT
ATOM      1  C   UNL d   1       4.185  -1.350  -0.873  0.00  0.00     0.078 C 
ATOM      2  C1  UNL d   1       2.881  -0.866  -0.312  0.00  0.00    -0.077 A 
ATOM      3  C2  UNL d   1       2.520   0.484  -0.387  0.00  0.00    -0.001 A 
ATOM      4  C3  UNL d   1       1.308   0.922   0.148  0.00  0.00     0.003 A 
ATOM      5  C4  UNL d   1       0.447   0.015   0.763  0.00  0.00    -0.005 A 
ATOM      6  C5  UNL d   1       0.799  -1.330   0.845  0.00  0.00     0.003 A 
ATOM      7  C6  UNL d   1       2.011  -1.770   0.310  0.00  0.00    -0.001 A 
ENDROOT
TORSDOF 0
ENDMDL
