MODEL 1
REMARK minimizedAffinity -1.10304046
REMARK minimizedRMSD -1
REMARK  0 active torsions:
REMARK  status: ('A' for Active; 'I' for Inactive)
ROOT
ATOM      1  C   UNL d   1      -1.124   6.000  -2.185  0.00  0.00     0.078 C 
ATOM      2  C1  UNL d   1      -1.190   4.751  -3.012  0.00  0.00    -0.077 A 
ATOM      3  C2  UNL d   1      -2.420   4.211  -3.406  0.00  0.00    -0.001 A 
ATOM      4  C3  UNL d   1      -2.467   3.042  -4.167  0.00  0.00     0.003 A 
ATOM      5  C4  UNL d   1      -1.286   2.403  -4.541  0.00  0.00    -0.005 A 
ATOM      6  C5  UNL d   1      -0.057   2.932  -4.152  0.00  0.00     0.003 A 
ATOM      7  C6  UNL d   1      -0.009   4.100  -3.390  0.00  0.00    -0.001 A 
ENDROOT
TORSDOF 0
ENDMDL
