MODEL 1
REMARK minimizedAffinity 0.163770169
REMARK minimizedRMSD -1
REMARK  0 active torsions:
REMARK  status: ('A' for Active; 'I' for Inactive)
ROOT
ATOM      1  C   UNL d   1       2.550  -2.326  -1.152  0.00  0.00     0.078 C 
ATOM      2  C1  UNL d   1       2.054  -1.073  -0.494  0.00  0.00    -0.077 A 
ATOM      3  C2  UNL d   1       1.279  -1.128   0.671  0.00  0.00    -0.001 A 
ATOM      4  C3  UNL d   1       0.816   0.046   1.268  0.00  0.00     0.003 A 
ATOM      5  C4  UNL d   1       1.122   1.284   0.706  0.00  0.00    -0.005 A 
ATOM      6  C5  UNL d   1       1.891   1.349  -0.454  0.00  0.00     0.003 A 
ATOM      7  C6  UNL d   1       2.355   0.176  -1.052  0.00  0.00    -0.001 A 
ENDROOT
TORSDOF 0
ENDMDL
