MODEL 1
REMARK minimizedAffinity 3.32540703
REMARK minimizedRMSD -1
REMARK  0 active torsions:
REMARK  status: ('A' for Active; 'I' for Inactive)
ROOT
ATOM      1  C   UNL d   1       2.132   2.198   0.364  0.00  0.00     0.078 C 
ATOM      2  C1  UNL d   1       2.047   0.700   0.359  0.00  0.00    -0.077 A 
ATOM      3  C2  UNL d   1       0.952   0.038   0.927  0.00  0.00    -0.001 A 
ATOM      4  C3  UNL d   1       0.890  -1.356   0.923  0.00  0.00     0.003 A 
ATOM      5  C4  UNL d   1       1.922  -2.100   0.354  0.00  0.00    -0.005 A 
ATOM      6  C5  UNL d   1       3.017  -1.450  -0.212  0.00  0.00     0.003 A 
ATOM      7  C6  UNL d   1       3.080  -0.056  -0.209  0.00  0.00    -0.001 A 
ENDROOT
TORSDOF 0
ENDMDL
