MODEL 1
REMARK minimizedAffinity 1.79251909
REMARK minimizedRMSD -1
REMARK  0 active torsions:
REMARK  status: ('A' for Active; 'I' for Inactive)
ROOT
ATOM      1  C   UNL d   1      -0.749  -1.490   1.544  0.00  0.00     0.078 C 
ATOM      2  C1  UNL d   1       0.308  -0.569   1.012  0.00  0.00    -0.077 A 
ATOM      3  C2  UNL d   1       0.519   0.693   1.581  0.00  0.00    -0.001 A 
ATOM      4  C3  UNL d   1       1.500   1.543   1.070  0.00  0.00     0.003 A 
ATOM      5  C4  UNL d   1       2.278   1.142  -0.014  0.00  0.00    -0.005 A 
ATOM      6  C5  UNL d   1       2.074  -0.111  -0.589  0.00  0.00     0.003 A 
ATOM      7  C6  UNL d   1       1.094  -0.963  -0.079  0.00  0.00    -0.001 A 
ENDROOT
TORSDOF 0
ENDMDL
