MODEL 1
REMARK minimizedAffinity -2.49482393
REMARK minimizedRMSD -1
REMARK  0 active torsions:
REMARK  status: ('A' for Active; 'I' for Inactive)
ROOT
ATOM      1  C   UNL d   1       4.155   0.407  -2.408  0.00  0.00     0.078 C 
ATOM      2  C1  UNL d   1       3.094   0.228  -1.364  0.00  0.00    -0.077 A 
ATOM      3  C2  UNL d   1       2.640   1.314  -0.604  0.00  0.00    -0.001 A 
ATOM      4  C3  UNL d   1       1.659   1.131   0.371  0.00  0.00     0.003 A 
ATOM      5  C4  UNL d   1       1.124  -0.136   0.597  0.00  0.00    -0.005 A 
ATOM      6  C5  UNL d   1       1.571  -1.222  -0.152  0.00  0.00     0.003 A 
ATOM      7  C6  UNL d   1       2.552  -1.041  -1.128  0.00  0.00    -0.001 A 
ENDROOT
TORSDOF 0
ENDMDL
