MODEL 1
REMARK minimizedAffinity -3.67218089
REMARK minimizedRMSD -1
REMARK  0 active torsions:
REMARK  status: ('A' for Active; 'I' for Inactive)
ROOT
ATOM      1  C   UNL d   1       4.158  -1.031  -1.678  0.00  0.00     0.078 C 
ATOM      2  C1  UNL d   1       2.965  -0.597  -0.881  0.00  0.00    -0.077 A 
ATOM      3  C2  UNL d   1       2.744   0.756  -0.592  0.00  0.00    -0.001 A 
ATOM      4  C3  UNL d   1       1.634   1.145   0.160  0.00  0.00     0.003 A 
ATOM      5  C4  UNL d   1       0.737   0.188   0.631  0.00  0.00    -0.005 A 
ATOM      6  C5  UNL d   1       0.950  -1.160   0.350  0.00  0.00     0.003 A 
ATOM      7  C6  UNL d   1       2.059  -1.551  -0.401  0.00  0.00    -0.001 A 
ENDROOT
TORSDOF 0
ENDMDL
