MODEL 1
REMARK minimizedAffinity -1.69787312
REMARK minimizedRMSD -1
REMARK  0 active torsions:
REMARK  status: ('A' for Active; 'I' for Inactive)
ROOT
ATOM      1  C   UNL d   1       4.175  -0.818  -1.743  0.00  0.00     0.078 C 
ATOM      2  C1  UNL d   1       2.949  -0.496  -0.942  0.00  0.00    -0.077 A 
ATOM      3  C2  UNL d   1       2.597   0.830  -0.663  0.00  0.00    -0.001 A 
ATOM      4  C3  UNL d   1       1.458   1.115   0.091  0.00  0.00     0.003 A 
ATOM      5  C4  UNL d   1       0.662   0.078   0.574  0.00  0.00    -0.005 A 
ATOM      6  C5  UNL d   1       1.005  -1.245   0.303  0.00  0.00     0.003 A 
ATOM      7  C6  UNL d   1       2.144  -1.531  -0.451  0.00  0.00    -0.001 A 
ENDROOT
TORSDOF 0
ENDMDL
