MODEL 1
REMARK minimizedAffinity 5.10992861
REMARK minimizedRMSD -1
REMARK  0 active torsions:
REMARK  status: ('A' for Active; 'I' for Inactive)
ROOT
ATOM      1  C1  DEN d   1       1.681  -0.848   3.568  0.00  0.00     0.130 A 
ATOM      2  C2  DEN d   1       1.055  -1.170   4.848  0.00  0.00    -0.031 A 
ATOM      3  C3  DEN d   1      -0.038  -0.204   5.078  0.00  0.00     0.027 A 
ATOM      4  C4  DEN d   1      -0.822   1.745   3.581  0.00  0.00     0.027 A 
ATOM      5  C5  DEN d   1      -0.590   2.419   2.403  0.00  0.00    -0.003 A 
ATOM      6  C6  DEN d   1       0.428   2.075   1.553  0.00  0.00     0.001 A 
ATOM      7  C7  DEN d   1       1.224   1.001   1.848  0.00  0.00     0.017 A 
ATOM      8  C8  DEN d   1       1.002   0.321   3.039  0.00  0.00    -0.094 A 
ATOM      9  C9  DEN d   1      -0.040   0.676   3.878  0.00  0.00    -0.072 A 
ENDROOT
TORSDOF 0
ENDMDL
