MODEL 1
REMARK minimizedAffinity 3.23780441
REMARK minimizedRMSD -1
REMARK  0 active torsions:
REMARK  status: ('A' for Active; 'I' for Inactive)
ROOT
ATOM      1  C1  DEN d   1      -0.078   0.526   4.025  0.00  0.00     0.130 A 
ATOM      2  C2  DEN d   1       1.196  -0.031   3.579  0.00  0.00    -0.031 A 
ATOM      3  C3  DEN d   1       1.492   0.522   2.242  0.00  0.00     0.027 A 
ATOM      4  C4  DEN d   1       0.113   2.182   0.830  0.00  0.00     0.027 A 
ATOM      5  C5  DEN d   1      -1.047   2.924   0.785  0.00  0.00    -0.003 A 
ATOM      6  C6  DEN d   1      -1.973   2.893   1.793  0.00  0.00     0.001 A 
ATOM      7  C7  DEN d   1      -1.735   2.138   2.911  0.00  0.00     0.017 A 
ATOM      8  C8  DEN d   1      -0.572   1.381   2.961  0.00  0.00    -0.094 A 
ATOM      9  C9  DEN d   1       0.358   1.435   1.936  0.00  0.00    -0.072 A 
ENDROOT
TORSDOF 0
ENDMDL
