MODEL 1
REMARK minimizedAffinity 6.23753691
REMARK minimizedRMSD -1
REMARK  0 active torsions:
REMARK  status: ('A' for Active; 'I' for Inactive)
ROOT
ATOM      1  C1  DEN d   1      -0.625   0.911  -1.143  0.00  0.00     0.130 A 
ATOM      2  C2  DEN d   1      -0.999   1.836  -2.210  0.00  0.00    -0.031 A 
ATOM      3  C3  DEN d   1      -1.576   3.043  -1.585  0.00  0.00     0.027 A 
ATOM      4  C4  DEN d   1      -1.921   3.570   0.916  0.00  0.00     0.027 A 
ATOM      5  C5  DEN d   1      -1.769   3.086   2.196  0.00  0.00    -0.003 A 
ATOM      6  C6  DEN d   1      -1.261   1.839   2.450  0.00  0.00     0.001 A 
ATOM      7  C7  DEN d   1      -0.844   1.052   1.410  0.00  0.00     0.017 A 
ATOM      8  C8  DEN d   1      -1.001   1.530   0.115  0.00  0.00    -0.094 A 
ATOM      9  C9  DEN d   1      -1.505   2.798  -0.120  0.00  0.00    -0.072 A 
ENDROOT
TORSDOF 0
ENDMDL
