MODEL 1
REMARK minimizedAffinity 11.0024147
REMARK minimizedRMSD -1
REMARK  0 active torsions:
REMARK  status: ('A' for Active; 'I' for Inactive)
ROOT
ATOM      1  C1  DEN d   1      -3.232  -1.441   2.085  0.00  0.00     0.130 A 
ATOM      2  C2  DEN d   1      -3.697  -0.346   1.239  0.00  0.00    -0.031 A 
ATOM      3  C3  DEN d   1      -4.869   0.270   1.893  0.00  0.00     0.027 A 
ATOM      4  C4  DEN d   1      -6.000  -0.360   4.124  0.00  0.00     0.027 A 
ATOM      5  C5  DEN d   1      -5.969  -1.230   5.191  0.00  0.00    -0.003 A 
ATOM      6  C6  DEN d   1      -5.052  -2.243   5.281  0.00  0.00     0.001 A 
ATOM      7  C7  DEN d   1      -4.099  -2.385   4.307  0.00  0.00     0.017 A 
ATOM      8  C8  DEN d   1      -4.129  -1.517   3.224  0.00  0.00    -0.094 A 
ATOM      9  C9  DEN d   1      -5.056  -0.491   3.157  0.00  0.00    -0.072 A 
ENDROOT
TORSDOF 0
ENDMDL
