MODEL 1
REMARK minimizedAffinity 7.70617771
REMARK minimizedRMSD -1
REMARK  0 active torsions:
REMARK  status: ('A' for Active; 'I' for Inactive)
ROOT
ATOM      1  C1  DEN d   1       1.205   2.996   2.573  0.00  0.00     0.130 A 
ATOM      2  C2  DEN d   1       1.111   3.980   1.498  0.00  0.00    -0.031 A 
ATOM      3  C3  DEN d   1       0.742   3.267   0.258  0.00  0.00     0.027 A 
ATOM      4  C4  DEN d   1       0.304   0.751  -0.099  0.00  0.00     0.027 A 
ATOM      5  C5  DEN d   1       0.274  -0.481   0.516  0.00  0.00    -0.003 A 
ATOM      6  C6  DEN d   1       0.582  -0.645   1.840  0.00  0.00     0.001 A 
ATOM      7  C7  DEN d   1       0.891   0.449   2.605  0.00  0.00     0.017 A 
ATOM      8  C8  DEN d   1       0.931   1.694   1.991  0.00  0.00    -0.094 A 
ATOM      9  C9  DEN d   1       0.603   1.840   0.653  0.00  0.00    -0.072 A 
ENDROOT
TORSDOF 0
ENDMDL
