MODEL 1
REMARK minimizedAffinity 2.34264636
REMARK minimizedRMSD -1
REMARK  0 active torsions:
REMARK  status: ('A' for Active; 'I' for Inactive)
ROOT
ATOM      1  C1  DEN d   1       1.028   0.014   2.934  0.00  0.00     0.130 A 
ATOM      2  C2  DEN d   1       1.435   1.331   3.415  0.00  0.00    -0.031 A 
ATOM      3  C3  DEN d   1       1.300   2.287   2.297  0.00  0.00     0.027 A 
ATOM      4  C4  DEN d   1       0.501   1.857  -0.117  0.00  0.00     0.027 A 
ATOM      5  C5  DEN d   1       0.060   0.895  -1.000  0.00  0.00    -0.003 A 
ATOM      6  C6  DEN d   1      -0.055  -0.423  -0.645  0.00  0.00     0.001 A 
ATOM      7  C7  DEN d   1       0.231  -0.808   0.638  0.00  0.00     0.017 A 
ATOM      8  C8  DEN d   1       0.683   0.154   1.531  0.00  0.00    -0.094 A 
ATOM      9  C9  DEN d   1       0.781   1.484   1.157  0.00  0.00    -0.072 A 
ENDROOT
TORSDOF 0
ENDMDL
