MODEL 1
REMARK minimizedAffinity -4.8176403
REMARK minimizedRMSD -1
REMARK  0 active torsions:
REMARK  status: ('A' for Active; 'I' for Inactive)
ROOT
ATOM      1  C   UNL d   1      -0.164  -0.213   1.087  0.00  0.00     0.078 C 
ATOM      2  C1  UNL d   1       0.827  -1.197   0.541  0.00  0.00    -0.077 A 
ATOM      3  C2  UNL d   1       0.622  -2.575   0.673  0.00  0.00    -0.001 A 
ATOM      4  C3  UNL d   1       1.558  -3.480   0.168  0.00  0.00     0.003 A 
ATOM      5  C4  UNL d   1       2.705  -3.015  -0.472  0.00  0.00    -0.005 A 
ATOM      6  C5  UNL d   1       2.918  -1.645  -0.607  0.00  0.00     0.003 A 
ATOM      7  C6  UNL d   1       1.984  -0.739  -0.103  0.00  0.00    -0.001 A 
ENDROOT
TORSDOF 0
ENDMDL
