MODEL 1
REMARK minimizedAffinity -4.88456345
REMARK minimizedRMSD -1
REMARK  0 active torsions:
REMARK  status: ('A' for Active; 'I' for Inactive)
ROOT
ATOM      1  C   UNL d   1       2.710   0.284   0.294  0.00  0.00     0.078 C 
ATOM      2  C1  UNL d   1       1.622  -0.742   0.413  0.00  0.00    -0.077 A 
ATOM      3  C2  UNL d   1       1.845  -2.075   0.046  0.00  0.00    -0.001 A 
ATOM      4  C3  UNL d   1       0.820  -3.017   0.153  0.00  0.00     0.003 A 
ATOM      5  C4  UNL d   1      -0.434  -2.636   0.626  0.00  0.00    -0.005 A 
ATOM      6  C5  UNL d   1      -0.665  -1.311   0.991  0.00  0.00     0.003 A 
ATOM      7  C6  UNL d   1       0.358  -0.368   0.885  0.00  0.00    -0.001 A 
ENDROOT
TORSDOF 0
ENDMDL
