MODEL 1
REMARK minimizedAffinity -1.63664246
REMARK minimizedRMSD -1
REMARK  0 active torsions:
REMARK  status: ('A' for Active; 'I' for Inactive)
ROOT
ATOM      1  C   UNL d   1      -0.908  -0.760   1.143  0.00  0.00     0.078 C 
ATOM      2  C1  UNL d   1       0.367  -1.443   0.748  0.00  0.00    -0.077 A 
ATOM      3  C2  UNL d   1       0.386  -2.808   0.436  0.00  0.00    -0.001 A 
ATOM      4  C3  UNL d   1       1.582  -3.434   0.080  0.00  0.00     0.003 A 
ATOM      5  C4  UNL d   1       2.768  -2.702   0.034  0.00  0.00    -0.005 A 
ATOM      6  C5  UNL d   1       2.758  -1.344   0.345  0.00  0.00     0.003 A 
ATOM      7  C6  UNL d   1       1.563  -0.717   0.701  0.00  0.00    -0.001 A 
ENDROOT
TORSDOF 0
ENDMDL
