MODEL 1
REMARK minimizedAffinity -3.40190101
REMARK minimizedRMSD -1
REMARK  0 active torsions:
REMARK  status: ('A' for Active; 'I' for Inactive)
ROOT
ATOM      1  C   UNL d   1       4.818  -5.634   0.220  0.00  0.00     0.078 C 
ATOM      2  C1  UNL d   1       3.953  -4.410   0.264  0.00  0.00    -0.077 A 
ATOM      3  C2  UNL d   1       4.404  -3.189  -0.252  0.00  0.00    -0.001 A 
ATOM      4  C3  UNL d   1       3.592  -2.055  -0.196  0.00  0.00     0.003 A 
ATOM      5  C4  UNL d   1       2.324  -2.131   0.377  0.00  0.00    -0.005 A 
ATOM      6  C5  UNL d   1       1.867  -3.341   0.895  0.00  0.00     0.003 A 
ATOM      7  C6  UNL d   1       2.678  -4.475   0.840  0.00  0.00    -0.001 A 
ENDROOT
TORSDOF 0
ENDMDL
