MODEL 1
REMARK minimizedAffinity -5.68215704
REMARK minimizedRMSD -1
REMARK  0 active torsions:
REMARK  status: ('A' for Active; 'I' for Inactive)
ROOT
ATOM      1  C   UNL d   1       2.657  -3.781  -0.343  0.00  0.00     0.078 C 
ATOM      2  C1  UNL d   1       1.598  -2.819   0.107  0.00  0.00    -0.077 A 
ATOM      3  C2  UNL d   1       1.810  -1.436   0.053  0.00  0.00    -0.001 A 
ATOM      4  C3  UNL d   1       0.819  -0.553   0.485  0.00  0.00     0.003 A 
ATOM      5  C4  UNL d   1      -0.390  -1.043   0.974  0.00  0.00    -0.005 A 
ATOM      6  C5  UNL d   1      -0.609  -2.418   1.033  0.00  0.00     0.003 A 
ATOM      7  C6  UNL d   1       0.381  -3.303   0.602  0.00  0.00    -0.001 A 
ENDROOT
TORSDOF 0
ENDMDL
