MODEL 1
REMARK minimizedAffinity -3.57081985
REMARK minimizedRMSD -1
REMARK  0 active torsions:
REMARK  status: ('A' for Active; 'I' for Inactive)
ROOT
ATOM      1  C   UNL d   1      -0.606  -1.416   0.713  0.00  0.00     0.078 C 
ATOM      2  C1  UNL d   1       0.749  -2.005   0.457  0.00  0.00    -0.077 A 
ATOM      3  C2  UNL d   1       1.907  -1.226   0.570  0.00  0.00    -0.001 A 
ATOM      4  C3  UNL d   1       3.161  -1.785   0.318  0.00  0.00     0.003 A 
ATOM      5  C4  UNL d   1       3.269  -3.125  -0.049  0.00  0.00    -0.005 A 
ATOM      6  C5  UNL d   1       2.122  -3.907  -0.167  0.00  0.00     0.003 A 
ATOM      7  C6  UNL d   1       0.867  -3.350   0.084  0.00  0.00    -0.001 A 
ENDROOT
TORSDOF 0
ENDMDL
