MODEL 1
REMARK minimizedAffinity -4.65216732
REMARK minimizedRMSD -1
REMARK  0 active torsions:
REMARK  status: ('A' for Active; 'I' for Inactive)
ROOT
ATOM      1  C   UNL d   1      -0.659  -0.634   1.008  0.00  0.00     0.078 C 
ATOM      2  C1  UNL d   1       0.496  -1.455   0.518  0.00  0.00    -0.077 A 
ATOM      3  C2  UNL d   1       1.718  -0.856   0.186  0.00  0.00    -0.001 A 
ATOM      4  C3  UNL d   1       2.781  -1.631  -0.279  0.00  0.00     0.003 A 
ATOM      5  C4  UNL d   1       2.634  -3.010  -0.417  0.00  0.00    -0.005 A 
ATOM      6  C5  UNL d   1       1.422  -3.615  -0.091  0.00  0.00     0.003 A 
ATOM      7  C6  UNL d   1       0.357  -2.841   0.374  0.00  0.00    -0.001 A 
ENDROOT
TORSDOF 0
ENDMDL
