MODEL 1
REMARK minimizedAffinity -3.21160173
REMARK minimizedRMSD -1
REMARK  0 active torsions:
REMARK  status: ('A' for Active; 'I' for Inactive)
ROOT
ATOM      1  C   UNL d   1       3.326  -3.943   0.090  0.00  0.00     0.078 C 
ATOM      2  C1  UNL d   1       1.955  -3.335   0.095  0.00  0.00    -0.077 A 
ATOM      3  C2  UNL d   1       1.551  -2.474   1.123  0.00  0.00    -0.001 A 
ATOM      4  C3  UNL d   1       0.269  -1.923   1.120  0.00  0.00     0.003 A 
ATOM      5  C4  UNL d   1      -0.621  -2.229   0.092  0.00  0.00    -0.005 A 
ATOM      6  C5  UNL d   1      -0.230  -3.086  -0.934  0.00  0.00     0.003 A 
ATOM      7  C6  UNL d   1       1.052  -3.638  -0.932  0.00  0.00    -0.001 A 
ENDROOT
TORSDOF 0
ENDMDL
