MODEL 1
REMARK minimizedAffinity -1.3215251
REMARK minimizedRMSD -1
REMARK  0 active torsions:
REMARK  status: ('A' for Active; 'I' for Inactive)
ROOT
ATOM      1  C   UNL d   1       1.083  -3.159  -1.538  0.00  0.00     0.078 C 
ATOM      2  C1  UNL d   1       0.781  -2.182  -0.442  0.00  0.00    -0.077 A 
ATOM      3  C2  UNL d   1       1.777  -1.338   0.066  0.00  0.00    -0.001 A 
ATOM      4  C3  UNL d   1       1.484  -0.440   1.093  0.00  0.00     0.003 A 
ATOM      5  C4  UNL d   1       0.196  -0.376   1.622  0.00  0.00    -0.005 A 
ATOM      6  C5  UNL d   1      -0.800  -1.213   1.124  0.00  0.00     0.003 A 
ATOM      7  C6  UNL d   1      -0.509  -2.112   0.097  0.00  0.00    -0.001 A 
ENDROOT
TORSDOF 0
ENDMDL
