MODEL 1
REMARK minimizedAffinity 2.59958768
REMARK minimizedRMSD -1
REMARK  0 active torsions:
REMARK  status: ('A' for Active; 'I' for Inactive)
ROOT
ATOM      1  C   UNL d   1       2.910  -0.408   1.483  0.00  0.00     0.078 C 
ATOM      2  C1  UNL d   1       1.490  -0.872   1.348  0.00  0.00    -0.077 A 
ATOM      3  C2  UNL d   1       1.112  -1.747   0.323  0.00  0.00    -0.001 A 
ATOM      4  C3  UNL d   1      -0.215  -2.163   0.204  0.00  0.00     0.003 A 
ATOM      5  C4  UNL d   1      -1.175  -1.708   1.106  0.00  0.00    -0.005 A 
ATOM      6  C5  UNL d   1      -0.808  -0.835   2.128  0.00  0.00     0.003 A 
ATOM      7  C6  UNL d   1       0.518  -0.418   2.248  0.00  0.00    -0.001 A 
ENDROOT
TORSDOF 0
ENDMDL
