MODEL 1
REMARK minimizedAffinity -2.16274333
REMARK minimizedRMSD -1
REMARK  0 active torsions:
REMARK  status: ('A' for Active; 'I' for Inactive)
ROOT
ATOM      1  C   UNL d   1       3.184  -2.919  -0.164  0.00  0.00     0.078 C 
ATOM      2  C1  UNL d   1       1.866  -2.291   0.177  0.00  0.00    -0.077 A 
ATOM      3  C2  UNL d   1       1.789  -0.954   0.589  0.00  0.00    -0.001 A 
ATOM      4  C3  UNL d   1       0.556  -0.386   0.913  0.00  0.00     0.003 A 
ATOM      5  C4  UNL d   1      -0.609  -1.146   0.830  0.00  0.00    -0.005 A 
ATOM      6  C5  UNL d   1      -0.542  -2.477   0.424  0.00  0.00     0.003 A 
ATOM      7  C6  UNL d   1       0.690  -3.048   0.099  0.00  0.00    -0.001 A 
ENDROOT
TORSDOF 0
ENDMDL
