MODEL 1
REMARK minimizedAffinity 0.564575493
REMARK minimizedRMSD -1
REMARK  0 active torsions:
REMARK  status: ('A' for Active; 'I' for Inactive)
ROOT
ATOM      1  C   UNL d   1       1.936  -3.691  -0.014  0.00  0.00     0.078 C 
ATOM      2  C1  UNL d   1       3.347  -4.197   0.050  0.00  0.00    -0.077 A 
ATOM      3  C2  UNL d   1       4.424  -3.374  -0.300  0.00  0.00    -0.001 A 
ATOM      4  C3  UNL d   1       5.731  -3.861  -0.246  0.00  0.00     0.003 A 
ATOM      5  C4  UNL d   1       5.973  -5.173   0.157  0.00  0.00    -0.005 A 
ATOM      6  C5  UNL d   1       4.907  -6.000   0.505  0.00  0.00     0.003 A 
ATOM      7  C6  UNL d   1       3.599  -5.515   0.451  0.00  0.00    -0.001 A 
ENDROOT
TORSDOF 0
ENDMDL
