MODEL 1
REMARK minimizedAffinity 8.79589176
REMARK minimizedRMSD -1
REMARK  0 active torsions:
REMARK  status: ('A' for Active; 'I' for Inactive)
ROOT
ATOM      1  C   UNL d   1       6.000  -0.421  -2.030  0.00  0.00     0.078 C 
ATOM      2  C1  UNL d   1       4.681   0.015  -2.595  0.00  0.00    -0.077 A 
ATOM      3  C2  UNL d   1       3.629   0.402  -1.756  0.00  0.00    -0.001 A 
ATOM      4  C3  UNL d   1       2.404   0.796  -2.296  0.00  0.00     0.003 A 
ATOM      5  C4  UNL d   1       2.218   0.805  -3.677  0.00  0.00    -0.005 A 
ATOM      6  C5  UNL d   1       3.258   0.419  -4.520  0.00  0.00     0.003 A 
ATOM      7  C6  UNL d   1       4.485   0.025  -3.982  0.00  0.00    -0.001 A 
ENDROOT
TORSDOF 0
ENDMDL
