MODEL 1
REMARK minimizedAffinity 2.00495243
REMARK minimizedRMSD -1
REMARK  0 active torsions:
REMARK  status: ('A' for Active; 'I' for Inactive)
ROOT
ATOM      1  C   UNL d   1       3.330  -4.046  -0.172  0.00  0.00     0.078 C 
ATOM      2  C1  UNL d   1       2.046  -3.290   0.002  0.00  0.00    -0.077 A 
ATOM      3  C2  UNL d   1       0.832  -3.814  -0.459  0.00  0.00    -0.001 A 
ATOM      4  C3  UNL d   1      -0.353  -3.095  -0.299  0.00  0.00     0.003 A 
ATOM      5  C4  UNL d   1      -0.337  -1.848   0.321  0.00  0.00    -0.005 A 
ATOM      6  C5  UNL d   1       0.867  -1.317   0.781  0.00  0.00     0.003 A 
ATOM      7  C6  UNL d   1       2.053  -2.034   0.622  0.00  0.00    -0.001 A 
ENDROOT
TORSDOF 0
ENDMDL
