MODEL 1
REMARK minimizedAffinity -2.35504174
REMARK minimizedRMSD -1
REMARK  0 active torsions:
REMARK  status: ('A' for Active; 'I' for Inactive)
ROOT
ATOM      1  C   UNL d   1       3.245  -0.040   2.170  0.00  0.00     0.078 C 
ATOM      2  C1  UNL d   1       2.201  -0.817   1.427  0.00  0.00    -0.077 A 
ATOM      3  C2  UNL d   1       0.845  -0.709   1.762  0.00  0.00    -0.001 A 
ATOM      4  C3  UNL d   1      -0.115  -1.446   1.068  0.00  0.00     0.003 A 
ATOM      5  C4  UNL d   1       0.269  -2.298   0.035  0.00  0.00    -0.005 A 
ATOM      6  C5  UNL d   1       1.615  -2.415  -0.305  0.00  0.00     0.003 A 
ATOM      7  C6  UNL d   1       2.577  -1.678   0.388  0.00  0.00    -0.001 A 
ENDROOT
TORSDOF 0
ENDMDL
