MODEL 1
REMARK minimizedAffinity -1.63186252
REMARK minimizedRMSD -1
REMARK  0 active torsions:
REMARK  status: ('A' for Active; 'I' for Inactive)
ROOT
ATOM      1  C   UNL d   1       1.989  -3.727   0.047  0.00  0.00     0.078 C 
ATOM      2  C1  UNL d   1       1.052  -2.664   0.538  0.00  0.00    -0.077 A 
ATOM      3  C2  UNL d   1       1.508  -1.366   0.800  0.00  0.00    -0.001 A 
ATOM      4  C3  UNL d   1       0.627  -0.389   1.266  0.00  0.00     0.003 A 
ATOM      5  C4  UNL d   1      -0.716  -0.700   1.474  0.00  0.00    -0.005 A 
ATOM      6  C5  UNL d   1      -1.178  -1.989   1.218  0.00  0.00     0.003 A 
ATOM      7  C6  UNL d   1      -0.298  -2.968   0.752  0.00  0.00    -0.001 A 
ENDROOT
TORSDOF 0
ENDMDL
