MODEL 1
REMARK minimizedAffinity -4.85925865
REMARK minimizedRMSD -1
REMARK  0 active torsions:
REMARK  status: ('A' for Active; 'I' for Inactive)
ROOT
ATOM      1  C   UNL d   1       3.935  -4.261  -0.076  0.00  0.00     0.078 C 
ATOM      2  C1  UNL d   1       2.760  -3.339   0.060  0.00  0.00    -0.077 A 
ATOM      3  C2  UNL d   1       1.455  -3.841   0.129  0.00  0.00    -0.001 A 
ATOM      4  C3  UNL d   1       0.370  -2.970   0.247  0.00  0.00     0.003 A 
ATOM      5  C4  UNL d   1       0.579  -1.594   0.295  0.00  0.00    -0.005 A 
ATOM      6  C5  UNL d   1       1.875  -1.085   0.224  0.00  0.00     0.003 A 
ATOM      7  C6  UNL d   1       2.961  -1.954   0.107  0.00  0.00    -0.001 A 
ENDROOT
TORSDOF 0
ENDMDL
