MODEL 1
REMARK minimizedAffinity 0.445307642
REMARK minimizedRMSD -1
REMARK  0 active torsions:
REMARK  status: ('A' for Active; 'I' for Inactive)
ROOT
ATOM      1  C   UNL d   1       4.355  -5.638   0.337  0.00  0.00     0.078 C 
ATOM      2  C1  UNL d   1       3.369  -4.509   0.291  0.00  0.00    -0.077 A 
ATOM      3  C2  UNL d   1       3.798  -3.176   0.321  0.00  0.00    -0.001 A 
ATOM      4  C3  UNL d   1       2.869  -2.135   0.287  0.00  0.00     0.003 A 
ATOM      5  C4  UNL d   1       1.506  -2.415   0.225  0.00  0.00    -0.005 A 
ATOM      6  C5  UNL d   1       1.069  -3.738   0.197  0.00  0.00     0.003 A 
ATOM      7  C6  UNL d   1       1.997  -4.781   0.231  0.00  0.00    -0.001 A 
ENDROOT
TORSDOF 0
ENDMDL
