MODEL 1
REMARK minimizedAffinity -1.18995392
REMARK minimizedRMSD -1
REMARK  0 active torsions:
REMARK  status: ('A' for Active; 'I' for Inactive)
ROOT
ATOM      1  C   UNL d   1      -0.029  -3.142   0.558  0.00  0.00     0.078 C 
ATOM      2  C1  UNL d   1       1.465  -3.109   0.441  0.00  0.00    -0.077 A 
ATOM      3  C2  UNL d   1       2.179  -1.921   0.640  0.00  0.00    -0.001 A 
ATOM      4  C3  UNL d   1       3.569  -1.903   0.518  0.00  0.00     0.003 A 
ATOM      5  C4  UNL d   1       4.258  -3.071   0.195  0.00  0.00    -0.005 A 
ATOM      6  C5  UNL d   1       3.556  -4.257  -0.008  0.00  0.00     0.003 A 
ATOM      7  C6  UNL d   1       2.166  -4.277   0.114  0.00  0.00    -0.001 A 
ENDROOT
TORSDOF 0
ENDMDL
