MODEL 1
REMARK minimizedAffinity -3.17647457
REMARK minimizedRMSD -1
REMARK  1 active torsions:
REMARK  status: ('A' for Active; 'I' for Inactive)
REMARK    1  A    between atoms: C1_2  and  C2_3 
ROOT
ATOM      1  C2  UNL d   1      -0.464  -1.598  -0.420  0.00  0.00    -0.073 A 
ATOM      2  C3  UNL d   1      -1.485  -0.715  -0.050  0.00  0.00    -0.002 A 
ATOM      3  C4  UNL d   1      -1.176   0.523   0.515  0.00  0.00     0.004 A 
ATOM      4  C5  UNL d   1       0.155   0.894   0.708  0.00  0.00    -0.004 A 
ATOM      5  C6  UNL d   1       1.189   0.031   0.333  0.00  0.00    -0.075 A 
ATOM      6  C7  UNL d   1       2.626   0.414   0.536  0.00  0.00     0.076 C 
ATOM      7  C8  UNL d   1       0.871  -1.212  -0.231  0.00  0.00     0.001 A 
ENDROOT
BRANCH   1   8
ATOM      8  C1  UNL d   1      -0.793  -2.933  -1.036  0.00  0.00     0.053 C 
ATOM      9  C   UNL d   1      -0.782  -2.879  -2.555  0.00  0.00     0.018 C 
ENDBRANCH   1   8
TORSDOF 1
ENDMDL
