MODEL 1
REMARK minimizedAffinity 1.75836706
REMARK minimizedRMSD -1
REMARK  1 active torsions:
REMARK  status: ('A' for Active; 'I' for Inactive)
REMARK    1  A    between atoms: C1_2  and  C2_3 
ROOT
ATOM      1  C2  UNL d   1       0.262   1.194   0.794  0.00  0.00    -0.073 A 
ATOM      2  C3  UNL d   1      -0.403   2.131  -0.006  0.00  0.00    -0.002 A 
ATOM      3  C4  UNL d   1      -1.797   2.193  -0.007  0.00  0.00     0.004 A 
ATOM      4  C5  UNL d   1      -2.540   1.327   0.795  0.00  0.00    -0.004 A 
ATOM      5  C6  UNL d   1      -1.893   0.393   1.611  0.00  0.00    -0.075 A 
ATOM      6  C7  UNL d   1      -2.678  -0.547   2.478  0.00  0.00     0.076 C 
ATOM      7  C8  UNL d   1      -0.493   0.334   1.605  0.00  0.00     0.001 A 
ENDROOT
BRANCH   1   8
ATOM      8  C1  UNL d   1       1.767   1.127   0.804  0.00  0.00     0.053 C 
ATOM      9  C   UNL d   1       2.382   2.246   1.630  0.00  0.00     0.018 C 
ENDBRANCH   1   8
TORSDOF 1
ENDMDL
