MODEL 1
REMARK minimizedAffinity -5.44835663
REMARK minimizedRMSD -1
REMARK  1 active torsions:
REMARK  status: ('A' for Active; 'I' for Inactive)
REMARK    1  A    between atoms: C1_2  and  C2_3 
ROOT
ATOM      1  C2  UNL d   1      -0.165  -0.090  -0.023  0.00  0.00    -0.073 A 
ATOM      2  C3  UNL d   1      -1.217   0.791   0.253  0.00  0.00    -0.002 A 
ATOM      3  C4  UNL d   1      -0.966   2.150   0.450  0.00  0.00     0.004 A 
ATOM      4  C5  UNL d   1       0.337   2.642   0.366  0.00  0.00    -0.004 A 
ATOM      5  C6  UNL d   1       1.400   1.780   0.080  0.00  0.00    -0.075 A 
ATOM      6  C7  UNL d   1       2.807   2.293  -0.012  0.00  0.00     0.076 C 
ATOM      7  C8  UNL d   1       1.139   0.416  -0.114  0.00  0.00     0.001 A 
ENDROOT
BRANCH   1   8
ATOM      8  C1  UNL d   1      -0.433  -1.556  -0.243  0.00  0.00     0.053 C 
ATOM      9  C   UNL d   1      -0.151  -1.978  -1.676  0.00  0.00     0.018 C 
ENDBRANCH   1   8
TORSDOF 1
ENDMDL
