MODEL 1
REMARK minimizedAffinity -3.48302698
REMARK minimizedRMSD -1
REMARK  1 active torsions:
REMARK  status: ('A' for Active; 'I' for Inactive)
REMARK    1  A    between atoms: C1_2  and  C2_3 
ROOT
ATOM      1  C2  UNL d   1      -0.136  -0.187   0.362  0.00  0.00    -0.073 A 
ATOM      2  C3  UNL d   1      -1.308   0.578   0.349  0.00  0.00    -0.002 A 
ATOM      3  C4  UNL d   1      -1.275   1.923   0.720  0.00  0.00     0.004 A 
ATOM      4  C5  UNL d   1      -0.072   2.518   1.100  0.00  0.00    -0.004 A 
ATOM      5  C6  UNL d   1       1.111   1.773   1.108  0.00  0.00    -0.075 A 
ATOM      6  C7  UNL d   1       2.413   2.397   1.516  0.00  0.00     0.076 C 
ATOM      7  C8  UNL d   1       1.070   0.422   0.737  0.00  0.00     0.001 A 
ENDROOT
BRANCH   1   8
ATOM      8  C1  UNL d   1      -0.165  -1.638  -0.044  0.00  0.00     0.053 C 
ATOM      9  C   UNL d   1      -0.625  -1.819  -1.482  0.00  0.00     0.018 C 
ENDBRANCH   1   8
TORSDOF 1
ENDMDL
