MODEL 1
REMARK minimizedAffinity -3.67465711
REMARK minimizedRMSD -1
REMARK  1 active torsions:
REMARK  status: ('A' for Active; 'I' for Inactive)
REMARK    1  A    between atoms: C1_2  and  C2_3 
ROOT
ATOM      1  C2  UNL d   1      -0.451   1.635   0.745  0.00  0.00    -0.073 A 
ATOM      2  C3  UNL d   1      -0.107   2.989   0.659  0.00  0.00    -0.002 A 
ATOM      3  C4  UNL d   1       1.217   3.366   0.431  0.00  0.00     0.004 A 
ATOM      4  C5  UNL d   1       2.207   2.396   0.278  0.00  0.00    -0.004 A 
ATOM      5  C6  UNL d   1       1.881   1.038   0.349  0.00  0.00    -0.075 A 
ATOM      6  C7  UNL d   1       2.935  -0.018   0.190  0.00  0.00     0.076 C 
ATOM      7  C8  UNL d   1       0.550   0.667   0.582  0.00  0.00     0.001 A 
ENDROOT
BRANCH   1   8
ATOM      8  C1  UNL d   1      -1.880   1.223   0.986  0.00  0.00     0.053 C 
ATOM      9  C   UNL d   1      -1.974  -0.087   1.752  0.00  0.00     0.018 C 
ENDBRANCH   1   8
TORSDOF 1
ENDMDL
