MODEL 1
REMARK minimizedAffinity -4.51404667
REMARK minimizedRMSD -1
REMARK  1 active torsions:
REMARK  status: ('A' for Active; 'I' for Inactive)
REMARK    1  A    between atoms: C1_2  and  C2_3 
ROOT
ATOM      1  C2  UNL d   1       0.504  -1.572  -0.517  0.00  0.00    -0.073 A 
ATOM      2  C3  UNL d   1       0.859  -1.761  -1.858  0.00  0.00    -0.002 A 
ATOM      3  C4  UNL d   1       0.247  -2.761  -2.615  0.00  0.00     0.004 A 
ATOM      4  C5  UNL d   1      -0.730  -3.576  -2.042  0.00  0.00    -0.004 A 
ATOM      5  C6  UNL d   1      -1.106  -3.395  -0.708  0.00  0.00    -0.075 A 
ATOM      6  C7  UNL d   1      -2.153  -4.265  -0.076  0.00  0.00     0.076 C 
ATOM      7  C8  UNL d   1      -0.485  -2.391   0.047  0.00  0.00     0.001 A 
ENDROOT
BRANCH   1   8
ATOM      8  C1  UNL d   1       1.158  -0.490   0.303  0.00  0.00     0.053 C 
ATOM      9  C   UNL d   1       2.645  -0.742   0.497  0.00  0.00     0.018 C 
ENDBRANCH   1   8
TORSDOF 1
ENDMDL
