MODEL 1
REMARK minimizedAffinity -4.33366823
REMARK minimizedRMSD -1
REMARK  1 active torsions:
REMARK  status: ('A' for Active; 'I' for Inactive)
REMARK    1  A    between atoms: C1_2  and  C2_3 
ROOT
ATOM      1  C2  UNL d   1      -0.203   1.656   0.744  0.00  0.00    -0.073 A 
ATOM      2  C3  UNL d   1      -1.354   0.866   0.843  0.00  0.00    -0.002 A 
ATOM      3  C4  UNL d   1      -1.260  -0.526   0.806  0.00  0.00     0.004 A 
ATOM      4  C5  UNL d   1      -0.016  -1.142   0.675  0.00  0.00    -0.004 A 
ATOM      5  C6  UNL d   1       1.148  -0.370   0.586  0.00  0.00    -0.075 A 
ATOM      6  C7  UNL d   1       2.494  -1.018   0.444  0.00  0.00     0.076 C 
ATOM      7  C8  UNL d   1       1.045   1.027   0.622  0.00  0.00     0.001 A 
ENDROOT
BRANCH   1   8
ATOM      8  C1  UNL d   1      -0.299   3.159   0.791  0.00  0.00     0.053 C 
ATOM      9  C   UNL d   1       1.071   3.817   0.799  0.00  0.00     0.018 C 
ENDBRANCH   1   8
TORSDOF 1
ENDMDL
