MODEL 1
REMARK minimizedAffinity -6.46711063
REMARK minimizedRMSD -1
REMARK  1 active torsions:
REMARK  status: ('A' for Active; 'I' for Inactive)
REMARK    1  A    between atoms: C1_2  and  C2_3 
ROOT
ATOM      1  C2  UNL d   1       0.700   1.505   0.383  0.00  0.00    -0.073 A 
ATOM      2  C3  UNL d   1       2.093   1.409   0.285  0.00  0.00    -0.002 A 
ATOM      3  C4  UNL d   1       2.707   0.162   0.161  0.00  0.00     0.004 A 
ATOM      4  C5  UNL d   1       1.936  -1.000   0.127  0.00  0.00    -0.004 A 
ATOM      5  C6  UNL d   1       0.542  -0.924   0.212  0.00  0.00    -0.075 A 
ATOM      6  C7  UNL d   1      -0.301  -2.165   0.179  0.00  0.00     0.076 C 
ATOM      7  C8  UNL d   1      -0.067   0.332   0.338  0.00  0.00     0.001 A 
ENDROOT
BRANCH   1   8
ATOM      8  C1  UNL d   1       0.032   2.849   0.510  0.00  0.00     0.053 C 
ATOM      9  C   UNL d   1       0.878   3.964  -0.084  0.00  0.00     0.018 C 
ENDBRANCH   1   8
TORSDOF 1
ENDMDL
