MODEL 1
REMARK minimizedAffinity -2.98854208
REMARK minimizedRMSD -1
REMARK  1 active torsions:
REMARK  status: ('A' for Active; 'I' for Inactive)
REMARK    1  A    between atoms: C1_2  and  C2_3 
ROOT
ATOM      1  C2  UNL d   1      -0.146  -1.454  -0.644  0.00  0.00    -0.073 A 
ATOM      2  C3  UNL d   1      -0.782  -2.078   0.436  0.00  0.00    -0.002 A 
ATOM      3  C4  UNL d   1      -1.228  -1.325   1.522  0.00  0.00     0.004 A 
ATOM      4  C5  UNL d   1      -1.050   0.058   1.538  0.00  0.00    -0.004 A 
ATOM      5  C6  UNL d   1      -0.428   0.702   0.463  0.00  0.00    -0.075 A 
ATOM      6  C7  UNL d   1      -0.228   2.189   0.465  0.00  0.00     0.076 C 
ATOM      7  C8  UNL d   1       0.020  -0.062  -0.623  0.00  0.00     0.001 A 
ENDROOT
BRANCH   1   8
ATOM      8  C1  UNL d   1       0.331  -2.263  -1.823  0.00  0.00     0.053 C 
ATOM      9  C   UNL d   1      -0.627  -3.393  -2.165  0.00  0.00     0.018 C 
ENDBRANCH   1   8
TORSDOF 1
ENDMDL
