MODEL 1
REMARK minimizedAffinity -4.90060759
REMARK minimizedRMSD -1
REMARK  1 active torsions:
REMARK  status: ('A' for Active; 'I' for Inactive)
REMARK    1  A    between atoms: C1_2  and  C2_3 
ROOT
ATOM      1  C2  UNL d   1       0.994   1.744   0.636  0.00  0.00    -0.073 A 
ATOM      2  C3  UNL d   1      -0.239   2.362   0.873  0.00  0.00    -0.002 A 
ATOM      3  C4  UNL d   1      -1.429   1.658   0.682  0.00  0.00     0.004 A 
ATOM      4  C5  UNL d   1      -1.398   0.329   0.259  0.00  0.00    -0.004 A 
ATOM      5  C6  UNL d   1      -0.176  -0.310   0.028  0.00  0.00    -0.075 A 
ATOM      6  C7  UNL d   1      -0.125  -1.738  -0.430  0.00  0.00     0.076 C 
ATOM      7  C8  UNL d   1       1.015   0.405   0.219  0.00  0.00     0.001 A 
ENDROOT
BRANCH   1   8
ATOM      8  C1  UNL d   1       2.281   2.497   0.847  0.00  0.00     0.053 C 
ATOM      9  C   UNL d   1       3.442   1.567   1.160  0.00  0.00     0.018 C 
ENDBRANCH   1   8
TORSDOF 1
ENDMDL
