MODEL 1
REMARK minimizedAffinity -3.32414651
REMARK minimizedRMSD -1
REMARK  3 active torsions:
REMARK  status: ('A' for Active; 'I' for Inactive)
REMARK    1  A    between atoms: C3'_2  and  C2'_3 
REMARK    2  A    between atoms: C2'_3  and  C1'_4 
REMARK    3  A    between atoms: C1'_4  and  C1_5 
ROOT
ATOM      1  C1  N4B d   1      -0.509  -1.242   2.045  0.00  0.00    -0.075 A 
ATOM      2  C2  N4B d   1      -1.372  -1.404   0.938  0.00  0.00     0.002 A 
ATOM      3  C3  N4B d   1      -2.665  -0.944   1.003  0.00  0.00     0.002 A 
ATOM      4  C4  N4B d   1      -3.121  -0.341   2.165  0.00  0.00    -0.004 A 
ATOM      5  C5  N4B d   1      -2.274  -0.166   3.220  0.00  0.00     0.002 A 
ATOM      6  C6  N4B d   1      -0.971  -0.619   3.167  0.00  0.00     0.002 A 
ENDROOT
BRANCH   1   7
ATOM      7  C1' N4B d   1       0.886  -1.805   2.052  0.00  0.00     0.057 C 
BRANCH   7   8
ATOM      8  C2' N4B d   1       0.947  -3.007   1.115  0.00  0.00     0.009 C 
BRANCH   8   9
ATOM      9  C3' N4B d   1       1.911  -2.781  -0.037  0.00  0.00     0.004 C 
ATOM     10  C4' N4B d   1       3.100  -1.955   0.354  0.00  0.00     0.003 C 
ENDBRANCH   8   9
ENDBRANCH   7   8
ENDBRANCH   1   7
TORSDOF 3
ENDMDL
