MODEL 1
REMARK minimizedAffinity -0.349457681
REMARK minimizedRMSD -1
REMARK  3 active torsions:
REMARK  status: ('A' for Active; 'I' for Inactive)
REMARK    1  A    between atoms: C3'_2  and  C2'_3 
REMARK    2  A    between atoms: C2'_3  and  C1'_4 
REMARK    3  A    between atoms: C1'_4  and  C1_5 
ROOT
ATOM      1  C1  N4B d   1      -2.899   4.359  -3.393  0.00  0.00    -0.075 A 
ATOM      2  C2  N4B d   1      -2.502   3.004  -3.370  0.00  0.00     0.002 A 
ATOM      3  C3  N4B d   1      -2.619   2.274  -2.212  0.00  0.00     0.002 A 
ATOM      4  C4  N4B d   1      -3.111   2.880  -1.066  0.00  0.00    -0.004 A 
ATOM      5  C5  N4B d   1      -3.517   4.182  -1.104  0.00  0.00     0.002 A 
ATOM      6  C6  N4B d   1      -3.408   4.927  -2.261  0.00  0.00     0.002 A 
ENDROOT
BRANCH   1   7
ATOM      7  C1' N4B d   1      -2.710   5.222  -4.611  0.00  0.00     0.057 C 
BRANCH   7   8
ATOM      8  C2' N4B d   1      -1.488   4.734  -5.384  0.00  0.00     0.009 C 
BRANCH   8   9
ATOM      9  C3' N4B d   1      -0.707   5.885  -5.996  0.00  0.00     0.004 C 
ATOM     10  C4' N4B d   1       0.777   5.667  -5.953  0.00  0.00     0.003 C 
ENDBRANCH   8   9
ENDBRANCH   7   8
ENDBRANCH   1   7
TORSDOF 3
ENDMDL
