MODEL 1
REMARK minimizedAffinity 3.36300588
REMARK minimizedRMSD -1
REMARK  3 active torsions:
REMARK  status: ('A' for Active; 'I' for Inactive)
REMARK    1  A    between atoms: C3'_2  and  C2'_3 
REMARK    2  A    between atoms: C2'_3  and  C1'_4 
REMARK    3  A    between atoms: C1'_4  and  C1_5 
ROOT
ATOM      1  C1  N4B d   1      -1.026  -1.745   1.206  0.00  0.00    -0.075 A 
ATOM      2  C2  N4B d   1       0.121  -2.036   0.434  0.00  0.00     0.002 A 
ATOM      3  C3  N4B d   1       1.361  -2.045   1.025  0.00  0.00     0.002 A 
ATOM      4  C4  N4B d   1       1.480  -1.750   2.374  0.00  0.00    -0.004 A 
ATOM      5  C5  N4B d   1       0.365  -1.495   3.118  0.00  0.00     0.002 A 
ATOM      6  C6  N4B d   1      -0.888  -1.486   2.538  0.00  0.00     0.002 A 
ENDROOT
BRANCH   1   7
ATOM      7  C1' N4B d   1      -2.393  -1.639   0.587  0.00  0.00     0.057 C 
BRANCH   7   8
ATOM      8  C2' N4B d   1      -3.275  -2.762   1.124  0.00  0.00     0.009 C 
BRANCH   8   9
ATOM      9  C3' N4B d   1      -4.716  -2.623   0.664  0.00  0.00     0.004 C 
ATOM     10  C4' N4B d   1      -5.593  -1.972   1.692  0.00  0.00     0.003 C 
ENDBRANCH   8   9
ENDBRANCH   7   8
ENDBRANCH   1   7
TORSDOF 3
ENDMDL
