MODEL 1
REMARK minimizedAffinity 4.08284807
REMARK minimizedRMSD -1
REMARK  3 active torsions:
REMARK  status: ('A' for Active; 'I' for Inactive)
REMARK    1  A    between atoms: C3'_2  and  C2'_3 
REMARK    2  A    between atoms: C2'_3  and  C1'_4 
REMARK    3  A    between atoms: C1'_4  and  C1_5 
ROOT
ATOM      1  C1  N4B d   1      -1.390  -1.094   3.860  0.00  0.00    -0.075 A 
ATOM      2  C2  N4B d   1      -2.046  -1.434   2.656  0.00  0.00     0.002 A 
ATOM      3  C3  N4B d   1      -1.311  -1.761   1.543  0.00  0.00     0.002 A 
ATOM      4  C4  N4B d   1       0.074  -1.736   1.603  0.00  0.00    -0.004 A 
ATOM      5  C5  N4B d   1       0.700  -1.431   2.776  0.00  0.00     0.002 A 
ATOM      6  C6  N4B d   1      -0.026  -1.104   3.904  0.00  0.00     0.002 A 
ENDROOT
BRANCH   1   7
ATOM      7  C1' N4B d   1      -2.149  -0.646   5.079  0.00  0.00     0.057 C 
BRANCH   7   8
ATOM      8  C2' N4B d   1      -3.540  -0.180   4.659  0.00  0.00     0.009 C 
BRANCH   8   9
ATOM      9  C3' N4B d   1      -4.440   0.071   5.856  0.00  0.00     0.004 C 
ATOM     10  C4' N4B d   1      -5.860   0.358   5.466  0.00  0.00     0.003 C 
ENDBRANCH   8   9
ENDBRANCH   7   8
ENDBRANCH   1   7
TORSDOF 3
ENDMDL
