MODEL 1
REMARK minimizedAffinity -0.696155488
REMARK minimizedRMSD -1
REMARK  0 active torsions:
REMARK  status: ('A' for Active; 'I' for Inactive)
ROOT
ATOM      1  C1  BNZ d   1      -3.770   3.665   2.416  0.00  0.00     0.000 A 
ATOM      2  C2  BNZ d   1      -3.356   3.680   3.722  0.00  0.00     0.000 A 
ATOM      3  C3  BNZ d   1      -3.006   4.852   4.331  0.00  0.00     0.000 A 
ATOM      4  C4  BNZ d   1      -3.031   6.000   3.625  0.00  0.00     0.000 A 
ATOM      5  C5  BNZ d   1      -3.437   6.000   2.305  0.00  0.00     0.000 A 
ATOM      6  C6  BNZ d   1      -3.826   4.824   1.706  0.00  0.00     0.000 A 
ENDROOT
TORSDOF 0
ENDMDL
