MODEL 1
REMARK minimizedAffinity -2.84188199
REMARK minimizedRMSD -1
REMARK  0 active torsions:
REMARK  status: ('A' for Active; 'I' for Inactive)
ROOT
ATOM      1  C1  BNZ d   1      -3.014   6.000   2.046  0.00  0.00     0.000 A 
ATOM      2  C2  BNZ d   1      -4.015   5.935   1.113  0.00  0.00     0.000 A 
ATOM      3  C3  BNZ d   1      -5.311   5.720   1.491  0.00  0.00     0.000 A 
ATOM      4  C4  BNZ d   1      -5.599   5.530   2.795  0.00  0.00     0.000 A 
ATOM      5  C5  BNZ d   1      -4.600   5.583   3.746  0.00  0.00     0.000 A 
ATOM      6  C6  BNZ d   1      -3.302   5.839   3.366  0.00  0.00     0.000 A 
ENDROOT
TORSDOF 0
ENDMDL
