MODEL 1
REMARK minimizedAffinity -2.24914551
REMARK minimizedRMSD -1
REMARK  0 active torsions:
REMARK  status: ('A' for Active; 'I' for Inactive)
ROOT
ATOM      1  C1  BNZ d   1      -3.908   4.952   2.389  0.00  0.00     0.000 A 
ATOM      2  C2  BNZ d   1      -4.278   6.000   3.189  0.00  0.00     0.000 A 
ATOM      3  C3  BNZ d   1      -3.999   5.991   4.527  0.00  0.00     0.000 A 
ATOM      4  C4  BNZ d   1      -3.388   4.918   5.070  0.00  0.00     0.000 A 
ATOM      5  C5  BNZ d   1      -3.017   3.850   4.278  0.00  0.00     0.000 A 
ATOM      6  C6  BNZ d   1      -3.264   3.880   2.925  0.00  0.00     0.000 A 
ENDROOT
TORSDOF 0
ENDMDL
