MODEL 1
REMARK minimizedAffinity -3.59804034
REMARK minimizedRMSD -1
REMARK  0 active torsions:
REMARK  status: ('A' for Active; 'I' for Inactive)
ROOT
ATOM      1  C1  BNZ d   1      -3.409   5.986   1.449  0.00  0.00     0.000 A 
ATOM      2  C2  BNZ d   1      -2.371   5.998   2.343  0.00  0.00     0.000 A 
ATOM      3  C3  BNZ d   1      -2.608   5.985   3.689  0.00  0.00     0.000 A 
ATOM      4  C4  BNZ d   1      -3.879   6.000   4.140  0.00  0.00     0.000 A 
ATOM      5  C5  BNZ d   1      -4.935   5.997   3.251  0.00  0.00     0.000 A 
ATOM      6  C6  BNZ d   1      -4.694   5.971   1.896  0.00  0.00     0.000 A 
ENDROOT
TORSDOF 0
ENDMDL
