MODEL 1
REMARK minimizedAffinity -2.61108112
REMARK minimizedRMSD -1
REMARK  0 active torsions:
REMARK  status: ('A' for Active; 'I' for Inactive)
ROOT
ATOM      1  C1  BNZ d   1      -3.565   3.658   3.651  0.00  0.00     0.000 A 
ATOM      2  C2  BNZ d   1      -3.888   4.825   3.012  0.00  0.00     0.000 A 
ATOM      3  C3  BNZ d   1      -3.984   5.999   3.705  0.00  0.00     0.000 A 
ATOM      4  C4  BNZ d   1      -3.796   5.999   5.040  0.00  0.00     0.000 A 
ATOM      5  C5  BNZ d   1      -3.478   4.829   5.701  0.00  0.00     0.000 A 
ATOM      6  C6  BNZ d   1      -3.345   3.655   4.994  0.00  0.00     0.000 A 
ENDROOT
TORSDOF 0
ENDMDL
