MODEL 1
REMARK minimizedAffinity -1.33870232
REMARK minimizedRMSD -1
REMARK  0 active torsions:
REMARK  status: ('A' for Active; 'I' for Inactive)
ROOT
ATOM      1  C1  BNZ d   1      -4.808   6.000   2.785  0.00  0.00     0.000 A 
ATOM      2  C2  BNZ d   1      -4.985   5.996   4.143  0.00  0.00     0.000 A 
ATOM      3  C3  BNZ d   1      -3.911   6.000   4.989  0.00  0.00     0.000 A 
ATOM      4  C4  BNZ d   1      -2.664   5.966   4.477  0.00  0.00     0.000 A 
ATOM      5  C5  BNZ d   1      -2.469   5.960   3.110  0.00  0.00     0.000 A 
ATOM      6  C6  BNZ d   1      -3.552   5.995   2.261  0.00  0.00     0.000 A 
ENDROOT
TORSDOF 0
ENDMDL
