MODEL 1
REMARK minimizedAffinity -2.20467496
REMARK minimizedRMSD -1
REMARK  0 active torsions:
REMARK  status: ('A' for Active; 'I' for Inactive)
ROOT
ATOM      1  C1  BNZ d   1      -4.043   5.945   1.478  0.00  0.00     0.000 A 
ATOM      2  C2  BNZ d   1      -2.808   5.993   2.067  0.00  0.00     0.000 A 
ATOM      3  C3  BNZ d   1      -2.681   5.999   3.428  0.00  0.00     0.000 A 
ATOM      4  C4  BNZ d   1      -3.789   5.997   4.197  0.00  0.00     0.000 A 
ATOM      5  C5  BNZ d   1      -5.042   5.958   3.618  0.00  0.00     0.000 A 
ATOM      6  C6  BNZ d   1      -5.165   5.913   2.248  0.00  0.00     0.000 A 
ENDROOT
TORSDOF 0
ENDMDL
