MODEL 1
REMARK minimizedAffinity -2.63758445
REMARK minimizedRMSD -1
REMARK  0 active torsions:
REMARK  status: ('A' for Active; 'I' for Inactive)
ROOT
ATOM      1  C1  BNZ d   1      -4.550   5.635   2.625  0.00  0.00     0.000 A 
ATOM      2  C2  BNZ d   1      -4.872   5.617   3.956  0.00  0.00     0.000 A 
ATOM      3  C3  BNZ d   1      -3.913   5.814   4.910  0.00  0.00     0.000 A 
ATOM      4  C4  BNZ d   1      -2.629   5.987   4.534  0.00  0.00     0.000 A 
ATOM      5  C5  BNZ d   1      -2.288   5.998   3.196  0.00  0.00     0.000 A 
ATOM      6  C6  BNZ d   1      -3.262   5.839   2.237  0.00  0.00     0.000 A 
ENDROOT
TORSDOF 0
ENDMDL
