MODEL 1
REMARK minimizedAffinity -3.36935067
REMARK minimizedRMSD -1
REMARK  0 active torsions:
REMARK  status: ('A' for Active; 'I' for Inactive)
ROOT
ATOM      1  C1  BNZ d   1      -3.662   5.999   2.762  0.00  0.00     0.000 A 
ATOM      2  C2  BNZ d   1      -3.001   5.997   3.961  0.00  0.00     0.000 A 
ATOM      3  C3  BNZ d   1      -3.557   5.416   5.066  0.00  0.00     0.000 A 
ATOM      4  C4  BNZ d   1      -4.789   4.873   4.981  0.00  0.00     0.000 A 
ATOM      5  C5  BNZ d   1      -5.472   4.876   3.781  0.00  0.00     0.000 A 
ATOM      6  C6  BNZ d   1      -4.892   5.427   2.661  0.00  0.00     0.000 A 
ENDROOT
TORSDOF 0
ENDMDL
