MODEL 1
REMARK minimizedAffinity -0.0814516097
REMARK minimizedRMSD -1
REMARK  0 active torsions:
REMARK  status: ('A' for Active; 'I' for Inactive)
ROOT
ATOM      1  C1  BNZ d   1      -4.588   5.800   4.002  0.00  0.00     0.000 A 
ATOM      2  C2  BNZ d   1      -4.097   5.771   5.280  0.00  0.00     0.000 A 
ATOM      3  C3  BNZ d   1      -2.755   5.881   5.517  0.00  0.00     0.000 A 
ATOM      4  C4  BNZ d   1      -1.904   5.979   4.475  0.00  0.00     0.000 A 
ATOM      5  C5  BNZ d   1      -2.383   6.000   3.180  0.00  0.00     0.000 A 
ATOM      6  C6  BNZ d   1      -3.737   5.928   2.948  0.00  0.00     0.000 A 
ENDROOT
TORSDOF 0
ENDMDL
