MODEL 1
REMARK minimizedAffinity -1.30289602
REMARK minimizedRMSD -1
REMARK  0 active torsions:
REMARK  status: ('A' for Active; 'I' for Inactive)
ROOT
ATOM      1  C1  BNZ d   1      -3.368   5.958   5.961  0.00  0.00     0.000 A 
ATOM      2  C2  BNZ d   1      -4.171   6.000   4.853  0.00  0.00     0.000 A 
ATOM      3  C3  BNZ d   1      -3.630   6.000   3.597  0.00  0.00     0.000 A 
ATOM      4  C4  BNZ d   1      -2.290   5.999   3.452  0.00  0.00     0.000 A 
ATOM      5  C5  BNZ d   1      -1.467   5.967   4.561  0.00  0.00     0.000 A 
ATOM      6  C6  BNZ d   1      -2.015   5.927   5.822  0.00  0.00     0.000 A 
ENDROOT
TORSDOF 0
ENDMDL
