MODEL 1
REMARK minimizedAffinity 1.40884006
REMARK minimizedRMSD -1
REMARK  0 active torsions:
REMARK  status: ('A' for Active; 'I' for Inactive)
ROOT
ATOM      1  C1  BNZ d   1      -2.624   4.828   4.123  0.00  0.00     0.000 A 
ATOM      2  C2  BNZ d   1      -2.633   3.666   3.398  0.00  0.00     0.000 A 
ATOM      3  C3  BNZ d   1      -2.996   3.665   2.080  0.00  0.00     0.000 A 
ATOM      4  C4  BNZ d   1      -3.387   4.818   1.500  0.00  0.00     0.000 A 
ATOM      5  C5  BNZ d   1      -3.393   5.996   2.220  0.00  0.00     0.000 A 
ATOM      6  C6  BNZ d   1      -2.990   6.000   3.536  0.00  0.00     0.000 A 
ENDROOT
TORSDOF 0
ENDMDL
