MODEL 1
REMARK minimizedAffinity 0.0740030855
REMARK minimizedRMSD -1
REMARK  0 active torsions:
REMARK  status: ('A' for Active; 'I' for Inactive)
ROOT
ATOM      1  C1  BNZ d   1      -2.313   5.991   3.621  0.00  0.00     0.000 A 
ATOM      2  C2  BNZ d   1      -1.927   6.000   4.935  0.00  0.00     0.000 A 
ATOM      3  C3  BNZ d   1      -2.856   5.979   5.938  0.00  0.00     0.000 A 
ATOM      4  C4  BNZ d   1      -4.168   5.989   5.626  0.00  0.00     0.000 A 
ATOM      5  C5  BNZ d   1      -4.573   5.989   4.306  0.00  0.00     0.000 A 
ATOM      6  C6  BNZ d   1      -3.635   5.971   3.300  0.00  0.00     0.000 A 
ENDROOT
TORSDOF 0
ENDMDL
