MODEL 1
REMARK minimizedAffinity -2.39903665
REMARK minimizedRMSD -1
REMARK  0 active torsions:
REMARK  status: ('A' for Active; 'I' for Inactive)
ROOT
ATOM      1  C1  BNZ d   1       4.151   4.082   1.932  0.00  0.00     0.000 A 
ATOM      2  C2  BNZ d   1       5.103   4.504   2.821  0.00  0.00     0.000 A 
ATOM      3  C3  BNZ d   1       5.999   5.477   2.479  0.00  0.00     0.000 A 
ATOM      4  C4  BNZ d   1       5.968   5.999   1.235  0.00  0.00     0.000 A 
ATOM      5  C5  BNZ d   1       5.021   5.577   0.324  0.00  0.00     0.000 A 
ATOM      6  C6  BNZ d   1       4.096   4.625   0.685  0.00  0.00     0.000 A 
ENDROOT
TORSDOF 0
ENDMDL
