MODEL 1
REMARK minimizedAffinity 7.91395235
REMARK minimizedRMSD -1
REMARK  0 active torsions:
REMARK  status: ('A' for Active; 'I' for Inactive)
ROOT
ATOM      1  C   UNL d   1      -2.583  -5.836  -2.243  0.00  0.00     0.023 A 
ATOM      2  C1  UNL d   1      -1.542  -5.996  -3.157  0.00  0.00     0.003 A 
ATOM      3  C2  UNL d   1      -0.779  -4.894  -3.549  0.00  0.00     0.048 A 
ATOM      4  C3  UNL d   1      -1.061  -3.635  -3.021  0.00  0.00     0.023 A 
ATOM      5  C4  UNL d   1      -2.101  -3.470  -2.104  0.00  0.00     0.048 A 
ATOM      6  C5  UNL d   1      -2.862  -4.575  -1.717  0.00  0.00     0.003 A 
ATOM      7  I   UNL d   1       0.073  -1.994  -3.602  0.00  0.00    -0.146 I 
ENDROOT
TORSDOF 0
ENDMDL
