MODEL 1
REMARK minimizedAffinity 3.04069448
REMARK minimizedRMSD -1
REMARK  0 active torsions:
REMARK  status: ('A' for Active; 'I' for Inactive)
ROOT
ATOM      1  C   UNL d   1       1.872   3.444  -1.489  0.00  0.00     0.023 A 
ATOM      2  C1  UNL d   1       2.769   2.384  -1.360  0.00  0.00     0.003 A 
ATOM      3  C2  UNL d   1       2.387   1.222  -0.685  0.00  0.00     0.048 A 
ATOM      4  C3  UNL d   1       1.106   1.128  -0.143  0.00  0.00     0.023 A 
ATOM      5  C4  UNL d   1       0.204   2.186  -0.270  0.00  0.00     0.048 A 
ATOM      6  C5  UNL d   1       0.591   3.345  -0.945  0.00  0.00     0.003 A 
ATOM      7  I   UNL d   1       0.534  -0.600   0.861  0.00  0.00    -0.146 I 
ENDROOT
TORSDOF 0
ENDMDL
