MODEL 1
REMARK minimizedAffinity -1.73343873
REMARK minimizedRMSD -1
REMARK  0 active torsions:
REMARK  status: ('A' for Active; 'I' for Inactive)
ROOT
ATOM      1  C   UNL d   1      -4.469  -4.945  -2.320  0.00  0.00     0.023 A 
ATOM      2  C1  UNL d   1      -3.503  -4.499  -1.417  0.00  0.00     0.003 A 
ATOM      3  C2  UNL d   1      -3.623  -4.801  -0.059  0.00  0.00     0.048 A 
ATOM      4  C3  UNL d   1      -4.710  -5.549   0.390  0.00  0.00     0.023 A 
ATOM      5  C4  UNL d   1      -5.679  -5.998  -0.510  0.00  0.00     0.048 A 
ATOM      6  C5  UNL d   1      -5.555  -5.693  -1.866  0.00  0.00     0.003 A 
ATOM      7  I   UNL d   1      -4.890  -6.000   2.411  0.00  0.00    -0.146 I 
ENDROOT
TORSDOF 0
ENDMDL
