MODEL 1
REMARK minimizedAffinity 11.6136608
REMARK minimizedRMSD -1
REMARK  0 active torsions:
REMARK  status: ('A' for Active; 'I' for Inactive)
ROOT
ATOM      1  C   UNL d   1      -1.511  -3.428   2.426  0.00  0.00     0.023 A 
ATOM      2  C1  UNL d   1      -2.471  -3.565   1.423  0.00  0.00     0.003 A 
ATOM      3  C2  UNL d   1      -3.704  -4.153   1.711  0.00  0.00     0.048 A 
ATOM      4  C3  UNL d   1      -3.971  -4.602   3.004  0.00  0.00     0.023 A 
ATOM      5  C4  UNL d   1      -3.014  -4.466   4.011  0.00  0.00     0.048 A 
ATOM      6  C5  UNL d   1      -1.782  -3.878   3.718  0.00  0.00     0.003 A 
ATOM      7  I   UNL d   1      -5.806  -5.478   3.435  0.00  0.00    -0.146 I 
ENDROOT
TORSDOF 0
ENDMDL
