MODEL 1
REMARK minimizedAffinity 7.980124
REMARK minimizedRMSD -1
REMARK  0 active torsions:
REMARK  status: ('A' for Active; 'I' for Inactive)
ROOT
ATOM      1  C   UNL d   1      -1.406  -1.951   1.338  0.00  0.00     0.023 A 
ATOM      2  C1  UNL d   1      -0.289  -2.777   1.211  0.00  0.00     0.003 A 
ATOM      3  C2  UNL d   1       0.987  -2.274   1.474  0.00  0.00     0.048 A 
ATOM      4  C3  UNL d   1       1.138  -0.944   1.865  0.00  0.00     0.023 A 
ATOM      5  C4  UNL d   1       0.023  -0.114   1.994  0.00  0.00     0.048 A 
ATOM      6  C5  UNL d   1      -1.250  -0.621   1.729  0.00  0.00     0.003 A 
ATOM      7  I   UNL d   1       3.036  -0.192   2.257  0.00  0.00    -0.146 I 
ENDROOT
TORSDOF 0
ENDMDL
