MODEL 1
REMARK minimizedAffinity 8.43300343
REMARK minimizedRMSD -1
REMARK  0 active torsions:
REMARK  status: ('A' for Active; 'I' for Inactive)
ROOT
ATOM      1  C   UNL d   1      -6.000  -5.999   4.168  0.00  0.00     0.023 A 
ATOM      2  C1  UNL d   1      -5.776  -5.458   5.434  0.00  0.00     0.003 A 
ATOM      3  C2  UNL d   1      -4.653  -4.661   5.666  0.00  0.00     0.048 A 
ATOM      4  C3  UNL d   1      -3.759  -4.408   4.627  0.00  0.00     0.023 A 
ATOM      5  C4  UNL d   1      -3.979  -4.946   3.358  0.00  0.00     0.048 A 
ATOM      6  C5  UNL d   1      -5.103  -5.744   3.131  0.00  0.00     0.003 A 
ATOM      7  I   UNL d   1      -2.087  -3.222   4.969  0.00  0.00    -0.146 I 
ENDROOT
TORSDOF 0
ENDMDL
