MODEL 1
REMARK minimizedAffinity 10.7284775
REMARK minimizedRMSD -1
REMARK  0 active torsions:
REMARK  status: ('A' for Active; 'I' for Inactive)
ROOT
ATOM      1  C   UNL d   1      -4.865  -4.286  -0.670  0.00  0.00     0.023 A 
ATOM      2  C1  UNL d   1      -5.550  -5.495  -0.546  0.00  0.00     0.003 A 
ATOM      3  C2  UNL d   1      -5.875  -5.988   0.719  0.00  0.00     0.048 A 
ATOM      4  C3  UNL d   1      -5.513  -5.268   1.857  0.00  0.00     0.023 A 
ATOM      5  C4  UNL d   1      -4.828  -4.057   1.738  0.00  0.00     0.048 A 
ATOM      6  C5  UNL d   1      -4.504  -3.569   0.471  0.00  0.00     0.003 A 
ATOM      7  I   UNL d   1      -5.996  -6.000   3.741  0.00  0.00    -0.146 I 
ENDROOT
TORSDOF 0
ENDMDL
