MODEL 1
REMARK minimizedAffinity 15.0294228
REMARK minimizedRMSD -1
REMARK  0 active torsions:
REMARK  status: ('A' for Active; 'I' for Inactive)
ROOT
ATOM      1  C   UNL d   1       0.642  -0.561  -0.887  0.00  0.00     0.023 A 
ATOM      2  C1  UNL d   1       1.162  -1.614  -0.134  0.00  0.00     0.003 A 
ATOM      3  C2  UNL d   1       1.450  -2.836  -0.746  0.00  0.00     0.048 A 
ATOM      4  C3  UNL d   1       1.216  -2.998  -2.111  0.00  0.00     0.023 A 
ATOM      5  C4  UNL d   1       0.697  -1.946  -2.869  0.00  0.00     0.048 A 
ATOM      6  C5  UNL d   1       0.410  -0.727  -2.253  0.00  0.00     0.003 A 
ATOM      7  I   UNL d   1       1.643  -4.815  -3.023  0.00  0.00    -0.146 I 
ENDROOT
TORSDOF 0
ENDMDL
