MODEL 1
REMARK minimizedAffinity 11.8214684
REMARK minimizedRMSD -1
REMARK  0 active torsions:
REMARK  status: ('A' for Active; 'I' for Inactive)
ROOT
ATOM      1  C   UNL d   1       1.231  -0.128   0.641  0.00  0.00     0.023 A 
ATOM      2  C1  UNL d   1       1.713   0.030   1.941  0.00  0.00     0.003 A 
ATOM      3  C2  UNL d   1       0.937  -0.377   3.028  0.00  0.00     0.048 A 
ATOM      4  C3  UNL d   1      -0.318  -0.942   2.809  0.00  0.00     0.023 A 
ATOM      5  C4  UNL d   1      -0.804  -1.102   1.510  0.00  0.00     0.048 A 
ATOM      6  C5  UNL d   1      -0.025  -0.693   0.426  0.00  0.00     0.003 A 
ATOM      7  I   UNL d   1      -1.475  -1.548   4.426  0.00  0.00    -0.146 I 
ENDROOT
TORSDOF 0
ENDMDL
