MODEL 1
REMARK minimizedAffinity 10.6223383
REMARK minimizedRMSD -1
REMARK  0 active torsions:
REMARK  status: ('A' for Active; 'I' for Inactive)
ROOT
ATOM      1  C   UNL d   1      -1.593  -3.165   5.492  0.00  0.00     0.023 A 
ATOM      2  C1  UNL d   1      -1.108  -1.872   5.690  0.00  0.00     0.003 A 
ATOM      3  C2  UNL d   1      -0.632  -1.131   4.607  0.00  0.00     0.048 A 
ATOM      4  C3  UNL d   1      -0.646  -1.688   3.328  0.00  0.00     0.023 A 
ATOM      5  C4  UNL d   1      -1.131  -2.980   3.126  0.00  0.00     0.048 A 
ATOM      6  C5  UNL d   1      -1.605  -3.719   4.212  0.00  0.00     0.003 A 
ATOM      7  I   UNL d   1       0.061  -0.586   1.714  0.00  0.00    -0.146 I 
ENDROOT
TORSDOF 0
ENDMDL
