MODEL 1
REMARK minimizedAffinity 6.50453091
REMARK minimizedRMSD -1
REMARK  0 active torsions:
REMARK  status: ('A' for Active; 'I' for Inactive)
ROOT
ATOM      1  C   UNL d   1      -0.224   3.503  -1.424  0.00  0.00     0.023 A 
ATOM      2  C1  UNL d   1       0.416   4.461  -2.210  0.00  0.00     0.003 A 
ATOM      3  C2  UNL d   1      -0.004   4.681  -3.523  0.00  0.00     0.048 A 
ATOM      4  C3  UNL d   1      -1.065   3.941  -4.044  0.00  0.00     0.023 A 
ATOM      5  C4  UNL d   1      -1.709   2.982  -3.260  0.00  0.00     0.048 A 
ATOM      6  C5  UNL d   1      -1.285   2.764  -1.948  0.00  0.00     0.003 A 
ATOM      7  I   UNL d   1      -1.692   4.268  -5.998  0.00  0.00    -0.146 I 
ENDROOT
TORSDOF 0
ENDMDL
