MODEL 1
REMARK minimizedAffinity 1.1349988
REMARK minimizedRMSD -1
REMARK  0 active torsions:
REMARK  status: ('A' for Active; 'I' for Inactive)
ROOT
ATOM      1  C   UNL d   1      -4.269  -0.058  -0.215  0.00  0.00     0.023 A 
ATOM      2  C1  UNL d   1      -3.734   0.576   0.907  0.00  0.00     0.003 A 
ATOM      3  C2  UNL d   1      -2.378   0.433   1.210  0.00  0.00     0.048 A 
ATOM      4  C3  UNL d   1      -1.564  -0.344   0.388  0.00  0.00     0.023 A 
ATOM      5  C4  UNL d   1      -2.095  -0.980  -0.736  0.00  0.00     0.048 A 
ATOM      6  C5  UNL d   1      -3.451  -0.835  -1.035  0.00  0.00     0.003 A 
ATOM      7  I   UNL d   1       0.454  -0.558   0.837  0.00  0.00    -0.146 I 
ENDROOT
TORSDOF 0
ENDMDL
