MODEL 1
REMARK minimizedAffinity 6.50691557
REMARK minimizedRMSD -1
REMARK  0 active torsions:
REMARK  status: ('A' for Active; 'I' for Inactive)
ROOT
ATOM      1  C   UNL d   1       0.723   3.862  -1.487  0.00  0.00     0.023 A 
ATOM      2  C1  UNL d   1      -0.573   3.440  -1.187  0.00  0.00     0.003 A 
ATOM      3  C2  UNL d   1      -0.780   2.206  -0.568  0.00  0.00     0.048 A 
ATOM      4  C3  UNL d   1       0.312   1.399  -0.250  0.00  0.00     0.023 A 
ATOM      5  C4  UNL d   1       1.610   1.818  -0.548  0.00  0.00     0.048 A 
ATOM      6  C5  UNL d   1       1.813   3.052  -1.168  0.00  0.00     0.003 A 
ATOM      7  I   UNL d   1       0.006  -0.438   0.672  0.00  0.00    -0.146 I 
ENDROOT
TORSDOF 0
ENDMDL
