MODEL 1
REMARK minimizedAffinity 5.27010775
REMARK minimizedRMSD -1
REMARK  0 active torsions:
REMARK  status: ('A' for Active; 'I' for Inactive)
ROOT
ATOM      1  C4' PXY d   1      -1.797  -2.442  -4.855  0.00  0.00     0.077 C 
ATOM      2  C1' PXY d   1      -3.106  -2.659   0.771  0.00  0.00     0.077 C 
ATOM      3  C1  PXY d   1      -2.768  -2.614  -0.706  0.00  0.00    -0.082 A 
ATOM      4  C2  PXY d   1      -1.781  -1.841  -1.128  0.00  0.00     0.003 A 
ATOM      5  C3  PXY d   1      -1.483  -1.764  -2.464  0.00  0.00     0.003 A 
ATOM      6  C4  PXY d   1      -2.167  -2.526  -3.372  0.00  0.00    -0.082 A 
ATOM      7  C5  PXY d   1      -3.169  -3.326  -2.948  0.00  0.00     0.003 A 
ATOM      8  C6  PXY d   1      -3.483  -3.359  -1.593  0.00  0.00     0.003 A 
ENDROOT
TORSDOF 0
ENDMDL
