MODEL 1
REMARK minimizedAffinity 3.66283655
REMARK minimizedRMSD -1
REMARK  0 active torsions:
REMARK  status: ('A' for Active; 'I' for Inactive)
ROOT
ATOM      1  C4' PXY d   1       6.000   3.005   0.909  0.00  0.00     0.077 C 
ATOM      2  C1' PXY d   1       1.472  -0.588   0.931  0.00  0.00     0.077 C 
ATOM      3  C1  PXY d   1       2.664   0.348   0.936  0.00  0.00    -0.082 A 
ATOM      4  C2  PXY d   1       2.552   1.553   0.402  0.00  0.00     0.003 A 
ATOM      5  C3  PXY d   1       3.629   2.401   0.369  0.00  0.00     0.003 A 
ATOM      6  C4  PXY d   1       4.819   2.030   0.936  0.00  0.00    -0.082 A 
ATOM      7  C5  PXY d   1       4.939   0.806   1.492  0.00  0.00     0.003 A 
ATOM      8  C6  PXY d   1       3.845  -0.055   1.478  0.00  0.00     0.003 A 
ENDROOT
TORSDOF 0
ENDMDL
