MODEL 1
REMARK minimizedAffinity 6.83898497
REMARK minimizedRMSD -1
REMARK  0 active torsions:
REMARK  status: ('A' for Active; 'I' for Inactive)
ROOT
ATOM      1  C4' PXY d   1       5.245   4.440   0.346  0.00  0.00     0.077 C 
ATOM      2  C1' PXY d   1       5.229  -1.133   1.882  0.00  0.00     0.077 C 
ATOM      3  C1  PXY d   1       5.237   0.332   1.492  0.00  0.00    -0.082 A 
ATOM      4  C2  PXY d   1       4.506   0.739   0.466  0.00  0.00     0.003 A 
ATOM      5  C3  PXY d   1       4.526   2.055   0.079  0.00  0.00     0.003 A 
ATOM      6  C4  PXY d   1       5.260   2.972   0.782  0.00  0.00    -0.082 A 
ATOM      7  C5  PXY d   1       6.000   2.567   1.836  0.00  0.00     0.003 A 
ATOM      8  C6  PXY d   1       5.998   1.220   2.187  0.00  0.00     0.003 A 
ENDROOT
TORSDOF 0
ENDMDL
