MODEL 1
REMARK minimizedAffinity 16.388073
REMARK minimizedRMSD -1
REMARK  0 active torsions:
REMARK  status: ('A' for Active; 'I' for Inactive)
ROOT
ATOM      1  C4' PXY d   1       5.996  -1.861   5.825  0.00  0.00     0.077 C 
ATOM      2  C1' PXY d   1       3.372  -0.380   0.892  0.00  0.00     0.077 C 
ATOM      3  C1  PXY d   1       4.050  -0.766   2.192  0.00  0.00    -0.082 A 
ATOM      4  C2  PXY d   1       5.370  -0.749   2.272  0.00  0.00     0.003 A 
ATOM      5  C3  PXY d   1       6.000  -1.125   3.431  0.00  0.00     0.003 A 
ATOM      6  C4  PXY d   1       5.269  -1.471   4.535  0.00  0.00    -0.082 A 
ATOM      7  C5  PXY d   1       3.921  -1.480   4.465  0.00  0.00     0.003 A 
ATOM      8  C6  PXY d   1       3.302  -1.135   3.267  0.00  0.00     0.003 A 
ENDROOT
TORSDOF 0
ENDMDL
