MODEL 1
REMARK minimizedAffinity 3.27150989
REMARK minimizedRMSD -1
REMARK  0 active torsions:
REMARK  status: ('A' for Active; 'I' for Inactive)
ROOT
ATOM      1  C4' PXY d   1       5.246   2.250  -3.322  0.00  0.00     0.077 C 
ATOM      2  C1' PXY d   1       1.525   5.998  -5.671  0.00  0.00     0.077 C 
ATOM      3  C1  PXY d   1       2.509   5.018  -5.065  0.00  0.00    -0.082 A 
ATOM      4  C2  PXY d   1       2.063   4.012  -4.331  0.00  0.00     0.003 A 
ATOM      5  C3  PXY d   1       2.941   3.135  -3.748  0.00  0.00     0.003 A 
ATOM      6  C4  PXY d   1       4.288   3.258  -3.962  0.00  0.00    -0.082 A 
ATOM      7  C5  PXY d   1       4.751   4.276  -4.719  0.00  0.00     0.003 A 
ATOM      8  C6  PXY d   1       3.845   5.180  -5.267  0.00  0.00     0.003 A 
ENDROOT
TORSDOF 0
ENDMDL
