MODEL 1
REMARK minimizedAffinity 11.0451174
REMARK minimizedRMSD -1
REMARK  0 active torsions:
REMARK  status: ('A' for Active; 'I' for Inactive)
ROOT
ATOM      1  C4' PXY d   1       4.766   1.796  -2.127  0.00  0.00     0.077 C 
ATOM      2  C1' PXY d   1       1.141   1.003   2.305  0.00  0.00     0.077 C 
ATOM      3  C1  PXY d   1       2.100   1.203   1.148  0.00  0.00    -0.082 A 
ATOM      4  C2  PXY d   1       2.064   2.329   0.454  0.00  0.00     0.003 A 
ATOM      5  C3  PXY d   1       2.902   2.513  -0.615  0.00  0.00     0.003 A 
ATOM      6  C4  PXY d   1       3.823   1.555  -0.945  0.00  0.00    -0.082 A 
ATOM      7  C5  PXY d   1       3.874   0.408  -0.236  0.00  0.00     0.003 A 
ATOM      8  C6  PXY d   1       2.987   0.224   0.820  0.00  0.00     0.003 A 
ENDROOT
TORSDOF 0
ENDMDL
