MODEL 1
REMARK minimizedAffinity 7.10187149
REMARK minimizedRMSD -1
REMARK  0 active torsions:
REMARK  status: ('A' for Active; 'I' for Inactive)
ROOT
ATOM      1  C4' PXY d   1       5.072  -0.443   1.267  0.00  0.00     0.077 C 
ATOM      2  C1' PXY d   1       0.050   2.272   2.173  0.00  0.00     0.077 C 
ATOM      3  C1  PXY d   1       1.365   1.561   1.922  0.00  0.00    -0.082 A 
ATOM      4  C2  PXY d   1       1.846   0.734   2.836  0.00  0.00     0.003 A 
ATOM      5  C3  PXY d   1       3.050   0.108   2.640  0.00  0.00     0.003 A 
ATOM      6  C4  PXY d   1       3.743   0.289   1.473  0.00  0.00    -0.082 A 
ATOM      7  C5  PXY d   1       3.254   1.123   0.531  0.00  0.00     0.003 A 
ATOM      8  C6  PXY d   1       2.050   1.781   0.767  0.00  0.00     0.003 A 
ENDROOT
TORSDOF 0
ENDMDL
