MODEL 1
REMARK minimizedAffinity 11.4368553
REMARK minimizedRMSD -1
REMARK  0 active torsions:
REMARK  status: ('A' for Active; 'I' for Inactive)
ROOT
ATOM      1  C4' PXY d   1       1.426   6.000  -6.000  0.00  0.00     0.077 C 
ATOM      2  C1' PXY d   1       4.321   2.237  -2.702  0.00  0.00     0.077 C 
ATOM      3  C1  PXY d   1       3.563   3.233  -3.557  0.00  0.00    -0.082 A 
ATOM      4  C2  PXY d   1       2.737   2.796  -4.494  0.00  0.00     0.003 A 
ATOM      5  C3  PXY d   1       2.068   3.682  -5.298  0.00  0.00     0.003 A 
ATOM      6  C4  PXY d   1       2.205   5.031  -5.106  0.00  0.00    -0.082 A 
ATOM      7  C5  PXY d   1       3.038   5.485  -4.146  0.00  0.00     0.003 A 
ATOM      8  C6  PXY d   1       3.739   4.569  -3.367  0.00  0.00     0.003 A 
ENDROOT
TORSDOF 0
ENDMDL
