MODEL 1
REMARK minimizedAffinity 16.5778408
REMARK minimizedRMSD -1
REMARK  0 active torsions:
REMARK  status: ('A' for Active; 'I' for Inactive)
ROOT
ATOM      1  C4' PXY d   1      -1.943  -2.398  -0.360  0.00  0.00     0.077 C 
ATOM      2  C1' PXY d   1      -0.665  -2.383  -5.997  0.00  0.00     0.077 C 
ATOM      3  C1  PXY d   1      -1.001  -2.400  -4.519  0.00  0.00    -0.082 A 
ATOM      4  C2  PXY d   1      -1.509  -1.318  -3.951  0.00  0.00     0.003 A 
ATOM      5  C3  PXY d   1      -1.789  -1.305  -2.609  0.00  0.00     0.003 A 
ATOM      6  C4  PXY d   1      -1.597  -2.429  -1.851  0.00  0.00    -0.082 A 
ATOM      7  C5  PXY d   1      -1.090  -3.541  -2.425  0.00  0.00     0.003 A 
ATOM      8  C6  PXY d   1      -0.774  -3.520  -3.781  0.00  0.00     0.003 A 
ENDROOT
TORSDOF 0
ENDMDL
