MODEL 1
REMARK minimizedAffinity 12.7787075
REMARK minimizedRMSD -1
REMARK  0 active torsions:
REMARK  status: ('A' for Active; 'I' for Inactive)
ROOT
ATOM      1  C4' PXY d   1      -3.398   1.742   3.013  0.00  0.00     0.077 C 
ATOM      2  C1' PXY d   1      -5.654  -2.665   5.996  0.00  0.00     0.077 C 
ATOM      3  C1  PXY d   1      -5.055  -1.518   5.207  0.00  0.00    -0.082 A 
ATOM      4  C2  PXY d   1      -5.019  -0.307   5.739  0.00  0.00     0.003 A 
ATOM      5  C3  PXY d   1      -4.510   0.749   5.026  0.00  0.00     0.003 A 
ATOM      6  C4  PXY d   1      -3.985   0.552   3.778  0.00  0.00    -0.082 A 
ATOM      7  C5  PXY d   1      -4.008  -0.683   3.232  0.00  0.00     0.003 A 
ATOM      8  C6  PXY d   1      -4.567  -1.733   3.956  0.00  0.00     0.003 A 
ENDROOT
TORSDOF 0
ENDMDL
