MODEL 1
REMARK minimizedAffinity 5.05619621
REMARK minimizedRMSD -1
REMARK  0 active torsions:
REMARK  status: ('A' for Active; 'I' for Inactive)
ROOT
ATOM      1  C4' PXY d   1       5.077   2.483  -3.641  0.00  0.00     0.077 C 
ATOM      2  C1' PXY d   1       1.137   5.999  -5.993  0.00  0.00     0.077 C 
ATOM      3  C1  PXY d   1       2.166   5.079  -5.364  0.00  0.00    -0.082 A 
ATOM      4  C2  PXY d   1       3.304   4.841  -5.996  0.00  0.00     0.003 A 
ATOM      5  C3  PXY d   1       4.231   3.987  -5.457  0.00  0.00     0.003 A 
ATOM      6  C4  PXY d   1       4.014   3.412  -4.233  0.00  0.00    -0.082 A 
ATOM      7  C5  PXY d   1       2.860   3.658  -3.578  0.00  0.00     0.003 A 
ATOM      8  C6  PXY d   1       1.914   4.496  -4.161  0.00  0.00     0.003 A 
ENDROOT
TORSDOF 0
ENDMDL
