MODEL 1
REMARK minimizedAffinity -3.24024558
REMARK minimizedRMSD -1
REMARK  0 active torsions:
REMARK  status: ('A' for Active; 'I' for Inactive)
ROOT
ATOM      1  C4' PXY d   1       2.989   5.876  -5.993  0.00  0.00     0.077 C 
ATOM      2  C1' PXY d   1       5.995   1.905  -3.059  0.00  0.00     0.077 C 
ATOM      3  C1  PXY d   1       5.217   2.955  -3.828  0.00  0.00    -0.082 A 
ATOM      4  C2  PXY d   1       3.894   2.923  -3.823  0.00  0.00     0.003 A 
ATOM      5  C3  PXY d   1       3.175   3.845  -4.538  0.00  0.00     0.003 A 
ATOM      6  C4  PXY d   1       3.815   4.843  -5.224  0.00  0.00    -0.082 A 
ATOM      7  C5  PXY d   1       5.164   4.889  -5.225  0.00  0.00     0.003 A 
ATOM      8  C6  PXY d   1       5.877   3.919  -4.526  0.00  0.00     0.003 A 
ENDROOT
TORSDOF 0
ENDMDL
