MODEL 1
REMARK minimizedAffinity 11.6822367
REMARK minimizedRMSD -1
REMARK  0 active torsions:
REMARK  status: ('A' for Active; 'I' for Inactive)
ROOT
ATOM      1  C4' PXY d   1      -2.258  -5.997   1.657  0.00  0.00     0.077 C 
ATOM      2  C1' PXY d   1      -0.346  -0.636   2.665  0.00  0.00     0.077 C 
ATOM      3  C1  PXY d   1      -0.856  -2.037   2.392  0.00  0.00    -0.082 A 
ATOM      4  C2  PXY d   1      -0.722  -2.974   3.316  0.00  0.00     0.003 A 
ATOM      5  C3  PXY d   1      -1.148  -4.254   3.074  0.00  0.00     0.003 A 
ATOM      6  C4  PXY d   1      -1.767  -4.566   1.893  0.00  0.00    -0.082 A 
ATOM      7  C5  PXY d   1      -1.917  -3.613   0.948  0.00  0.00     0.003 A 
ATOM      8  C6  PXY d   1      -1.440  -2.330   1.198  0.00  0.00     0.003 A 
ENDROOT
TORSDOF 0
ENDMDL
