MODEL 1
REMARK minimizedAffinity 5.93281984
REMARK minimizedRMSD -1
REMARK  0 active torsions:
REMARK  status: ('A' for Active; 'I' for Inactive)
ROOT
ATOM      1  C4' PXY d   1       3.718  -0.072   1.433  0.00  0.00     0.077 C 
ATOM      2  C1' PXY d   1       1.514   2.718  -3.125  0.00  0.00     0.077 C 
ATOM      3  C1  PXY d   1       2.086   1.995  -1.921  0.00  0.00    -0.082 A 
ATOM      4  C2  PXY d   1       3.182   1.265  -2.057  0.00  0.00     0.003 A 
ATOM      5  C3  PXY d   1       3.695   0.579  -0.986  0.00  0.00     0.003 A 
ATOM      6  C4  PXY d   1       3.110   0.683   0.248  0.00  0.00    -0.082 A 
ATOM      7  C5  PXY d   1       1.998   1.434   0.396  0.00  0.00     0.003 A 
ATOM      8  C6  PXY d   1       1.470   2.089  -0.712  0.00  0.00     0.003 A 
ENDROOT
TORSDOF 0
ENDMDL
