MODEL 1
REMARK minimizedAffinity 12.0694485
REMARK minimizedRMSD -1
REMARK  0 active torsions:
REMARK  status: ('A' for Active; 'I' for Inactive)
ROOT
ATOM      1  C4' PXY d   1      -5.991   6.000   4.501  0.00  0.00     0.077 C 
ATOM      2  C1' PXY d   1      -3.217   1.138   3.059  0.00  0.00     0.077 C 
ATOM      3  C1  PXY d   1      -3.942   2.411   3.450  0.00  0.00    -0.082 A 
ATOM      4  C2  PXY d   1      -4.880   2.899   2.655  0.00  0.00     0.003 A 
ATOM      5  C3  PXY d   1      -5.523   4.067   2.978  0.00  0.00     0.003 A 
ATOM      6  C4  PXY d   1      -5.240   4.712   4.151  0.00  0.00    -0.082 A 
ATOM      7  C5  PXY d   1      -4.291   4.215   4.972  0.00  0.00     0.003 A 
ATOM      8  C6  PXY d   1      -3.621   3.051   4.607  0.00  0.00     0.003 A 
ENDROOT
TORSDOF 0
ENDMDL
