MODEL 1
REMARK minimizedAffinity 6.59990549
REMARK minimizedRMSD -1
REMARK  0 active torsions:
REMARK  status: ('A' for Active; 'I' for Inactive)
ROOT
ATOM      1  C4' PXY d   1       3.841   1.876  -1.694  0.00  0.00     0.077 C 
ATOM      2  C1' PXY d   1       0.835   0.944   3.155  0.00  0.00     0.077 C 
ATOM      3  C1  PXY d   1       1.632   1.179   1.887  0.00  0.00    -0.082 A 
ATOM      4  C2  PXY d   1       1.531   2.338   1.256  0.00  0.00     0.003 A 
ATOM      5  C3  PXY d   1       2.220   2.556   0.091  0.00  0.00     0.003 A 
ATOM      6  C4  PXY d   1       3.062   1.597  -0.406  0.00  0.00    -0.082 A 
ATOM      7  C5  PXY d   1       3.179   0.416   0.238  0.00  0.00     0.003 A 
ATOM      8  C6  PXY d   1       2.439   0.200   1.397  0.00  0.00     0.003 A 
ENDROOT
TORSDOF 0
ENDMDL
