MODEL 1
REMARK minimizedAffinity 0.361732125
REMARK minimizedRMSD -1
REMARK  0 active torsions:
REMARK  status: ('A' for Active; 'I' for Inactive)
ROOT
ATOM      1  C4' PXY d   1       1.338   4.608  -5.978  0.00  0.00     0.077 C 
ATOM      2  C1' PXY d   1       6.000   1.486  -4.587  0.00  0.00     0.077 C 
ATOM      3  C1  PXY d   1       4.770   2.294  -4.950  0.00  0.00    -0.082 A 
ATOM      4  C2  PXY d   1       4.898   3.386  -5.686  0.00  0.00     0.003 A 
ATOM      5  C3  PXY d   1       3.800   4.146  -5.997  0.00  0.00     0.003 A 
ATOM      6  C4  PXY d   1       2.551   3.756  -5.595  0.00  0.00    -0.082 A 
ATOM      7  C5  PXY d   1       2.410   2.637  -4.853  0.00  0.00     0.003 A 
ATOM      8  C6  PXY d   1       3.542   1.901  -4.514  0.00  0.00     0.003 A 
ENDROOT
TORSDOF 0
ENDMDL
