MODEL 1
REMARK minimizedAffinity 1.28214753
REMARK minimizedRMSD -1
REMARK  0 active torsions:
REMARK  status: ('A' for Active; 'I' for Inactive)
ROOT
ATOM      1  C4' PXY d   1       5.883   1.519  -2.035  0.00  0.00     0.077 C 
ATOM      2  C1' PXY d   1       5.991   5.743  -5.980  0.00  0.00     0.077 C 
ATOM      3  C1  PXY d   1       5.969   4.643  -4.937  0.00  0.00    -0.082 A 
ATOM      4  C2  PXY d   1       5.910   3.378  -5.321  0.00  0.00     0.003 A 
ATOM      5  C3  PXY d   1       5.856   2.373  -4.391  0.00  0.00     0.003 A 
ATOM      6  C4  PXY d   1       5.917   2.662  -3.054  0.00  0.00    -0.082 A 
ATOM      7  C5  PXY d   1       5.988   3.949  -2.654  0.00  0.00     0.003 A 
ATOM      8  C6  PXY d   1       6.000   4.957  -3.614  0.00  0.00     0.003 A 
ENDROOT
TORSDOF 0
ENDMDL
