MODEL 1
REMARK minimizedAffinity 6.19671392
REMARK minimizedRMSD -1
REMARK  0 active torsions:
REMARK  status: ('A' for Active; 'I' for Inactive)
ROOT
ATOM      1  C4' PXY d   1       3.711   0.952  -1.976  0.00  0.00     0.077 C 
ATOM      2  C1' PXY d   1       5.991   4.420  -6.000  0.00  0.00     0.077 C 
ATOM      3  C1  PXY d   1       5.382   3.512  -4.950  0.00  0.00    -0.082 A 
ATOM      4  C2  PXY d   1       6.000   3.343  -3.792  0.00  0.00     0.003 A 
ATOM      5  C3  PXY d   1       5.479   2.501  -2.844  0.00  0.00     0.003 A 
ATOM      6  C4  PXY d   1       4.285   1.867  -3.062  0.00  0.00    -0.082 A 
ATOM      7  C5  PXY d   1       3.643   2.042  -4.236  0.00  0.00     0.003 A 
ATOM      8  C6  PXY d   1       4.209   2.869  -5.202  0.00  0.00     0.003 A 
ENDROOT
TORSDOF 0
ENDMDL
