MODEL 1
REMARK minimizedAffinity -2.58612585
REMARK minimizedRMSD -1
REMARK  0 active torsions:
REMARK  status: ('A' for Active; 'I' for Inactive)
ROOT
ATOM      1  C4' PXY d   1       5.376   2.423  -2.783  0.00  0.00     0.077 C 
ATOM      2  C1' PXY d   1       2.168   6.000  -5.998  0.00  0.00     0.077 C 
ATOM      3  C1  PXY d   1       2.999   5.054  -5.153  0.00  0.00    -0.082 A 
ATOM      4  C2  PXY d   1       4.099   5.497  -4.565  0.00  0.00     0.003 A 
ATOM      5  C3  PXY d   1       4.879   4.647  -3.824  0.00  0.00     0.003 A 
ATOM      6  C4  PXY d   1       4.501   3.345  -3.638  0.00  0.00    -0.082 A 
ATOM      7  C5  PXY d   1       3.375   2.888  -4.225  0.00  0.00     0.003 A 
ATOM      8  C6  PXY d   1       2.619   3.756  -5.008  0.00  0.00     0.003 A 
ENDROOT
TORSDOF 0
ENDMDL
