MODEL 1
REMARK minimizedAffinity -2.04422498
REMARK minimizedRMSD -1
REMARK  1 active torsions:
REMARK  status: ('A' for Active; 'I' for Inactive)
REMARK    1  A    between atoms: C1_2  and  C2_3 
ROOT
ATOM      1  C2  UNL d   1      -1.187  -0.762  -0.211  0.00  0.00    -0.076 A 
ATOM      2  C3  UNL d   1       0.087  -0.639  -0.791  0.00  0.00     0.004 A 
ATOM      3  C4  UNL d   1       1.074   0.146  -0.196  0.00  0.00    -0.003 A 
ATOM      4  C5  UNL d   1       0.802   0.820   0.990  0.00  0.00     0.000 A 
ATOM      5  C6  UNL d   1      -0.452   0.695   1.588  0.00  0.00     0.000 A 
ATOM      6  C7  UNL d   1      -1.452  -0.105   1.010  0.00  0.00    -0.073 A 
ATOM      7  C8  UNL d   1      -2.788  -0.199   1.695  0.00  0.00     0.078 C 
ENDROOT
BRANCH   1   8
ATOM      8  C1  UNL d   1      -2.225  -1.605  -0.916  0.00  0.00     0.053 C 
ATOM      9  C   UNL d   1      -1.663  -2.928  -1.412  0.00  0.00     0.018 C 
ENDBRANCH   1   8
TORSDOF 1
ENDMDL
