MODEL 1
REMARK minimizedAffinity -5.00599623
REMARK minimizedRMSD -1
REMARK  1 active torsions:
REMARK  status: ('A' for Active; 'I' for Inactive)
REMARK    1  A    between atoms: C1_2  and  C2_3 
ROOT
ATOM      1  C2  UNL d   1       0.009   0.496   1.002  0.00  0.00    -0.076 A 
ATOM      2  C3  UNL d   1      -0.666   1.373   1.869  0.00  0.00     0.004 A 
ATOM      3  C4  UNL d   1      -0.219   1.577   3.174  0.00  0.00    -0.003 A 
ATOM      4  C5  UNL d   1       0.910   0.908   3.632  0.00  0.00     0.000 A 
ATOM      5  C6  UNL d   1       1.602   0.048   2.780  0.00  0.00     0.000 A 
ATOM      6  C7  UNL d   1       1.175  -0.156   1.457  0.00  0.00    -0.073 A 
ATOM      7  C8  UNL d   1       1.956  -1.099   0.583  0.00  0.00     0.078 C 
ENDROOT
BRANCH   1   8
ATOM      8  C1  UNL d   1      -0.538   0.294  -0.393  0.00  0.00     0.053 C 
ATOM      9  C   UNL d   1      -1.647  -0.745  -0.439  0.00  0.00     0.018 C 
ENDBRANCH   1   8
TORSDOF 1
ENDMDL
