MODEL 1
REMARK minimizedAffinity -2.56730866
REMARK minimizedRMSD -1
REMARK  1 active torsions:
REMARK  status: ('A' for Active; 'I' for Inactive)
REMARK    1  A    between atoms: C1_2  and  C2_3 
ROOT
ATOM      1  C2  UNL d   1      -1.284  -1.038  -0.640  0.00  0.00    -0.076 A 
ATOM      2  C3  UNL d   1      -1.130  -0.325   0.562  0.00  0.00     0.004 A 
ATOM      3  C4  UNL d   1       0.133  -0.091   1.100  0.00  0.00    -0.003 A 
ATOM      4  C5  UNL d   1       1.265  -0.564   0.445  0.00  0.00     0.000 A 
ATOM      5  C6  UNL d   1       1.133  -1.258  -0.757  0.00  0.00     0.000 A 
ATOM      6  C7  UNL d   1      -0.133  -1.489  -1.322  0.00  0.00    -0.073 A 
ATOM      7  C8  UNL d   1      -0.218  -2.248  -2.618  0.00  0.00     0.078 C 
ENDROOT
BRANCH   1   8
ATOM      8  C1  UNL d   1      -2.681  -1.285  -1.162  0.00  0.00     0.053 C 
ATOM      9  C   UNL d   1      -3.003  -2.767  -1.287  0.00  0.00     0.018 C 
ENDBRANCH   1   8
TORSDOF 1
ENDMDL
