MODEL 1
REMARK minimizedAffinity -5.31449604
REMARK minimizedRMSD -1
REMARK  1 active torsions:
REMARK  status: ('A' for Active; 'I' for Inactive)
REMARK    1  A    between atoms: C1_2  and  C2_3 
ROOT
ATOM      1  C2  UNL d   1      -0.463  -0.070   3.119  0.00  0.00    -0.076 A 
ATOM      2  C3  UNL d   1      -1.766   0.204   2.667  0.00  0.00     0.004 A 
ATOM      3  C4  UNL d   1      -2.832  -0.629   3.003  0.00  0.00    -0.003 A 
ATOM      4  C5  UNL d   1      -2.613  -1.749   3.797  0.00  0.00     0.000 A 
ATOM      5  C6  UNL d   1      -1.331  -2.026   4.270  0.00  0.00     0.000 A 
ATOM      6  C7  UNL d   1      -0.248  -1.188   3.954  0.00  0.00    -0.073 A 
ATOM      7  C8  UNL d   1       1.115  -1.538   4.485  0.00  0.00     0.078 C 
ENDROOT
BRANCH   1   8
ATOM      8  C1  UNL d   1       0.658   0.853   2.700  0.00  0.00     0.053 C 
ATOM      9  C   UNL d   1       0.745   1.017   1.191  0.00  0.00     0.018 C 
ENDBRANCH   1   8
TORSDOF 1
ENDMDL
