MODEL 1
REMARK minimizedAffinity -0.544854879
REMARK minimizedRMSD -1
REMARK  1 active torsions:
REMARK  status: ('A' for Active; 'I' for Inactive)
REMARK    1  A    between atoms: C1_2  and  C2_3 
ROOT
ATOM      1  C2  UNL d   1      -1.142  -0.648   0.074  0.00  0.00    -0.076 A 
ATOM      2  C3  UNL d   1       0.006  -0.253  -0.635  0.00  0.00     0.004 A 
ATOM      3  C4  UNL d   1       1.025   0.462  -0.008  0.00  0.00    -0.003 A 
ATOM      4  C5  UNL d   1       0.914   0.793   1.338  0.00  0.00     0.000 A 
ATOM      5  C6  UNL d   1      -0.209   0.394   2.061  0.00  0.00     0.000 A 
ATOM      6  C7  UNL d   1      -1.239  -0.342   1.449  0.00  0.00    -0.073 A 
ATOM      7  C8  UNL d   1      -2.431  -0.741   2.275  0.00  0.00     0.078 C 
ENDROOT
BRANCH   1   8
ATOM      8  C1  UNL d   1      -2.227  -1.398  -0.664  0.00  0.00     0.053 C 
ATOM      9  C   UNL d   1      -1.681  -2.558  -1.482  0.00  0.00     0.018 C 
ENDBRANCH   1   8
TORSDOF 1
ENDMDL
