MODEL 1
REMARK minimizedAffinity -0.566941917
REMARK minimizedRMSD -1
REMARK  2 active torsions:
REMARK  status: ('A' for Active; 'I' for Inactive)
REMARK    1  A    between atoms: C2'_3  and  C1'_4 
REMARK    2  A    between atoms: C1'_4  and  C1_5 
ROOT
ATOM      1  C1  I4B d   1       3.777  -0.090  -4.882  0.00  0.00    -0.075 A 
ATOM      2  C2  I4B d   1       3.775   1.270  -5.064  0.00  0.00     0.003 A 
ATOM      3  C3  I4B d   1       4.890   1.913  -5.655  0.00  0.00     0.002 A 
ATOM      4  C4  I4B d   1       5.999   1.168  -6.000  0.00  0.00    -0.004 A 
ATOM      5  C5  I4B d   1       5.991  -0.214  -5.835  0.00  0.00     0.002 A 
ATOM      6  C6  I4B d   1       4.868  -0.849  -5.284  0.00  0.00     0.003 A 
ENDROOT
BRANCH   1   7
ATOM      7  C1' I4B d   1       2.597  -0.731  -4.224  0.00  0.00     0.060 C 
BRANCH   7   8
ATOM      8  C2' I4B d   1       3.109  -1.824  -3.308  0.00  0.00    -0.013 C 
ATOM      9  C4' I4B d   1       3.999  -1.261  -2.232  0.00  0.00     0.013 C 
ATOM     10  C3' I4B d   1       1.923  -2.526  -2.717  0.00  0.00     0.013 C 
ENDBRANCH   7   8
ENDBRANCH   1   7
TORSDOF 2
ENDMDL
