MODEL 1
REMARK minimizedAffinity -0.479025036
REMARK minimizedRMSD -1
REMARK  2 active torsions:
REMARK  status: ('A' for Active; 'I' for Inactive)
REMARK    1  A    between atoms: C2'_3  and  C1'_4 
REMARK    2  A    between atoms: C1'_4  and  C1_5 
ROOT
ATOM      1  C1  I4B d   1       4.266   5.248  -2.873  0.00  0.00    -0.075 A 
ATOM      2  C2  I4B d   1       5.496   5.824  -3.069  0.00  0.00     0.003 A 
ATOM      3  C3  I4B d   1       6.000   6.000  -4.381  0.00  0.00     0.002 A 
ATOM      4  C4  I4B d   1       5.267   5.543  -5.457  0.00  0.00    -0.004 A 
ATOM      5  C5  I4B d   1       4.009   4.980  -5.257  0.00  0.00     0.002 A 
ATOM      6  C6  I4B d   1       3.500   4.843  -3.958  0.00  0.00     0.003 A 
ENDROOT
BRANCH   1   7
ATOM      7  C1' I4B d   1       3.780   5.047  -1.472  0.00  0.00     0.060 C 
BRANCH   7   8
ATOM      8  C2' I4B d   1       2.722   3.962  -1.496  0.00  0.00    -0.013 C 
ATOM      9  C4' I4B d   1       3.033   2.876  -0.500  0.00  0.00     0.013 C 
ATOM     10  C3' I4B d   1       1.397   4.601  -1.206  0.00  0.00     0.013 C 
ENDBRANCH   7   8
ENDBRANCH   1   7
TORSDOF 2
ENDMDL
