MODEL 1
REMARK minimizedAffinity 9.90180111
REMARK minimizedRMSD -1
REMARK  2 active torsions:
REMARK  status: ('A' for Active; 'I' for Inactive)
REMARK    1  A    between atoms: C2'_3  and  C1'_4 
REMARK    2  A    between atoms: C1'_4  and  C1_5 
ROOT
ATOM      1  C1  I4B d   1       4.797   5.861  -2.757  0.00  0.00    -0.075 A 
ATOM      2  C2  I4B d   1       5.986   5.969  -3.435  0.00  0.00     0.003 A 
ATOM      3  C3  I4B d   1       5.999   5.999  -4.851  0.00  0.00     0.002 A 
ATOM      4  C4  I4B d   1       4.813   5.869  -5.544  0.00  0.00    -0.004 A 
ATOM      5  C5  I4B d   1       3.607   5.782  -4.855  0.00  0.00     0.002 A 
ATOM      6  C6  I4B d   1       3.597   5.790  -3.453  0.00  0.00     0.003 A 
ENDROOT
BRANCH   1   7
ATOM      7  C1' I4B d   1       4.823   5.799  -1.263  0.00  0.00     0.060 C 
BRANCH   7   8
ATOM      8  C2' I4B d   1       3.858   4.716  -0.824  0.00  0.00    -0.013 C 
ATOM      9  C4' I4B d   1       4.417   3.922   0.328  0.00  0.00     0.013 C 
ATOM     10  C3' I4B d   1       2.562   5.372  -0.452  0.00  0.00     0.013 C 
ENDBRANCH   7   8
ENDBRANCH   1   7
TORSDOF 2
ENDMDL
