MODEL 1
REMARK minimizedAffinity 3.04358435
REMARK minimizedRMSD -1
REMARK  2 active torsions:
REMARK  status: ('A' for Active; 'I' for Inactive)
REMARK    1  A    between atoms: C2'_3  and  C1'_4 
REMARK    2  A    between atoms: C1'_4  and  C1_5 
ROOT
ATOM      1  C1  I4B d   1       2.610  -2.249   2.829  0.00  0.00    -0.075 A 
ATOM      2  C2  I4B d   1       2.258  -2.647   4.094  0.00  0.00     0.003 A 
ATOM      3  C3  I4B d   1       1.330  -1.889   4.849  0.00  0.00     0.002 A 
ATOM      4  C4  I4B d   1       0.821  -0.719   4.322  0.00  0.00    -0.004 A 
ATOM      5  C5  I4B d   1       1.161  -0.329   3.030  0.00  0.00     0.002 A 
ATOM      6  C6  I4B d   1       2.052  -1.105   2.273  0.00  0.00     0.003 A 
ENDROOT
BRANCH   1   7
ATOM      7  C1' I4B d   1       3.617  -3.056   2.073  0.00  0.00     0.060 C 
BRANCH   7   8
ATOM      8  C2' I4B d   1       4.842  -2.190   1.857  0.00  0.00    -0.013 C 
ATOM      9  C4' I4B d   1       6.000  -2.664   2.695  0.00  0.00     0.013 C 
ATOM     10  C3' I4B d   1       5.181  -2.223   0.397  0.00  0.00     0.013 C 
ENDBRANCH   7   8
ENDBRANCH   1   7
TORSDOF 2
ENDMDL
