MODEL 1
REMARK minimizedAffinity -4.95754671
REMARK minimizedRMSD -1
REMARK  2 active torsions:
REMARK  status: ('A' for Active; 'I' for Inactive)
REMARK    1  A    between atoms: C1_2  and  C2_3 
REMARK    2  A    between atoms: C2_3  and  C3_4 
ROOT
ATOM      1  C3  UNL d   1      -0.208   0.073   0.006  0.00  0.00    -0.075 A 
ATOM      2  C4  UNL d   1       0.838   0.820  -0.555  0.00  0.00     0.002 A 
ATOM      3  C5  UNL d   1       2.014   0.192  -0.968  0.00  0.00     0.002 A 
ATOM      4  C6  UNL d   1       2.163  -1.185  -0.816  0.00  0.00    -0.004 A 
ATOM      5  C7  UNL d   1       1.137  -1.934  -0.244  0.00  0.00     0.002 A 
ATOM      6  C8  UNL d   1      -0.042  -1.309   0.166  0.00  0.00     0.002 A 
ENDROOT
BRANCH   1   7
ATOM      7  C2  UNL d   1      -1.494   0.742   0.428  0.00  0.00     0.056 C 
BRANCH   7   8
ATOM      8  C1  UNL d   1      -1.947   0.385   1.847  0.00  0.00     0.007 C 
ATOM      9  C   UNL d   1      -1.817   1.542   2.828  0.00  0.00     0.009 C 
ENDBRANCH   7   8
ENDBRANCH   1   7
TORSDOF 2
ENDMDL
