MODEL 1
REMARK minimizedAffinity -5.52423334
REMARK minimizedRMSD -1
REMARK  2 active torsions:
REMARK  status: ('A' for Active; 'I' for Inactive)
REMARK    1  A    between atoms: C1_2  and  C2_3 
REMARK    2  A    between atoms: C2_3  and  C3_4 
ROOT
ATOM      1  C3  UNL d   1       1.369  -0.066  -1.187  0.00  0.00    -0.075 A 
ATOM      2  C4  UNL d   1       0.993   1.207  -1.641  0.00  0.00     0.002 A 
ATOM      3  C5  UNL d   1       1.740   1.857  -2.623  0.00  0.00     0.002 A 
ATOM      4  C6  UNL d   1       2.875   1.250  -3.156  0.00  0.00    -0.004 A 
ATOM      5  C7  UNL d   1       3.267  -0.007  -2.701  0.00  0.00     0.002 A 
ATOM      6  C8  UNL d   1       2.519  -0.662  -1.721  0.00  0.00     0.002 A 
ENDROOT
BRANCH   1   7
ATOM      7  C2  UNL d   1       0.549  -0.788  -0.145  0.00  0.00     0.056 C 
BRANCH   7   8
ATOM      8  C1  UNL d   1      -0.948  -0.856  -0.467  0.00  0.00     0.007 C 
ATOM      9  C   UNL d   1      -1.745   0.291   0.138  0.00  0.00     0.009 C 
ENDBRANCH   7   8
ENDBRANCH   1   7
TORSDOF 2
ENDMDL
