MODEL 1
REMARK minimizedAffinity -5.16789627
REMARK minimizedRMSD -1
REMARK  2 active torsions:
REMARK  status: ('A' for Active; 'I' for Inactive)
REMARK    1  A    between atoms: C1_2  and  C2_3 
REMARK    2  A    between atoms: C2_3  and  C3_4 
ROOT
ATOM      1  C3  UNL d   1       1.193  -0.079  -0.425  0.00  0.00    -0.075 A 
ATOM      2  C4  UNL d   1       1.173   1.180  -1.043  0.00  0.00     0.002 A 
ATOM      3  C5  UNL d   1       1.738   1.357  -2.307  0.00  0.00     0.002 A 
ATOM      4  C6  UNL d   1       2.337   0.283  -2.962  0.00  0.00    -0.004 A 
ATOM      5  C7  UNL d   1       2.376  -0.968  -2.350  0.00  0.00     0.002 A 
ATOM      6  C8  UNL d   1       1.808  -1.149  -1.088  0.00  0.00     0.002 A 
ENDROOT
BRANCH   1   7
ATOM      7  C2  UNL d   1       0.557  -0.284   0.930  0.00  0.00     0.056 C 
BRANCH   7   8
ATOM      8  C1  UNL d   1      -0.714   0.542   1.154  0.00  0.00     0.007 C 
ATOM      9  C   UNL d   1      -0.911   0.959   2.605  0.00  0.00     0.009 C 
ENDBRANCH   7   8
ENDBRANCH   1   7
TORSDOF 2
ENDMDL
