MODEL 1
REMARK minimizedAffinity -4.42542648
REMARK minimizedRMSD -1
REMARK  2 active torsions:
REMARK  status: ('A' for Active; 'I' for Inactive)
REMARK    1  A    between atoms: C1_2  and  C2_3 
REMARK    2  A    between atoms: C2_3  and  C3_4 
ROOT
ATOM      1  C3  UNL d   1      -0.176   0.086  -0.351  0.00  0.00    -0.075 A 
ATOM      2  C4  UNL d   1       0.266   1.241  -1.012  0.00  0.00     0.002 A 
ATOM      3  C5  UNL d   1       1.455   1.229  -1.742  0.00  0.00     0.002 A 
ATOM      4  C6  UNL d   1       2.221   0.067  -1.812  0.00  0.00    -0.004 A 
ATOM      5  C7  UNL d   1       1.800  -1.082  -1.145  0.00  0.00     0.002 A 
ATOM      6  C8  UNL d   1       0.608  -1.073  -0.418  0.00  0.00     0.002 A 
ENDROOT
BRANCH   1   7
ATOM      7  C2  UNL d   1      -1.476   0.085   0.416  0.00  0.00     0.056 C 
BRANCH   7   8
ATOM      8  C1  UNL d   1      -1.461   0.963   1.672  0.00  0.00     0.007 C 
ATOM      9  C   UNL d   1      -2.298   0.397   2.811  0.00  0.00     0.009 C 
ENDBRANCH   7   8
ENDBRANCH   1   7
TORSDOF 2
ENDMDL
