MODEL 1
REMARK minimizedAffinity -5.99626875
REMARK minimizedRMSD -1
REMARK  2 active torsions:
REMARK  status: ('A' for Active; 'I' for Inactive)
REMARK    1  A    between atoms: C1_2  and  C2_3 
REMARK    2  A    between atoms: C2_3  and  C3_4 
ROOT
ATOM      1  C3  UNL d   1       0.382   0.752  -0.708  0.00  0.00    -0.075 A 
ATOM      2  C4  UNL d   1       0.854   1.553  -1.758  0.00  0.00     0.002 A 
ATOM      3  C5  UNL d   1       1.966   1.159  -2.504  0.00  0.00     0.002 A 
ATOM      4  C6  UNL d   1       2.624  -0.031  -2.203  0.00  0.00    -0.004 A 
ATOM      5  C7  UNL d   1       2.174  -0.825  -1.151  0.00  0.00     0.002 A 
ATOM      6  C8  UNL d   1       1.059  -0.437  -0.406  0.00  0.00     0.002 A 
ENDROOT
BRANCH   1   7
ATOM      7  C2  UNL d   1      -0.839   1.158   0.084  0.00  0.00     0.056 C 
BRANCH   7   8
ATOM      8  C1  UNL d   1      -1.226   0.165   1.185  0.00  0.00     0.007 C 
ATOM      9  C   UNL d   1      -2.049   0.797   2.300  0.00  0.00     0.009 C 
ENDBRANCH   7   8
ENDBRANCH   1   7
TORSDOF 2
ENDMDL
