MODEL 1
REMARK minimizedAffinity -3.81063223
REMARK minimizedRMSD -1
REMARK  2 active torsions:
REMARK  status: ('A' for Active; 'I' for Inactive)
REMARK    1  A    between atoms: C1_2  and  C2_3 
REMARK    2  A    between atoms: C2_3  and  C3_4 
ROOT
ATOM      1  C3  UNL d   1      -0.234  -0.438  -0.007  0.00  0.00    -0.075 A 
ATOM      2  C4  UNL d   1      -0.017  -1.626   0.706  0.00  0.00     0.002 A 
ATOM      3  C5  UNL d   1       1.122  -2.397   0.468  0.00  0.00     0.002 A 
ATOM      4  C6  UNL d   1       2.049  -1.997  -0.492  0.00  0.00    -0.004 A 
ATOM      5  C7  UNL d   1       1.835  -0.827  -1.218  0.00  0.00     0.002 A 
ATOM      6  C8  UNL d   1       0.699  -0.052  -0.978  0.00  0.00     0.002 A 
ENDROOT
BRANCH   1   7
ATOM      7  C2  UNL d   1      -1.449   0.416   0.267  0.00  0.00     0.056 C 
BRANCH   7   8
ATOM      8  C1  UNL d   1      -2.134   0.115   1.604  0.00  0.00     0.007 C 
ATOM      9  C   UNL d   1      -2.043   1.265   2.598  0.00  0.00     0.009 C 
ENDBRANCH   7   8
ENDBRANCH   1   7
TORSDOF 2
ENDMDL
