MODEL 1
REMARK minimizedAffinity -4.04016495
REMARK minimizedRMSD -1
REMARK  2 active torsions:
REMARK  status: ('A' for Active; 'I' for Inactive)
REMARK    1  A    between atoms: C1_2  and  C2_3 
REMARK    2  A    between atoms: C2_3  and  C3_4 
ROOT
ATOM      1  C3  UNL d   1       1.102  -0.534  -0.205  0.00  0.00    -0.075 A 
ATOM      2  C4  UNL d   1       1.548  -0.914  -1.479  0.00  0.00     0.002 A 
ATOM      3  C5  UNL d   1       2.878  -0.720  -1.851  0.00  0.00     0.002 A 
ATOM      4  C6  UNL d   1       3.776  -0.136  -0.960  0.00  0.00    -0.004 A 
ATOM      5  C7  UNL d   1       3.339   0.261   0.303  0.00  0.00     0.002 A 
ATOM      6  C8  UNL d   1       2.010   0.064   0.679  0.00  0.00     0.002 A 
ENDROOT
BRANCH   1   7
ATOM      7  C2  UNL d   1      -0.330  -0.769   0.214  0.00  0.00     0.056 C 
BRANCH   7   8
ATOM      8  C1  UNL d   1      -1.155   0.515   0.362  0.00  0.00     0.007 C 
ATOM      9  C   UNL d   1      -1.288   0.978   1.807  0.00  0.00     0.009 C 
ENDBRANCH   7   8
ENDBRANCH   1   7
TORSDOF 2
ENDMDL
