MODEL 1
REMARK minimizedAffinity -4.93970108
REMARK minimizedRMSD -1
REMARK  2 active torsions:
REMARK  status: ('A' for Active; 'I' for Inactive)
REMARK    1  A    between atoms: C1_2  and  C2_3 
REMARK    2  A    between atoms: C2_3  and  C3_4 
ROOT
ATOM      1  C3  UNL d   1      -0.288   0.605  -0.486  0.00  0.00    -0.075 A 
ATOM      2  C4  UNL d   1       0.476   1.232  -1.481  0.00  0.00     0.002 A 
ATOM      3  C5  UNL d   1       1.643   0.637  -1.959  0.00  0.00     0.002 A 
ATOM      4  C6  UNL d   1       2.067  -0.586  -1.442  0.00  0.00    -0.004 A 
ATOM      5  C7  UNL d   1       1.325  -1.210  -0.442  0.00  0.00     0.002 A 
ATOM      6  C8  UNL d   1       0.154  -0.619   0.035  0.00  0.00     0.002 A 
ENDROOT
BRANCH   1   7
ATOM      7  C2  UNL d   1      -1.568   1.230   0.014  0.00  0.00     0.056 C 
BRANCH   7   8
ATOM      8  C1  UNL d   1      -2.104   0.605   1.307  0.00  0.00     0.007 C 
ATOM      9  C   UNL d   1      -1.860   1.468   2.537  0.00  0.00     0.009 C 
ENDBRANCH   7   8
ENDBRANCH   1   7
TORSDOF 2
ENDMDL
