MODEL 1
REMARK minimizedAffinity -5.77513075
REMARK minimizedRMSD -1
REMARK  2 active torsions:
REMARK  status: ('A' for Active; 'I' for Inactive)
REMARK    1  A    between atoms: C1_2  and  C2_3 
REMARK    2  A    between atoms: C2_3  and  C3_4 
ROOT
ATOM      1  C3  UNL d   1      -0.134   0.519  -0.536  0.00  0.00    -0.075 A 
ATOM      2  C4  UNL d   1       0.642   1.464  -1.222  0.00  0.00     0.002 A 
ATOM      3  C5  UNL d   1       1.865   1.101  -1.787  0.00  0.00     0.002 A 
ATOM      4  C6  UNL d   1       2.331  -0.206  -1.665  0.00  0.00    -0.004 A 
ATOM      5  C7  UNL d   1       1.576  -1.149  -0.971  0.00  0.00     0.002 A 
ATOM      6  C8  UNL d   1       0.350  -0.790  -0.409  0.00  0.00     0.002 A 
ENDROOT
BRANCH   1   7
ATOM      7  C2  UNL d   1      -1.472   0.899   0.052  0.00  0.00     0.056 C 
BRANCH   7   8
ATOM      8  C1  UNL d   1      -1.665   0.450   1.505  0.00  0.00     0.007 C 
ATOM      9  C   UNL d   1      -1.668   1.606   2.495  0.00  0.00     0.009 C 
ENDBRANCH   7   8
ENDBRANCH   1   7
TORSDOF 2
ENDMDL
