MODEL 1
REMARK minimizedAffinity -5.51660442
REMARK minimizedRMSD -1
REMARK  2 active torsions:
REMARK  status: ('A' for Active; 'I' for Inactive)
REMARK    1  A    between atoms: C1_2  and  C2_3 
REMARK    2  A    between atoms: C2_3  and  C3_4 
ROOT
ATOM      1  C3  UNL d   1       0.152  -0.240  -0.254  0.00  0.00    -0.075 A 
ATOM      2  C4  UNL d   1       0.660   0.861  -0.959  0.00  0.00     0.002 A 
ATOM      3  C5  UNL d   1       1.885   0.775  -1.620  0.00  0.00     0.002 A 
ATOM      4  C6  UNL d   1       2.622  -0.406  -1.577  0.00  0.00    -0.004 A 
ATOM      5  C7  UNL d   1       2.135  -1.501  -0.866  0.00  0.00     0.002 A 
ATOM      6  C8  UNL d   1       0.907  -1.419  -0.207  0.00  0.00     0.002 A 
ENDROOT
BRANCH   1   7
ATOM      7  C2  UNL d   1      -1.187  -0.163   0.440  0.00  0.00     0.056 C 
BRANCH   7   8
ATOM      8  C1  UNL d   1      -1.239   0.856   1.584  0.00  0.00     0.007 C 
ATOM      9  C   UNL d   1      -1.536   0.223   2.937  0.00  0.00     0.009 C 
ENDBRANCH   7   8
ENDBRANCH   1   7
TORSDOF 2
ENDMDL
