MODEL 1
REMARK minimizedAffinity -4.90454006
REMARK minimizedRMSD -1
REMARK  2 active torsions:
REMARK  status: ('A' for Active; 'I' for Inactive)
REMARK    1  A    between atoms: C1_2  and  C2_3 
REMARK    2  A    between atoms: C2_3  and  C3_4 
ROOT
ATOM      1  C3  UNL d   1       1.030   0.939  -1.317  0.00  0.00    -0.075 A 
ATOM      2  C4  UNL d   1       2.155   0.637  -2.097  0.00  0.00     0.002 A 
ATOM      3  C5  UNL d   1       2.652  -0.666  -2.150  0.00  0.00     0.002 A 
ATOM      4  C6  UNL d   1       2.037  -1.678  -1.417  0.00  0.00    -0.004 A 
ATOM      5  C7  UNL d   1       0.929  -1.386  -0.625  0.00  0.00     0.002 A 
ATOM      6  C8  UNL d   1       0.427  -0.085  -0.574  0.00  0.00     0.002 A 
ENDROOT
BRANCH   1   7
ATOM      7  C2  UNL d   1       0.470   2.341  -1.279  0.00  0.00     0.056 C 
BRANCH   7   8
ATOM      8  C1  UNL d   1       1.024   3.264  -2.369  0.00  0.00     0.007 C 
ATOM      9  C   UNL d   1       1.488   4.613  -1.835  0.00  0.00     0.009 C 
ENDBRANCH   7   8
ENDBRANCH   1   7
TORSDOF 2
ENDMDL
