MODEL 1
REMARK minimizedAffinity -2.61616468
REMARK minimizedRMSD -1
REMARK  1 active torsions:
REMARK  status: ('A' for Active; 'I' for Inactive)
REMARK    1  A    between atoms: C1_2  and  C2_3 
ROOT
ATOM      1  C2  UNL d   1       1.094   1.664  -0.946  0.00  0.00    -0.076 A 
ATOM      2  C3  UNL d   1       1.213   1.990   0.417  0.00  0.00     0.004 A 
ATOM      3  C4  UNL d   1       1.487   3.295   0.821  0.00  0.00    -0.003 A 
ATOM      4  C5  UNL d   1       1.646   4.297  -0.131  0.00  0.00     0.000 A 
ATOM      5  C6  UNL d   1       1.514   3.995  -1.486  0.00  0.00     0.000 A 
ATOM      6  C7  UNL d   1       1.222   2.687  -1.910  0.00  0.00    -0.073 A 
ATOM      7  C8  UNL d   1       1.096   2.417  -3.384  0.00  0.00     0.078 C 
ENDROOT
BRANCH   1   8
ATOM      8  C1  UNL d   1       0.823   0.226  -1.326  0.00  0.00     0.053 C 
ATOM      9  C   UNL d   1       1.418  -0.761  -0.333  0.00  0.00     0.018 C 
ENDBRANCH   1   8
TORSDOF 1
ENDMDL
