MODEL 1
REMARK minimizedAffinity -2.93076634
REMARK minimizedRMSD -1
REMARK  1 active torsions:
REMARK  status: ('A' for Active; 'I' for Inactive)
REMARK    1  A    between atoms: C1_2  and  C2_3 
ROOT
ATOM      1  C2  UNL d   1       1.086   3.506  -0.725  0.00  0.00    -0.076 A 
ATOM      2  C3  UNL d   1       1.187   2.623  -1.814  0.00  0.00     0.004 A 
ATOM      3  C4  UNL d   1       1.263   1.245  -1.616  0.00  0.00    -0.003 A 
ATOM      4  C5  UNL d   1       1.238   0.728  -0.325  0.00  0.00     0.000 A 
ATOM      5  C6  UNL d   1       1.121   1.588   0.766  0.00  0.00     0.000 A 
ATOM      6  C7  UNL d   1       1.027   2.979   0.583  0.00  0.00    -0.073 A 
ATOM      7  C8  UNL d   1       0.907   3.860   1.796  0.00  0.00     0.078 C 
ENDROOT
BRANCH   1   8
ATOM      8  C1  UNL d   1       1.034   4.992  -0.999  0.00  0.00     0.053 C 
ATOM      9  C   UNL d   1       2.413   5.635  -0.988  0.00  0.00     0.018 C 
ENDBRANCH   1   8
TORSDOF 1
ENDMDL
