MODEL 1
REMARK minimizedAffinity -3.35933185
REMARK minimizedRMSD -1
REMARK  1 active torsions:
REMARK  status: ('A' for Active; 'I' for Inactive)
REMARK    1  A    between atoms: C1_2  and  C2_3 
ROOT
ATOM      1  C2  UNL d   1       1.250   3.156  -0.263  0.00  0.00    -0.076 A 
ATOM      2  C3  UNL d   1       1.440   2.645   1.032  0.00  0.00     0.004 A 
ATOM      3  C4  UNL d   1       1.500   1.271   1.260  0.00  0.00    -0.003 A 
ATOM      4  C5  UNL d   1       1.372   0.386   0.195  0.00  0.00     0.000 A 
ATOM      5  C6  UNL d   1       1.200   0.876  -1.099  0.00  0.00     0.000 A 
ATOM      6  C7  UNL d   1       1.154   2.258  -1.348  0.00  0.00    -0.073 A 
ATOM      7  C8  UNL d   1       0.961   2.731  -2.763  0.00  0.00     0.078 C 
ENDROOT
BRANCH   1   8
ATOM      8  C1  UNL d   1       1.166   4.655  -0.446  0.00  0.00     0.053 C 
ATOM      9  C   UNL d   1       2.480   5.259  -0.915  0.00  0.00     0.018 C 
ENDBRANCH   1   8
TORSDOF 1
ENDMDL
