MODEL 1
REMARK minimizedAffinity 6.10456896
REMARK minimizedRMSD -1
REMARK  1 active torsions:
REMARK  status: ('A' for Active; 'I' for Inactive)
REMARK    1  A    between atoms: C1_2  and  C2_3 
ROOT
ATOM      1  C2  UNL d   1       1.128   1.620  -0.733  0.00  0.00    -0.076 A 
ATOM      2  C3  UNL d   1       1.237   2.375   0.448  0.00  0.00     0.004 A 
ATOM      3  C4  UNL d   1       1.326   1.752   1.692  0.00  0.00    -0.003 A 
ATOM      4  C5  UNL d   1       1.309   0.364   1.775  0.00  0.00     0.000 A 
ATOM      5  C6  UNL d   1       1.219  -0.401   0.613  0.00  0.00     0.000 A 
ATOM      6  C7  UNL d   1       1.144   0.211  -0.651  0.00  0.00    -0.073 A 
ATOM      7  C8  UNL d   1       1.043  -0.662  -1.871  0.00  0.00     0.078 C 
ENDROOT
BRANCH   1   8
ATOM      8  C1  UNL d   1       1.007   2.351  -2.051  0.00  0.00     0.053 C 
ATOM      9  C   UNL d   1       1.550   3.770  -1.982  0.00  0.00     0.018 C 
ENDBRANCH   1   8
TORSDOF 1
ENDMDL
