MODEL 1
REMARK minimizedAffinity -0.702010453
REMARK minimizedRMSD -1
REMARK  1 active torsions:
REMARK  status: ('A' for Active; 'I' for Inactive)
REMARK    1  A    between atoms: C1_2  and  C2_3 
ROOT
ATOM      1  C2  UNL d   1       1.245   0.021  -0.442  0.00  0.00    -0.076 A 
ATOM      2  C3  UNL d   1       0.820   0.521  -1.685  0.00  0.00     0.004 A 
ATOM      3  C4  UNL d   1       0.661   1.891  -1.890  0.00  0.00    -0.003 A 
ATOM      4  C5  UNL d   1       0.926   2.782  -0.856  0.00  0.00     0.000 A 
ATOM      5  C6  UNL d   1       1.365   2.304   0.378  0.00  0.00     0.000 A 
ATOM      6  C7  UNL d   1       1.546   0.928   0.597  0.00  0.00    -0.073 A 
ATOM      7  C8  UNL d   1       2.016   0.467   1.950  0.00  0.00     0.078 C 
ENDROOT
BRANCH   1   8
ATOM      8  C1  UNL d   1       1.373  -1.476  -0.269  0.00  0.00     0.053 C 
ATOM      9  C   UNL d   1       0.317  -2.245  -1.047  0.00  0.00     0.018 C 
ENDBRANCH   1   8
TORSDOF 1
ENDMDL
