MODEL 1
REMARK minimizedAffinity -2.3632102
REMARK minimizedRMSD -1
REMARK  1 active torsions:
REMARK  status: ('A' for Active; 'I' for Inactive)
REMARK    1  A    between atoms: C1_2  and  C2_3 
ROOT
ATOM      1  C2  UNL d   1       1.479   2.383  -1.316  0.00  0.00    -0.076 A 
ATOM      2  C3  UNL d   1       1.431   2.365   0.089  0.00  0.00     0.004 A 
ATOM      3  C4  UNL d   1       1.226   1.174   0.784  0.00  0.00    -0.003 A 
ATOM      4  C5  UNL d   1       1.067  -0.018   0.085  0.00  0.00     0.000 A 
ATOM      5  C6  UNL d   1       1.130  -0.021  -1.308  0.00  0.00     0.000 A 
ATOM      6  C7  UNL d   1       1.351   1.169  -2.023  0.00  0.00    -0.073 A 
ATOM      7  C8  UNL d   1       1.403   1.108  -3.525  0.00  0.00     0.078 C 
ENDROOT
BRANCH   1   8
ATOM      8  C1  UNL d   1       1.676   3.709  -2.016  0.00  0.00     0.053 C 
ATOM      9  C   UNL d   1       1.769   4.874  -1.043  0.00  0.00     0.018 C 
ENDBRANCH   1   8
TORSDOF 1
ENDMDL
