MODEL 1
REMARK minimizedAffinity -1.44978094
REMARK minimizedRMSD -1
REMARK  1 active torsions:
REMARK  status: ('A' for Active; 'I' for Inactive)
REMARK    1  A    between atoms: C1_2  and  C2_3 
ROOT
ATOM      1  C2  UNL d   1       1.481   2.902  -0.838  0.00  0.00    -0.076 A 
ATOM      2  C3  UNL d   1       1.622   2.773   0.555  0.00  0.00     0.004 A 
ATOM      3  C4  UNL d   1       1.299   1.581   1.201  0.00  0.00    -0.003 A 
ATOM      4  C5  UNL d   1       0.830   0.499   0.465  0.00  0.00     0.000 A 
ATOM      5  C6  UNL d   1       0.700   0.603  -0.919  0.00  0.00     0.000 A 
ATOM      6  C7  UNL d   1       1.038   1.792  -1.589  0.00  0.00    -0.073 A 
ATOM      7  C8  UNL d   1       0.873   1.851  -3.083  0.00  0.00     0.078 C 
ENDROOT
BRANCH   1   8
ATOM      8  C1  UNL d   1       1.822   4.228  -1.481  0.00  0.00     0.053 C 
ATOM      9  C   UNL d   1       2.184   5.294  -0.459  0.00  0.00     0.018 C 
ENDBRANCH   1   8
TORSDOF 1
ENDMDL
