MODEL 1
REMARK minimizedAffinity -0.530087709
REMARK minimizedRMSD -1
REMARK  1 active torsions:
REMARK  status: ('A' for Active; 'I' for Inactive)
REMARK    1  A    between atoms: C1_2  and  C2_3 
ROOT
ATOM      1  C2  UNL d   1       1.400   3.010  -1.183  0.00  0.00    -0.076 A 
ATOM      2  C3  UNL d   1       1.693   2.747   0.167  0.00  0.00     0.004 A 
ATOM      3  C4  UNL d   1       1.454   1.491   0.722  0.00  0.00    -0.003 A 
ATOM      4  C5  UNL d   1       0.918   0.477  -0.064  0.00  0.00     0.000 A 
ATOM      5  C6  UNL d   1       0.637   0.715  -1.409  0.00  0.00     0.000 A 
ATOM      6  C7  UNL d   1       0.887   1.971  -1.988  0.00  0.00    -0.073 A 
ATOM      7  C8  UNL d   1       0.560   2.173  -3.442  0.00  0.00     0.078 C 
ENDROOT
BRANCH   1   8
ATOM      8  C1  UNL d   1       1.655   4.399  -1.722  0.00  0.00     0.053 C 
ATOM      9  C   UNL d   1       2.105   5.370  -0.642  0.00  0.00     0.018 C 
ENDBRANCH   1   8
TORSDOF 1
ENDMDL
