MODEL 1
REMARK minimizedAffinity 1.53846788
REMARK minimizedRMSD -1
REMARK  1 active torsions:
REMARK  status: ('A' for Active; 'I' for Inactive)
REMARK    1  A    between atoms: C1_2  and  C2_3 
ROOT
ATOM      1  C2  UNL d   1       1.560   3.989  -1.006  0.00  0.00    -0.076 A 
ATOM      2  C3  UNL d   1       1.380   3.367  -2.254  0.00  0.00     0.004 A 
ATOM      3  C4  UNL d   1       1.296   1.980  -2.359  0.00  0.00    -0.003 A 
ATOM      4  C5  UNL d   1       1.388   1.192  -1.217  0.00  0.00     0.000 A 
ATOM      5  C6  UNL d   1       1.549   1.792   0.031  0.00  0.00     0.000 A 
ATOM      6  C7  UNL d   1       1.620   3.191   0.156  0.00  0.00    -0.073 A 
ATOM      7  C8  UNL d   1       1.799   3.785   1.526  0.00  0.00     0.078 C 
ENDROOT
BRANCH   1   8
ATOM      8  C1  UNL d   1       1.672   5.496  -0.957  0.00  0.00     0.053 C 
ATOM      9  C   UNL d   1       3.014   5.997  -1.468  0.00  0.00     0.018 C 
ENDBRANCH   1   8
TORSDOF 1
ENDMDL
