MODEL 1
REMARK minimizedAffinity -5.59751368
REMARK minimizedRMSD -1
REMARK  1 active torsions:
REMARK  status: ('A' for Active; 'I' for Inactive)
REMARK    1  A    between atoms: C1_2  and  C2_3 
ROOT
ATOM      1  C2  UNL d   1       1.298   1.003  -0.277  0.00  0.00    -0.076 A 
ATOM      2  C3  UNL d   1       1.562   1.732  -1.450  0.00  0.00     0.004 A 
ATOM      3  C4  UNL d   1       1.459   3.122  -1.469  0.00  0.00    -0.003 A 
ATOM      4  C5  UNL d   1       1.092   3.805  -0.315  0.00  0.00     0.000 A 
ATOM      5  C6  UNL d   1       0.844   3.100   0.862  0.00  0.00     0.000 A 
ATOM      6  C7  UNL d   1       0.959   1.700   0.902  0.00  0.00    -0.073 A 
ATOM      7  C8  UNL d   1       0.674   0.989   2.197  0.00  0.00     0.078 C 
ENDROOT
BRANCH   1   8
ATOM      8  C1  UNL d   1       1.399  -0.505  -0.324  0.00  0.00     0.053 C 
ATOM      9  C   UNL d   1       1.437  -1.043  -1.746  0.00  0.00     0.018 C 
ENDBRANCH   1   8
TORSDOF 1
ENDMDL
