MODEL 1
REMARK minimizedAffinity 0.858812153
REMARK minimizedRMSD -1
REMARK  1 active torsions:
REMARK  status: ('A' for Active; 'I' for Inactive)
REMARK    1  A    between atoms: C1_2  and  C2_3 
ROOT
ATOM      1  C2  UNL d   1       1.789   2.121  -0.715  0.00  0.00    -0.076 A 
ATOM      2  C3  UNL d   1       1.996   2.668   0.564  0.00  0.00     0.004 A 
ATOM      3  C4  UNL d   1       1.792   1.905   1.712  0.00  0.00    -0.003 A 
ATOM      4  C5  UNL d   1       1.379   0.582   1.601  0.00  0.00     0.000 A 
ATOM      5  C6  UNL d   1       1.186   0.018   0.340  0.00  0.00     0.000 A 
ATOM      6  C7  UNL d   1       1.403   0.769  -0.828  0.00  0.00    -0.073 A 
ATOM      7  C8  UNL d   1       1.175   0.111  -2.161  0.00  0.00     0.078 C 
ENDROOT
BRANCH   1   8
ATOM      8  C1  UNL d   1       2.000   3.005  -1.923  0.00  0.00     0.053 C 
ATOM      9  C   UNL d   1       2.580   4.363  -1.558  0.00  0.00     0.018 C 
ENDBRANCH   1   8
TORSDOF 1
ENDMDL
