MODEL 1
REMARK minimizedAffinity -2.9636097
REMARK minimizedRMSD -1
REMARK  0 active torsions:
REMARK  status: ('A' for Active; 'I' for Inactive)
ROOT
ATOM      1  C   UNL d   1      -1.179   3.117   1.148  0.00  0.00    -0.002 A 
ATOM      2  C1  UNL d   1      -0.316   3.681   0.220  0.00  0.00     0.010 A 
ATOM      3  C2  UNL d   1       0.381   2.876  -0.683  0.00  0.00     0.041 A 
ATOM      4  C3  UNL d   1       0.192   1.480  -0.638  0.00  0.00    -0.075 A 
ATOM      5  S   UNL d   1       0.938   0.298  -1.647  0.00  0.00     0.015 SA
ATOM      6  C4  UNL d   1       0.128  -0.985  -0.869  0.00  0.00     0.022 A 
ATOM      7  C5  UNL d   1      -0.696  -0.539   0.137  0.00  0.00     0.026 A 
ATOM      8  C6  UNL d   1      -0.673   0.889   0.287  0.00  0.00    -0.082 A 
ATOM      9  C7  UNL d   1      -1.364   1.732   1.190  0.00  0.00     0.045 A 
ENDROOT
TORSDOF 0
ENDMDL
