MODEL 1
REMARK minimizedAffinity 1.40912926
REMARK minimizedRMSD -1
REMARK  0 active torsions:
REMARK  status: ('A' for Active; 'I' for Inactive)
ROOT
ATOM      1  C   UNL d   1      -2.297   2.220   0.794  0.00  0.00    -0.002 A 
ATOM      2  C1  UNL d   1      -1.291   2.874   1.489  0.00  0.00     0.010 A 
ATOM      3  C2  UNL d   1       0.045   2.500   1.325  0.00  0.00     0.041 A 
ATOM      4  C3  UNL d   1       0.354   1.448   0.441  0.00  0.00    -0.075 A 
ATOM      5  S   UNL d   1       1.918   0.819   0.081  0.00  0.00     0.015 SA
ATOM      6  C4  UNL d   1       1.287  -0.333  -1.005  0.00  0.00     0.022 A 
ATOM      7  C5  UNL d   1      -0.082  -0.254  -1.102  0.00  0.00     0.026 A 
ATOM      8  C6  UNL d   1      -0.642   0.774  -0.271  0.00  0.00    -0.082 A 
ATOM      9  C7  UNL d   1      -1.987   1.177  -0.082  0.00  0.00     0.045 A 
ENDROOT
TORSDOF 0
ENDMDL
