MODEL 1
REMARK minimizedAffinity -2.64078355
REMARK minimizedRMSD -1
REMARK  0 active torsions:
REMARK  status: ('A' for Active; 'I' for Inactive)
ROOT
ATOM      1  C   UNL d   1      -0.067   3.042   0.452  0.00  0.00    -0.002 A 
ATOM      2  C1  UNL d   1      -1.251   2.331   0.592  0.00  0.00     0.010 A 
ATOM      3  C2  UNL d   1      -1.243   0.935   0.616  0.00  0.00     0.041 A 
ATOM      4  C3  UNL d   1      -0.013   0.259   0.498  0.00  0.00    -0.075 A 
ATOM      5  S   UNL d   1       0.240  -1.447   0.503  0.00  0.00     0.015 SA
ATOM      6  C4  UNL d   1       1.926  -1.272   0.320  0.00  0.00     0.022 A 
ATOM      7  C5  UNL d   1       2.303   0.048   0.255  0.00  0.00     0.026 A 
ATOM      8  C6  UNL d   1       1.193   0.952   0.357  0.00  0.00    -0.082 A 
ATOM      9  C7  UNL d   1       1.151   2.367   0.335  0.00  0.00     0.045 A 
ENDROOT
TORSDOF 0
ENDMDL
