MODEL 1
REMARK minimizedAffinity 16.1441975
REMARK minimizedRMSD -1
REMARK  0 active torsions:
REMARK  status: ('A' for Active; 'I' for Inactive)
ROOT
ATOM      1  C   UNL d   1      -5.367  -0.411   3.720  0.00  0.00    -0.002 A 
ATOM      2  C1  UNL d   1      -4.505   0.248   4.585  0.00  0.00     0.010 A 
ATOM      3  C2  UNL d   1      -3.179   0.488   4.221  0.00  0.00     0.041 A 
ATOM      4  C3  UNL d   1      -2.729   0.052   2.958  0.00  0.00    -0.075 A 
ATOM      5  S   UNL d   1      -1.148   0.236   2.298  0.00  0.00     0.015 SA
ATOM      6  C4  UNL d   1      -1.579  -0.554   0.851  0.00  0.00     0.022 A 
ATOM      7  C5  UNL d   1      -2.894  -0.956   0.855  0.00  0.00     0.026 A 
ATOM      8  C6  UNL d   1      -3.579  -0.613   2.069  0.00  0.00    -0.082 A 
ATOM      9  C7  UNL d   1      -4.918  -0.842   2.469  0.00  0.00     0.045 A 
ENDROOT
TORSDOF 0
ENDMDL
