MODEL 1
REMARK minimizedAffinity -2.10855389
REMARK minimizedRMSD -1
REMARK  0 active torsions:
REMARK  status: ('A' for Active; 'I' for Inactive)
ROOT
ATOM      1  C   UNL d   1      -1.257   2.750   1.075  0.00  0.00    -0.002 A 
ATOM      2  C1  UNL d   1      -0.207   3.222   0.299  0.00  0.00     0.010 A 
ATOM      3  C2  UNL d   1       0.571   2.341  -0.454  0.00  0.00     0.041 A 
ATOM      4  C3  UNL d   1       0.273   0.964  -0.415  0.00  0.00    -0.075 A 
ATOM      5  S   UNL d   1       1.090  -0.300  -1.256  0.00  0.00     0.015 SA
ATOM      6  C4  UNL d   1       0.064  -1.496  -0.606  0.00  0.00     0.022 A 
ATOM      7  C5  UNL d   1      -0.884  -0.961   0.234  0.00  0.00     0.026 A 
ATOM      8  C6  UNL d   1      -0.779   0.465   0.358  0.00  0.00    -0.082 A 
ATOM      9  C7  UNL d   1      -1.550   1.384   1.110  0.00  0.00     0.045 A 
ENDROOT
TORSDOF 0
ENDMDL
