MODEL 1
REMARK minimizedAffinity -1.55582249
REMARK minimizedRMSD -1
REMARK  0 active torsions:
REMARK  status: ('A' for Active; 'I' for Inactive)
ROOT
ATOM      1  C   UNL d   1      -1.245   2.309   0.589  0.00  0.00    -0.002 A 
ATOM      2  C1  UNL d   1       0.001   2.548   0.026  0.00  0.00     0.010 A 
ATOM      3  C2  UNL d   1       0.797   1.488  -0.415  0.00  0.00     0.041 A 
ATOM      4  C3  UNL d   1       0.313   0.172  -0.281  0.00  0.00    -0.075 A 
ATOM      5  S   UNL d   1       1.112  -1.282  -0.752  0.00  0.00     0.015 SA
ATOM      6  C4  UNL d   1      -0.182  -2.254  -0.218  0.00  0.00     0.022 A 
ATOM      7  C5  UNL d   1      -1.207  -1.504   0.309  0.00  0.00     0.026 A 
ATOM      8  C6  UNL d   1      -0.939  -0.094   0.281  0.00  0.00    -0.082 A 
ATOM      9  C7  UNL d   1      -1.721   1.002   0.719  0.00  0.00     0.045 A 
ENDROOT
TORSDOF 0
ENDMDL
