MODEL 1
REMARK minimizedAffinity -2.46107507
REMARK minimizedRMSD -1
REMARK  0 active torsions:
REMARK  status: ('A' for Active; 'I' for Inactive)
ROOT
ATOM      1  C   UNL d   1       1.252   0.054  -0.103  0.00  0.00    -0.002 A 
ATOM      2  C1  UNL d   1       1.593  -0.934   0.809  0.00  0.00     0.010 A 
ATOM      3  C2  UNL d   1       1.097  -2.232   0.669  0.00  0.00     0.041 A 
ATOM      4  C3  UNL d   1       0.245  -2.522  -0.414  0.00  0.00    -0.075 A 
ATOM      5  S   UNL d   1      -0.482  -4.041  -0.787  0.00  0.00     0.015 SA
ATOM      6  C4  UNL d   1      -1.262  -3.413  -2.166  0.00  0.00     0.022 A 
ATOM      7  C5  UNL d   1      -0.986  -2.079  -2.353  0.00  0.00     0.026 A 
ATOM      8  C6  UNL d   1      -0.112  -1.544  -1.346  0.00  0.00    -0.082 A 
ATOM      9  C7  UNL d   1       0.407  -0.238  -1.177  0.00  0.00     0.045 A 
ENDROOT
TORSDOF 0
ENDMDL
