MODEL 1
REMARK minimizedAffinity -1.41023779
REMARK minimizedRMSD -1
REMARK  0 active torsions:
REMARK  status: ('A' for Active; 'I' for Inactive)
ROOT
ATOM      1  C   UNL d   1       0.617  -1.158  -0.843  0.00  0.00    -0.002 A 
ATOM      2  C1  UNL d   1      -0.230  -1.244   0.253  0.00  0.00     0.010 A 
ATOM      3  C2  UNL d   1      -0.684  -0.089   0.893  0.00  0.00     0.041 A 
ATOM      4  C3  UNL d   1      -0.269   1.167   0.407  0.00  0.00    -0.075 A 
ATOM      5  S   UNL d   1      -0.699   2.716   1.030  0.00  0.00     0.015 SA
ATOM      6  C4  UNL d   1       0.231   3.529  -0.145  0.00  0.00     0.022 A 
ATOM      7  C5  UNL d   1       0.861   2.655  -0.999  0.00  0.00     0.026 A 
ATOM      8  C6  UNL d   1       0.582   1.280  -0.696  0.00  0.00    -0.082 A 
ATOM      9  C7  UNL d   1       1.025   0.090  -1.322  0.00  0.00     0.045 A 
ENDROOT
TORSDOF 0
ENDMDL
