MODEL 1
REMARK minimizedAffinity 1.89943206
REMARK minimizedRMSD -1
REMARK  1 active torsions:
REMARK  status: ('A' for Active; 'I' for Inactive)
REMARK    1  A    between atoms: C1_2  and  C2_3 
ROOT
ATOM      1  C2  UNL d   1      -1.390   1.641   1.796  0.00  0.00    -0.073 A 
ATOM      2  C3  UNL d   1      -1.548   0.355   2.326  0.00  0.00    -0.002 A 
ATOM      3  C4  UNL d   1      -0.680  -0.672   1.954  0.00  0.00     0.004 A 
ATOM      4  C5  UNL d   1       0.358  -0.424   1.055  0.00  0.00    -0.004 A 
ATOM      5  C6  UNL d   1       0.539   0.857   0.524  0.00  0.00    -0.075 A 
ATOM      6  C7  UNL d   1       1.649   1.141  -0.445  0.00  0.00     0.076 C 
ATOM      7  C8  UNL d   1      -0.338   1.883   0.901  0.00  0.00     0.001 A 
ENDROOT
BRANCH   1   8
ATOM      8  C1  UNL d   1      -2.321   2.755   2.200  0.00  0.00     0.053 C 
ATOM      9  C   UNL d   1      -3.315   2.311   3.260  0.00  0.00     0.018 C 
ENDBRANCH   1   8
TORSDOF 1
ENDMDL
