MODEL 1
REMARK minimizedAffinity 0.196331114
REMARK minimizedRMSD -1
REMARK  1 active torsions:
REMARK  status: ('A' for Active; 'I' for Inactive)
REMARK    1  A    between atoms: C1_2  and  C2_3 
ROOT
ATOM      1  C2  UNL d   1       0.765   0.925   1.219  0.00  0.00    -0.073 A 
ATOM      2  C3  UNL d   1       0.487  -0.389   1.612  0.00  0.00    -0.002 A 
ATOM      3  C4  UNL d   1      -0.811  -0.760   1.964  0.00  0.00     0.004 A 
ATOM      4  C5  UNL d   1      -1.845   0.176   1.921  0.00  0.00    -0.004 A 
ATOM      5  C6  UNL d   1      -1.589   1.491   1.520  0.00  0.00    -0.075 A 
ATOM      6  C7  UNL d   1      -2.689   2.511   1.471  0.00  0.00     0.076 C 
ATOM      7  C8  UNL d   1      -0.282   1.857   1.171  0.00  0.00     0.001 A 
ENDROOT
BRANCH   1   8
ATOM      8  C1  UNL d   1       2.164   1.329   0.832  0.00  0.00     0.053 C 
ATOM      9  C   UNL d   1       3.065   0.124   0.613  0.00  0.00     0.018 C 
ENDBRANCH   1   8
TORSDOF 1
ENDMDL
