MODEL 1
REMARK minimizedAffinity -1.67444336
REMARK minimizedRMSD -1
REMARK  1 active torsions:
REMARK  status: ('A' for Active; 'I' for Inactive)
REMARK    1  A    between atoms: C1_2  and  C2_3 
ROOT
ATOM      1  C2  UNL d   1       0.846   0.610   0.842  0.00  0.00    -0.073 A 
ATOM      2  C3  UNL d   1       0.777   2.004   0.934  0.00  0.00    -0.002 A 
ATOM      3  C4  UNL d   1      -0.383   2.624   1.402  0.00  0.00     0.004 A 
ATOM      4  C5  UNL d   1      -1.481   1.856   1.789  0.00  0.00    -0.004 A 
ATOM      5  C6  UNL d   1      -1.428   0.460   1.715  0.00  0.00    -0.075 A 
ATOM      6  C7  UNL d   1      -2.601  -0.379   2.125  0.00  0.00     0.076 C 
ATOM      7  C8  UNL d   1      -0.260  -0.154   1.242  0.00  0.00     0.001 A 
ENDROOT
BRANCH   1   8
ATOM      8  C1  UNL d   1       2.098  -0.064   0.344  0.00  0.00     0.053 C 
ATOM      9  C   UNL d   1       2.576   0.524  -0.974  0.00  0.00     0.018 C 
ENDBRANCH   1   8
TORSDOF 1
ENDMDL
