MODEL 1
REMARK minimizedAffinity 5.55661154
REMARK minimizedRMSD -1
REMARK  1 active torsions:
REMARK  status: ('A' for Active; 'I' for Inactive)
REMARK    1  A    between atoms: C1_2  and  C2_3 
ROOT
ATOM      1  C2  UNL d   1      -0.085   0.072   1.575  0.00  0.00    -0.073 A 
ATOM      2  C3  UNL d   1       1.070   0.354   0.836  0.00  0.00    -0.002 A 
ATOM      3  C4  UNL d   1       1.226   1.595   0.218  0.00  0.00     0.004 A 
ATOM      4  C5  UNL d   1       0.234   2.568   0.337  0.00  0.00    -0.004 A 
ATOM      5  C6  UNL d   1      -0.922   2.310   1.081  0.00  0.00    -0.075 A 
ATOM      6  C7  UNL d   1      -1.999   3.346   1.218  0.00  0.00     0.076 C 
ATOM      7  C8  UNL d   1      -1.072   1.061   1.697  0.00  0.00     0.001 A 
ENDROOT
BRANCH   1   8
ATOM      8  C1  UNL d   1      -0.255  -1.264   2.250  0.00  0.00     0.053 C 
ATOM      9  C   UNL d   1       0.558  -1.363   3.531  0.00  0.00     0.018 C 
ENDBRANCH   1   8
TORSDOF 1
ENDMDL
