MODEL 1
REMARK minimizedAffinity -1.13308477
REMARK minimizedRMSD -1
REMARK  1 active torsions:
REMARK  status: ('A' for Active; 'I' for Inactive)
REMARK    1  A    between atoms: C1_2  and  C2_3 
ROOT
ATOM      1  C2  UNL d   1      -1.452   1.411   1.733  0.00  0.00    -0.073 A 
ATOM      2  C3  UNL d   1      -1.894   0.103   1.959  0.00  0.00    -0.002 A 
ATOM      3  C4  UNL d   1      -1.121  -0.984   1.546  0.00  0.00     0.004 A 
ATOM      4  C5  UNL d   1       0.103  -0.773   0.911  0.00  0.00    -0.004 A 
ATOM      5  C6  UNL d   1       0.567   0.527   0.687  0.00  0.00    -0.075 A 
ATOM      6  C7  UNL d   1       1.880   0.770   0.003  0.00  0.00     0.076 C 
ATOM      7  C8  UNL d   1      -0.216   1.613   1.102  0.00  0.00     0.001 A 
ENDROOT
BRANCH   1   8
ATOM      8  C1  UNL d   1      -2.280   2.587   2.183  0.00  0.00     0.053 C 
ATOM      9  C   UNL d   1      -3.500   2.153   2.981  0.00  0.00     0.018 C 
ENDBRANCH   1   8
TORSDOF 1
ENDMDL
