MODEL 1
REMARK minimizedAffinity 9.24782944
REMARK minimizedRMSD -1
REMARK  1 active torsions:
REMARK  status: ('A' for Active; 'I' for Inactive)
REMARK    1  A    between atoms: C1_2  and  C2_3 
ROOT
ATOM      1  C2  UNL d   1      -0.548  -0.834   2.767  0.00  0.00    -0.073 A 
ATOM      2  C3  UNL d   1       0.833  -0.614   2.823  0.00  0.00    -0.002 A 
ATOM      3  C4  UNL d   1       1.360   0.641   2.513  0.00  0.00     0.004 A 
ATOM      4  C5  UNL d   1       0.513   1.688   2.151  0.00  0.00    -0.004 A 
ATOM      5  C6  UNL d   1      -0.871   1.491   2.100  0.00  0.00    -0.075 A 
ATOM      6  C7  UNL d   1      -1.796   2.606   1.710  0.00  0.00     0.076 C 
ATOM      7  C8  UNL d   1      -1.393   0.227   2.411  0.00  0.00     0.001 A 
ENDROOT
BRANCH   1   8
ATOM      8  C1  UNL d   1      -1.122  -2.185   3.107  0.00  0.00     0.053 C 
ATOM      9  C   UNL d   1      -2.513  -2.077   3.713  0.00  0.00     0.018 C 
ENDBRANCH   1   8
TORSDOF 1
ENDMDL
