MODEL 1
REMARK minimizedAffinity 2.2030592
REMARK minimizedRMSD -1
REMARK  1 active torsions:
REMARK  status: ('A' for Active; 'I' for Inactive)
REMARK    1  A    between atoms: C1_2  and  C2_3 
ROOT
ATOM      1  C2  UNL d   1      -0.490   0.673   1.206  0.00  0.00    -0.073 A 
ATOM      2  C3  UNL d   1      -1.882   0.804   1.270  0.00  0.00    -0.002 A 
ATOM      3  C4  UNL d   1      -2.674  -0.274   1.667  0.00  0.00     0.004 A 
ATOM      4  C5  UNL d   1      -2.083  -1.490   2.012  0.00  0.00    -0.004 A 
ATOM      5  C6  UNL d   1      -0.693  -1.636   1.967  0.00  0.00    -0.075 A 
ATOM      6  C7  UNL d   1      -0.042  -2.938   2.332  0.00  0.00     0.076 C 
ATOM      7  C8  UNL d   1       0.095  -0.550   1.564  0.00  0.00     0.001 A 
ENDROOT
BRANCH   1   8
ATOM      8  C1  UNL d   1       0.369   1.836   0.784  0.00  0.00     0.053 C 
ATOM      9  C   UNL d   1       0.219   3.025   1.719  0.00  0.00     0.018 C 
ENDBRANCH   1   8
TORSDOF 1
ENDMDL
