MODEL 1
REMARK minimizedAffinity 4.14883661
REMARK minimizedRMSD -1
REMARK  1 active torsions:
REMARK  status: ('A' for Active; 'I' for Inactive)
REMARK    1  A    between atoms: C1_2  and  C2_3 
ROOT
ATOM      1  C2  UNL d   1      -1.555  -0.103   1.573  0.00  0.00    -0.073 A 
ATOM      2  C3  UNL d   1      -0.696  -1.146   1.936  0.00  0.00    -0.002 A 
ATOM      3  C4  UNL d   1       0.686  -0.953   1.939  0.00  0.00     0.004 A 
ATOM      4  C5  UNL d   1       1.223   0.285   1.586  0.00  0.00    -0.004 A 
ATOM      5  C6  UNL d   1       0.380   1.344   1.232  0.00  0.00    -0.075 A 
ATOM      6  C7  UNL d   1       0.942   2.681   0.848  0.00  0.00     0.076 C 
ATOM      7  C8  UNL d   1      -1.006   1.141   1.229  0.00  0.00     0.001 A 
ENDROOT
BRANCH   1   8
ATOM      8  C1  UNL d   1      -3.048  -0.304   1.574  0.00  0.00     0.053 C 
ATOM      9  C   UNL d   1      -3.722   0.435   2.719  0.00  0.00     0.018 C 
ENDBRANCH   1   8
TORSDOF 1
ENDMDL
