MODEL 1
REMARK minimizedAffinity 1.59430182
REMARK minimizedRMSD -1
REMARK  1 active torsions:
REMARK  status: ('A' for Active; 'I' for Inactive)
REMARK    1  A    between atoms: C1_2  and  C2_3 
ROOT
ATOM      1  C2  UNL d   1      -1.356   1.278   2.017  0.00  0.00    -0.073 A 
ATOM      2  C3  UNL d   1      -1.595  -0.094   1.887  0.00  0.00    -0.002 A 
ATOM      3  C4  UNL d   1      -2.730  -0.669   2.461  0.00  0.00     0.004 A 
ATOM      4  C5  UNL d   1      -3.638   0.122   3.164  0.00  0.00    -0.004 A 
ATOM      5  C6  UNL d   1      -3.422   1.497   3.295  0.00  0.00    -0.075 A 
ATOM      6  C7  UNL d   1      -4.389   2.362   4.050  0.00  0.00     0.076 C 
ATOM      7  C8  UNL d   1      -2.279   2.067   2.718  0.00  0.00     0.001 A 
ENDROOT
BRANCH   1   8
ATOM      8  C1  UNL d   1      -0.135   1.905   1.394  0.00  0.00     0.053 C 
ATOM      9  C   UNL d   1       0.785   0.866   0.772  0.00  0.00     0.018 C 
ENDBRANCH   1   8
TORSDOF 1
ENDMDL
