MODEL 1
REMARK minimizedAffinity 1.47843111
REMARK minimizedRMSD -1
REMARK  1 active torsions:
REMARK  status: ('A' for Active; 'I' for Inactive)
REMARK    1  A    between atoms: C1_2  and  C2_3 
ROOT
ATOM      1  C2  UNL d   1      -0.646   1.597   1.640  0.00  0.00    -0.073 A 
ATOM      2  C3  UNL d   1       0.271   1.652   0.585  0.00  0.00    -0.002 A 
ATOM      3  C4  UNL d   1       0.957   0.504   0.186  0.00  0.00     0.004 A 
ATOM      4  C5  UNL d   1       0.727  -0.711   0.831  0.00  0.00    -0.004 A 
ATOM      5  C6  UNL d   1      -0.195  -0.789   1.880  0.00  0.00    -0.075 A 
ATOM      6  C7  UNL d   1      -0.451  -2.088   2.586  0.00  0.00     0.076 C 
ATOM      7  C8  UNL d   1      -0.877   0.369   2.277  0.00  0.00     0.001 A 
ENDROOT
BRANCH   1   8
ATOM      8  C1  UNL d   1      -1.394   2.832   2.070  0.00  0.00     0.053 C 
ATOM      9  C   UNL d   1      -2.696   2.493   2.777  0.00  0.00     0.018 C 
ENDBRANCH   1   8
TORSDOF 1
ENDMDL
