MODEL 1
REMARK minimizedAffinity -2.85041833
REMARK minimizedRMSD -1
REMARK  1 active torsions:
REMARK  status: ('A' for Active; 'I' for Inactive)
REMARK    1  A    between atoms: C1_2  and  C2_3 
ROOT
ATOM      1  C2  UNL d   1      -0.947   2.742   1.308  0.00  0.00    -0.073 A 
ATOM      2  C3  UNL d   1       0.386   2.397   1.060  0.00  0.00    -0.002 A 
ATOM      3  C4  UNL d   1       0.832   1.095   1.290  0.00  0.00     0.004 A 
ATOM      4  C5  UNL d   1      -0.051   0.124   1.763  0.00  0.00    -0.004 A 
ATOM      5  C6  UNL d   1      -1.390   0.447   2.007  0.00  0.00    -0.075 A 
ATOM      6  C7  UNL d   1      -2.351  -0.586   2.519  0.00  0.00     0.076 C 
ATOM      7  C8  UNL d   1      -1.829   1.757   1.776  0.00  0.00     0.001 A 
ENDROOT
BRANCH   1   8
ATOM      8  C1  UNL d   1      -1.435   4.145   1.055  0.00  0.00     0.053 C 
ATOM      9  C   UNL d   1      -2.593   4.177   0.072  0.00  0.00     0.018 C 
ENDBRANCH   1   8
TORSDOF 1
ENDMDL
