MODEL 1
REMARK minimizedAffinity 4.28337669
REMARK minimizedRMSD -1
REMARK  1 active torsions:
REMARK  status: ('A' for Active; 'I' for Inactive)
REMARK    1  A    between atoms: C1_2  and  C2_3 
ROOT
ATOM      1  C2  UNL d   1       3.582   2.957  -4.372  0.00  0.00    -0.073 A 
ATOM      2  C3  UNL d   1       2.224   3.261  -4.523  0.00  0.00    -0.002 A 
ATOM      3  C4  UNL d   1       1.832   4.449  -5.141  0.00  0.00     0.004 A 
ATOM      4  C5  UNL d   1       2.791   5.341  -5.620  0.00  0.00    -0.004 A 
ATOM      5  C6  UNL d   1       4.153   5.049  -5.490  0.00  0.00    -0.075 A 
ATOM      6  C7  UNL d   1       5.197   5.999  -5.999  0.00  0.00     0.076 C 
ATOM      7  C8  UNL d   1       4.539   3.856  -4.866  0.00  0.00     0.001 A 
ENDROOT
BRANCH   1   8
ATOM      8  C1  UNL d   1       4.011   1.673  -3.711  0.00  0.00     0.053 C 
ATOM      9  C   UNL d   1       3.074   0.521  -4.041  0.00  0.00     0.018 C 
ENDBRANCH   1   8
TORSDOF 1
ENDMDL
