MODEL 1
REMARK minimizedAffinity -0.942041039
REMARK minimizedRMSD -1
REMARK  0 active torsions:
REMARK  status: ('A' for Active; 'I' for Inactive)
ROOT
ATOM      1  C   UNL d   1       1.154  -1.055  -0.609  0.00  0.00     0.172 C 
ATOM      2  N   UNL d   1       1.278  -0.436  -1.908  0.00  0.00    -0.070 N 
ATOM      3  C1  UNL d   1       0.378  -0.547  -2.935  0.00  0.00    -0.004 A 
ATOM      4  C2  UNL d   1       0.858   0.188  -3.997  0.00  0.00    -0.047 A 
ATOM      5  C3  UNL d   1       2.088   0.760  -3.596  0.00  0.00    -0.047 A 
ATOM      6  C4  UNL d   1       2.324   0.357  -2.298  0.00  0.00    -0.004 A 
ENDROOT
TORSDOF 0
ENDMDL
