MODEL 1
REMARK minimizedAffinity -2.97306967
REMARK minimizedRMSD -1
REMARK  0 active torsions:
REMARK  status: ('A' for Active; 'I' for Inactive)
ROOT
ATOM      1  C   UNL d   1      -1.739  -0.104  -0.463  0.00  0.00     0.172 C 
ATOM      2  N   UNL d   1      -0.921   0.453   0.589  0.00  0.00    -0.070 N 
ATOM      3  C1  UNL d   1       0.448   0.454   0.619  0.00  0.00    -0.004 A 
ATOM      4  C2  UNL d   1       0.843   1.077   1.784  0.00  0.00    -0.047 A 
ATOM      5  C3  UNL d   1      -0.329   1.462   2.477  0.00  0.00    -0.047 A 
ATOM      6  C4  UNL d   1      -1.407   1.063   1.715  0.00  0.00    -0.004 A 
ENDROOT
TORSDOF 0
ENDMDL
