MODEL 1
REMARK minimizedAffinity -1.14352453
REMARK minimizedRMSD -1
REMARK  0 active torsions:
REMARK  status: ('A' for Active; 'I' for Inactive)
ROOT
ATOM      1  C   UNL d   1      -1.765  -0.121  -0.482  0.00  0.00     0.172 C 
ATOM      2  N   UNL d   1      -0.932   0.429   0.561  0.00  0.00    -0.070 N 
ATOM      3  C1  UNL d   1      -1.379   1.041   1.701  0.00  0.00    -0.004 A 
ATOM      4  C2  UNL d   1      -0.278   1.424   2.435  0.00  0.00    -0.047 A 
ATOM      5  C3  UNL d   1       0.872   1.030   1.710  0.00  0.00    -0.047 A 
ATOM      6  C4  UNL d   1       0.438   0.417   0.554  0.00  0.00    -0.004 A 
ENDROOT
TORSDOF 0
ENDMDL
