MODEL 1
REMARK minimizedAffinity -1.93221641
REMARK minimizedRMSD -1
REMARK  0 active torsions:
REMARK  status: ('A' for Active; 'I' for Inactive)
ROOT
ATOM      1  C   UNL d   1       1.276   0.540   1.726  0.00  0.00     0.172 C 
ATOM      2  N   UNL d   1       0.292   0.214   0.721  0.00  0.00    -0.070 N 
ATOM      3  C1  UNL d   1      -1.041  -0.001   0.949  0.00  0.00    -0.004 A 
ATOM      4  C2  UNL d   1      -1.636  -0.284  -0.261  0.00  0.00    -0.047 A 
ATOM      5  C3  UNL d   1      -0.625  -0.238  -1.251  0.00  0.00    -0.047 A 
ATOM      6  C4  UNL d   1       0.558   0.072  -0.615  0.00  0.00    -0.004 A 
ENDROOT
TORSDOF 0
ENDMDL
