MODEL 1
REMARK minimizedAffinity -1.51446676
REMARK minimizedRMSD -1
REMARK  0 active torsions:
REMARK  status: ('A' for Active; 'I' for Inactive)
ROOT
ATOM      1  C   UNL d   1       0.178  -0.421  -1.598  0.00  0.00     0.172 C 
ATOM      2  N   UNL d   1       0.719  -0.200  -0.277  0.00  0.00    -0.070 N 
ATOM      3  C1  UNL d   1       1.858  -0.771   0.225  0.00  0.00    -0.004 A 
ATOM      4  C2  UNL d   1       2.032  -0.308   1.511  0.00  0.00    -0.047 A 
ATOM      5  C3  UNL d   1       0.959   0.572   1.792  0.00  0.00    -0.047 A 
ATOM      6  C4  UNL d   1       0.162   0.620   0.668  0.00  0.00    -0.004 A 
ENDROOT
TORSDOF 0
ENDMDL
