MODEL 1
REMARK minimizedAffinity -2.860039
REMARK minimizedRMSD -1
REMARK  0 active torsions:
REMARK  status: ('A' for Active; 'I' for Inactive)
ROOT
ATOM      1  C   UNL d   1       0.411  -0.713  -1.491  0.00  0.00     0.172 C 
ATOM      2  N   UNL d   1       0.572  -0.124  -0.182  0.00  0.00    -0.070 N 
ATOM      3  C1  UNL d   1       1.621  -0.347   0.670  0.00  0.00    -0.004 A 
ATOM      4  C2  UNL d   1       1.403   0.396   1.810  0.00  0.00    -0.047 A 
ATOM      5  C3  UNL d   1       0.181   1.088   1.638  0.00  0.00    -0.047 A 
ATOM      6  C4  UNL d   1      -0.312   0.748   0.396  0.00  0.00    -0.004 A 
ENDROOT
TORSDOF 0
ENDMDL
