MODEL 1
REMARK minimizedAffinity -3.64823627
REMARK minimizedRMSD -1
REMARK  0 active torsions:
REMARK  status: ('A' for Active; 'I' for Inactive)
ROOT
ATOM      1  C   UNL d   1       0.148  -0.231  -0.937  0.00  0.00     0.172 C 
ATOM      2  N   UNL d   1      -0.701   0.151   0.167  0.00  0.00    -0.070 N 
ATOM      3  C1  UNL d   1      -0.274   0.460   1.432  0.00  0.00    -0.004 A 
ATOM      4  C2  UNL d   1      -1.385   0.770   2.187  0.00  0.00    -0.047 A 
ATOM      5  C3  UNL d   1      -2.517   0.641   1.349  0.00  0.00    -0.047 A 
ATOM      6  C4  UNL d   1      -2.065   0.257   0.104  0.00  0.00    -0.004 A 
ENDROOT
TORSDOF 0
ENDMDL
