MODEL 1
REMARK minimizedAffinity -2.36869669
REMARK minimizedRMSD -1
REMARK  0 active torsions:
REMARK  status: ('A' for Active; 'I' for Inactive)
ROOT
ATOM      1  C   UNL d   1      -2.968  -0.808   2.986  0.00  0.00     0.172 C 
ATOM      2  N   UNL d   1      -1.890   0.005   2.473  0.00  0.00    -0.070 N 
ATOM      3  C1  UNL d   1      -1.524   0.108   1.158  0.00  0.00    -0.004 A 
ATOM      4  C2  UNL d   1      -0.457   0.978   1.084  0.00  0.00    -0.047 A 
ATOM      5  C3  UNL d   1      -0.173   1.412   2.400  0.00  0.00    -0.047 A 
ATOM      6  C4  UNL d   1      -1.075   0.794   3.240  0.00  0.00    -0.004 A 
ENDROOT
TORSDOF 0
ENDMDL
