MODEL 1
REMARK minimizedAffinity -1.34417975
REMARK minimizedRMSD -1
REMARK  0 active torsions:
REMARK  status: ('A' for Active; 'I' for Inactive)
ROOT
ATOM      1  C   UNL d   1      -4.502  -2.079  -1.566  0.00  0.00     0.077 C 
ATOM      2  C1  UNL d   1      -4.200  -3.449  -1.035  0.00  0.00    -0.074 A 
ATOM      3  C2  UNL d   1      -3.018  -4.111  -1.385  0.00  0.00    -0.005 A 
ATOM      4  C3  UNL d   1      -2.747  -5.381  -0.875  0.00  0.00     0.006 A 
ATOM      5  C4  UNL d   1      -3.651  -6.000  -0.012  0.00  0.00    -0.005 A 
ATOM      6  C5  UNL d   1      -4.837  -5.353   0.350  0.00  0.00    -0.074 A 
ATOM      7  C6  UNL d   1      -5.816  -6.000   1.284  0.00  0.00     0.077 C 
ATOM      8  C7  UNL d   1      -5.100  -4.074  -0.161  0.00  0.00    -0.001 A 
ENDROOT
TORSDOF 0
ENDMDL
