MODEL 1
REMARK minimizedAffinity 0.78654927
REMARK minimizedRMSD -1
REMARK  0 active torsions:
REMARK  status: ('A' for Active; 'I' for Inactive)
ROOT
ATOM      1  C   UNL d   1      -3.060  -0.709   2.064  0.00  0.00     0.077 C 
ATOM      2  C1  UNL d   1      -1.933   0.233   1.761  0.00  0.00    -0.074 A 
ATOM      3  C2  UNL d   1      -2.057   1.605   2.004  0.00  0.00    -0.005 A 
ATOM      4  C3  UNL d   1      -0.996   2.467   1.726  0.00  0.00     0.006 A 
ATOM      5  C4  UNL d   1       0.198   1.967   1.204  0.00  0.00    -0.005 A 
ATOM      6  C5  UNL d   1       0.341   0.598   0.956  0.00  0.00    -0.074 A 
ATOM      7  C6  UNL d   1       1.620   0.044   0.405  0.00  0.00     0.077 C 
ATOM      8  C7  UNL d   1      -0.727  -0.262   1.244  0.00  0.00    -0.001 A 
ENDROOT
TORSDOF 0
ENDMDL
