MODEL 1
REMARK minimizedAffinity 8.80979061
REMARK minimizedRMSD -1
REMARK  0 active torsions:
REMARK  status: ('A' for Active; 'I' for Inactive)
ROOT
ATOM      1  C   UNL d   1       1.075   0.328   1.662  0.00  0.00     0.077 C 
ATOM      2  C1  UNL d   1       0.034   1.399   1.521  0.00  0.00    -0.074 A 
ATOM      3  C2  UNL d   1       0.188   2.433   0.592  0.00  0.00    -0.005 A 
ATOM      4  C3  UNL d   1      -0.792   3.417   0.466  0.00  0.00     0.006 A 
ATOM      5  C4  UNL d   1      -1.934   3.377   1.268  0.00  0.00    -0.005 A 
ATOM      6  C5  UNL d   1      -2.105   2.351   2.202  0.00  0.00    -0.074 A 
ATOM      7  C6  UNL d   1      -3.331   2.288   3.064  0.00  0.00     0.077 C 
ATOM      8  C7  UNL d   1      -1.119   1.362   2.317  0.00  0.00    -0.001 A 
ENDROOT
TORSDOF 0
ENDMDL
