MODEL 1
REMARK minimizedAffinity -2.00748348
REMARK minimizedRMSD -1
REMARK  0 active torsions:
REMARK  status: ('A' for Active; 'I' for Inactive)
ROOT
ATOM      1  C   UNL d   1       1.313   1.484   0.792  0.00  0.00     0.077 C 
ATOM      2  C1  UNL d   1      -0.051   0.942   1.099  0.00  0.00    -0.074 A 
ATOM      3  C2  UNL d   1      -0.378  -0.387   0.813  0.00  0.00    -0.005 A 
ATOM      4  C3  UNL d   1      -1.648  -0.879   1.113  0.00  0.00     0.006 A 
ATOM      5  C4  UNL d   1      -2.603  -0.049   1.702  0.00  0.00    -0.005 A 
ATOM      6  C5  UNL d   1      -2.293   1.283   1.997  0.00  0.00    -0.074 A 
ATOM      7  C6  UNL d   1      -3.304   2.186   2.639  0.00  0.00     0.077 C 
ATOM      8  C7  UNL d   1      -1.013   1.768   1.698  0.00  0.00    -0.001 A 
ENDROOT
TORSDOF 0
ENDMDL
