MODEL 1
REMARK minimizedAffinity -0.616299152
REMARK minimizedRMSD -1
REMARK  0 active torsions:
REMARK  status: ('A' for Active; 'I' for Inactive)
ROOT
ATOM      1  C   UNL d   1      -3.272   1.933   2.939  0.00  0.00     0.077 C 
ATOM      2  C1  UNL d   1      -1.966   1.503   2.342  0.00  0.00    -0.074 A 
ATOM      3  C2  UNL d   1      -1.206   2.384   1.565  0.00  0.00    -0.005 A 
ATOM      4  C3  UNL d   1       0.012   1.973   1.024  0.00  0.00     0.006 A 
ATOM      5  C4  UNL d   1       0.482   0.679   1.252  0.00  0.00    -0.005 A 
ATOM      6  C5  UNL d   1      -0.264  -0.215   2.027  0.00  0.00    -0.074 A 
ATOM      7  C6  UNL d   1       0.231  -1.607   2.290  0.00  0.00     0.077 C 
ATOM      8  C7  UNL d   1      -1.483   0.207   2.573  0.00  0.00    -0.001 A 
ENDROOT
TORSDOF 0
ENDMDL
