MODEL 1
REMARK minimizedAffinity -1.47830105
REMARK minimizedRMSD -1
REMARK  0 active torsions:
REMARK  status: ('A' for Active; 'I' for Inactive)
ROOT
ATOM      1  C   UNL d   1      -3.577   0.922   2.396  0.00  0.00     0.077 C 
ATOM      2  C1  UNL d   1      -2.164   1.295   2.062  0.00  0.00    -0.074 A 
ATOM      3  C2  UNL d   1      -1.745   2.629   2.097  0.00  0.00    -0.005 A 
ATOM      4  C3  UNL d   1      -0.424   2.959   1.793  0.00  0.00     0.006 A 
ATOM      5  C4  UNL d   1       0.489   1.961   1.451  0.00  0.00    -0.005 A 
ATOM      6  C5  UNL d   1       0.089   0.622   1.412  0.00  0.00    -0.074 A 
ATOM      7  C6  UNL d   1       1.060  -0.464   1.057  0.00  0.00     0.077 C 
ATOM      8  C7  UNL d   1      -1.238   0.297   1.726  0.00  0.00    -0.001 A 
ENDROOT
TORSDOF 0
ENDMDL
