MODEL 1
REMARK minimizedAffinity 0.219356611
REMARK minimizedRMSD -1
REMARK  0 active torsions:
REMARK  status: ('A' for Active; 'I' for Inactive)
ROOT
ATOM      1  C   UNL d   1      -2.801  -1.231   0.625  0.00  0.00     0.077 C 
ATOM      2  C1  UNL d   1      -1.512  -0.523   0.920  0.00  0.00    -0.074 A 
ATOM      3  C2  UNL d   1      -1.256   0.750   0.402  0.00  0.00    -0.005 A 
ATOM      4  C3  UNL d   1      -0.056   1.400   0.694  0.00  0.00     0.006 A 
ATOM      5  C4  UNL d   1       0.898   0.783   1.504  0.00  0.00    -0.005 A 
ATOM      6  C5  UNL d   1       0.659  -0.490   2.032  0.00  0.00    -0.074 A 
ATOM      7  C6  UNL d   1       1.669  -1.163   2.912  0.00  0.00     0.077 C 
ATOM      8  C7  UNL d   1      -0.552  -1.133   1.740  0.00  0.00    -0.001 A 
ENDROOT
TORSDOF 0
ENDMDL
