MODEL 1
REMARK minimizedAffinity 3.53655624
REMARK minimizedRMSD -1
REMARK  0 active torsions:
REMARK  status: ('A' for Active; 'I' for Inactive)
ROOT
ATOM      1  C   UNL d   1      -3.016  -0.596   1.920  0.00  0.00     0.077 C 
ATOM      2  C1  UNL d   1      -1.789   0.206   1.606  0.00  0.00    -0.074 A 
ATOM      3  C2  UNL d   1      -1.829   1.604   1.589  0.00  0.00    -0.005 A 
ATOM      4  C3  UNL d   1      -0.677   2.337   1.304  0.00  0.00     0.006 A 
ATOM      5  C4  UNL d   1       0.525   1.680   1.033  0.00  0.00    -0.005 A 
ATOM      6  C5  UNL d   1       0.584   0.283   1.046  0.00  0.00    -0.074 A 
ATOM      7  C6  UNL d   1       1.869  -0.438   0.767  0.00  0.00     0.077 C 
ATOM      8  C7  UNL d   1      -0.576  -0.446   1.341  0.00  0.00    -0.001 A 
ENDROOT
TORSDOF 0
ENDMDL
