MODEL 1
REMARK minimizedAffinity 5.17836618
REMARK minimizedRMSD -1
REMARK  0 active torsions:
REMARK  status: ('A' for Active; 'I' for Inactive)
ROOT
ATOM      1  C   UNL d   1       0.299  -1.525   3.059  0.00  0.00     0.077 C 
ATOM      2  C1  UNL d   1       0.064  -0.187   2.423  0.00  0.00    -0.074 A 
ATOM      3  C2  UNL d   1       1.004   0.368   1.549  0.00  0.00    -0.005 A 
ATOM      4  C3  UNL d   1       0.768   1.609   0.957  0.00  0.00     0.006 A 
ATOM      5  C4  UNL d   1      -0.409   2.306   1.233  0.00  0.00    -0.005 A 
ATOM      6  C5  UNL d   1      -1.361   1.766   2.104  0.00  0.00    -0.074 A 
ATOM      7  C6  UNL d   1      -2.636   2.497   2.404  0.00  0.00     0.077 C 
ATOM      8  C7  UNL d   1      -1.119   0.516   2.689  0.00  0.00    -0.001 A 
ENDROOT
TORSDOF 0
ENDMDL
