MODEL 1
REMARK minimizedAffinity 1.04546762
REMARK minimizedRMSD -1
REMARK  0 active torsions:
REMARK  status: ('A' for Active; 'I' for Inactive)
ROOT
ATOM      1  C   UNL d   1      -2.592  -1.019   3.073  0.00  0.00     0.077 C 
ATOM      2  C1  UNL d   1      -2.207   0.333   2.551  0.00  0.00    -0.074 A 
ATOM      3  C2  UNL d   1      -3.075   1.423   2.669  0.00  0.00    -0.005 A 
ATOM      4  C3  UNL d   1      -2.699   2.677   2.188  0.00  0.00     0.006 A 
ATOM      5  C4  UNL d   1      -1.453   2.853   1.585  0.00  0.00    -0.005 A 
ATOM      6  C5  UNL d   1      -0.572   1.775   1.459  0.00  0.00    -0.074 A 
ATOM      7  C6  UNL d   1       0.775   1.950   0.822  0.00  0.00     0.077 C 
ATOM      8  C7  UNL d   1      -0.954   0.520   1.951  0.00  0.00    -0.001 A 
ENDROOT
TORSDOF 0
ENDMDL
