MODEL 1
REMARK minimizedAffinity 1.38732779
REMARK minimizedRMSD -1
REMARK  0 active torsions:
REMARK  status: ('A' for Active; 'I' for Inactive)
ROOT
ATOM      1  C   UNL d   1      -3.569  -4.945  -0.699  0.00  0.00     0.077 C 
ATOM      2  C1  UNL d   1      -3.618  -3.814  -1.682  0.00  0.00    -0.074 A 
ATOM      3  C2  UNL d   1      -3.223  -3.999  -3.011  0.00  0.00    -0.005 A 
ATOM      4  C3  UNL d   1      -3.283  -2.940  -3.917  0.00  0.00     0.006 A 
ATOM      5  C4  UNL d   1      -3.738  -1.687  -3.504  0.00  0.00    -0.005 A 
ATOM      6  C5  UNL d   1      -4.138  -1.483  -2.179  0.00  0.00    -0.074 A 
ATOM      7  C6  UNL d   1      -4.639  -0.146  -1.721  0.00  0.00     0.077 C 
ATOM      8  C7  UNL d   1      -4.082  -2.554  -1.277  0.00  0.00    -0.001 A 
ENDROOT
TORSDOF 0
ENDMDL
