MODEL 1
REMARK minimizedAffinity -3.08213663
REMARK minimizedRMSD -1
REMARK  0 active torsions:
REMARK  status: ('A' for Active; 'I' for Inactive)
ROOT
ATOM      1  C   UNL d   1      -2.966  -0.438   2.023  0.00  0.00     0.077 C 
ATOM      2  C1  UNL d   1      -1.747   0.349   1.644  0.00  0.00    -0.074 A 
ATOM      3  C2  UNL d   1      -1.748   1.747   1.700  0.00  0.00    -0.005 A 
ATOM      4  C3  UNL d   1      -0.604   2.466   1.353  0.00  0.00     0.006 A 
ATOM      5  C4  UNL d   1       0.550   1.795   0.946  0.00  0.00    -0.005 A 
ATOM      6  C5  UNL d   1       0.570   0.398   0.885  0.00  0.00    -0.074 A 
ATOM      7  C6  UNL d   1       1.806  -0.338   0.460  0.00  0.00     0.077 C 
ATOM      8  C7  UNL d   1      -0.581  -0.317   1.242  0.00  0.00    -0.001 A 
ENDROOT
TORSDOF 0
ENDMDL
