MODEL 1
REMARK minimizedAffinity -3.33057141
REMARK minimizedRMSD -1
REMARK  0 active torsions:
REMARK  status: ('A' for Active; 'I' for Inactive)
ROOT
ATOM      1  C   UNL d   1       2.396   0.755  -1.103  0.00  0.00     0.077 C 
ATOM      2  C1  UNL d   1       1.764   0.783   0.256  0.00  0.00    -0.074 A 
ATOM      3  C2  UNL d   1       2.461   0.335   1.383  0.00  0.00    -0.005 A 
ATOM      4  C3  UNL d   1       1.863   0.376   2.642  0.00  0.00     0.006 A 
ATOM      5  C4  UNL d   1       0.564   0.865   2.788  0.00  0.00    -0.005 A 
ATOM      6  C5  UNL d   1      -0.148   1.319   1.673  0.00  0.00    -0.074 A 
ATOM      7  C6  UNL d   1      -1.541   1.858   1.813  0.00  0.00     0.077 C 
ATOM      8  C7  UNL d   1       0.463   1.281   0.412  0.00  0.00    -0.001 A 
ENDROOT
TORSDOF 0
ENDMDL
