MODEL 1
REMARK minimizedAffinity 2.33802509
REMARK minimizedRMSD -1
REMARK  0 active torsions:
REMARK  status: ('A' for Active; 'I' for Inactive)
ROOT
ATOM      1  C   UNL d   1      -3.018  -0.445   1.775  0.00  0.00     0.077 C 
ATOM      2  C1  UNL d   1      -1.704   0.248   1.572  0.00  0.00    -0.074 A 
ATOM      3  C2  UNL d   1      -1.564   1.614   1.836  0.00  0.00    -0.005 A 
ATOM      4  C3  UNL d   1      -0.333   2.243   1.652  0.00  0.00     0.006 A 
ATOM      5  C4  UNL d   1       0.769   1.514   1.203  0.00  0.00    -0.005 A 
ATOM      6  C5  UNL d   1       0.648   0.147   0.935  0.00  0.00    -0.074 A 
ATOM      7  C6  UNL d   1       1.825  -0.654   0.462  0.00  0.00     0.077 C 
ATOM      8  C7  UNL d   1      -0.591  -0.480   1.129  0.00  0.00    -0.001 A 
ENDROOT
TORSDOF 0
ENDMDL
