MODEL 1
REMARK minimizedAffinity 3.83404589
REMARK minimizedRMSD -1
REMARK  0 active torsions:
REMARK  status: ('A' for Active; 'I' for Inactive)
ROOT
ATOM      1  N1  IND d   1      -1.193   5.997  -2.622  0.00  0.00    -0.196 N 
ATOM      2  C2  IND d   1       0.047   5.495  -2.900  0.00  0.00     0.054 A 
ATOM      3  C3  IND d   1       0.045   4.872  -4.099  0.00  0.00    -0.031 A 
ATOM      4  C4  IND d   1      -1.856   4.645  -5.821  0.00  0.00     0.051 A 
ATOM      5  C5  IND d   1      -3.184   4.910  -6.000  0.00  0.00    -0.031 A 
ATOM      6  C6  IND d   1      -3.932   5.566  -5.043  0.00  0.00     0.015 A 
ATOM      7  C7  IND d   1      -3.373   5.994  -3.872  0.00  0.00    -0.016 A 
ATOM      8  C8  IND d   1      -2.026   5.721  -3.685  0.00  0.00    -0.047 A 
ATOM      9  C9  IND d   1      -1.272   5.017  -4.633  0.00  0.00    -0.096 A 
ATOM     10  HN1 IND d   1      -1.417   6.415  -1.905  0.00  0.00     0.298 HD
ENDROOT
TORSDOF 0
ENDMDL
