MODEL 1
REMARK minimizedAffinity 5.06286097
REMARK minimizedRMSD -1
REMARK  0 active torsions:
REMARK  status: ('A' for Active; 'I' for Inactive)
ROOT
ATOM      1  N1  IND d   1      -4.622   4.895  -5.043  0.00  0.00    -0.196 N 
ATOM      2  C2  IND d   1      -3.436   5.554  -5.212  0.00  0.00     0.054 A 
ATOM      3  C3  IND d   1      -2.943   5.950  -4.017  0.00  0.00    -0.031 A 
ATOM      4  C4  IND d   1      -3.864   5.536  -1.649  0.00  0.00     0.051 A 
ATOM      5  C5  IND d   1      -4.940   5.012  -0.988  0.00  0.00    -0.031 A 
ATOM      6  C6  IND d   1      -5.984   4.409  -1.658  0.00  0.00     0.015 A 
ATOM      7  C7  IND d   1      -5.986   4.295  -3.020  0.00  0.00    -0.016 A 
ATOM      8  C8  IND d   1      -4.899   4.832  -3.695  0.00  0.00    -0.047 A 
ATOM      9  C9  IND d   1      -3.857   5.483  -3.023  0.00  0.00    -0.096 A 
ATOM     10  HN1 IND d   1      -5.112   4.574  -5.672  0.00  0.00     0.298 HD
ENDROOT
TORSDOF 0
ENDMDL
