MODEL 1
REMARK minimizedAffinity 5.87803745
REMARK minimizedRMSD -1
REMARK  0 active torsions:
REMARK  status: ('A' for Active; 'I' for Inactive)
ROOT
ATOM      1  N1  IND d   1       4.277   5.387  -1.198  0.00  0.00    -0.196 N 
ATOM      2  C2  IND d   1       5.571   5.372  -1.638  0.00  0.00     0.054 A 
ATOM      3  C3  IND d   1       5.719   4.468  -2.633  0.00  0.00    -0.031 A 
ATOM      4  C4  IND d   1       3.951   2.977  -3.765  0.00  0.00     0.051 A 
ATOM      5  C5  IND d   1       2.637   2.613  -3.682  0.00  0.00    -0.031 A 
ATOM      6  C6  IND d   1       1.784   3.168  -2.750  0.00  0.00     0.015 A 
ATOM      7  C7  IND d   1       2.213   4.121  -1.870  0.00  0.00    -0.016 A 
ATOM      8  C8  IND d   1       3.549   4.488  -1.946  0.00  0.00    -0.047 A 
ATOM      9  C9  IND d   1       4.430   3.897  -2.862  0.00  0.00    -0.096 A 
ATOM     10  HN1 IND d   1       3.969   5.876  -0.562  0.00  0.00     0.298 HD
ENDROOT
TORSDOF 0
ENDMDL
