MODEL 1
REMARK minimizedAffinity 25.4408493
REMARK minimizedRMSD -1
REMARK  0 active torsions:
REMARK  status: ('A' for Active; 'I' for Inactive)
ROOT
ATOM      1  N1  IND d   1      -2.628  -4.511  -2.415  0.00  0.00    -0.196 N 
ATOM      2  C2  IND d   1      -1.559  -3.870  -1.852  0.00  0.00     0.054 A 
ATOM      3  C3  IND d   1      -0.496  -3.908  -2.686  0.00  0.00    -0.031 A 
ATOM      4  C4  IND d   1      -0.315  -4.880  -5.063  0.00  0.00     0.051 A 
ATOM      5  C5  IND d   1      -1.018  -5.597  -5.989  0.00  0.00    -0.031 A 
ATOM      6  C6  IND d   1      -2.320  -5.995  -5.769  0.00  0.00     0.015 A 
ATOM      7  C7  IND d   1      -2.975  -5.679  -4.612  0.00  0.00    -0.016 A 
ATOM      8  C8  IND d   1      -2.262  -4.956  -3.666  0.00  0.00    -0.047 A 
ATOM      9  C9  IND d   1      -0.926  -4.586  -3.867  0.00  0.00    -0.096 A 
ATOM     10  HN1 IND d   1      -3.398  -4.618  -2.048  0.00  0.00     0.298 HD
ENDROOT
TORSDOF 0
ENDMDL
