MODEL 1
REMARK minimizedAffinity 17.9913673
REMARK minimizedRMSD -1
REMARK  0 active torsions:
REMARK  status: ('A' for Active; 'I' for Inactive)
ROOT
ATOM      1  N1  IND d   1       4.963   5.265  -2.250  0.00  0.00    -0.196 N 
ATOM      2  C2  IND d   1       5.945   5.879  -2.978  0.00  0.00     0.054 A 
ATOM      3  C3  IND d   1       5.941   5.423  -4.251  0.00  0.00    -0.031 A 
ATOM      4  C4  IND d   1       4.349   3.747  -5.383  0.00  0.00     0.051 A 
ATOM      5  C5  IND d   1       3.316   2.893  -5.116  0.00  0.00    -0.031 A 
ATOM      6  C6  IND d   1       2.766   2.786  -3.855  0.00  0.00     0.015 A 
ATOM      7  C7  IND d   1       3.224   3.541  -2.812  0.00  0.00    -0.016 A 
ATOM      8  C8  IND d   1       4.277   4.404  -3.078  0.00  0.00    -0.047 A 
ATOM      9  C9  IND d   1       4.867   4.485  -4.346  0.00  0.00    -0.096 A 
ATOM     10  HN1 IND d   1       4.801   5.395  -1.416  0.00  0.00     0.298 HD
ENDROOT
TORSDOF 0
ENDMDL
