MODEL 1
REMARK minimizedAffinity 19.6290932
REMARK minimizedRMSD -1
REMARK  0 active torsions:
REMARK  status: ('A' for Active; 'I' for Inactive)
ROOT
ATOM      1  N1  IND d   1      -4.307  -0.147  -1.379  0.00  0.00    -0.196 N 
ATOM      2  C2  IND d   1      -5.143   0.155  -0.340  0.00  0.00     0.054 A 
ATOM      3  C3  IND d   1      -5.030  -0.770   0.639  0.00  0.00    -0.031 A 
ATOM      4  C4  IND d   1      -3.460  -2.804   0.794  0.00  0.00     0.051 A 
ATOM      5  C5  IND d   1      -2.539  -3.511   0.073  0.00  0.00    -0.031 A 
ATOM      6  C6  IND d   1      -2.150  -3.124  -1.192  0.00  0.00     0.015 A 
ATOM      7  C7  IND d   1      -2.662  -2.003  -1.783  0.00  0.00    -0.016 A 
ATOM      8  C8  IND d   1      -3.603  -1.287  -1.057  0.00  0.00    -0.047 A 
ATOM      9  C9  IND d   1      -4.033  -1.699   0.211  0.00  0.00    -0.096 A 
ATOM     10  HN1 IND d   1      -4.233   0.300  -2.110  0.00  0.00     0.298 HD
ENDROOT
TORSDOF 0
ENDMDL
