MODEL 1
REMARK minimizedAffinity 17.5877171
REMARK minimizedRMSD -1
REMARK  0 active torsions:
REMARK  status: ('A' for Active; 'I' for Inactive)
ROOT
ATOM      1  N1  IND d   1       1.077  -3.281   2.912  0.00  0.00    -0.196 N 
ATOM      2  C2  IND d   1       1.767  -2.539   3.830  0.00  0.00     0.054 A 
ATOM      3  C3  IND d   1       1.316  -1.264   3.840  0.00  0.00    -0.031 A 
ATOM      4  C4  IND d   1      -0.614  -0.202   2.507  0.00  0.00     0.051 A 
ATOM      5  C5  IND d   1      -1.517  -0.473   1.518  0.00  0.00    -0.031 A 
ATOM      6  C6  IND d   1      -1.605  -1.720   0.933  0.00  0.00     0.015 A 
ATOM      7  C7  IND d   1      -0.797  -2.750   1.325  0.00  0.00    -0.016 A 
ATOM      8  C8  IND d   1       0.126  -2.476   2.324  0.00  0.00    -0.047 A 
ATOM      9  C9  IND d   1       0.249  -1.202   2.892  0.00  0.00    -0.096 A 
ATOM     10  HN1 IND d   1       1.214  -4.110   2.732  0.00  0.00     0.298 HD
ENDROOT
TORSDOF 0
ENDMDL
