MODEL 1
REMARK minimizedAffinity 16.7169609
REMARK minimizedRMSD -1
REMARK  0 active torsions:
REMARK  status: ('A' for Active; 'I' for Inactive)
ROOT
ATOM      1  N1  IND d   1       2.608   2.723  -4.113  0.00  0.00    -0.196 N 
ATOM      2  C2  IND d   1       1.832   2.965  -3.014  0.00  0.00     0.054 A 
ATOM      3  C3  IND d   1       2.503   3.730  -2.124  0.00  0.00    -0.031 A 
ATOM      4  C4  IND d   1       4.845   4.782  -2.309  0.00  0.00     0.051 A 
ATOM      5  C5  IND d   1       5.951   4.815  -3.111  0.00  0.00    -0.031 A 
ATOM      6  C6  IND d   1       5.999   4.141  -4.314  0.00  0.00     0.015 A 
ATOM      7  C7  IND d   1       4.934   3.414  -4.767  0.00  0.00    -0.016 A 
ATOM      8  C8  IND d   1       3.812   3.373  -3.951  0.00  0.00    -0.047 A 
ATOM      9  C9  IND d   1       3.773   4.020  -2.710  0.00  0.00    -0.096 A 
ATOM     10  HN1 IND d   1       2.383   2.245  -4.791  0.00  0.00     0.298 HD
ENDROOT
TORSDOF 0
ENDMDL
