MODEL 1
REMARK minimizedAffinity 13.5740509
REMARK minimizedRMSD -1
REMARK  0 active torsions:
REMARK  status: ('A' for Active; 'I' for Inactive)
ROOT
ATOM      1  N1  IND d   1       4.627   2.039   0.159  0.00  0.00    -0.196 N 
ATOM      2  C2  IND d   1       3.691   1.216   0.719  0.00  0.00     0.054 A 
ATOM      3  C3  IND d   1       2.686   0.984  -0.155  0.00  0.00    -0.031 A 
ATOM      4  C4  IND d   1       2.424   1.769  -2.593  0.00  0.00     0.051 A 
ATOM      5  C5  IND d   1       3.006   2.570  -3.535  0.00  0.00    -0.031 A 
ATOM      6  C6  IND d   1       4.183   3.247  -3.290  0.00  0.00     0.015 A 
ATOM      7  C7  IND d   1       4.831   3.138  -2.092  0.00  0.00    -0.016 A 
ATOM      8  C8  IND d   1       4.240   2.331  -1.131  0.00  0.00    -0.047 A 
ATOM      9  C9  IND d   1       3.023   1.676  -1.359  0.00  0.00    -0.096 A 
ATOM     10  HN1 IND d   1       5.339   2.327   0.546  0.00  0.00     0.298 HD
ENDROOT
TORSDOF 0
ENDMDL
