MODEL 1
REMARK minimizedAffinity 17.768446
REMARK minimizedRMSD -1
REMARK  0 active torsions:
REMARK  status: ('A' for Active; 'I' for Inactive)
ROOT
ATOM      1  N1  IND d   1       5.150   3.382   2.382  0.00  0.00    -0.196 N 
ATOM      2  C2  IND d   1       5.999   4.105   1.592  0.00  0.00     0.054 A 
ATOM      3  C3  IND d   1       6.000   3.617   0.331  0.00  0.00    -0.031 A 
ATOM      4  C4  IND d   1       4.609   1.701  -0.681  0.00  0.00     0.051 A 
ATOM      5  C5  IND d   1       3.721   0.719  -0.342  0.00  0.00    -0.031 A 
ATOM      6  C6  IND d   1       3.252   0.574   0.947  0.00  0.00     0.015 A 
ATOM      7  C7  IND d   1       3.647   1.415   1.948  0.00  0.00    -0.016 A 
ATOM      8  C8  IND d   1       4.554   2.409   1.609  0.00  0.00    -0.047 A 
ATOM      9  C9  IND d   1       5.066   2.536   0.312  0.00  0.00    -0.096 A 
ATOM     10  HN1 IND d   1       5.011   3.513   3.220  0.00  0.00     0.298 HD
ENDROOT
TORSDOF 0
ENDMDL
