MODEL 1
REMARK minimizedAffinity 12.6407862
REMARK minimizedRMSD -1
REMARK  0 active torsions:
REMARK  status: ('A' for Active; 'I' for Inactive)
ROOT
ATOM      1  N1  IND d   1      -0.972   0.014   4.808  0.00  0.00    -0.196 N 
ATOM      2  C2  IND d   1      -1.677   1.151   5.090  0.00  0.00     0.054 A 
ATOM      3  C3  IND d   1      -2.442   1.505   4.033  0.00  0.00    -0.031 A 
ATOM      4  C4  IND d   1      -2.769   0.308   1.777  0.00  0.00     0.051 A 
ATOM      5  C5  IND d   1      -2.309  -0.748   1.042  0.00  0.00    -0.031 A 
ATOM      6  C6  IND d   1      -1.363  -1.624   1.535  0.00  0.00     0.015 A 
ATOM      7  C7  IND d   1      -0.848  -1.481   2.793  0.00  0.00    -0.016 A 
ATOM      8  C8  IND d   1      -1.307  -0.406   3.539  0.00  0.00    -0.047 A 
ATOM      9  C9  IND d   1      -2.235   0.511   3.028  0.00  0.00    -0.096 A 
ATOM     10  HN1 IND d   1      -0.413  -0.373   5.334  0.00  0.00     0.298 HD
ENDROOT
TORSDOF 0
ENDMDL
