MODEL 1
REMARK minimizedAffinity 20.1188087
REMARK minimizedRMSD -1
REMARK  0 active torsions:
REMARK  status: ('A' for Active; 'I' for Inactive)
ROOT
ATOM      1  N1  IND d   1      -5.831  -3.743   5.010  0.00  0.00    -0.196 N 
ATOM      2  C2  IND d   1      -6.000  -4.915   5.693  0.00  0.00     0.054 A 
ATOM      3  C3  IND d   1      -5.954  -5.965   4.843  0.00  0.00    -0.031 A 
ATOM      4  C4  IND d   1      -5.511  -5.999   2.307  0.00  0.00     0.051 A 
ATOM      5  C5  IND d   1      -5.334  -5.172   1.233  0.00  0.00    -0.031 A 
ATOM      6  C6  IND d   1      -5.312  -3.799   1.366  0.00  0.00     0.015 A 
ATOM      7  C7  IND d   1      -5.454  -3.199   2.586  0.00  0.00    -0.016 A 
ATOM      8  C8  IND d   1      -5.640  -4.036   3.677  0.00  0.00    -0.047 A 
ATOM      9  C9  IND d   1      -5.706  -5.428   3.542  0.00  0.00    -0.096 A 
ATOM     10  HN1 IND d   1      -5.843  -2.955   5.354  0.00  0.00     0.298 HD
ENDROOT
TORSDOF 0
ENDMDL
