MODEL 1
REMARK minimizedAffinity 16.1969261
REMARK minimizedRMSD -1
REMARK  0 active torsions:
REMARK  status: ('A' for Active; 'I' for Inactive)
ROOT
ATOM      1  N1  IND d   1      -0.911  -0.227   4.912  0.00  0.00    -0.196 N 
ATOM      2  C2  IND d   1      -1.996   0.601   4.831  0.00  0.00     0.054 A 
ATOM      3  C3  IND d   1      -2.482   0.618   3.569  0.00  0.00    -0.031 A 
ATOM      4  C4  IND d   1      -1.716  -0.715   1.504  0.00  0.00     0.051 A 
ATOM      5  C5  IND d   1      -0.743  -1.574   1.077  0.00  0.00    -0.031 A 
ATOM      6  C6  IND d   1       0.242  -2.040   1.924  0.00  0.00     0.015 A 
ATOM      7  C7  IND d   1       0.284  -1.671   3.238  0.00  0.00    -0.016 A 
ATOM      8  C8  IND d   1      -0.698  -0.793   3.674  0.00  0.00    -0.047 A 
ATOM      9  C9  IND d   1      -1.675  -0.284   2.809  0.00  0.00    -0.096 A 
ATOM     10  HN1 IND d   1      -0.441  -0.370   5.617  0.00  0.00     0.298 HD
ENDROOT
TORSDOF 0
ENDMDL
