MODEL 1
REMARK minimizedAffinity 10.2473221
REMARK minimizedRMSD -1
REMARK  0 active torsions:
REMARK  status: ('A' for Active; 'I' for Inactive)
ROOT
ATOM      1  N1  IND d   1      -2.205   1.277   2.346  0.00  0.00    -0.196 N 
ATOM      2  C2  IND d   1      -3.551   1.237   2.108  0.00  0.00     0.054 A 
ATOM      3  C3  IND d   1      -3.892   0.062   1.532  0.00  0.00    -0.031 A 
ATOM      4  C4  IND d   1      -2.421  -1.978   0.983  0.00  0.00     0.051 A 
ATOM      5  C5  IND d   1      -1.121  -2.401   0.984  0.00  0.00    -0.031 A 
ATOM      6  C6  IND d   1      -0.096  -1.604   1.451  0.00  0.00     0.015 A 
ATOM      7  C7  IND d   1      -0.335  -0.353   1.947  0.00  0.00    -0.016 A 
ATOM      8  C8  IND d   1      -1.653   0.082   1.941  0.00  0.00    -0.047 A 
ATOM      9  C9  IND d   1      -2.692  -0.706   1.429  0.00  0.00    -0.096 A 
ATOM     10  HN1 IND d   1      -1.776   1.938   2.690  0.00  0.00     0.298 HD
ENDROOT
TORSDOF 0
ENDMDL
