MODEL 1
REMARK minimizedAffinity 13.0982285
REMARK minimizedRMSD -1
REMARK  0 active torsions:
REMARK  status: ('A' for Active; 'I' for Inactive)
ROOT
ATOM      1  N1  IND d   1       5.612   5.059  -4.801  0.00  0.00    -0.196 N 
ATOM      2  C2  IND d   1       6.000   5.996  -3.885  0.00  0.00     0.054 A 
ATOM      3  C3  IND d   1       5.273   5.876  -2.752  0.00  0.00    -0.031 A 
ATOM      4  C4  IND d   1       3.465   4.146  -2.145  0.00  0.00     0.051 A 
ATOM      5  C5  IND d   1       2.743   3.112  -2.672  0.00  0.00    -0.031 A 
ATOM      6  C6  IND d   1       2.946   2.664  -3.961  0.00  0.00     0.015 A 
ATOM      7  C7  IND d   1       3.892   3.227  -4.771  0.00  0.00    -0.016 A 
ATOM      8  C8  IND d   1       4.622   4.282  -4.241  0.00  0.00    -0.047 A 
ATOM      9  C9  IND d   1       4.390   4.770  -2.948  0.00  0.00    -0.096 A 
ATOM     10  HN1 IND d   1       5.932   4.970  -5.594  0.00  0.00     0.298 HD
ENDROOT
TORSDOF 0
ENDMDL
