MODEL 1
REMARK minimizedAffinity 13.4500589
REMARK minimizedRMSD -1
REMARK  0 active torsions:
REMARK  status: ('A' for Active; 'I' for Inactive)
ROOT
ATOM      1  N1  IND d   1       2.468   4.462  -2.274  0.00  0.00    -0.196 N 
ATOM      2  C2  IND d   1       1.514   3.709  -2.899  0.00  0.00     0.054 A 
ATOM      3  C3  IND d   1       2.039   3.082  -3.975  0.00  0.00    -0.031 A 
ATOM      4  C4  IND d   1       4.465   3.068  -4.836  0.00  0.00     0.051 A 
ATOM      5  C5  IND d   1       5.689   3.634  -4.617  0.00  0.00    -0.031 A 
ATOM      6  C6  IND d   1       5.908   4.521  -3.583  0.00  0.00     0.015 A 
ATOM      7  C7  IND d   1       4.908   4.868  -2.719  0.00  0.00    -0.016 A 
ATOM      8  C8  IND d   1       3.662   4.300  -2.943  0.00  0.00    -0.047 A 
ATOM      9  C9  IND d   1       3.424   3.432  -4.016  0.00  0.00    -0.096 A 
ATOM     10  HN1 IND d   1       2.344   4.954  -1.579  0.00  0.00     0.298 HD
ENDROOT
TORSDOF 0
ENDMDL
