MODEL 1
REMARK minimizedAffinity -6.32263565
REMARK minimizedRMSD -1
REMARK  0 active torsions:
REMARK  status: ('A' for Active; 'I' for Inactive)
ROOT
ATOM      1  C1  DEN d   1       0.400   1.111  -0.309  0.00  0.00     0.130 A 
ATOM      2  C2  DEN d   1      -0.792   1.259  -1.139  0.00  0.00    -0.031 A 
ATOM      3  C3  DEN d   1      -1.915   0.595  -0.447  0.00  0.00     0.027 A 
ATOM      4  C4  DEN d   1      -1.924  -0.637   1.819  0.00  0.00     0.027 A 
ATOM      5  C5  DEN d   1      -1.146  -1.032   2.885  0.00  0.00    -0.003 A 
ATOM      6  C6  DEN d   1       0.197  -0.773   2.944  0.00  0.00     0.001 A 
ATOM      7  C7  DEN d   1       0.796  -0.059   1.940  0.00  0.00     0.017 A 
ATOM      8  C8  DEN d   1       0.020   0.336   0.858  0.00  0.00    -0.094 A 
ATOM      9  C9  DEN d   1      -1.339   0.075   0.822  0.00  0.00    -0.072 A 
ENDROOT
TORSDOF 0
ENDMDL
