MODEL 1
REMARK minimizedAffinity -4.78080368
REMARK minimizedRMSD -1
REMARK  0 active torsions:
REMARK  status: ('A' for Active; 'I' for Inactive)
ROOT
ATOM      1  C1  DEN d   1      -0.457  -0.294   3.116  0.00  0.00     0.130 A 
ATOM      2  C2  DEN d   1      -1.706  -0.914   2.683  0.00  0.00    -0.031 A 
ATOM      3  C3  DEN d   1      -1.822  -0.734   1.222  0.00  0.00     0.027 A 
ATOM      4  C4  DEN d   1      -0.196   0.434  -0.404  0.00  0.00     0.027 A 
ATOM      5  C5  DEN d   1       0.993   1.122  -0.500  0.00  0.00    -0.003 A 
ATOM      6  C6  DEN d   1       1.759   1.414   0.597  0.00  0.00     0.001 A 
ATOM      7  C7  DEN d   1       1.367   0.976   1.834  0.00  0.00     0.017 A 
ATOM      8  C8  DEN d   1       0.165   0.288   1.941  0.00  0.00    -0.094 A 
ATOM      9  C9  DEN d   1      -0.589  -0.007   0.818  0.00  0.00    -0.072 A 
ENDROOT
TORSDOF 0
ENDMDL
