MODEL 1
REMARK minimizedAffinity -6.30199337
REMARK minimizedRMSD -1
REMARK  0 active torsions:
REMARK  status: ('A' for Active; 'I' for Inactive)
ROOT
ATOM      1  C1  DEN d   1       0.861   0.426   0.439  0.00  0.00     0.130 A 
ATOM      2  C2  DEN d   1       1.741   0.540   1.599  0.00  0.00    -0.031 A 
ATOM      3  C3  DEN d   1       0.919   0.378   2.814  0.00  0.00     0.027 A 
ATOM      4  C4  DEN d   1      -1.618  -0.042   3.012  0.00  0.00     0.027 A 
ATOM      5  C5  DEN d   1      -2.788  -0.204   2.303  0.00  0.00    -0.003 A 
ATOM      6  C6  DEN d   1      -2.829  -0.133   0.936  0.00  0.00     0.001 A 
ATOM      7  C7  DEN d   1      -1.670   0.060   0.232  0.00  0.00     0.017 A 
ATOM      8  C8  DEN d   1      -0.488   0.231   0.940  0.00  0.00    -0.094 A 
ATOM      9  C9  DEN d   1      -0.465   0.144   2.321  0.00  0.00    -0.072 A 
ENDROOT
TORSDOF 0
ENDMDL
