MODEL 1
REMARK minimizedAffinity -1.57352555
REMARK minimizedRMSD -1
REMARK  0 active torsions:
REMARK  status: ('A' for Active; 'I' for Inactive)
ROOT
ATOM      1  C1  DEN d   1       0.548   0.825  -0.189  0.00  0.00     0.130 A 
ATOM      2  C2  DEN d   1      -0.311   0.466  -1.314  0.00  0.00    -0.031 A 
ATOM      3  C3  DEN d   1      -1.394  -0.399  -0.804  0.00  0.00     0.027 A 
ATOM      4  C4  DEN d   1      -1.824  -1.210   1.606  0.00  0.00     0.027 A 
ATOM      5  C5  DEN d   1      -1.358  -1.176   2.902  0.00  0.00    -0.003 A 
ATOM      6  C6  DEN d   1      -0.214  -0.506   3.250  0.00  0.00     0.001 A 
ATOM      7  C7  DEN d   1       0.477   0.195   2.298  0.00  0.00     0.017 A 
ATOM      8  C8  DEN d   1       0.018   0.159   0.988  0.00  0.00    -0.094 A 
ATOM      9  C9  DEN d   1      -1.147  -0.514   0.659  0.00  0.00    -0.072 A 
ENDROOT
TORSDOF 0
ENDMDL
