MODEL 1
REMARK minimizedAffinity 3.56700826
REMARK minimizedRMSD -1
REMARK  0 active torsions:
REMARK  status: ('A' for Active; 'I' for Inactive)
ROOT
ATOM      1  C1  DEN d   1      -0.716  -0.303  -0.453  0.00  0.00     0.130 A 
ATOM      2  C2  DEN d   1      -0.255   0.381  -1.658  0.00  0.00    -0.031 A 
ATOM      3  C3  DEN d   1       0.889   1.238  -1.286  0.00  0.00     0.027 A 
ATOM      4  C4  DEN d   1       1.987   1.566   1.024  0.00  0.00     0.027 A 
ATOM      5  C5  DEN d   1       1.936   1.206   2.353  0.00  0.00    -0.003 A 
ATOM      6  C6  DEN d   1       0.984   0.351   2.841  0.00  0.00     0.001 A 
ATOM      7  C7  DEN d   1       0.071  -0.208   1.987  0.00  0.00     0.017 A 
ATOM      8  C8  DEN d   1       0.112   0.156   0.647  0.00  0.00    -0.094 A 
ATOM      9  C9  DEN d   1       1.090   1.012   0.170  0.00  0.00    -0.072 A 
ENDROOT
TORSDOF 0
ENDMDL
