MODEL 1
REMARK minimizedAffinity -6.47177696
REMARK minimizedRMSD -1
REMARK  0 active torsions:
REMARK  status: ('A' for Active; 'I' for Inactive)
ROOT
ATOM      1  C1  DEN d   1       0.991   0.263   1.501  0.00  0.00     0.130 A 
ATOM      2  C2  DEN d   1       0.357  -0.120   2.759  0.00  0.00    -0.031 A 
ATOM      3  C3  DEN d   1      -1.099  -0.211   2.528  0.00  0.00     0.027 A 
ATOM      4  C4  DEN d   1      -2.425   0.196   0.354  0.00  0.00     0.027 A 
ATOM      5  C5  DEN d   1      -2.323   0.553  -0.973  0.00  0.00    -0.003 A 
ATOM      6  C6  DEN d   1      -1.124   0.869  -1.554  0.00  0.00     0.001 A 
ATOM      7  C7  DEN d   1       0.029   0.790  -0.819  0.00  0.00     0.017 A 
ATOM      8  C8  DEN d   1      -0.066   0.438   0.521  0.00  0.00    -0.094 A 
ATOM      9  C9  DEN d   1      -1.287   0.111   1.088  0.00  0.00    -0.072 A 
ENDROOT
TORSDOF 0
ENDMDL
