MODEL 1
REMARK minimizedAffinity -4.93300962
REMARK minimizedRMSD -1
REMARK  0 active torsions:
REMARK  status: ('A' for Active; 'I' for Inactive)
ROOT
ATOM      1  C1  DEN d   1      -1.787  -0.864   1.551  0.00  0.00     0.130 A 
ATOM      2  C2  DEN d   1      -1.250  -0.995   2.903  0.00  0.00    -0.031 A 
ATOM      3  C3  DEN d   1       0.048  -0.293   2.949  0.00  0.00     0.027 A 
ATOM      4  C4  DEN d   1       1.271   0.981   1.070  0.00  0.00     0.027 A 
ATOM      5  C5  DEN d   1       1.213   1.355  -0.255  0.00  0.00    -0.003 A 
ATOM      6  C6  DEN d   1       0.177   0.990  -1.072  0.00  0.00     0.001 A 
ATOM      7  C7  DEN d   1      -0.868   0.266  -0.561  0.00  0.00     0.017 A 
ATOM      8  C8  DEN d   1      -0.813  -0.121   0.771  0.00  0.00    -0.094 A 
ATOM      9  C9  DEN d   1       0.238   0.268   1.584  0.00  0.00    -0.072 A 
ENDROOT
TORSDOF 0
ENDMDL
