MODEL 1
REMARK minimizedAffinity -5.22870827
REMARK minimizedRMSD -1
REMARK  0 active torsions:
REMARK  status: ('A' for Active; 'I' for Inactive)
ROOT
ATOM      1  C1  DEN d   1       0.676   0.011   2.269  0.00  0.00     0.130 A 
ATOM      2  C2  DEN d   1      -0.255  -0.490   3.275  0.00  0.00    -0.031 A 
ATOM      3  C3  DEN d   1      -1.592  -0.582   2.654  0.00  0.00     0.027 A 
ATOM      4  C4  DEN d   1      -2.305  -0.004   0.244  0.00  0.00     0.027 A 
ATOM      5  C5  DEN d   1      -1.867   0.470  -0.973  0.00  0.00    -0.003 A 
ATOM      6  C6  DEN d   1      -0.568   0.853  -1.184  0.00  0.00     0.001 A 
ATOM      7  C7  DEN d   1       0.349   0.726  -0.174  0.00  0.00     0.017 A 
ATOM      8  C8  DEN d   1      -0.087   0.256   1.058  0.00  0.00    -0.094 A 
ATOM      9  C9  DEN d   1      -1.401  -0.137   1.247  0.00  0.00    -0.072 A 
ENDROOT
TORSDOF 0
ENDMDL
