MODEL 1
REMARK minimizedAffinity -5.62509012
REMARK minimizedRMSD -1
REMARK  0 active torsions:
REMARK  status: ('A' for Active; 'I' for Inactive)
ROOT
ATOM      1  C1  DEN d   1      -1.119  -0.961   2.359  0.00  0.00     0.130 A 
ATOM      2  C2  DEN d   1      -0.349  -0.518   3.519  0.00  0.00    -0.031 A 
ATOM      3  C3  DEN d   1       0.677   0.434   3.049  0.00  0.00     0.027 A 
ATOM      4  C4  DEN d   1       1.144   1.264   0.652  0.00  0.00     0.027 A 
ATOM      5  C5  DEN d   1       0.760   1.161  -0.667  0.00  0.00    -0.003 A 
ATOM      6  C6  DEN d   1      -0.247   0.324  -1.070  0.00  0.00     0.001 A 
ATOM      7  C7  DEN d   1      -0.934  -0.409  -0.140  0.00  0.00     0.017 A 
ATOM      8  C8  DEN d   1      -0.548  -0.315   1.191  0.00  0.00    -0.094 A 
ATOM      9  C9  DEN d   1       0.464   0.545   1.581  0.00  0.00    -0.072 A 
ENDROOT
TORSDOF 0
ENDMDL
