MODEL 1
REMARK minimizedAffinity -4.27488518
REMARK minimizedRMSD -1
REMARK  0 active torsions:
REMARK  status: ('A' for Active; 'I' for Inactive)
ROOT
ATOM      1  C1  DEN d   1      -0.747   0.300   2.698  0.00  0.00     0.130 A 
ATOM      2  C2  DEN d   1       0.704   0.420   2.809  0.00  0.00    -0.031 A 
ATOM      3  C3  DEN d   1       1.246   0.662   1.457  0.00  0.00     0.027 A 
ATOM      4  C4  DEN d   1      -0.014   0.867  -0.784  0.00  0.00     0.027 A 
ATOM      5  C5  DEN d   1      -1.254   0.824  -1.383  0.00  0.00    -0.003 A 
ATOM      6  C6  DEN d   1      -2.399   0.573  -0.674  0.00  0.00     0.001 A 
ATOM      7  C7  DEN d   1      -2.332   0.398   0.683  0.00  0.00     0.017 A 
ATOM      8  C8  DEN d   1      -1.085   0.432   1.292  0.00  0.00    -0.094 A 
ATOM      9  C9  DEN d   1       0.059   0.700   0.560  0.00  0.00    -0.072 A 
ENDROOT
TORSDOF 0
ENDMDL
