MODEL 1
REMARK minimizedAffinity -7.2675972
REMARK minimizedRMSD -1
REMARK  0 active torsions:
REMARK  status: ('A' for Active; 'I' for Inactive)
ROOT
ATOM      1  C1  DEN d   1      -2.065   0.699  -0.488  0.00  0.00     0.130 A 
ATOM      2  C2  DEN d   1      -0.800   0.771  -1.214  0.00  0.00    -0.031 A 
ATOM      3  C3  DEN d   1       0.287   0.435  -0.273  0.00  0.00     0.027 A 
ATOM      4  C4  DEN d   1       0.134  -0.193   2.224  0.00  0.00     0.027 A 
ATOM      5  C5  DEN d   1      -0.725  -0.376   3.285  0.00  0.00    -0.003 A 
ATOM      6  C6  DEN d   1      -2.076  -0.182   3.173  0.00  0.00     0.001 A 
ATOM      7  C7  DEN d   1      -2.613   0.163   1.961  0.00  0.00     0.017 A 
ATOM      8  C8  DEN d   1      -1.753   0.356   0.888  0.00  0.00    -0.094 A 
ATOM      9  C9  DEN d   1      -0.391   0.143   1.019  0.00  0.00    -0.072 A 
ENDROOT
TORSDOF 0
ENDMDL
