MODEL 1
REMARK minimizedAffinity -4.76887465
REMARK minimizedRMSD -1
REMARK  0 active torsions:
REMARK  status: ('A' for Active; 'I' for Inactive)
ROOT
ATOM      1  C1  DEN d   1      -0.930   0.615  -0.973  0.00  0.00     0.130 A 
ATOM      2  C2  DEN d   1       0.297   1.297  -1.372  0.00  0.00    -0.031 A 
ATOM      3  C3  DEN d   1       1.174   1.391  -0.188  0.00  0.00     0.027 A 
ATOM      4  C4  DEN d   1       0.754   0.545   2.213  0.00  0.00     0.027 A 
ATOM      5  C5  DEN d   1      -0.150  -0.087   3.038  0.00  0.00    -0.003 A 
ATOM      6  C6  DEN d   1      -1.380  -0.496   2.596  0.00  0.00     0.001 A 
ATOM      7  C7  DEN d   1      -1.724  -0.318   1.282  0.00  0.00     0.017 A 
ATOM      8  C8  DEN d   1      -0.821   0.326   0.446  0.00  0.00    -0.094 A 
ATOM      9  C9  DEN d   1       0.423   0.721   0.908  0.00  0.00    -0.072 A 
ENDROOT
TORSDOF 0
ENDMDL
