MODEL 1
REMARK minimizedAffinity -6.02843714
REMARK minimizedRMSD -1
REMARK  0 active torsions:
REMARK  status: ('A' for Active; 'I' for Inactive)
ROOT
ATOM      1  C1  DEN d   1      -1.631   0.164  -0.303  0.00  0.00     0.130 A 
ATOM      2  C2  DEN d   1      -0.481   0.729  -1.004  0.00  0.00    -0.031 A 
ATOM      3  C3  DEN d   1       0.623   0.866  -0.034  0.00  0.00     0.027 A 
ATOM      4  C4  DEN d   1       0.667   0.256   2.472  0.00  0.00     0.027 A 
ATOM      5  C5  DEN d   1      -0.076  -0.244   3.518  0.00  0.00    -0.003 A 
ATOM      6  C6  DEN d   1      -1.388  -0.608   3.374  0.00  0.00     0.001 A 
ATOM      7  C7  DEN d   1      -1.985  -0.521   2.144  0.00  0.00     0.017 A 
ATOM      8  C8  DEN d   1      -1.245  -0.010   1.086  0.00  0.00    -0.094 A 
ATOM      9  C9  DEN d   1       0.084   0.341   1.249  0.00  0.00    -0.072 A 
ENDROOT
TORSDOF 0
ENDMDL
