MODEL 1
REMARK minimizedAffinity -5.96166372
REMARK minimizedRMSD -1
REMARK  0 active torsions:
REMARK  status: ('A' for Active; 'I' for Inactive)
ROOT
ATOM      1  C1  DEN d   1      -0.733  -0.886   1.901  0.00  0.00     0.130 A 
ATOM      2  C2  DEN d   1      -0.038  -0.746   3.177  0.00  0.00    -0.031 A 
ATOM      3  C3  DEN d   1       1.110   0.161   2.974  0.00  0.00     0.027 A 
ATOM      4  C4  DEN d   1       1.871   1.359   0.820  0.00  0.00     0.027 A 
ATOM      5  C5  DEN d   1       1.602   1.539  -0.519  0.00  0.00    -0.003 A 
ATOM      6  C6  DEN d   1       0.566   0.902  -1.148  0.00  0.00     0.001 A 
ATOM      7  C7  DEN d   1      -0.269   0.089  -0.427  0.00  0.00     0.017 A 
ATOM      8  C8  DEN d   1      -0.000  -0.103   0.922  0.00  0.00    -0.094 A 
ATOM      9  C9  DEN d   1       1.045   0.559   1.542  0.00  0.00    -0.072 A 
ENDROOT
TORSDOF 0
ENDMDL
