MODEL 1
REMARK minimizedAffinity -4.83799744
REMARK minimizedRMSD -1
REMARK  0 active torsions:
REMARK  status: ('A' for Active; 'I' for Inactive)
ROOT
ATOM      1  C1  DEN d   1      -2.466   1.111   1.656  0.00  0.00     0.130 A 
ATOM      2  C2  DEN d   1      -2.552   0.387   2.921  0.00  0.00    -0.031 A 
ATOM      3  C3  DEN d   1      -1.293  -0.362   3.105  0.00  0.00     0.027 A 
ATOM      4  C4  DEN d   1       0.773  -0.466   1.563  0.00  0.00     0.027 A 
ATOM      5  C5  DEN d   1       1.307  -0.029   0.372  0.00  0.00    -0.003 A 
ATOM      6  C6  DEN d   1       0.614   0.786  -0.484  0.00  0.00     0.001 A 
ATOM      7  C7  DEN d   1      -0.637   1.224  -0.140  0.00  0.00     0.017 A 
ATOM      8  C8  DEN d   1      -1.186   0.781   1.057  0.00  0.00    -0.094 A 
ATOM      9  C9  DEN d   1      -0.464  -0.032   1.914  0.00  0.00    -0.072 A 
ENDROOT
TORSDOF 0
ENDMDL
