MODEL 1
REMARK minimizedAffinity 1.69705832
REMARK minimizedRMSD -1
REMARK  0 active torsions:
REMARK  status: ('A' for Active; 'I' for Inactive)
ROOT
ATOM      1  N1  IND d   1       4.067   0.995  -2.120  0.00  0.00    -0.196 N 
ATOM      2  C2  IND d   1       4.408   2.028  -1.292  0.00  0.00     0.054 A 
ATOM      3  C3  IND d   1       3.671   1.985  -0.159  0.00  0.00    -0.031 A 
ATOM      4  C4  IND d   1       1.922   0.251   0.589  0.00  0.00     0.051 A 
ATOM      5  C5  IND d   1       1.246  -0.855   0.154  0.00  0.00    -0.031 A 
ATOM      6  C6  IND d   1       1.483  -1.413  -1.085  0.00  0.00     0.015 A 
ATOM      7  C7  IND d   1       2.416  -0.891  -1.935  0.00  0.00    -0.016 A 
ATOM      8  C8  IND d   1       3.100   0.236  -1.499  0.00  0.00    -0.047 A 
ATOM      9  C9  IND d   1       2.833   0.832  -0.260  0.00  0.00    -0.096 A 
ATOM     10  HN1 IND d   1       4.401   0.845  -2.898  0.00  0.00     0.298 HD
ENDROOT
TORSDOF 0
ENDMDL
