MODEL 1
REMARK minimizedAffinity 8.09973812
REMARK minimizedRMSD -1
REMARK  0 active torsions:
REMARK  status: ('A' for Active; 'I' for Inactive)
ROOT
ATOM      1  N1  IND d   1       2.075   1.909  -0.339  0.00  0.00    -0.196 N 
ATOM      2  C2  IND d   1       2.187   0.598  -0.711  0.00  0.00     0.054 A 
ATOM      3  C3  IND d   1       3.484   0.275  -0.913  0.00  0.00    -0.031 A 
ATOM      4  C4  IND d   1       5.596   1.712  -0.593  0.00  0.00     0.051 A 
ATOM      5  C5  IND d   1       5.999   2.984  -0.300  0.00  0.00    -0.031 A 
ATOM      6  C6  IND d   1       5.096   3.983   0.004  0.00  0.00     0.015 A 
ATOM      7  C7  IND d   1       3.752   3.742   0.037  0.00  0.00    -0.016 A 
ATOM      8  C8  IND d   1       3.339   2.453  -0.267  0.00  0.00    -0.047 A 
ATOM      9  C9  IND d   1       4.247   1.446  -0.618  0.00  0.00    -0.096 A 
ATOM     10  HN1 IND d   1       1.340   2.324  -0.178  0.00  0.00     0.298 HD
ENDROOT
TORSDOF 0
ENDMDL
