MODEL 1
REMARK minimizedAffinity 1.95682061
REMARK minimizedRMSD -1
REMARK  0 active torsions:
REMARK  status: ('A' for Active; 'I' for Inactive)
ROOT
ATOM      1  N1  IND d   1       3.362   2.572  -0.556  0.00  0.00    -0.196 N 
ATOM      2  C2  IND d   1       4.651   2.184  -0.795  0.00  0.00     0.054 A 
ATOM      3  C3  IND d   1       4.726   0.838  -0.901  0.00  0.00    -0.031 A 
ATOM      4  C4  IND d   1       2.843  -0.915  -0.821  0.00  0.00     0.051 A 
ATOM      5  C5  IND d   1       1.502  -1.047  -0.589  0.00  0.00    -0.031 A 
ATOM      6  C6  IND d   1       0.697   0.044  -0.331  0.00  0.00     0.015 A 
ATOM      7  C7  IND d   1       1.202   1.313  -0.308  0.00  0.00    -0.016 A 
ATOM      8  C8  IND d   1       2.564   1.449  -0.536  0.00  0.00    -0.047 A 
ATOM      9  C9  IND d   1       3.394   0.343  -0.756  0.00  0.00    -0.096 A 
ATOM     10  HN1 IND d   1       3.095   3.380  -0.439  0.00  0.00     0.298 HD
ENDROOT
TORSDOF 0
ENDMDL
