MODEL 1
REMARK minimizedAffinity 3.13922739
REMARK minimizedRMSD -1
REMARK  0 active torsions:
REMARK  status: ('A' for Active; 'I' for Inactive)
ROOT
ATOM      1  N1  IND d   1       3.584   0.968  -2.591  0.00  0.00    -0.196 N 
ATOM      2  C2  IND d   1       3.798   1.996  -1.715  0.00  0.00     0.054 A 
ATOM      3  C3  IND d   1       3.289   1.692  -0.500  0.00  0.00    -0.031 A 
ATOM      4  C4  IND d   1       2.156  -0.475   0.304  0.00  0.00     0.051 A 
ATOM      5  C5  IND d   1       1.703  -1.684  -0.144  0.00  0.00    -0.031 A 
ATOM      6  C6  IND d   1       1.860  -2.080  -1.457  0.00  0.00     0.015 A 
ATOM      7  C7  IND d   1       2.488  -1.283  -2.371  0.00  0.00    -0.016 A 
ATOM      8  C8  IND d   1       2.943  -0.051  -1.921  0.00  0.00    -0.047 A 
ATOM      9  C9  IND d   1       2.748   0.374  -0.601  0.00  0.00    -0.096 A 
ATOM     10  HN1 IND d   1       3.811   0.959  -3.420  0.00  0.00     0.298 HD
ENDROOT
TORSDOF 0
ENDMDL
