MODEL 1
REMARK minimizedAffinity 8.29645634
REMARK minimizedRMSD -1
REMARK  0 active torsions:
REMARK  status: ('A' for Active; 'I' for Inactive)
ROOT
ATOM      1  N1  IND d   1       2.774   1.146  -1.934  0.00  0.00    -0.196 N 
ATOM      2  C2  IND d   1       2.221   0.697  -0.767  0.00  0.00     0.054 A 
ATOM      3  C3  IND d   1       2.973   1.082   0.289  0.00  0.00    -0.031 A 
ATOM      4  C4  IND d   1       5.094   2.540   0.341  0.00  0.00     0.051 A 
ATOM      5  C5  IND d   1       5.998   3.156  -0.478  0.00  0.00    -0.031 A 
ATOM      6  C6  IND d   1       5.870   3.135  -1.852  0.00  0.00     0.015 A 
ATOM      7  C7  IND d   1       4.821   2.505  -2.460  0.00  0.00    -0.016 A 
ATOM      8  C8  IND d   1       3.905   1.872  -1.632  0.00  0.00    -0.047 A 
ATOM      9  C9  IND d   1       4.053   1.854  -0.239  0.00  0.00    -0.096 A 
ATOM     10  HN1 IND d   1       2.467   1.000  -2.723  0.00  0.00     0.298 HD
ENDROOT
TORSDOF 0
ENDMDL
