MODEL 1
REMARK minimizedAffinity 4.1768961
REMARK minimizedRMSD -1
REMARK  0 active torsions:
REMARK  status: ('A' for Active; 'I' for Inactive)
ROOT
ATOM      1  N1  IND d   1       2.772  -1.613  -1.378  0.00  0.00    -0.196 N 
ATOM      2  C2  IND d   1       1.651  -1.936  -0.665  0.00  0.00     0.054 A 
ATOM      3  C3  IND d   1       1.151  -0.839  -0.053  0.00  0.00    -0.031 A 
ATOM      4  C4  IND d   1       1.952   1.605  -0.166  0.00  0.00     0.051 A 
ATOM      5  C5  IND d   1       2.958   2.387  -0.661  0.00  0.00    -0.031 A 
ATOM      6  C6  IND d   1       3.972   1.866  -1.438  0.00  0.00     0.015 A 
ATOM      7  C7  IND d   1       4.012   0.539  -1.761  0.00  0.00    -0.016 A 
ATOM      8  C8  IND d   1       2.996  -0.260  -1.254  0.00  0.00    -0.047 A 
ATOM      9  C9  IND d   1       1.988   0.256  -0.429  0.00  0.00    -0.096 A 
ATOM     10  HN1 IND d   1       3.255  -2.163  -1.829  0.00  0.00     0.298 HD
ENDROOT
TORSDOF 0
ENDMDL
