MODEL 1
REMARK minimizedAffinity -5.08639622
REMARK minimizedRMSD -1
REMARK  0 active torsions:
REMARK  status: ('A' for Active; 'I' for Inactive)
ROOT
ATOM      1  C   UNL d   1       2.619  -1.190   0.972  0.00  0.00     0.020 A 
ATOM      2  C1  UNL d   1       3.368  -0.076   0.594  0.00  0.00     0.020 A 
ATOM      3  C2  UNL d   1       2.726   1.070   0.121  0.00  0.00     0.034 A 
ATOM      4  C3  UNL d   1       1.330   1.105   0.024  0.00  0.00     0.017 A 
ATOM      5  C4  UNL d   1       0.579  -0.013   0.404  0.00  0.00     0.017 A 
ATOM      6  C5  UNL d   1       1.227  -1.158   0.877  0.00  0.00     0.034 A 
ATOM      7 Cl   UNL d   1      -1.147  -0.045   0.314  0.00  0.00    -0.070 Cl
ATOM      8 Cl1  UNL d   1       0.602   2.555  -0.569  0.00  0.00    -0.070 Cl
ENDROOT
TORSDOF 0
ENDMDL
