MODEL 1
REMARK minimizedAffinity -2.06412864
REMARK minimizedRMSD -1
REMARK  0 active torsions:
REMARK  status: ('A' for Active; 'I' for Inactive)
ROOT
ATOM      1  C   UNL d   1      -1.085  -0.847  -0.398  0.00  0.00     0.020 A 
ATOM      2  C1  UNL d   1      -1.342   0.523  -0.414  0.00  0.00     0.020 A 
ATOM      3  C2  UNL d   1      -0.365   1.422   0.020  0.00  0.00     0.034 A 
ATOM      4  C3  UNL d   1       0.873   0.952   0.473  0.00  0.00     0.017 A 
ATOM      5  C4  UNL d   1       1.130  -0.424   0.488  0.00  0.00     0.017 A 
ATOM      6  C5  UNL d   1       0.148  -1.319   0.053  0.00  0.00     0.034 A 
ATOM      7 Cl   UNL d   1       2.634  -1.079   1.032  0.00  0.00    -0.070 Cl
ATOM      8 Cl1  UNL d   1       2.034   2.120   0.994  0.00  0.00    -0.070 Cl
ENDROOT
TORSDOF 0
ENDMDL
