MODEL 1
REMARK minimizedAffinity -3.79816031
REMARK minimizedRMSD -1
REMARK  0 active torsions:
REMARK  status: ('A' for Active; 'I' for Inactive)
ROOT
ATOM      1  C   UNL d   1       2.466  -0.101   0.926  0.00  0.00     0.020 A 
ATOM      2  C1  UNL d   1       2.751  -1.194   0.108  0.00  0.00     0.020 A 
ATOM      3  C2  UNL d   1       1.756  -1.731  -0.711  0.00  0.00     0.034 A 
ATOM      4  C3  UNL d   1       0.471  -1.176  -0.714  0.00  0.00     0.017 A 
ATOM      5  C4  UNL d   1       0.186  -0.079   0.108  0.00  0.00     0.017 A 
ATOM      6  C5  UNL d   1       1.186   0.455   0.926  0.00  0.00     0.034 A 
ATOM      7 Cl   UNL d   1      -1.376   0.660   0.159  0.00  0.00    -0.070 Cl
ATOM      8 Cl1  UNL d   1      -0.711  -1.891  -1.752  0.00  0.00    -0.070 Cl
ENDROOT
TORSDOF 0
ENDMDL
