MODEL 1
REMARK minimizedAffinity -5.34637737
REMARK minimizedRMSD -1
REMARK  0 active torsions:
REMARK  status: ('A' for Active; 'I' for Inactive)
ROOT
ATOM      1  C   UNL d   1       3.272  -0.194   0.572  0.00  0.00     0.020 A 
ATOM      2  C1  UNL d   1       2.881   1.132   0.753  0.00  0.00     0.020 A 
ATOM      3  C2  UNL d   1       1.575   1.523   0.449  0.00  0.00     0.034 A 
ATOM      4  C3  UNL d   1       0.656   0.586  -0.038  0.00  0.00     0.017 A 
ATOM      5  C4  UNL d   1       1.049  -0.745  -0.219  0.00  0.00     0.017 A 
ATOM      6  C5  UNL d   1       2.358  -1.130   0.087  0.00  0.00     0.034 A 
ATOM      7 Cl   UNL d   1      -0.029  -1.957  -0.815  0.00  0.00    -0.070 Cl
ATOM      8 Cl1  UNL d   1      -0.942   1.139  -0.392  0.00  0.00    -0.070 Cl
ENDROOT
TORSDOF 0
ENDMDL
