MODEL 1
REMARK minimizedAffinity -0.743037343
REMARK minimizedRMSD -1
REMARK  0 active torsions:
REMARK  status: ('A' for Active; 'I' for Inactive)
ROOT
ATOM      1  C   UNL d   1      -0.474  -0.198  -0.188  0.00  0.00     0.020 A 
ATOM      2  C1  UNL d   1      -0.623   1.187  -0.136  0.00  0.00     0.020 A 
ATOM      3  C2  UNL d   1       0.504   2.008  -0.052  0.00  0.00     0.034 A 
ATOM      4  C3  UNL d   1       1.785   1.443  -0.019  0.00  0.00     0.017 A 
ATOM      5  C4  UNL d   1       1.933   0.053  -0.070  0.00  0.00     0.017 A 
ATOM      6  C5  UNL d   1       0.801  -0.764  -0.155  0.00  0.00     0.034 A 
ATOM      7 Cl   UNL d   1       3.480  -0.717  -0.034  0.00  0.00    -0.070 Cl
ATOM      8 Cl1  UNL d   1       3.134   2.518   0.086  0.00  0.00    -0.070 Cl
ENDROOT
TORSDOF 0
ENDMDL
