MODEL 1
REMARK minimizedAffinity -1.26289773
REMARK minimizedRMSD -1
REMARK  0 active torsions:
REMARK  status: ('A' for Active; 'I' for Inactive)
ROOT
ATOM      1  C   UNL d   1       1.226  -0.447   1.586  0.00  0.00     0.020 A 
ATOM      2  C1  UNL d   1       2.581  -0.586   1.287  0.00  0.00     0.020 A 
ATOM      3  C2  UNL d   1       2.973  -1.165   0.079  0.00  0.00     0.034 A 
ATOM      4  C3  UNL d   1       2.010  -1.606  -0.836  0.00  0.00     0.017 A 
ATOM      5  C4  UNL d   1       0.651  -1.466  -0.535  0.00  0.00     0.017 A 
ATOM      6  C5  UNL d   1       0.263  -0.885   0.677  0.00  0.00     0.034 A 
ATOM      7 Cl   UNL d   1      -0.596  -1.986  -1.614  0.00  0.00    -0.070 Cl
ATOM      8 Cl1  UNL d   1       2.567  -2.312  -2.311  0.00  0.00    -0.070 Cl
ENDROOT
TORSDOF 0
ENDMDL
