MODEL 1
REMARK minimizedAffinity -3.87660575
REMARK minimizedRMSD -1
REMARK  0 active torsions:
REMARK  status: ('A' for Active; 'I' for Inactive)
ROOT
ATOM      1  C   UNL d   1      -0.629   0.192  -0.414  0.00  0.00     0.020 A 
ATOM      2  C1  UNL d   1      -0.439  -1.185  -0.313  0.00  0.00     0.020 A 
ATOM      3  C2  UNL d   1       0.797  -1.691   0.097  0.00  0.00     0.034 A 
ATOM      4  C3  UNL d   1       1.846  -0.819   0.408  0.00  0.00     0.017 A 
ATOM      5  C4  UNL d   1       1.654   0.564   0.306  0.00  0.00     0.017 A 
ATOM      6  C5  UNL d   1       0.415   1.065  -0.105  0.00  0.00     0.034 A 
ATOM      7 Cl   UNL d   1       2.901   1.703   0.673  0.00  0.00    -0.070 Cl
ATOM      8 Cl1  UNL d   1       3.347  -1.513   0.909  0.00  0.00    -0.070 Cl
ENDROOT
TORSDOF 0
ENDMDL
