MODEL 1
REMARK minimizedAffinity -4.47048187
REMARK minimizedRMSD -1
REMARK  0 active torsions:
REMARK  status: ('A' for Active; 'I' for Inactive)
ROOT
ATOM      1  C   UNL d   1       2.433  -1.760   1.024  0.00  0.00     0.020 A 
ATOM      2  C1  UNL d   1       1.255  -2.409   0.655  0.00  0.00     0.020 A 
ATOM      3  C2  UNL d   1       0.150  -1.665   0.236  0.00  0.00     0.034 A 
ATOM      4  C3  UNL d   1       0.220  -0.268   0.184  0.00  0.00     0.017 A 
ATOM      5  C4  UNL d   1       1.402   0.382   0.555  0.00  0.00     0.017 A 
ATOM      6  C5  UNL d   1       2.506  -0.367   0.974  0.00  0.00     0.034 A 
ATOM      7 Cl   UNL d   1       1.565   2.103   0.517  0.00  0.00    -0.070 Cl
ATOM      8 Cl1  UNL d   1      -1.185   0.588  -0.344  0.00  0.00    -0.070 Cl
ENDROOT
TORSDOF 0
ENDMDL
