MODEL 1
REMARK minimizedAffinity 3.07207394
REMARK minimizedRMSD -1
REMARK  0 active torsions:
REMARK  status: ('A' for Active; 'I' for Inactive)
ROOT
ATOM      1  C   UNL d   1      -5.221   0.743   0.669  0.00  0.00     0.172 C 
ATOM      2  N   UNL d   1      -4.194   1.488   1.359  0.00  0.00    -0.070 N 
ATOM      3  C1  UNL d   1      -4.365   2.696   1.980  0.00  0.00    -0.004 A 
ATOM      4  C2  UNL d   1      -3.152   3.071   2.517  0.00  0.00    -0.047 A 
ATOM      5  C3  UNL d   1      -2.220   2.052   2.206  0.00  0.00    -0.047 A 
ATOM      6  C4  UNL d   1      -2.892   1.085   1.489  0.00  0.00    -0.004 A 
ENDROOT
TORSDOF 0
ENDMDL
