MODEL 1
REMARK minimizedAffinity -0.567988575
REMARK minimizedRMSD -1
REMARK  0 active torsions:
REMARK  status: ('A' for Active; 'I' for Inactive)
ROOT
ATOM      1  C   UNL d   1      -1.281   1.617  -0.021  0.00  0.00     0.172 C 
ATOM      2  N   UNL d   1      -2.654   1.278   0.270  0.00  0.00    -0.070 N 
ATOM      3  C1  UNL d   1      -3.488   0.555  -0.540  0.00  0.00    -0.004 A 
ATOM      4  C2  UNL d   1      -4.707   0.450   0.093  0.00  0.00    -0.047 A 
ATOM      5  C3  UNL d   1      -4.603   1.136   1.327  0.00  0.00    -0.047 A 
ATOM      6  C4  UNL d   1      -3.322   1.638   1.411  0.00  0.00    -0.004 A 
ENDROOT
TORSDOF 0
ENDMDL
