MODEL 1
REMARK minimizedAffinity 3.19818044
REMARK minimizedRMSD -1
REMARK  0 active torsions:
REMARK  status: ('A' for Active; 'I' for Inactive)
ROOT
ATOM      1  C   UNL d   1      -4.934  -0.321  -5.425  0.00  0.00     0.172 C 
ATOM      2  N   UNL d   1      -4.803   0.928  -4.711  0.00  0.00    -0.070 N 
ATOM      3  C1  UNL d   1      -4.572   2.152  -5.279  0.00  0.00    -0.004 A 
ATOM      4  C2  UNL d   1      -4.514   3.084  -4.265  0.00  0.00    -0.047 A 
ATOM      5  C3  UNL d   1      -4.717   2.395  -3.045  0.00  0.00    -0.047 A 
ATOM      6  C4  UNL d   1      -4.893   1.062  -3.350  0.00  0.00    -0.004 A 
ENDROOT
TORSDOF 0
ENDMDL
