MODEL 1
REMARK minimizedAffinity -0.0448787622
REMARK minimizedRMSD -1
REMARK  0 active torsions:
REMARK  status: ('A' for Active; 'I' for Inactive)
ROOT
ATOM      1  C   UNL d   1      -5.214   0.369  -0.941  0.00  0.00     0.172 C 
ATOM      2  N   UNL d   1      -5.145   0.643  -2.358  0.00  0.00    -0.070 N 
ATOM      3  C1  UNL d   1      -5.585   1.786  -2.972  0.00  0.00    -0.004 A 
ATOM      4  C2  UNL d   1      -5.341   1.659  -4.322  0.00  0.00    -0.047 A 
ATOM      5  C3  UNL d   1      -4.734   0.397  -4.527  0.00  0.00    -0.047 A 
ATOM      6  C4  UNL d   1      -4.626  -0.211  -3.294  0.00  0.00    -0.004 A 
ENDROOT
TORSDOF 0
ENDMDL
