MODEL 1
REMARK minimizedAffinity -2.68683505
REMARK minimizedRMSD -1
REMARK  0 active torsions:
REMARK  status: ('A' for Active; 'I' for Inactive)
ROOT
ATOM      1  C   UNL d   1       3.824   1.498   1.528  0.00  0.00     0.077 C 
ATOM      2  C1  UNL d   1       2.344   1.709   1.398  0.00  0.00    -0.074 A 
ATOM      3  C2  UNL d   1       1.612   1.065   0.396  0.00  0.00    -0.005 A 
ATOM      4  C3  UNL d   1       0.235   1.263   0.293  0.00  0.00     0.006 A 
ATOM      5  C4  UNL d   1      -0.422   2.106   1.191  0.00  0.00    -0.005 A 
ATOM      6  C5  UNL d   1       0.294   2.758   2.200  0.00  0.00    -0.074 A 
ATOM      7  C6  UNL d   1      -0.399   3.659   3.178  0.00  0.00     0.077 C 
ATOM      8  C7  UNL d   1       1.676   2.548   2.300  0.00  0.00    -0.001 A 
ENDROOT
TORSDOF 0
ENDMDL
