MODEL 1
REMARK minimizedAffinity 2.98337197
REMARK minimizedRMSD -1
REMARK  0 active torsions:
REMARK  status: ('A' for Active; 'I' for Inactive)
ROOT
ATOM      1  C   UNL d   1      -3.770   2.213  -0.492  0.00  0.00     0.077 C 
ATOM      2  C1  UNL d   1      -2.584   1.511   0.100  0.00  0.00    -0.074 A 
ATOM      3  C2  UNL d   1      -2.746   0.372   0.895  0.00  0.00    -0.005 A 
ATOM      4  C3  UNL d   1      -1.634  -0.276   1.431  0.00  0.00     0.006 A 
ATOM      5  C4  UNL d   1      -0.350   0.209   1.179  0.00  0.00    -0.005 A 
ATOM      6  C5  UNL d   1      -0.168   1.346   0.386  0.00  0.00    -0.074 A 
ATOM      7  C6  UNL d   1       1.206   1.874   0.097  0.00  0.00     0.077 C 
ATOM      8  C7  UNL d   1      -1.291   1.987  -0.155  0.00  0.00    -0.001 A 
ENDROOT
TORSDOF 0
ENDMDL
