MODEL 1
REMARK minimizedAffinity 8.60661888
REMARK minimizedRMSD -1
REMARK  0 active torsions:
REMARK  status: ('A' for Active; 'I' for Inactive)
ROOT
ATOM      1  C   UNL d   1      -0.385   1.706   2.457  0.00  0.00     0.077 C 
ATOM      2  C1  UNL d   1       1.017   1.771   1.927  0.00  0.00    -0.074 A 
ATOM      3  C2  UNL d   1       1.507   0.781   1.069  0.00  0.00    -0.005 A 
ATOM      4  C3  UNL d   1       2.809   0.860   0.576  0.00  0.00     0.006 A 
ATOM      5  C4  UNL d   1       3.633   1.928   0.936  0.00  0.00    -0.005 A 
ATOM      6  C5  UNL d   1       3.160   2.927   1.792  0.00  0.00    -0.074 A 
ATOM      7  C6  UNL d   1       4.029   4.086   2.180  0.00  0.00     0.077 C 
ATOM      8  C7  UNL d   1       1.848   2.845   2.277  0.00  0.00    -0.001 A 
ENDROOT
TORSDOF 0
ENDMDL
