MODEL 1
REMARK minimizedAffinity 5.85632086
REMARK minimizedRMSD -1
REMARK  0 active torsions:
REMARK  status: ('A' for Active; 'I' for Inactive)
ROOT
ATOM      1  C   UNL d   1       2.669   3.125   2.695  0.00  0.00     0.077 C 
ATOM      2  C1  UNL d   1       1.201   2.929   2.457  0.00  0.00    -0.074 A 
ATOM      3  C2  UNL d   1       0.331   2.657   3.518  0.00  0.00    -0.005 A 
ATOM      4  C3  UNL d   1      -1.033   2.487   3.282  0.00  0.00     0.006 A 
ATOM      5  C4  UNL d   1      -1.540   2.586   1.986  0.00  0.00    -0.005 A 
ATOM      6  C5  UNL d   1      -0.686   2.858   0.913  0.00  0.00    -0.074 A 
ATOM      7  C6  UNL d   1      -1.216   2.977  -0.485  0.00  0.00     0.077 C 
ATOM      8  C7  UNL d   1       0.683   3.035   1.159  0.00  0.00    -0.001 A 
ENDROOT
TORSDOF 0
ENDMDL
