MODEL 1
REMARK minimizedAffinity 3.05061555
REMARK minimizedRMSD -1
REMARK  0 active torsions:
REMARK  status: ('A' for Active; 'I' for Inactive)
ROOT
ATOM      1  C   UNL d   1       3.298   0.346   0.738  0.00  0.00     0.077 C 
ATOM      2  C1  UNL d   1       2.057   1.081   1.148  0.00  0.00    -0.074 A 
ATOM      3  C2  UNL d   1       1.949   1.657   2.418  0.00  0.00    -0.005 A 
ATOM      4  C3  UNL d   1       0.792   2.346   2.782  0.00  0.00     0.006 A 
ATOM      5  C4  UNL d   1      -0.267   2.465   1.882  0.00  0.00    -0.005 A 
ATOM      6  C5  UNL d   1      -0.177   1.896   0.608  0.00  0.00    -0.074 A 
ATOM      7  C6  UNL d   1      -1.303   2.024  -0.376  0.00  0.00     0.077 C 
ATOM      8  C7  UNL d   1       0.991   1.212   0.247  0.00  0.00    -0.001 A 
ENDROOT
TORSDOF 0
ENDMDL
