MODEL 1
REMARK minimizedAffinity -1.56528449
REMARK minimizedRMSD -1
REMARK  0 active torsions:
REMARK  status: ('A' for Active; 'I' for Inactive)
ROOT
ATOM      1  C   UNL d   1       0.832   0.989  -0.120  0.00  0.00     0.077 C 
ATOM      2  C1  UNL d   1       0.814   1.760   1.166  0.00  0.00    -0.074 A 
ATOM      3  C2  UNL d   1       2.006   2.138   1.794  0.00  0.00    -0.005 A 
ATOM      4  C3  UNL d   1       1.974   2.863   2.985  0.00  0.00     0.006 A 
ATOM      5  C4  UNL d   1       0.753   3.216   3.560  0.00  0.00    -0.005 A 
ATOM      6  C5  UNL d   1      -0.449   2.847   2.947  0.00  0.00    -0.074 A 
ATOM      7  C6  UNL d   1      -1.770   3.227   3.547  0.00  0.00     0.077 C 
ATOM      8  C7  UNL d   1      -0.409   2.125   1.746  0.00  0.00    -0.001 A 
ENDROOT
TORSDOF 0
ENDMDL
