MODEL 1
REMARK minimizedAffinity 4.64281797
REMARK minimizedRMSD -1
REMARK  0 active torsions:
REMARK  status: ('A' for Active; 'I' for Inactive)
ROOT
ATOM      1  C   UNL d   1      -1.547   3.147   3.723  0.00  0.00     0.077 C 
ATOM      2  C1  UNL d   1      -0.555   2.473   2.822  0.00  0.00    -0.074 A 
ATOM      3  C2  UNL d   1      -0.973   1.577   1.833  0.00  0.00    -0.005 A 
ATOM      4  C3  UNL d   1      -0.040   0.966   0.997  0.00  0.00     0.006 A 
ATOM      5  C4  UNL d   1       1.320   1.244   1.141  0.00  0.00    -0.005 A 
ATOM      6  C5  UNL d   1       1.758   2.137   2.124  0.00  0.00    -0.074 A 
ATOM      7  C6  UNL d   1       3.215   2.454   2.285  0.00  0.00     0.077 C 
ATOM      8  C7  UNL d   1       0.813   2.753   2.956  0.00  0.00    -0.001 A 
ENDROOT
TORSDOF 0
ENDMDL
