MODEL 1
REMARK minimizedAffinity 6.1757822
REMARK minimizedRMSD -1
REMARK  0 active torsions:
REMARK  status: ('A' for Active; 'I' for Inactive)
ROOT
ATOM      1  C   UNL d   1      -1.967   0.822   0.221  0.00  0.00     0.077 C 
ATOM      2  C1  UNL d   1      -0.615   1.188   0.757  0.00  0.00    -0.074 A 
ATOM      3  C2  UNL d   1      -0.476   2.158   1.755  0.00  0.00    -0.005 A 
ATOM      4  C3  UNL d   1       0.787   2.481   2.250  0.00  0.00     0.006 A 
ATOM      5  C4  UNL d   1       1.922   1.839   1.754  0.00  0.00    -0.005 A 
ATOM      6  C5  UNL d   1       1.803   0.865   0.757  0.00  0.00    -0.074 A 
ATOM      7  C6  UNL d   1       3.011   0.158   0.220  0.00  0.00     0.077 C 
ATOM      8  C7  UNL d   1       0.529   0.541   0.269  0.00  0.00    -0.001 A 
ENDROOT
TORSDOF 0
ENDMDL
