MODEL 1
REMARK minimizedAffinity 4.6617589
REMARK minimizedRMSD -1
REMARK  0 active torsions:
REMARK  status: ('A' for Active; 'I' for Inactive)
ROOT
ATOM      1  C   UNL d   1       2.429   5.967   0.535  0.00  0.00     0.077 C 
ATOM      2  C1  UNL d   1       3.539   5.969   1.543  0.00  0.00    -0.074 A 
ATOM      3  C2  UNL d   1       4.877   5.976   1.139  0.00  0.00    -0.005 A 
ATOM      4  C3  UNL d   1       5.899   5.987   2.088  0.00  0.00     0.006 A 
ATOM      5  C4  UNL d   1       5.593   5.991   3.450  0.00  0.00    -0.005 A 
ATOM      6  C5  UNL d   1       4.260   5.985   3.873  0.00  0.00    -0.074 A 
ATOM      7  C6  UNL d   1       3.914   5.999   5.332  0.00  0.00     0.077 C 
ATOM      8  C7  UNL d   1       3.239   5.981   2.913  0.00  0.00    -0.001 A 
ENDROOT
TORSDOF 0
ENDMDL
