MODEL 1
REMARK minimizedAffinity 6.17554808
REMARK minimizedRMSD -1
REMARK  0 active torsions:
REMARK  status: ('A' for Active; 'I' for Inactive)
ROOT
ATOM      1  C   UNL d   1       3.349   1.882   1.503  0.00  0.00     0.077 C 
ATOM      2  C1  UNL d   1       1.866   1.678   1.423  0.00  0.00    -0.074 A 
ATOM      3  C2  UNL d   1       1.310   0.807   0.480  0.00  0.00    -0.005 A 
ATOM      4  C3  UNL d   1      -0.071   0.620   0.424  0.00  0.00     0.006 A 
ATOM      5  C4  UNL d   1      -0.909   1.301   1.308  0.00  0.00    -0.005 A 
ATOM      6  C5  UNL d   1      -0.371   2.175   2.258  0.00  0.00    -0.074 A 
ATOM      7  C6  UNL d   1      -1.257   2.907   3.222  0.00  0.00     0.077 C 
ATOM      8  C7  UNL d   1       1.018   2.352   2.313  0.00  0.00    -0.001 A 
ENDROOT
TORSDOF 0
ENDMDL
