MODEL 1
REMARK minimizedAffinity 7.54098034
REMARK minimizedRMSD -1
REMARK  0 active torsions:
REMARK  status: ('A' for Active; 'I' for Inactive)
ROOT
ATOM      1  C   UNL d   1       1.701   0.742  -0.245  0.00  0.00     0.077 C 
ATOM      2  C1  UNL d   1       0.887   1.509   0.755  0.00  0.00    -0.074 A 
ATOM      3  C2  UNL d   1      -0.509   1.430   0.756  0.00  0.00    -0.005 A 
ATOM      4  C3  UNL d   1      -1.253   2.141   1.698  0.00  0.00     0.006 A 
ATOM      5  C4  UNL d   1      -0.609   2.937   2.646  0.00  0.00    -0.005 A 
ATOM      6  C5  UNL d   1       0.787   3.028   2.660  0.00  0.00    -0.074 A 
ATOM      7  C6  UNL d   1       1.495   3.871   3.678  0.00  0.00     0.077 C 
ATOM      8  C7  UNL d   1       1.527   2.305   1.715  0.00  0.00    -0.001 A 
ENDROOT
TORSDOF 0
ENDMDL
