MODEL 1
REMARK minimizedAffinity 4.39855385
REMARK minimizedRMSD -1
REMARK  0 active torsions:
REMARK  status: ('A' for Active; 'I' for Inactive)
ROOT
ATOM      1  C   UNL d   1      -1.455   2.641   2.720  0.00  0.00     0.077 C 
ATOM      2  C1  UNL d   1      -0.068   2.362   2.222  0.00  0.00    -0.074 A 
ATOM      3  C2  UNL d   1       1.050   2.887   2.879  0.00  0.00    -0.005 A 
ATOM      4  C3  UNL d   1       2.334   2.611   2.410  0.00  0.00     0.006 A 
ATOM      5  C4  UNL d   1       2.513   1.810   1.282  0.00  0.00    -0.005 A 
ATOM      6  C5  UNL d   1       1.407   1.276   0.613  0.00  0.00    -0.074 A 
ATOM      7  C6  UNL d   1       1.583   0.405  -0.596  0.00  0.00     0.077 C 
ATOM      8  C7  UNL d   1       0.120   1.552   1.094  0.00  0.00    -0.001 A 
ENDROOT
TORSDOF 0
ENDMDL
