MODEL 1
REMARK minimizedAffinity 0.573801816
REMARK minimizedRMSD -1
REMARK  0 active torsions:
REMARK  status: ('A' for Active; 'I' for Inactive)
ROOT
ATOM      1  C   UNL d   1      -3.627   1.803  -4.721  0.00  0.00     0.077 C 
ATOM      2  C1  UNL d   1      -4.119   1.660  -3.311  0.00  0.00    -0.074 A 
ATOM      3  C2  UNL d   1      -5.116   2.503  -2.809  0.00  0.00    -0.005 A 
ATOM      4  C3  UNL d   1      -5.570   2.351  -1.499  0.00  0.00     0.006 A 
ATOM      5  C4  UNL d   1      -5.033   1.358  -0.679  0.00  0.00    -0.005 A 
ATOM      6  C5  UNL d   1      -4.037   0.505  -1.165  0.00  0.00    -0.074 A 
ATOM      7  C6  UNL d   1      -3.456  -0.575  -0.300  0.00  0.00     0.077 C 
ATOM      8  C7  UNL d   1      -3.591   0.659  -2.484  0.00  0.00    -0.001 A 
ENDROOT
TORSDOF 0
ENDMDL
