MODEL 1
REMARK minimizedAffinity -1.62714565
REMARK minimizedRMSD -1
REMARK  0 active torsions:
REMARK  status: ('A' for Active; 'I' for Inactive)
ROOT
ATOM      1  C   UNL d   1      -1.341   2.844   3.518  0.00  0.00     0.077 C 
ATOM      2  C1  UNL d   1      -0.472   2.286   2.430  0.00  0.00    -0.074 A 
ATOM      3  C2  UNL d   1      -1.033   1.654   1.316  0.00  0.00    -0.005 A 
ATOM      4  C3  UNL d   1      -0.212   1.149   0.307  0.00  0.00     0.006 A 
ATOM      5  C4  UNL d   1       1.175   1.270   0.403  0.00  0.00    -0.005 A 
ATOM      6  C5  UNL d   1       1.753   1.900   1.510  0.00  0.00    -0.074 A 
ATOM      7  C6  UNL d   1       3.241   2.047   1.623  0.00  0.00     0.077 C 
ATOM      8  C7  UNL d   1       0.922   2.411   2.515  0.00  0.00    -0.001 A 
ENDROOT
TORSDOF 0
ENDMDL
