MODEL 1
REMARK minimizedAffinity 0.533331513
REMARK minimizedRMSD -1
REMARK  0 active torsions:
REMARK  status: ('A' for Active; 'I' for Inactive)
ROOT
ATOM      1  C   UNL d   1       1.171   0.557   0.078  0.00  0.00     0.077 C 
ATOM      2  C1  UNL d   1       0.781   1.561   1.122  0.00  0.00    -0.074 A 
ATOM      3  C2  UNL d   1      -0.547   1.682   1.542  0.00  0.00    -0.005 A 
ATOM      4  C3  UNL d   1      -0.893   2.614   2.521  0.00  0.00     0.006 A 
ATOM      5  C4  UNL d   1       0.084   3.433   3.088  0.00  0.00    -0.005 A 
ATOM      6  C5  UNL d   1       1.418   3.326   2.680  0.00  0.00    -0.074 A 
ATOM      7  C6  UNL d   1       2.482   4.192   3.287  0.00  0.00     0.077 C 
ATOM      8  C7  UNL d   1       1.759   2.382   1.702  0.00  0.00    -0.001 A 
ENDROOT
TORSDOF 0
ENDMDL
