MODEL 1
REMARK minimizedAffinity 7.50791025
REMARK minimizedRMSD -1
REMARK  0 active torsions:
REMARK  status: ('A' for Active; 'I' for Inactive)
ROOT
ATOM      1  C   UNL d   1      -1.655   0.864   0.277  0.00  0.00     0.077 C 
ATOM      2  C1  UNL d   1      -0.621   1.482   1.170  0.00  0.00    -0.074 A 
ATOM      3  C2  UNL d   1      -0.992   2.318   2.228  0.00  0.00    -0.005 A 
ATOM      4  C3  UNL d   1      -0.019   2.878   3.057  0.00  0.00     0.006 A 
ATOM      5  C4  UNL d   1       1.332   2.607   2.837  0.00  0.00    -0.005 A 
ATOM      6  C5  UNL d   1       1.722   1.772   1.785  0.00  0.00    -0.074 A 
ATOM      7  C6  UNL d   1       3.169   1.463   1.541  0.00  0.00     0.077 C 
ATOM      8  C7  UNL d   1       0.738   1.208   0.961  0.00  0.00    -0.001 A 
ENDROOT
TORSDOF 0
ENDMDL
