MODEL 1
REMARK minimizedAffinity 15.0827332
REMARK minimizedRMSD -1
REMARK  0 active torsions:
REMARK  status: ('A' for Active; 'I' for Inactive)
ROOT
ATOM      1  C   UNL d   1      -4.258  -4.754  -5.854  0.00  0.00     0.020 A 
ATOM      2  C1  UNL d   1      -3.641  -5.956  -5.509  0.00  0.00     0.020 A 
ATOM      3  C2  UNL d   1      -2.260  -6.000  -5.308  0.00  0.00     0.034 A 
ATOM      4  C3  UNL d   1      -1.491  -4.839  -5.452  0.00  0.00     0.017 A 
ATOM      5  C4  UNL d   1      -2.111  -3.633  -5.798  0.00  0.00     0.017 A 
ATOM      6  C5  UNL d   1      -3.494  -3.595  -5.999  0.00  0.00     0.034 A 
ATOM      7 Cl   UNL d   1      -1.228  -2.160  -5.994  0.00  0.00    -0.070 Cl
ATOM      8 Cl1  UNL d   1       0.212  -4.966  -5.187  0.00  0.00    -0.070 Cl
ENDROOT
TORSDOF 0
ENDMDL
