MODEL 1
REMARK minimizedAffinity 4.00536728
REMARK minimizedRMSD -1
REMARK  0 active torsions:
REMARK  status: ('A' for Active; 'I' for Inactive)
ROOT
ATOM      1  C   UNL d   1       6.000  -3.898  -3.747  0.00  0.00     0.020 A 
ATOM      2  C1  UNL d   1       5.849  -2.805  -4.600  0.00  0.00     0.020 A 
ATOM      3  C2  UNL d   1       4.818  -1.888  -4.385  0.00  0.00     0.034 A 
ATOM      4  C3  UNL d   1       3.934  -2.062  -3.314  0.00  0.00     0.017 A 
ATOM      5  C4  UNL d   1       4.086  -3.159  -2.458  0.00  0.00     0.017 A 
ATOM      6  C5  UNL d   1       5.120  -4.074  -2.678  0.00  0.00     0.034 A 
ATOM      7 Cl   UNL d   1       3.035  -3.440  -1.116  0.00  0.00    -0.070 Cl
ATOM      8 Cl1  UNL d   1       2.682  -0.889  -3.107  0.00  0.00    -0.070 Cl
ENDROOT
TORSDOF 0
ENDMDL
