MODEL 1
REMARK minimizedAffinity 10.5752287
REMARK minimizedRMSD -1
REMARK  0 active torsions:
REMARK  status: ('A' for Active; 'I' for Inactive)
ROOT
ATOM      1  C   UNL d   1       2.417  -2.180   0.258  0.00  0.00     0.020 A 
ATOM      2  C1  UNL d   1       1.829  -1.234  -0.582  0.00  0.00     0.020 A 
ATOM      3  C2  UNL d   1       0.924  -1.639  -1.564  0.00  0.00     0.034 A 
ATOM      4  C3  UNL d   1       0.602  -2.993  -1.710  0.00  0.00     0.017 A 
ATOM      5  C4  UNL d   1       1.192  -3.942  -0.867  0.00  0.00     0.017 A 
ATOM      6  C5  UNL d   1       2.099  -3.531   0.115  0.00  0.00     0.034 A 
ATOM      7 Cl   UNL d   1       0.846  -5.631  -0.987  0.00  0.00    -0.070 Cl
ATOM      8 Cl1  UNL d   1      -0.526  -3.423  -2.946  0.00  0.00    -0.070 Cl
ENDROOT
TORSDOF 0
ENDMDL
