MODEL 1
REMARK minimizedAffinity 12.3686781
REMARK minimizedRMSD -1
REMARK  0 active torsions:
REMARK  status: ('A' for Active; 'I' for Inactive)
ROOT
ATOM      1  C   UNL d   1       1.036   4.767  -1.849  0.00  0.00     0.020 A 
ATOM      2  C1  UNL d   1       1.601   3.950  -0.872  0.00  0.00     0.020 A 
ATOM      3  C2  UNL d   1       0.788   3.109  -0.109  0.00  0.00     0.034 A 
ATOM      4  C3  UNL d   1      -0.595   3.083  -0.323  0.00  0.00     0.017 A 
ATOM      5  C4  UNL d   1      -1.162   3.904  -1.305  0.00  0.00     0.017 A 
ATOM      6  C5  UNL d   1      -0.343   4.744  -2.065  0.00  0.00     0.034 A 
ATOM      7 Cl   UNL d   1      -2.860   3.928  -1.626  0.00  0.00    -0.070 Cl
ATOM      8 Cl1  UNL d   1      -1.540   2.019   0.656  0.00  0.00    -0.070 Cl
ENDROOT
TORSDOF 0
ENDMDL
