MODEL 1
REMARK minimizedAffinity 5.78162336
REMARK minimizedRMSD -1
REMARK  0 active torsions:
REMARK  status: ('A' for Active; 'I' for Inactive)
ROOT
ATOM      1  C   UNL d   1      -1.427   2.566  -1.266  0.00  0.00     0.020 A 
ATOM      2  C1  UNL d   1      -0.866   3.401  -2.232  0.00  0.00     0.020 A 
ATOM      3  C2  UNL d   1       0.327   4.075  -1.963  0.00  0.00     0.034 A 
ATOM      4  C3  UNL d   1       0.964   3.914  -0.727  0.00  0.00     0.017 A 
ATOM      5  C4  UNL d   1       0.400   3.075   0.241  0.00  0.00     0.017 A 
ATOM      6  C5  UNL d   1      -0.795   2.403  -0.033  0.00  0.00     0.034 A 
ATOM      7 Cl   UNL d   1       1.127   2.827   1.789  0.00  0.00    -0.070 Cl
ATOM      8 Cl1  UNL d   1       2.437   4.778  -0.464  0.00  0.00    -0.070 Cl
ENDROOT
TORSDOF 0
ENDMDL
