MODEL 1
REMARK minimizedAffinity 2.3755734
REMARK minimizedRMSD -1
REMARK  0 active torsions:
REMARK  status: ('A' for Active; 'I' for Inactive)
ROOT
ATOM      1  C   UNL d   1      -0.612   3.172   0.967  0.00  0.00     0.020 A 
ATOM      2  C1  UNL d   1      -0.278   2.928  -0.365  0.00  0.00     0.020 A 
ATOM      3  C2  UNL d   1      -0.927   3.624  -1.386  0.00  0.00     0.034 A 
ATOM      4  C3  UNL d   1      -1.913   4.568  -1.078  0.00  0.00     0.017 A 
ATOM      5  C4  UNL d   1      -2.248   4.812   0.259  0.00  0.00     0.017 A 
ATOM      6  C5  UNL d   1      -1.595   4.112   1.278  0.00  0.00     0.034 A 
ATOM      7 Cl   UNL d   1      -3.455   5.961   0.717  0.00  0.00    -0.070 Cl
ATOM      8 Cl1  UNL d   1      -2.675   5.392  -2.392  0.00  0.00    -0.070 Cl
ENDROOT
TORSDOF 0
ENDMDL
