MODEL 1
REMARK minimizedAffinity 4.35569668
REMARK minimizedRMSD -1
REMARK  3 active torsions:
REMARK  status: ('A' for Active; 'I' for Inactive)
REMARK    1  A    between atoms: C3'_2  and  C2'_3 
REMARK    2  A    between atoms: C2'_3  and  C1'_4 
REMARK    3  A    between atoms: C1'_4  and  C1_5 
ROOT
ATOM      1  C1  N4B d   1       4.961  -4.864   3.360  0.00  0.00    -0.075 A 
ATOM      2  C2  N4B d   1       4.757  -5.997   4.177  0.00  0.00     0.002 A 
ATOM      3  C3  N4B d   1       5.160  -5.979   5.490  0.00  0.00     0.002 A 
ATOM      4  C4  N4B d   1       5.783  -4.850   6.000  0.00  0.00    -0.004 A 
ATOM      5  C5  N4B d   1       5.953  -3.750   5.211  0.00  0.00     0.002 A 
ATOM      6  C6  N4B d   1       5.549  -3.753   3.891  0.00  0.00     0.002 A 
ENDROOT
BRANCH   1   7
ATOM      7  C1' N4B d   1       4.615  -4.868   1.896  0.00  0.00     0.057 C 
BRANCH   7   8
ATOM      8  C2' N4B d   1       3.331  -4.070   1.682  0.00  0.00     0.009 C 
BRANCH   8   9
ATOM      9  C3' N4B d   1       3.299  -3.400   0.320  0.00  0.00     0.004 C 
ATOM     10  C4' N4B d   1       2.461  -2.156   0.304  0.00  0.00     0.003 C 
ENDBRANCH   8   9
ENDBRANCH   7   8
ENDBRANCH   1   7
TORSDOF 3
ENDMDL
