MODEL 1
REMARK minimizedAffinity 13.166872
REMARK minimizedRMSD -1
REMARK  3 active torsions:
REMARK  status: ('A' for Active; 'I' for Inactive)
REMARK    1  A    between atoms: C3'_2  and  C2'_3 
REMARK    2  A    between atoms: C2'_3  and  C1'_4 
REMARK    3  A    between atoms: C1'_4  and  C1_5 
ROOT
ATOM      1  C1  N4B d   1      -2.734   0.712  -2.214  0.00  0.00    -0.075 A 
ATOM      2  C2  N4B d   1      -1.929   1.815  -1.856  0.00  0.00     0.002 A 
ATOM      3  C3  N4B d   1      -1.929   2.946  -2.635  0.00  0.00     0.002 A 
ATOM      4  C4  N4B d   1      -2.709   2.990  -3.781  0.00  0.00    -0.004 A 
ATOM      5  C5  N4B d   1      -3.504   1.930  -4.105  0.00  0.00     0.002 A 
ATOM      6  C6  N4B d   1      -3.516   0.788  -3.330  0.00  0.00     0.002 A 
ENDROOT
BRANCH   1   7
ATOM      7  C1' N4B d   1      -2.702  -0.579  -1.442  0.00  0.00     0.057 C 
BRANCH   7   8
ATOM      8  C2' N4B d   1      -1.264  -0.881  -1.031  0.00  0.00     0.009 C 
BRANCH   8   9
ATOM      9  C3' N4B d   1      -1.152  -1.204   0.449  0.00  0.00     0.004 C 
ATOM     10  C4' N4B d   1       0.267  -1.221   0.934  0.00  0.00     0.003 C 
ENDBRANCH   8   9
ENDBRANCH   7   8
ENDBRANCH   1   7
TORSDOF 3
ENDMDL
