MODEL 1
REMARK minimizedAffinity 5.15454435
REMARK minimizedRMSD -1
REMARK  3 active torsions:
REMARK  status: ('A' for Active; 'I' for Inactive)
REMARK    1  A    between atoms: C3'_2  and  C2'_3 
REMARK    2  A    between atoms: C2'_3  and  C1'_4 
REMARK    3  A    between atoms: C1'_4  and  C1_5 
ROOT
ATOM      1  C1  N4B d   1       0.713  -0.093   2.990  0.00  0.00    -0.075 A 
ATOM      2  C2  N4B d   1       1.858   0.732   2.951  0.00  0.00     0.002 A 
ATOM      3  C3  N4B d   1       1.766   2.052   3.316  0.00  0.00     0.002 A 
ATOM      4  C4  N4B d   1       0.540   2.573   3.704  0.00  0.00    -0.004 A 
ATOM      5  C5  N4B d   1      -0.556   1.763   3.764  0.00  0.00     0.002 A 
ATOM      6  C6  N4B d   1      -0.477   0.432   3.404  0.00  0.00     0.002 A 
ENDROOT
BRANCH   1   7
ATOM      7  C1' N4B d   1       0.746  -1.522   2.519  0.00  0.00     0.057 C 
BRANCH   7   8
ATOM      8  C2' N4B d   1       0.688  -1.547   0.994  0.00  0.00     0.009 C 
BRANCH   8   9
ATOM      9  C3' N4B d   1       1.985  -2.051   0.384  0.00  0.00     0.004 C 
ATOM     10  C4' N4B d   1       2.261  -3.488   0.712  0.00  0.00     0.003 C 
ENDBRANCH   8   9
ENDBRANCH   7   8
ENDBRANCH   1   7
TORSDOF 3
ENDMDL
