MODEL 1
REMARK minimizedAffinity -2.8833406
REMARK minimizedRMSD -1
REMARK  1 active torsions:
REMARK  status: ('A' for Active; 'I' for Inactive)
REMARK    1  A    between atoms: C1_2  and  C2_3 
ROOT
ATOM      1  C2  UNL d   1      -2.187  -3.518  -0.723  0.00  0.00    -0.073 A 
ATOM      2  C3  UNL d   1      -2.031  -3.587  -2.112  0.00  0.00    -0.002 A 
ATOM      3  C4  UNL d   1      -0.867  -3.111  -2.716  0.00  0.00     0.004 A 
ATOM      4  C5  UNL d   1       0.156  -2.569  -1.938  0.00  0.00    -0.004 A 
ATOM      5  C6  UNL d   1       0.024  -2.502  -0.547  0.00  0.00    -0.075 A 
ATOM      6  C7  UNL d   1       1.114  -1.919   0.304  0.00  0.00     0.076 C 
ATOM      7  C8  UNL d   1      -1.150  -2.979   0.051  0.00  0.00     0.001 A 
ENDROOT
BRANCH   1   8
ATOM      8  C1  UNL d   1      -3.440  -4.036  -0.067  0.00  0.00     0.053 C 
ATOM      9  C   UNL d   1      -4.394  -4.662  -1.072  0.00  0.00     0.018 C 
ENDBRANCH   1   8
TORSDOF 1
ENDMDL
