MODEL 1
REMARK minimizedAffinity -1.46124256
REMARK minimizedRMSD -1
REMARK  1 active torsions:
REMARK  status: ('A' for Active; 'I' for Inactive)
REMARK    1  A    between atoms: C1_2  and  C2_3 
ROOT
ATOM      1  C2  UNL d   1      -0.499  -0.922  -0.023  0.00  0.00    -0.073 A 
ATOM      2  C3  UNL d   1       0.788  -0.679  -0.516  0.00  0.00    -0.002 A 
ATOM      3  C4  UNL d   1       1.284  -1.421  -1.589  0.00  0.00     0.004 A 
ATOM      4  C5  UNL d   1       0.497  -2.407  -2.183  0.00  0.00    -0.004 A 
ATOM      5  C6  UNL d   1      -0.796  -2.657  -1.712  0.00  0.00    -0.075 A 
ATOM      6  C7  UNL d   1      -1.654  -3.716  -2.339  0.00  0.00     0.076 C 
ATOM      7  C8  UNL d   1      -1.286  -1.910  -0.633  0.00  0.00     0.001 A 
ENDROOT
BRANCH   1   8
ATOM      8  C1  UNL d   1      -1.041  -0.119   1.132  0.00  0.00     0.053 C 
ATOM      9  C   UNL d   1      -1.156   1.358   0.794  0.00  0.00     0.018 C 
ENDBRANCH   1   8
TORSDOF 1
ENDMDL
