MODEL 1
REMARK minimizedAffinity -1.56493151
REMARK minimizedRMSD -1
REMARK  1 active torsions:
REMARK  status: ('A' for Active; 'I' for Inactive)
REMARK    1  A    between atoms: C1_2  and  C2_3 
ROOT
ATOM      1  C2  UNL d   1      -0.233  -1.391   0.070  0.00  0.00    -0.073 A 
ATOM      2  C3  UNL d   1       1.147  -1.427   0.300  0.00  0.00    -0.002 A 
ATOM      3  C4  UNL d   1       1.856  -0.245   0.520  0.00  0.00     0.004 A 
ATOM      4  C5  UNL d   1       1.192   0.982   0.520  0.00  0.00    -0.004 A 
ATOM      5  C6  UNL d   1      -0.188   1.037   0.304  0.00  0.00    -0.075 A 
ATOM      6  C7  UNL d   1      -0.917   2.349   0.299  0.00  0.00     0.076 C 
ATOM      7  C8  UNL d   1      -0.893  -0.153   0.080  0.00  0.00     0.001 A 
ENDROOT
BRANCH   1   8
ATOM      8  C1  UNL d   1      -1.004  -2.665  -0.163  0.00  0.00     0.053 C 
ATOM      9  C   UNL d   1      -0.934  -3.117  -1.613  0.00  0.00     0.018 C 
ENDBRANCH   1   8
TORSDOF 1
ENDMDL
