MODEL 1
REMARK minimizedAffinity -0.0331461802
REMARK minimizedRMSD -1
REMARK  1 active torsions:
REMARK  status: ('A' for Active; 'I' for Inactive)
REMARK    1  A    between atoms: C1_2  and  C2_3 
ROOT
ATOM      1  C2  UNL d   1       1.502   1.115   0.812  0.00  0.00    -0.073 A 
ATOM      2  C3  UNL d   1       0.492   2.079   0.911  0.00  0.00    -0.002 A 
ATOM      3  C4  UNL d   1      -0.827   1.753   0.590  0.00  0.00     0.004 A 
ATOM      4  C5  UNL d   1      -1.150   0.461   0.175  0.00  0.00    -0.004 A 
ATOM      5  C6  UNL d   1      -0.157  -0.519   0.082  0.00  0.00    -0.075 A 
ATOM      6  C7  UNL d   1      -0.488  -1.912  -0.365  0.00  0.00     0.076 C 
ATOM      7  C8  UNL d   1       1.165  -0.183   0.403  0.00  0.00     0.001 A 
ENDROOT
BRANCH   1   8
ATOM      8  C1  UNL d   1       2.926   1.460   1.163  0.00  0.00     0.053 C 
ATOM      9  C   UNL d   1       3.026   2.785   1.903  0.00  0.00     0.018 C 
ENDBRANCH   1   8
TORSDOF 1
ENDMDL
