MODEL 1
REMARK minimizedAffinity -1.44306898
REMARK minimizedRMSD -1
REMARK  1 active torsions:
REMARK  status: ('A' for Active; 'I' for Inactive)
REMARK    1  A    between atoms: C1_2  and  C2_3 
ROOT
ATOM      1  C2  UNL d   1       0.152   1.056   0.556  0.00  0.00    -0.073 A 
ATOM      2  C3  UNL d   1      -0.405   2.233   1.070  0.00  0.00    -0.002 A 
ATOM      3  C4  UNL d   1       0.409   3.197   1.665  0.00  0.00     0.004 A 
ATOM      4  C5  UNL d   1       1.787   3.000   1.745  0.00  0.00    -0.004 A 
ATOM      5  C6  UNL d   1       2.365   1.837   1.226  0.00  0.00    -0.075 A 
ATOM      6  C7  UNL d   1       3.846   1.608   1.306  0.00  0.00     0.076 C 
ATOM      7  C8  UNL d   1       1.540   0.871   0.633  0.00  0.00     0.001 A 
ENDROOT
BRANCH   1   8
ATOM      8  C1  UNL d   1      -0.722   0.015  -0.093  0.00  0.00     0.053 C 
ATOM      9  C   UNL d   1      -0.075  -1.361  -0.079  0.00  0.00     0.018 C 
ENDBRANCH   1   8
TORSDOF 1
ENDMDL
