MODEL 1
REMARK minimizedAffinity -1.80590546
REMARK minimizedRMSD -1
REMARK  1 active torsions:
REMARK  status: ('A' for Active; 'I' for Inactive)
REMARK    1  A    between atoms: C1_2  and  C2_3 
ROOT
ATOM      1  C2  UNL d   1      -0.190   0.600   0.548  0.00  0.00    -0.073 A 
ATOM      2  C3  UNL d   1      -0.808   1.825   0.824  0.00  0.00    -0.002 A 
ATOM      3  C4  UNL d   1      -0.043   2.933   1.193  0.00  0.00     0.004 A 
ATOM      4  C5  UNL d   1       1.345   2.829   1.283  0.00  0.00    -0.004 A 
ATOM      5  C6  UNL d   1       1.981   1.617   0.999  0.00  0.00    -0.075 A 
ATOM      6  C7  UNL d   1       3.474   1.488   1.093  0.00  0.00     0.076 C 
ATOM      7  C8  UNL d   1       1.207   0.508   0.632  0.00  0.00     0.001 A 
ENDROOT
BRANCH   1   8
ATOM      8  C1  UNL d   1      -1.011  -0.597   0.144  0.00  0.00     0.053 C 
ATOM      9  C   UNL d   1      -0.194  -1.608  -0.645  0.00  0.00     0.018 C 
ENDBRANCH   1   8
TORSDOF 1
ENDMDL
