MODEL 1
REMARK minimizedAffinity -4.704216
REMARK minimizedRMSD -1
REMARK  1 active torsions:
REMARK  status: ('A' for Active; 'I' for Inactive)
REMARK    1  A    between atoms: C1_2  and  C2_3 
ROOT
ATOM      1  C2  UNL d   1      -0.439  -1.234  -0.283  0.00  0.00    -0.073 A 
ATOM      2  C3  UNL d   1      -1.561  -0.398  -0.275  0.00  0.00    -0.002 A 
ATOM      3  C4  UNL d   1      -1.439   0.943   0.092  0.00  0.00     0.004 A 
ATOM      4  C5  UNL d   1      -0.195   1.463   0.446  0.00  0.00    -0.004 A 
ATOM      5  C6  UNL d   1       0.941   0.647   0.432  0.00  0.00    -0.075 A 
ATOM      6  C7  UNL d   1       2.287   1.191   0.813  0.00  0.00     0.076 C 
ATOM      7  C8  UNL d   1       0.810  -0.699   0.066  0.00  0.00     0.001 A 
ENDROOT
BRANCH   1   8
ATOM      8  C1  UNL d   1      -0.564  -2.681  -0.685  0.00  0.00     0.053 C 
ATOM      9  C   UNL d   1      -0.063  -2.925  -2.099  0.00  0.00     0.018 C 
ENDBRANCH   1   8
TORSDOF 1
ENDMDL
