MODEL 1
REMARK minimizedAffinity -4.15914202
REMARK minimizedRMSD -1
REMARK  1 active torsions:
REMARK  status: ('A' for Active; 'I' for Inactive)
REMARK    1  A    between atoms: C1_2  and  C2_3 
ROOT
ATOM      1  C2  UNL d   1      -0.034  -0.784  -0.559  0.00  0.00    -0.073 A 
ATOM      2  C3  UNL d   1       1.058  -0.530  -1.397  0.00  0.00    -0.002 A 
ATOM      3  C4  UNL d   1       1.216  -1.246  -2.584  0.00  0.00     0.004 A 
ATOM      4  C5  UNL d   1       0.283  -2.216  -2.949  0.00  0.00    -0.004 A 
ATOM      5  C6  UNL d   1      -0.821  -2.476  -2.131  0.00  0.00    -0.075 A 
ATOM      6  C7  UNL d   1      -1.833  -3.518  -2.508  0.00  0.00     0.076 C 
ATOM      7  C8  UNL d   1      -0.972  -1.755  -0.939  0.00  0.00     0.001 A 
ENDROOT
BRANCH   1   8
ATOM      8  C1  UNL d   1      -0.213  -0.009   0.721  0.00  0.00     0.053 C 
ATOM      9  C   UNL d   1      -1.539   0.734   0.757  0.00  0.00     0.018 C 
ENDBRANCH   1   8
TORSDOF 1
ENDMDL
