MODEL 1
REMARK minimizedAffinity -4.2702384
REMARK minimizedRMSD -1
REMARK  1 active torsions:
REMARK  status: ('A' for Active; 'I' for Inactive)
REMARK    1  A    between atoms: C1_2  and  C2_3 
ROOT
ATOM      1  C2  UNL d   1      -0.423  -0.967  -0.635  0.00  0.00    -0.073 A 
ATOM      2  C3  UNL d   1      -0.821  -2.240  -0.211  0.00  0.00    -0.002 A 
ATOM      3  C4  UNL d   1      -0.959  -3.279  -1.133  0.00  0.00     0.004 A 
ATOM      4  C5  UNL d   1      -0.694  -3.058  -2.484  0.00  0.00    -0.004 A 
ATOM      5  C6  UNL d   1      -0.283  -1.796  -2.925  0.00  0.00    -0.075 A 
ATOM      6  C7  UNL d   1       0.004  -1.542  -4.376  0.00  0.00     0.076 C 
ATOM      7  C8  UNL d   1      -0.150  -0.758  -1.994  0.00  0.00     0.001 A 
ENDROOT
BRANCH   1   8
ATOM      8  C1  UNL d   1      -0.266   0.156   0.357  0.00  0.00     0.053 C 
ATOM      9  C   UNL d   1      -1.509   1.029   0.431  0.00  0.00     0.018 C 
ENDBRANCH   1   8
TORSDOF 1
ENDMDL
