MODEL 1
REMARK minimizedAffinity -1.66440463
REMARK minimizedRMSD -1
REMARK  1 active torsions:
REMARK  status: ('A' for Active; 'I' for Inactive)
REMARK    1  A    between atoms: C1_2  and  C2_3 
ROOT
ATOM      1  C2  UNL d   1      -0.285  -1.379  -0.461  0.00  0.00    -0.073 A 
ATOM      2  C3  UNL d   1      -0.680  -2.003   0.728  0.00  0.00    -0.002 A 
ATOM      3  C4  UNL d   1      -1.096  -1.240   1.820  0.00  0.00     0.004 A 
ATOM      4  C5  UNL d   1      -1.129   0.152   1.732  0.00  0.00    -0.004 A 
ATOM      5  C6  UNL d   1      -0.749   0.793   0.549  0.00  0.00    -0.075 A 
ATOM      6  C7  UNL d   1      -0.776   2.290   0.439  0.00  0.00     0.076 C 
ATOM      7  C8  UNL d   1      -0.330   0.020  -0.542  0.00  0.00     0.001 A 
ENDROOT
BRANCH   1   8
ATOM      8  C1  UNL d   1       0.159  -2.199  -1.644  0.00  0.00     0.053 C 
ATOM      9  C   UNL d   1      -0.956  -3.087  -2.173  0.00  0.00     0.018 C 
ENDBRANCH   1   8
TORSDOF 1
ENDMDL
