MODEL 1
REMARK minimizedAffinity -2.09834886
REMARK minimizedRMSD -1
REMARK  1 active torsions:
REMARK  status: ('A' for Active; 'I' for Inactive)
REMARK    1  A    between atoms: C1_2  and  C2_3 
ROOT
ATOM      1  C2  UNL d   1      -0.084  -0.935  -0.066  0.00  0.00    -0.073 A 
ATOM      2  C3  UNL d   1       1.279  -1.064   0.226  0.00  0.00    -0.002 A 
ATOM      3  C4  UNL d   1       2.015   0.042   0.653  0.00  0.00     0.004 A 
ATOM      4  C5  UNL d   1       1.397   1.284   0.797  0.00  0.00    -0.004 A 
ATOM      5  C6  UNL d   1       0.034   1.430   0.521  0.00  0.00    -0.075 A 
ATOM      6  C7  UNL d   1      -0.646   2.759   0.670  0.00  0.00     0.076 C 
ATOM      7  C8  UNL d   1      -0.699   0.315   0.091  0.00  0.00     0.001 A 
ENDROOT
BRANCH   1   8
ATOM      8  C1  UNL d   1      -0.884  -2.128  -0.521  0.00  0.00     0.053 C 
ATOM      9  C   UNL d   1      -0.628  -2.464  -1.981  0.00  0.00     0.018 C 
ENDBRANCH   1   8
TORSDOF 1
ENDMDL
