MODEL 1
REMARK minimizedAffinity -5.46064901
REMARK minimizedRMSD -1
REMARK  1 active torsions:
REMARK  status: ('A' for Active; 'I' for Inactive)
REMARK    1  A    between atoms: C3_4  and  O_7 
ROOT
ATOM      1  C   UNL d   1      -2.289  -2.250   1.730  0.00  0.00    -0.033 A 
ATOM      2  C1  UNL d   1      -2.673  -0.910   1.803  0.00  0.00     0.039 A 
ATOM      3  C2  UNL d   1      -1.870   0.081   1.235  0.00  0.00    -0.080 A 
ATOM      4  C3  UNL d   1      -0.687  -0.282   0.596  0.00  0.00     0.150 A 
ATOM      5  C4  UNL d   1      -0.300  -1.615   0.516  0.00  0.00    -0.007 A 
ATOM      6  C5  UNL d   1      -1.103  -2.603   1.086  0.00  0.00     0.039 A 
ENDROOT
BRANCH   4   7
ATOM      7  O   UNL d   1       0.132   0.650   0.031  0.00  0.00    -0.526 OA
ATOM      8  H5  UNL d   1      -0.248   1.530   0.188  0.00  0.00     0.418 HD
ENDBRANCH   4   7
TORSDOF 1
ENDMDL
