MODEL 1
REMARK minimizedAffinity -4.47250319
REMARK minimizedRMSD -1
REMARK  1 active torsions:
REMARK  status: ('A' for Active; 'I' for Inactive)
REMARK    1  A    between atoms: C3_4  and  O_7 
ROOT
ATOM      1  C   UNL d   1      -1.832  -2.297   1.487  0.00  0.00    -0.033 A 
ATOM      2  C1  UNL d   1      -0.504  -2.599   1.182  0.00  0.00     0.039 A 
ATOM      3  C2  UNL d   1       0.307  -1.646   0.563  0.00  0.00    -0.080 A 
ATOM      4  C3  UNL d   1      -0.222  -0.395   0.257  0.00  0.00     0.150 A 
ATOM      5  C4  UNL d   1      -1.544  -0.086   0.561  0.00  0.00    -0.007 A 
ATOM      6  C5  UNL d   1      -2.352  -1.040   1.178  0.00  0.00     0.039 A 
ENDROOT
BRANCH   4   7
ATOM      7  O   UNL d   1       0.529   0.567  -0.352  0.00  0.00    -0.526 OA
ATOM      8  H5  UNL d   1       1.412   0.202  -0.528  0.00  0.00     0.418 HD
ENDBRANCH   4   7
TORSDOF 1
ENDMDL
