MODEL 1
REMARK minimizedAffinity -3.91366649
REMARK minimizedRMSD -1
REMARK  1 active torsions:
REMARK  status: ('A' for Active; 'I' for Inactive)
REMARK    1  A    between atoms: C3_4  and  O_7 
ROOT
ATOM      1  C   UNL d   1      -0.894  -0.332  -0.053  0.00  0.00    -0.033 A 
ATOM      2  C1  UNL d   1       0.409  -0.835  -0.041  0.00  0.00     0.039 A 
ATOM      3  C2  UNL d   1       0.714  -1.970   0.713  0.00  0.00    -0.080 A 
ATOM      4  C3  UNL d   1      -0.291  -2.592   1.448  0.00  0.00     0.150 A 
ATOM      5  C4  UNL d   1      -1.591  -2.099   1.438  0.00  0.00    -0.007 A 
ATOM      6  C5  UNL d   1      -1.894  -0.965   0.686  0.00  0.00     0.039 A 
ENDROOT
BRANCH   4   7
ATOM      7  O   UNL d   1      -0.040  -3.700   2.203  0.00  0.00    -0.526 OA
ATOM      8  H5  UNL d   1       0.907  -3.909   2.137  0.00  0.00     0.418 HD
ENDBRANCH   4   7
TORSDOF 1
ENDMDL
