MODEL 1
REMARK minimizedAffinity -2.09667659
REMARK minimizedRMSD -1
REMARK  1 active torsions:
REMARK  status: ('A' for Active; 'I' for Inactive)
REMARK    1  A    between atoms: C3_4  and  O_7 
ROOT
ATOM      1  C   UNL d   1       1.791   1.959  -3.774  0.00  0.00    -0.033 A 
ATOM      2  C1  UNL d   1       0.553   1.314  -3.764  0.00  0.00     0.039 A 
ATOM      3  C2  UNL d   1      -0.046   0.967  -2.551  0.00  0.00    -0.080 A 
ATOM      4  C3  UNL d   1       0.602   1.271  -1.358  0.00  0.00     0.150 A 
ATOM      5  C4  UNL d   1       1.834   1.917  -1.360  0.00  0.00    -0.007 A 
ATOM      6  C5  UNL d   1       2.431   2.262  -2.572  0.00  0.00     0.039 A 
ENDROOT
BRANCH   4   7
ATOM      7  O   UNL d   1       0.060   0.948  -0.149  0.00  0.00    -0.526 OA
ATOM      8  H5  UNL d   1      -0.778   0.481  -0.304  0.00  0.00     0.418 HD
ENDBRANCH   4   7
TORSDOF 1
ENDMDL
