MODEL 1
REMARK minimizedAffinity -4.93565369
REMARK minimizedRMSD -1
REMARK  1 active torsions:
REMARK  status: ('A' for Active; 'I' for Inactive)
REMARK    1  A    between atoms: C3_4  and  O_7 
ROOT
ATOM      1  C   UNL d   1       0.585  -0.126  -0.041  0.00  0.00    -0.033 A 
ATOM      2  C1  UNL d   1      -0.781   0.036  -0.277  0.00  0.00     0.039 A 
ATOM      3  C2  UNL d   1      -1.684  -0.945   0.137  0.00  0.00    -0.080 A 
ATOM      4  C3  UNL d   1      -1.209  -2.081   0.785  0.00  0.00     0.150 A 
ATOM      5  C4  UNL d   1       0.151  -2.248   1.028  0.00  0.00    -0.007 A 
ATOM      6  C5  UNL d   1       1.051  -1.267   0.613  0.00  0.00     0.039 A 
ENDROOT
BRANCH   4   7
ATOM      7  O   UNL d   1      -2.052  -3.068   1.204  0.00  0.00    -0.526 OA
ATOM      8  H5  UNL d   1      -2.957  -2.831   0.943  0.00  0.00     0.418 HD
ENDBRANCH   4   7
TORSDOF 1
ENDMDL
