MODEL 1
REMARK minimizedAffinity -4.40102291
REMARK minimizedRMSD -1
REMARK  1 active torsions:
REMARK  status: ('A' for Active; 'I' for Inactive)
REMARK    1  A    between atoms: C3_4  and  O_7 
ROOT
ATOM      1  C   UNL d   1      -1.859  -2.432   1.580  0.00  0.00    -0.033 A 
ATOM      2  C1  UNL d   1      -2.639  -1.279   1.695  0.00  0.00     0.039 A 
ATOM      3  C2  UNL d   1      -2.217  -0.087   1.104  0.00  0.00    -0.080 A 
ATOM      4  C3  UNL d   1      -1.015  -0.061   0.401  0.00  0.00     0.150 A 
ATOM      5  C4  UNL d   1      -0.235  -1.206   0.280  0.00  0.00    -0.007 A 
ATOM      6  C5  UNL d   1      -0.658  -2.396   0.871  0.00  0.00     0.039 A 
ENDROOT
BRANCH   4   7
ATOM      7  O   UNL d   1      -0.559   1.081  -0.189  0.00  0.00    -0.526 OA
ATOM      8  H5  UNL d   1      -1.187   1.798   0.003  0.00  0.00     0.418 HD
ENDBRANCH   4   7
TORSDOF 1
ENDMDL
