MODEL 1
REMARK minimizedAffinity -5.77144766
REMARK minimizedRMSD -1
REMARK  1 active torsions:
REMARK  status: ('A' for Active; 'I' for Inactive)
REMARK    1  A    between atoms: C3_4  and  O_7 
ROOT
ATOM      1  C   UNL d   1      -1.705  -1.985   1.784  0.00  0.00    -0.033 A 
ATOM      2  C1  UNL d   1      -0.472  -2.272   1.195  0.00  0.00     0.039 A 
ATOM      3  C2  UNL d   1       0.247  -1.265   0.548  0.00  0.00    -0.080 A 
ATOM      4  C3  UNL d   1      -0.278   0.024   0.498  0.00  0.00     0.150 A 
ATOM      5  C4  UNL d   1      -1.504   0.318   1.086  0.00  0.00    -0.007 A 
ATOM      6  C5  UNL d   1      -2.220  -0.690   1.730  0.00  0.00     0.039 A 
ENDROOT
BRANCH   4   7
ATOM      7  O   UNL d   1       0.384   1.039  -0.127  0.00  0.00    -0.526 OA
ATOM      8  H5  UNL d   1       1.202   0.682  -0.511  0.00  0.00     0.418 HD
ENDBRANCH   4   7
TORSDOF 1
ENDMDL
