MODEL 1
REMARK minimizedAffinity -5.74753284
REMARK minimizedRMSD -1
REMARK  1 active torsions:
REMARK  status: ('A' for Active; 'I' for Inactive)
REMARK    1  A    between atoms: C3_4  and  O_7 
ROOT
ATOM      1  C   UNL d   1      -2.235   0.236   1.307  0.00  0.00    -0.033 A 
ATOM      2  C1  UNL d   1      -2.839  -0.796   2.027  0.00  0.00     0.039 A 
ATOM      3  C2  UNL d   1      -2.510  -2.126   1.755  0.00  0.00    -0.080 A 
ATOM      4  C3  UNL d   1      -1.575  -2.409   0.762  0.00  0.00     0.150 A 
ATOM      5  C4  UNL d   1      -0.967  -1.385   0.044  0.00  0.00    -0.007 A 
ATOM      6  C5  UNL d   1      -1.297  -0.058   0.317  0.00  0.00     0.039 A 
ENDROOT
BRANCH   4   7
ATOM      7  O   UNL d   1      -1.226  -3.691   0.458  0.00  0.00    -0.526 OA
ATOM      8  H5  UNL d   1      -1.747  -4.293   1.014  0.00  0.00     0.418 HD
ENDBRANCH   4   7
TORSDOF 1
ENDMDL
