MODEL 1
REMARK minimizedAffinity -5.48341465
REMARK minimizedRMSD -1
REMARK  1 active torsions:
REMARK  status: ('A' for Active; 'I' for Inactive)
REMARK    1  A    between atoms: C3_4  and  O_7 
ROOT
ATOM      1  C   UNL d   1      -2.243   0.371   1.625  0.00  0.00    -0.033 A 
ATOM      2  C1  UNL d   1      -1.147   0.469   0.766  0.00  0.00     0.039 A 
ATOM      3  C2  UNL d   1      -0.386  -0.663   0.468  0.00  0.00    -0.080 A 
ATOM      4  C3  UNL d   1      -0.732  -1.887   1.035  0.00  0.00     0.150 A 
ATOM      5  C4  UNL d   1      -1.825  -1.993   1.889  0.00  0.00    -0.007 A 
ATOM      6  C5  UNL d   1      -2.583  -0.861   2.185  0.00  0.00     0.039 A 
ENDROOT
BRANCH   4   7
ATOM      7  O   UNL d   1      -0.017  -3.019   0.778  0.00  0.00    -0.526 OA
ATOM      8  H5  UNL d   1       0.725  -2.788   0.195  0.00  0.00     0.418 HD
ENDBRANCH   4   7
TORSDOF 1
ENDMDL
