MODEL 1
REMARK minimizedAffinity -0.439667434
REMARK minimizedRMSD -1
REMARK  1 active torsions:
REMARK  status: ('A' for Active; 'I' for Inactive)
REMARK    1  A    between atoms: C3_4  and  O_7 
ROOT
ATOM      1  C   UNL d   1       0.810  -1.283   0.402  0.00  0.00    -0.033 A 
ATOM      2  C1  UNL d   1      -0.082  -1.949   1.245  0.00  0.00     0.039 A 
ATOM      3  C2  UNL d   1      -1.201  -1.282   1.747  0.00  0.00    -0.080 A 
ATOM      4  C3  UNL d   1      -1.416   0.049   1.399  0.00  0.00     0.150 A 
ATOM      5  C4  UNL d   1      -0.533   0.717   0.557  0.00  0.00    -0.007 A 
ATOM      6  C5  UNL d   1       0.584   0.049   0.057  0.00  0.00     0.039 A 
ENDROOT
BRANCH   4   7
ATOM      7  O   UNL d   1      -2.491   0.743   1.869  0.00  0.00    -0.526 OA
ATOM      8  H5  UNL d   1      -2.997   0.163   2.462  0.00  0.00     0.418 HD
ENDBRANCH   4   7
TORSDOF 1
ENDMDL
