MODEL 1
REMARK minimizedAffinity -5.55224228
REMARK minimizedRMSD -1
REMARK  1 active torsions:
REMARK  status: ('A' for Active; 'I' for Inactive)
REMARK    1  A    between atoms: C3_4  and  O_7 
ROOT
ATOM      1  C   UNL d   1      -2.116  -1.907   1.926  0.00  0.00    -0.033 A 
ATOM      2  C1  UNL d   1      -2.545  -0.579   1.901  0.00  0.00     0.039 A 
ATOM      3  C2  UNL d   1      -1.925   0.342   1.055  0.00  0.00    -0.080 A 
ATOM      4  C3  UNL d   1      -0.878  -0.078   0.239  0.00  0.00     0.150 A 
ATOM      5  C4  UNL d   1      -0.448  -1.400   0.255  0.00  0.00    -0.007 A 
ATOM      6  C5  UNL d   1      -1.068  -2.318   1.101  0.00  0.00     0.039 A 
ENDROOT
BRANCH   4   7
ATOM      7  O   UNL d   1      -0.239   0.786  -0.600  0.00  0.00    -0.526 OA
ATOM      8  H5  UNL d   1      -0.624   1.670  -0.483  0.00  0.00     0.418 HD
ENDBRANCH   4   7
TORSDOF 1
ENDMDL
