MODEL 1
REMARK minimizedAffinity -4.7004447
REMARK minimizedRMSD -1
REMARK  1 active torsions:
REMARK  status: ('A' for Active; 'I' for Inactive)
REMARK    1  A    between atoms: C3_4  and  O_7 
ROOT
ATOM      1  C   UNL d   1      -2.294  -1.902   1.986  0.00  0.00    -0.033 A 
ATOM      2  C1  UNL d   1      -2.737  -0.581   1.900  0.00  0.00     0.039 A 
ATOM      3  C2  UNL d   1      -2.013   0.354   1.158  0.00  0.00    -0.080 A 
ATOM      4  C3  UNL d   1      -0.849  -0.045   0.506  0.00  0.00     0.150 A 
ATOM      5  C4  UNL d   1      -0.403  -1.360   0.585  0.00  0.00    -0.007 A 
ATOM      6  C5  UNL d   1      -1.127  -2.292   1.327  0.00  0.00     0.039 A 
ENDROOT
BRANCH   4   7
ATOM      7  O   UNL d   1      -0.105   0.832  -0.226  0.00  0.00    -0.526 OA
ATOM      8  H5  UNL d   1      -0.518   1.710  -0.167  0.00  0.00     0.418 HD
ENDBRANCH   4   7
TORSDOF 1
ENDMDL
