MODEL 1
REMARK minimizedAffinity -2.23238087
REMARK minimizedRMSD -1
REMARK  1 active torsions:
REMARK  status: ('A' for Active; 'I' for Inactive)
REMARK    1  A    between atoms: C3_4  and  O_7 
ROOT
ATOM      1  C   UNL d   1       0.109   2.379  -2.343  0.00  0.00    -0.033 A 
ATOM      2  C1  UNL d   1       0.326   2.293  -3.720  0.00  0.00     0.039 A 
ATOM      3  C2  UNL d   1       1.595   1.975  -4.209  0.00  0.00    -0.080 A 
ATOM      4  C3  UNL d   1       2.635   1.746  -3.313  0.00  0.00     0.150 A 
ATOM      5  C4  UNL d   1       2.425   1.827  -1.941  0.00  0.00    -0.007 A 
ATOM      6  C5  UNL d   1       1.158   2.145  -1.454  0.00  0.00     0.039 A 
ENDROOT
BRANCH   4   7
ATOM      7  O   UNL d   1       3.892   1.438  -3.744  0.00  0.00    -0.526 OA
ATOM      8  H5  UNL d   1       3.894   1.446  -4.716  0.00  0.00     0.418 HD
ENDBRANCH   4   7
TORSDOF 1
ENDMDL
