MODEL 1
REMARK minimizedAffinity -4.55391645
REMARK minimizedRMSD -1
REMARK  1 active torsions:
REMARK  status: ('A' for Active; 'I' for Inactive)
REMARK    1  A    between atoms: C3_4  and  O_7 
ROOT
ATOM      1  C   UNL d   1      -1.642   0.745   1.012  0.00  0.00    -0.033 A 
ATOM      2  C1  UNL d   1      -2.738   0.248   1.721  0.00  0.00     0.039 A 
ATOM      3  C2  UNL d   1      -2.931  -1.130   1.836  0.00  0.00    -0.080 A 
ATOM      4  C3  UNL d   1      -2.022  -1.999   1.239  0.00  0.00     0.150 A 
ATOM      5  C4  UNL d   1      -0.927  -1.512   0.534  0.00  0.00    -0.007 A 
ATOM      6  C5  UNL d   1      -0.736  -0.135   0.420  0.00  0.00     0.039 A 
ENDROOT
BRANCH   4   7
ATOM      7  O   UNL d   1      -2.172  -3.352   1.320  0.00  0.00    -0.526 OA
ATOM      8  H5  UNL d   1      -2.988  -3.542   1.812  0.00  0.00     0.418 HD
ENDBRANCH   4   7
TORSDOF 1
ENDMDL
