MODEL 1
REMARK minimizedAffinity 6.11193752
REMARK minimizedRMSD -1
REMARK  0 active torsions:
REMARK  status: ('A' for Active; 'I' for Inactive)
ROOT
ATOM      1  C2' OXE d   1       2.248  -0.722  -0.899  0.00  0.00     0.078 C 
ATOM      2  C1' OXE d   1       3.639   0.139   1.382  0.00  0.00     0.078 C 
ATOM      3  C1  OXE d   1       4.123   0.623   0.039  0.00  0.00    -0.078 A 
ATOM      4  C2  OXE d   1       3.466   0.159  -1.075  0.00  0.00    -0.078 A 
ATOM      5  C3  OXE d   1       3.838   0.618  -2.336  0.00  0.00     0.003 A 
ATOM      6  C4  OXE d   1       4.971   1.425  -2.491  0.00  0.00    -0.002 A 
ATOM      7  C5  OXE d   1       5.679   1.876  -1.372  0.00  0.00    -0.002 A 
ATOM      8  C6  OXE d   1       5.244   1.520  -0.101  0.00  0.00     0.003 A 
ENDROOT
TORSDOF 0
ENDMDL
