MODEL 1
REMARK minimizedAffinity 0.103707522
REMARK minimizedRMSD -1
REMARK  0 active torsions:
REMARK  status: ('A' for Active; 'I' for Inactive)
ROOT
ATOM      1  C2' OXE d   1       2.505   2.034   0.564  0.00  0.00     0.078 C 
ATOM      2  C1' OXE d   1       0.020   2.954  -0.363  0.00  0.00     0.078 C 
ATOM      3  C1  OXE d   1       0.706   3.750   0.720  0.00  0.00    -0.078 A 
ATOM      4  C2  OXE d   1       1.900   3.266   1.200  0.00  0.00    -0.078 A 
ATOM      5  C3  OXE d   1       2.601   3.991   2.160  0.00  0.00     0.003 A 
ATOM      6  C4  OXE d   1       2.029   5.124   2.750  0.00  0.00    -0.002 A 
ATOM      7  C5  OXE d   1       0.796   5.612   2.303  0.00  0.00    -0.002 A 
ATOM      8  C6  OXE d   1       0.143   4.962   1.262  0.00  0.00     0.003 A 
ENDROOT
TORSDOF 0
ENDMDL
