MODEL 1
REMARK minimizedAffinity 13.9155226
REMARK minimizedRMSD -1
REMARK  0 active torsions:
REMARK  status: ('A' for Active; 'I' for Inactive)
ROOT
ATOM      1  C2' OXE d   1      -3.768   4.812  -0.337  0.00  0.00     0.078 C 
ATOM      2  C1' OXE d   1      -4.078   2.365   1.004  0.00  0.00     0.078 C 
ATOM      3  C1  OXE d   1      -4.513   3.620   1.720  0.00  0.00    -0.078 A 
ATOM      4  C2  OXE d   1      -4.314   4.816   1.075  0.00  0.00    -0.078 A 
ATOM      5  C3  OXE d   1      -4.747   5.999   1.667  0.00  0.00     0.003 A 
ATOM      6  C4  OXE d   1      -5.242   5.996   2.977  0.00  0.00    -0.002 A 
ATOM      7  C5  OXE d   1      -5.416   4.792   3.668  0.00  0.00    -0.002 A 
ATOM      8  C6  OXE d   1      -5.097   3.593   3.038  0.00  0.00     0.003 A 
ENDROOT
TORSDOF 0
ENDMDL
