MODEL 1
REMARK minimizedAffinity 7.16673946
REMARK minimizedRMSD -1
REMARK  0 active torsions:
REMARK  status: ('A' for Active; 'I' for Inactive)
ROOT
ATOM      1  C2' OXE d   1      -2.358  -5.972  -3.593  0.00  0.00     0.078 C 
ATOM      2  C1' OXE d   1      -0.776  -3.658  -3.437  0.00  0.00     0.078 C 
ATOM      3  C1  OXE d   1      -1.989  -3.623  -4.333  0.00  0.00    -0.078 A 
ATOM      4  C2  OXE d   1      -2.731  -4.775  -4.439  0.00  0.00    -0.078 A 
ATOM      5  C3  OXE d   1      -3.890  -4.780  -5.210  0.00  0.00     0.003 A 
ATOM      6  C4  OXE d   1      -4.222  -3.671  -5.998  0.00  0.00    -0.002 A 
ATOM      7  C5  OXE d   1      -3.458  -2.501  -5.935  0.00  0.00    -0.002 A 
ATOM      8  C6  OXE d   1      -2.365  -2.446  -5.077  0.00  0.00     0.003 A 
ENDROOT
TORSDOF 0
ENDMDL
