MODEL 1
REMARK minimizedAffinity 11.8436432
REMARK minimizedRMSD -1
REMARK  0 active torsions:
REMARK  status: ('A' for Active; 'I' for Inactive)
ROOT
ATOM      1  C2' OXE d   1       2.421  -0.350  -1.174  0.00  0.00     0.078 C 
ATOM      2  C1' OXE d   1       3.789   0.305   1.188  0.00  0.00     0.078 C 
ATOM      3  C1  OXE d   1       4.296   0.894  -0.105  0.00  0.00    -0.078 A 
ATOM      4  C2  OXE d   1       3.649   0.531  -1.262  0.00  0.00    -0.078 A 
ATOM      5  C3  OXE d   1       4.042   1.088  -2.475  0.00  0.00     0.003 A 
ATOM      6  C4  OXE d   1       5.185   1.893  -2.549  0.00  0.00    -0.002 A 
ATOM      7  C5  OXE d   1       5.882   2.244  -1.388  0.00  0.00    -0.002 A 
ATOM      8  C6  OXE d   1       5.426   1.788  -0.155  0.00  0.00     0.003 A 
ENDROOT
TORSDOF 0
ENDMDL
