MODEL 1
REMARK minimizedAffinity 9.47728634
REMARK minimizedRMSD -1
REMARK  0 active torsions:
REMARK  status: ('A' for Active; 'I' for Inactive)
ROOT
ATOM      1  C2' OXE d   1       1.891  -0.563  -0.949  0.00  0.00     0.078 C 
ATOM      2  C1' OXE d   1       3.443   0.032   1.313  0.00  0.00     0.078 C 
ATOM      3  C1  OXE d   1       3.943   0.507  -0.028  0.00  0.00    -0.078 A 
ATOM      4  C2  OXE d   1       3.201   0.171  -1.135  0.00  0.00    -0.078 A 
ATOM      5  C3  OXE d   1       3.588   0.631  -2.390  0.00  0.00     0.003 A 
ATOM      6  C4  OXE d   1       4.807   1.301  -2.555  0.00  0.00    -0.002 A 
ATOM      7  C5  OXE d   1       5.598   1.619  -1.446  0.00  0.00    -0.002 A 
ATOM      8  C6  OXE d   1       5.160   1.267  -0.174  0.00  0.00     0.003 A 
ENDROOT
TORSDOF 0
ENDMDL
