MODEL 1
REMARK minimizedAffinity 14.3340693
REMARK minimizedRMSD -1
REMARK  0 active torsions:
REMARK  status: ('A' for Active; 'I' for Inactive)
ROOT
ATOM      1  C2' OXE d   1       4.185  -0.088  -4.222  0.00  0.00     0.078 C 
ATOM      2  C1' OXE d   1       5.816   1.977  -3.245  0.00  0.00     0.078 C 
ATOM      3  C1  OXE d   1       4.723   1.458  -2.345  0.00  0.00    -0.078 A 
ATOM      4  C2  OXE d   1       3.900   0.480  -2.849  0.00  0.00    -0.078 A 
ATOM      5  C3  OXE d   1       2.911  -0.073  -2.040  0.00  0.00     0.003 A 
ATOM      6  C4  OXE d   1       2.647   0.465  -0.775  0.00  0.00    -0.002 A 
ATOM      7  C5  OXE d   1       3.448   1.489  -0.257  0.00  0.00    -0.002 A 
ATOM      8  C6  OXE d   1       4.515   1.966  -1.011  0.00  0.00     0.003 A 
ENDROOT
TORSDOF 0
ENDMDL
