MODEL 1
REMARK minimizedAffinity 0.352750033
REMARK minimizedRMSD -1
REMARK  0 active torsions:
REMARK  status: ('A' for Active; 'I' for Inactive)
ROOT
ATOM      1  C2' OXE d   1       2.440   0.039  -0.403  0.00  0.00     0.078 C 
ATOM      2  C1' OXE d   1       4.071   0.886   1.719  0.00  0.00     0.078 C 
ATOM      3  C1  OXE d   1       4.478   1.276   0.320  0.00  0.00    -0.078 A 
ATOM      4  C2  OXE d   1       3.700   0.818  -0.716  0.00  0.00    -0.078 A 
ATOM      5  C3  OXE d   1       3.999   1.194  -2.022  0.00  0.00     0.003 A 
ATOM      6  C4  OXE d   1       5.172   1.906  -2.303  0.00  0.00    -0.002 A 
ATOM      7  C5  OXE d   1       6.000   2.349  -1.266  0.00  0.00    -0.002 A 
ATOM      8  C6  OXE d   1       5.645   2.079   0.051  0.00  0.00     0.003 A 
ENDROOT
TORSDOF 0
ENDMDL
