MODEL 1
REMARK minimizedAffinity 15.6335907
REMARK minimizedRMSD -1
REMARK  0 active torsions:
REMARK  status: ('A' for Active; 'I' for Inactive)
ROOT
ATOM      1  C2' OXE d   1      -2.503   0.652  -0.371  0.00  0.00     0.078 C 
ATOM      2  C1' OXE d   1      -2.437  -0.035  -3.092  0.00  0.00     0.078 C 
ATOM      3  C1  OXE d   1      -3.710  -0.304  -2.329  0.00  0.00    -0.078 A 
ATOM      4  C2  OXE d   1      -3.717  -0.008  -0.987  0.00  0.00    -0.078 A 
ATOM      5  C3  OXE d   1      -4.884  -0.185  -0.248  0.00  0.00     0.003 A 
ATOM      6  C4  OXE d   1      -6.000  -0.805  -0.824  0.00  0.00    -0.002 A 
ATOM      7  C5  OXE d   1      -6.000  -1.151  -2.179  0.00  0.00    -0.002 A 
ATOM      8  C6  OXE d   1      -4.881  -0.868  -2.954  0.00  0.00     0.003 A 
ENDROOT
TORSDOF 0
ENDMDL
