MODEL 1
REMARK minimizedAffinity 10.4620209
REMARK minimizedRMSD -1
REMARK  0 active torsions:
REMARK  status: ('A' for Active; 'I' for Inactive)
ROOT
ATOM      1  C2' OXE d   1       1.595  -0.310  -0.545  0.00  0.00     0.078 C 
ATOM      2  C1' OXE d   1       2.722  -0.130   2.020  0.00  0.00     0.078 C 
ATOM      3  C1  OXE d   1       3.390   0.633   0.903  0.00  0.00    -0.078 A 
ATOM      4  C2  OXE d   1       2.859   0.501  -0.358  0.00  0.00    -0.078 A 
ATOM      5  C3  OXE d   1       3.403   1.227  -1.414  0.00  0.00     0.003 A 
ATOM      6  C4  OXE d   1       4.578   1.967  -1.234  0.00  0.00    -0.002 A 
ATOM      7  C5  OXE d   1       5.158   2.082   0.034  0.00  0.00    -0.002 A 
ATOM      8  C6  OXE d   1       4.553   1.457   1.119  0.00  0.00     0.003 A 
ENDROOT
TORSDOF 0
ENDMDL
