MODEL 1
REMARK minimizedAffinity 11.8458414
REMARK minimizedRMSD -1
REMARK  0 active torsions:
REMARK  status: ('A' for Active; 'I' for Inactive)
ROOT
ATOM      1  C2' OXE d   1       2.588   0.368  -0.472  0.00  0.00     0.078 C 
ATOM      2  C1' OXE d   1       4.154   1.819   1.351  0.00  0.00     0.078 C 
ATOM      3  C1  OXE d   1       4.541   1.870  -0.106  0.00  0.00    -0.078 A 
ATOM      4  C2  OXE d   1       3.797   1.119  -0.985  0.00  0.00    -0.078 A 
ATOM      5  C3  OXE d   1       4.078   1.173  -2.347  0.00  0.00     0.003 A 
ATOM      6  C4  OXE d   1       5.205   1.863  -2.812  0.00  0.00    -0.002 A 
ATOM      7  C5  OXE d   1       6.000   2.601  -1.929  0.00  0.00    -0.002 A 
ATOM      8  C6  OXE d   1       5.657   2.650  -0.582  0.00  0.00     0.003 A 
ENDROOT
TORSDOF 0
ENDMDL
