MODEL 1
REMARK minimizedAffinity 8.79156399
REMARK minimizedRMSD -1
REMARK  0 active torsions:
REMARK  status: ('A' for Active; 'I' for Inactive)
ROOT
ATOM      1  C2' OXE d   1       5.999   2.637  -1.878  0.00  0.00     0.078 C 
ATOM      2  C1' OXE d   1       5.990   2.943   0.912  0.00  0.00     0.078 C 
ATOM      3  C1  OXE d   1       4.936   2.056   0.299  0.00  0.00    -0.078 A 
ATOM      4  C2  OXE d   1       4.919   1.950  -1.071  0.00  0.00    -0.078 A 
ATOM      5  C3  OXE d   1       4.002   1.101  -1.685  0.00  0.00     0.003 A 
ATOM      6  C4  OXE d   1       3.000   0.476  -0.933  0.00  0.00    -0.002 A 
ATOM      7  C5  OXE d   1       2.975   0.604   0.460  0.00  0.00    -0.002 A 
ATOM      8  C6  OXE d   1       3.960   1.354   1.094  0.00  0.00     0.003 A 
ENDROOT
TORSDOF 0
ENDMDL
