MODEL 1
REMARK minimizedAffinity -3.22611976
REMARK minimizedRMSD -1
REMARK  1 active torsions:
REMARK  status: ('A' for Active; 'I' for Inactive)
REMARK    1  A    between atoms: C1_2  and  C2_3 
ROOT
ATOM      1  C2  UNL d   1       0.508   1.161   0.092  0.00  0.00    -0.081 A 
ATOM      2  C3  UNL d   1       0.518   0.287  -1.003  0.00  0.00     0.006 A 
ATOM      3  C4  UNL d   1       0.049  -1.022  -0.868  0.00  0.00     0.002 A 
ATOM      4  C5  UNL d   1      -0.445  -1.476   0.360  0.00  0.00    -0.080 A 
ATOM      5  C6  UNL d   1      -0.979  -2.870   0.511  0.00  0.00     0.076 C 
ATOM      6  C7  UNL d   1      -0.438  -0.609   1.458  0.00  0.00     0.002 A 
ATOM      7  C8  UNL d   1       0.031   0.700   1.324  0.00  0.00     0.006 A 
ENDROOT
BRANCH   1   8
ATOM      8  C1  UNL d   1       0.953   2.592  -0.067  0.00  0.00     0.054 C 
ATOM      9  C   UNL d   1       2.354   2.801   0.489  0.00  0.00     0.018 C 
ENDBRANCH   1   8
TORSDOF 1
ENDMDL
