MODEL 1
REMARK minimizedAffinity -5.30179214
REMARK minimizedRMSD -1
REMARK  1 active torsions:
REMARK  status: ('A' for Active; 'I' for Inactive)
REMARK    1  A    between atoms: C1_2  and  C2_3 
ROOT
ATOM      1  C2  UNL d   1       0.236  -0.656   0.050  0.00  0.00    -0.081 A 
ATOM      2  C3  UNL d   1      -0.430   0.396  -0.592  0.00  0.00     0.006 A 
ATOM      3  C4  UNL d   1      -0.021   1.717  -0.395  0.00  0.00     0.002 A 
ATOM      4  C5  UNL d   1       1.063   2.008   0.440  0.00  0.00    -0.080 A 
ATOM      5  C6  UNL d   1       1.530   3.419   0.636  0.00  0.00     0.076 C 
ATOM      6  C7  UNL d   1       1.717   0.959   1.095  0.00  0.00     0.002 A 
ATOM      7  C8  UNL d   1       1.309  -0.363   0.899  0.00  0.00     0.006 A 
ENDROOT
BRANCH   1   8
ATOM      8  C1  UNL d   1      -0.161  -2.087  -0.211  0.00  0.00     0.054 C 
ATOM      9  C   UNL d   1      -1.472  -2.432   0.480  0.00  0.00     0.018 C 
ENDBRANCH   1   8
TORSDOF 1
ENDMDL
