MODEL 1
REMARK minimizedAffinity -4.26117802
REMARK minimizedRMSD -1
REMARK  1 active torsions:
REMARK  status: ('A' for Active; 'I' for Inactive)
REMARK    1  A    between atoms: C1_2  and  C2_3 
ROOT
ATOM      1  C2  UNL d   1       0.213  -1.201   0.192  0.00  0.00    -0.081 A 
ATOM      2  C3  UNL d   1      -0.693  -1.962   0.941  0.00  0.00     0.006 A 
ATOM      3  C4  UNL d   1      -1.776  -1.349   1.577  0.00  0.00     0.002 A 
ATOM      4  C5  UNL d   1      -1.974   0.031   1.468  0.00  0.00    -0.080 A 
ATOM      5  C6  UNL d   1      -3.149   0.697   2.121  0.00  0.00     0.076 C 
ATOM      6  C7  UNL d   1      -1.059   0.793   0.734  0.00  0.00     0.002 A 
ATOM      7  C8  UNL d   1       0.024   0.182   0.099  0.00  0.00     0.006 A 
ENDROOT
BRANCH   1   8
ATOM      8  C1  UNL d   1       1.344  -1.868  -0.549  0.00  0.00     0.054 C 
ATOM      9  C   UNL d   1       1.060  -1.943  -2.042  0.00  0.00     0.018 C 
ENDBRANCH   1   8
TORSDOF 1
ENDMDL
