MODEL 1
REMARK minimizedAffinity -4.46547174
REMARK minimizedRMSD -1
REMARK  1 active torsions:
REMARK  status: ('A' for Active; 'I' for Inactive)
REMARK    1  A    between atoms: C1_2  and  C2_3 
ROOT
ATOM      1  C2  UNL d   1       0.533   0.935   0.293  0.00  0.00    -0.081 A 
ATOM      2  C3  UNL d   1       0.099   0.239  -0.842  0.00  0.00     0.006 A 
ATOM      3  C4  UNL d   1      -0.028  -1.152  -0.814  0.00  0.00     0.002 A 
ATOM      4  C5  UNL d   1       0.270  -1.869   0.349  0.00  0.00    -0.080 A 
ATOM      5  C6  UNL d   1       0.110  -3.359   0.402  0.00  0.00     0.076 C 
ATOM      6  C7  UNL d   1       0.721  -1.175   1.478  0.00  0.00     0.002 A 
ATOM      7  C8  UNL d   1       0.849   0.215   1.450  0.00  0.00     0.006 A 
ENDROOT
BRANCH   1   8
ATOM      8  C1  UNL d   1       0.609   2.441   0.286  0.00  0.00     0.054 C 
ATOM      9  C   UNL d   1       2.007   2.926   0.641  0.00  0.00     0.018 C 
ENDBRANCH   1   8
TORSDOF 1
ENDMDL
