MODEL 1
REMARK minimizedAffinity -3.11509013
REMARK minimizedRMSD -1
REMARK  1 active torsions:
REMARK  status: ('A' for Active; 'I' for Inactive)
REMARK    1  A    between atoms: C1_2  and  C2_3 
ROOT
ATOM      1  C2  UNL d   1       0.343   1.177  -0.058  0.00  0.00    -0.081 A 
ATOM      2  C3  UNL d   1       0.820   0.105  -0.822  0.00  0.00     0.006 A 
ATOM      3  C4  UNL d   1       0.323  -1.185  -0.620  0.00  0.00     0.002 A 
ATOM      4  C5  UNL d   1      -0.663  -1.423   0.344  0.00  0.00    -0.080 A 
ATOM      5  C6  UNL d   1      -1.226  -2.798   0.550  0.00  0.00     0.076 C 
ATOM      6  C7  UNL d   1      -1.126  -0.355   1.119  0.00  0.00     0.002 A 
ATOM      7  C8  UNL d   1      -0.630   0.935   0.918  0.00  0.00     0.006 A 
ENDROOT
BRANCH   1   8
ATOM      8  C1  UNL d   1       0.829   2.580  -0.318  0.00  0.00     0.054 C 
ATOM      9  C   UNL d   1       0.442   3.519   0.816  0.00  0.00     0.018 C 
ENDBRANCH   1   8
TORSDOF 1
ENDMDL
