MODEL 1
REMARK minimizedAffinity -4.30509233
REMARK minimizedRMSD -1
REMARK  1 active torsions:
REMARK  status: ('A' for Active; 'I' for Inactive)
REMARK    1  A    between atoms: C1_2  and  C2_3 
ROOT
ATOM      1  C2  UNL d   1       0.454   1.164   0.368  0.00  0.00    -0.081 A 
ATOM      2  C3  UNL d   1       0.569   0.378  -0.786  0.00  0.00     0.006 A 
ATOM      3  C4  UNL d   1       0.241  -0.979  -0.754  0.00  0.00     0.002 A 
ATOM      4  C5  UNL d   1      -0.215  -1.572   0.428  0.00  0.00    -0.080 A 
ATOM      5  C6  UNL d   1      -0.599  -3.021   0.468  0.00  0.00     0.076 C 
ATOM      6  C7  UNL d   1      -0.313  -0.792   1.585  0.00  0.00     0.002 A 
ATOM      7  C8  UNL d   1       0.015   0.566   1.554  0.00  0.00     0.006 A 
ENDROOT
BRANCH   1   8
ATOM      8  C1  UNL d   1       0.745   2.642   0.321  0.00  0.00     0.054 C 
ATOM      9  C   UNL d   1       2.219   2.907   0.049  0.00  0.00     0.018 C 
ENDBRANCH   1   8
TORSDOF 1
ENDMDL
