MODEL 1
REMARK minimizedAffinity -1.50895119
REMARK minimizedRMSD -1
REMARK  1 active torsions:
REMARK  status: ('A' for Active; 'I' for Inactive)
REMARK    1  A    between atoms: C1_2  and  C2_3 
ROOT
ATOM      1  C2  UNL d   1      -0.019   0.132   0.207  0.00  0.00    -0.081 A 
ATOM      2  C3  UNL d   1       1.079  -0.128   1.035  0.00  0.00     0.006 A 
ATOM      3  C4  UNL d   1       0.900  -0.329   2.406  0.00  0.00     0.002 A 
ATOM      4  C5  UNL d   1      -0.379  -0.281   2.969  0.00  0.00    -0.080 A 
ATOM      5  C6  UNL d   1      -0.588  -0.524   4.435  0.00  0.00     0.076 C 
ATOM      6  C7  UNL d   1      -1.475  -0.004   2.145  0.00  0.00     0.002 A 
ATOM      7  C8  UNL d   1      -1.297   0.197   0.774  0.00  0.00     0.006 A 
ENDROOT
BRANCH   1   8
ATOM      8  C1  UNL d   1       0.162   0.284  -1.282  0.00  0.00     0.054 C 
ATOM      9  C   UNL d   1       0.389  -1.063  -1.953  0.00  0.00     0.018 C 
ENDBRANCH   1   8
TORSDOF 1
ENDMDL
