MODEL 1
REMARK minimizedAffinity -3.80303812
REMARK minimizedRMSD -1
REMARK  1 active torsions:
REMARK  status: ('A' for Active; 'I' for Inactive)
REMARK    1  A    between atoms: C1_2  and  C2_3 
ROOT
ATOM      1  C2  UNL d   1      -0.454  -2.430  -0.442  0.00  0.00    -0.081 A 
ATOM      2  C3  UNL d   1       0.188  -1.505  -1.276  0.00  0.00     0.006 A 
ATOM      3  C4  UNL d   1       0.274  -0.161  -0.907  0.00  0.00     0.002 A 
ATOM      4  C5  UNL d   1      -0.271   0.280   0.303  0.00  0.00    -0.080 A 
ATOM      5  C6  UNL d   1      -0.159   1.715   0.725  0.00  0.00     0.076 C 
ATOM      6  C7  UNL d   1      -0.927  -0.640   1.128  0.00  0.00     0.002 A 
ATOM      7  C8  UNL d   1      -1.015  -1.985   0.760  0.00  0.00     0.006 A 
ENDROOT
BRANCH   1   8
ATOM      8  C1  UNL d   1      -0.492  -3.892  -0.806  0.00  0.00     0.054 C 
ATOM      9  C   UNL d   1       0.152  -4.749   0.275  0.00  0.00     0.018 C 
ENDBRANCH   1   8
TORSDOF 1
ENDMDL
