MODEL 1
REMARK minimizedAffinity -2.14607978
REMARK minimizedRMSD -1
REMARK  1 active torsions:
REMARK  status: ('A' for Active; 'I' for Inactive)
REMARK    1  A    between atoms: C1_2  and  C2_3 
ROOT
ATOM      1  C2  UNL d   1       0.211   1.646   0.178  0.00  0.00    -0.081 A 
ATOM      2  C3  UNL d   1      -1.112   1.223   0.001  0.00  0.00     0.006 A 
ATOM      3  C4  UNL d   1      -1.494  -0.073   0.358  0.00  0.00     0.002 A 
ATOM      4  C5  UNL d   1      -0.564  -0.963   0.903  0.00  0.00    -0.080 A 
ATOM      5  C6  UNL d   1      -0.968  -2.346   1.318  0.00  0.00     0.076 C 
ATOM      6  C7  UNL d   1       0.762  -0.546   1.063  0.00  0.00     0.002 A 
ATOM      7  C8  UNL d   1       1.146   0.749   0.706  0.00  0.00     0.006 A 
ENDROOT
BRANCH   1   8
ATOM      8  C1  UNL d   1       0.612   3.062  -0.146  0.00  0.00     0.054 C 
ATOM      9  C   UNL d   1       2.109   3.269   0.038  0.00  0.00     0.018 C 
ENDBRANCH   1   8
TORSDOF 1
ENDMDL
