MODEL 1
REMARK minimizedAffinity 0.163557291
REMARK minimizedRMSD -1
REMARK  1 active torsions:
REMARK  status: ('A' for Active; 'I' for Inactive)
REMARK    1  A    between atoms: C1_2  and  C2_3 
ROOT
ATOM      1  C2  UNL d   1       0.378   1.531   0.253  0.00  0.00    -0.081 A 
ATOM      2  C3  UNL d   1      -0.303   0.792  -0.722  0.00  0.00     0.006 A 
ATOM      3  C4  UNL d   1      -0.667  -0.534  -0.479  0.00  0.00     0.002 A 
ATOM      4  C5  UNL d   1      -0.364  -1.141   0.744  0.00  0.00    -0.080 A 
ATOM      5  C6  UNL d   1      -0.776  -2.555   1.029  0.00  0.00     0.076 C 
ATOM      6  C7  UNL d   1       0.332  -0.409   1.712  0.00  0.00     0.002 A 
ATOM      7  C8  UNL d   1       0.697   0.917   1.470  0.00  0.00     0.006 A 
ENDROOT
BRANCH   1   8
ATOM      8  C1  UNL d   1       0.716   2.981   0.019  0.00  0.00     0.054 C 
ATOM      9  C   UNL d   1       2.212   3.228   0.141  0.00  0.00     0.018 C 
ENDBRANCH   1   8
TORSDOF 1
ENDMDL
