MODEL 1
REMARK minimizedAffinity -5.22524548
REMARK minimizedRMSD -1
REMARK  1 active torsions:
REMARK  status: ('A' for Active; 'I' for Inactive)
REMARK    1  A    between atoms: C1_2  and  C2_3 
ROOT
ATOM      1  C2  UNL d   1       1.471   1.144   0.294  0.00  0.00    -0.081 A 
ATOM      2  C3  UNL d   1       1.577   0.436   1.498  0.00  0.00     0.006 A 
ATOM      3  C4  UNL d   1       1.106  -0.876   1.592  0.00  0.00     0.002 A 
ATOM      4  C5  UNL d   1       0.530  -1.504   0.483  0.00  0.00    -0.080 A 
ATOM      5  C6  UNL d   1       0.048  -2.922   0.562  0.00  0.00     0.076 C 
ATOM      6  C7  UNL d   1       0.408  -0.791  -0.715  0.00  0.00     0.002 A 
ATOM      7  C8  UNL d   1       0.878   0.521  -0.809  0.00  0.00     0.006 A 
ENDROOT
BRANCH   1   8
ATOM      8  C1  UNL d   1       2.036   2.536   0.171  0.00  0.00     0.054 C 
ATOM      9  C   UNL d   1       2.283   3.156   1.539  0.00  0.00     0.018 C 
ENDBRANCH   1   8
TORSDOF 1
ENDMDL
