MODEL 1
REMARK minimizedAffinity -4.18462515
REMARK minimizedRMSD -1
REMARK  0 active torsions:
REMARK  status: ('A' for Active; 'I' for Inactive)
ROOT
ATOM      1  C4' PXY d   1       1.158  -2.523  -1.398  0.00  0.00     0.077 C 
ATOM      2  C1' PXY d   1      -1.633   1.402   1.798  0.00  0.00     0.077 C 
ATOM      3  C1  PXY d   1      -0.901   0.381   0.950  0.00  0.00    -0.082 A 
ATOM      4  C2  PXY d   1      -0.982  -0.903   1.258  0.00  0.00     0.003 A 
ATOM      5  C3  PXY d   1      -0.300  -1.837   0.520  0.00  0.00     0.003 A 
ATOM      6  C4  PXY d   1       0.428  -1.458  -0.575  0.00  0.00    -0.082 A 
ATOM      7  C5  PXY d   1       0.506  -0.151  -0.902  0.00  0.00     0.003 A 
ATOM      8  C6  PXY d   1      -0.160   0.786  -0.117  0.00  0.00     0.003 A 
ENDROOT
TORSDOF 0
ENDMDL
