MODEL 1
REMARK minimizedAffinity -4.62851572
REMARK minimizedRMSD -1
REMARK  0 active torsions:
REMARK  status: ('A' for Active; 'I' for Inactive)
ROOT
ATOM      1  C4' PXY d   1      -2.026   2.005   2.078  0.00  0.00     0.077 C 
ATOM      2  C1' PXY d   1       1.848  -0.940  -1.042  0.00  0.00     0.077 C 
ATOM      3  C1  PXY d   1       0.831  -0.177  -0.215  0.00  0.00    -0.082 A 
ATOM      4  C2  PXY d   1       0.098   0.765  -0.786  0.00  0.00     0.003 A 
ATOM      5  C3  PXY d   1      -0.804   1.486  -0.046  0.00  0.00     0.003 A 
ATOM      6  C4  PXY d   1      -0.995   1.203   1.280  0.00  0.00    -0.082 A 
ATOM      7  C5  PXY d   1      -0.258   0.236   1.867  0.00  0.00     0.003 A 
ATOM      8  C6  PXY d   1       0.681  -0.456   1.108  0.00  0.00     0.003 A 
ENDROOT
TORSDOF 0
ENDMDL
