MODEL 1
REMARK minimizedAffinity -4.83248663
REMARK minimizedRMSD -1
REMARK  0 active torsions:
REMARK  status: ('A' for Active; 'I' for Inactive)
ROOT
ATOM      1  C4' PXY d   1      -2.238   2.410   1.932  0.00  0.00     0.077 C 
ATOM      2  C1' PXY d   1       1.491  -0.668  -1.235  0.00  0.00     0.077 C 
ATOM      3  C1  PXY d   1       0.518   0.150  -0.410  0.00  0.00    -0.082 A 
ATOM      4  C2  PXY d   1       0.033  -0.349   0.716  0.00  0.00     0.003 A 
ATOM      5  C3  PXY d   1      -0.872   0.364   1.458  0.00  0.00     0.003 A 
ATOM      6  C4  PXY d   1      -1.246   1.624   1.072  0.00  0.00    -0.082 A 
ATOM      7  C5  PXY d   1      -0.748   2.145  -0.070  0.00  0.00     0.003 A 
ATOM      8  C6  PXY d   1       0.139   1.388  -0.830  0.00  0.00     0.003 A 
ENDROOT
TORSDOF 0
ENDMDL
