MODEL 1
REMARK minimizedAffinity -4.86106014
REMARK minimizedRMSD -1
REMARK  0 active torsions:
REMARK  status: ('A' for Active; 'I' for Inactive)
ROOT
ATOM      1  C4' PXY d   1      -0.370   2.999  -1.476  0.00  0.00     0.077 C 
ATOM      2  C1' PXY d   1      -0.246  -1.089   2.608  0.00  0.00     0.077 C 
ATOM      3  C1  PXY d   1      -0.291  -0.013   1.541  0.00  0.00    -0.082 A 
ATOM      4  C2  PXY d   1       0.423  -0.158   0.437  0.00  0.00     0.003 A 
ATOM      5  C3  PXY d   1       0.420   0.820  -0.524  0.00  0.00     0.003 A 
ATOM      6  C4  PXY d   1      -0.363   1.934  -0.377  0.00  0.00    -0.082 A 
ATOM      7  C5  PXY d   1      -1.103   2.084   0.743  0.00  0.00     0.003 A 
ATOM      8  C6  PXY d   1      -1.054   1.098   1.725  0.00  0.00     0.003 A 
ENDROOT
TORSDOF 0
ENDMDL
