MODEL 1
REMARK minimizedAffinity -3.39220095
REMARK minimizedRMSD -1
REMARK  0 active torsions:
REMARK  status: ('A' for Active; 'I' for Inactive)
ROOT
ATOM      1  C4' PXY d   1       1.033  -1.602  -1.151  0.00  0.00     0.077 C 
ATOM      2  C1' PXY d   1      -2.043   2.349   1.736  0.00  0.00     0.077 C 
ATOM      3  C1  PXY d   1      -1.233   1.308   0.990  0.00  0.00    -0.082 A 
ATOM      4  C2  PXY d   1      -0.828   1.555  -0.245  0.00  0.00     0.003 A 
ATOM      5  C3  PXY d   1      -0.122   0.612  -0.946  0.00  0.00     0.003 A 
ATOM      6  C4  PXY d   1       0.220  -0.576  -0.357  0.00  0.00    -0.082 A 
ATOM      7  C5  PXY d   1      -0.179  -0.832   0.907  0.00  0.00     0.003 A 
ATOM      8  C6  PXY d   1      -0.931   0.123   1.587  0.00  0.00     0.003 A 
ENDROOT
TORSDOF 0
ENDMDL
