MODEL 1
REMARK minimizedAffinity -3.79756999
REMARK minimizedRMSD -1
REMARK  0 active torsions:
REMARK  status: ('A' for Active; 'I' for Inactive)
ROOT
ATOM      1  C4' PXY d   1      -1.951   1.999   1.492  0.00  0.00     0.077 C 
ATOM      2  C1' PXY d   1       1.404  -1.872  -1.187  0.00  0.00     0.077 C 
ATOM      3  C1  PXY d   1       0.521  -0.866  -0.475  0.00  0.00    -0.082 A 
ATOM      4  C2  PXY d   1       0.009   0.149  -1.152  0.00  0.00     0.003 A 
ATOM      5  C3  PXY d   1      -0.765   1.086  -0.518  0.00  0.00     0.003 A 
ATOM      6  C4  PXY d   1      -1.062   0.954   0.812  0.00  0.00    -0.082 A 
ATOM      7  C5  PXY d   1      -0.552  -0.085   1.508  0.00  0.00     0.003 A 
ATOM      8  C6  PXY d   1       0.265  -1.003   0.854  0.00  0.00     0.003 A 
ENDROOT
TORSDOF 0
ENDMDL
