MODEL 1
REMARK minimizedAffinity -5.58338213
REMARK minimizedRMSD -1
REMARK  0 active torsions:
REMARK  status: ('A' for Active; 'I' for Inactive)
ROOT
ATOM      1  C4' PXY d   1       1.419  -1.137  -0.785  0.00  0.00     0.077 C 
ATOM      2  C1' PXY d   1      -1.862   3.357   0.781  0.00  0.00     0.077 C 
ATOM      3  C1  PXY d   1      -1.000   2.184   0.358  0.00  0.00    -0.082 A 
ATOM      4  C2  PXY d   1      -1.117   1.026   0.988  0.00  0.00     0.003 A 
ATOM      5  C3  PXY d   1      -0.323  -0.036   0.640  0.00  0.00     0.003 A 
ATOM      6  C4  PXY d   1       0.563   0.072  -0.399  0.00  0.00    -0.082 A 
ATOM      7  C5  PXY d   1       0.681   1.247  -1.053  0.00  0.00     0.003 A 
ATOM      8  C6  PXY d   1      -0.106   2.325  -0.657  0.00  0.00     0.003 A 
ENDROOT
TORSDOF 0
ENDMDL
