MODEL 1
REMARK minimizedAffinity -4.08474159
REMARK minimizedRMSD -1
REMARK  0 active torsions:
REMARK  status: ('A' for Active; 'I' for Inactive)
ROOT
ATOM      1  C4' PXY d   1      -1.531   2.443   1.900  0.00  0.00     0.077 C 
ATOM      2  C1' PXY d   1       1.572  -1.621  -0.795  0.00  0.00     0.077 C 
ATOM      3  C1  PXY d   1       0.763  -0.546  -0.097  0.00  0.00    -0.082 A 
ATOM      4  C2  PXY d   1       0.400  -0.716   1.164  0.00  0.00     0.003 A 
ATOM      5  C3  PXY d   1      -0.359   0.231   1.801  0.00  0.00     0.003 A 
ATOM      6  C4  PXY d   1      -0.705   1.389   1.158  0.00  0.00    -0.082 A 
ATOM      7  C5  PXY d   1      -0.330   1.575  -0.125  0.00  0.00     0.003 A 
ATOM      8  C6  PXY d   1       0.405   0.582  -0.767  0.00  0.00     0.003 A 
ENDROOT
TORSDOF 0
ENDMDL
