MODEL 1
REMARK minimizedAffinity -2.84397864
REMARK minimizedRMSD -1
REMARK  0 active torsions:
REMARK  status: ('A' for Active; 'I' for Inactive)
ROOT
ATOM      1  C4' PXY d   1       2.104  -3.072  -1.303  0.00  0.00     0.077 C 
ATOM      2  C1' PXY d   1      -1.403   1.408  -0.280  0.00  0.00     0.077 C 
ATOM      3  C1  PXY d   1      -0.489   0.231  -0.560  0.00  0.00    -0.082 A 
ATOM      4  C2  PXY d   1       0.108  -0.388   0.446  0.00  0.00     0.003 A 
ATOM      5  C3  PXY d   1       0.962  -1.434   0.209  0.00  0.00     0.003 A 
ATOM      6  C4  PXY d   1       1.166  -1.885  -1.067  0.00  0.00    -0.082 A 
ATOM      7  C5  PXY d   1       0.552  -1.267  -2.098  0.00  0.00     0.003 A 
ATOM      8  C6  PXY d   1      -0.279  -0.181  -1.839  0.00  0.00     0.003 A 
ENDROOT
TORSDOF 0
ENDMDL
