MODEL 1
REMARK minimizedAffinity -5.11851788
REMARK minimizedRMSD -1
REMARK  0 active torsions:
REMARK  status: ('A' for Active; 'I' for Inactive)
ROOT
ATOM      1  C4' PXY d   1       1.129  -1.178  -0.753  0.00  0.00     0.077 C 
ATOM      2  C1' PXY d   1      -2.232   2.983   1.438  0.00  0.00     0.077 C 
ATOM      3  C1  PXY d   1      -1.349   1.887   0.875  0.00  0.00    -0.082 A 
ATOM      4  C2  PXY d   1      -0.747   2.065  -0.290  0.00  0.00     0.003 A 
ATOM      5  C3  PXY d   1       0.030   1.072  -0.828  0.00  0.00     0.003 A 
ATOM      6  C4  PXY d   1       0.236  -0.095  -0.142  0.00  0.00    -0.082 A 
ATOM      7  C5  PXY d   1      -0.366  -0.280   1.052  0.00  0.00     0.003 A 
ATOM      8  C6  PXY d   1      -1.184   0.724   1.562  0.00  0.00     0.003 A 
ENDROOT
TORSDOF 0
ENDMDL
