MODEL 1
REMARK minimizedAffinity -4.05296421
REMARK minimizedRMSD -1
REMARK  0 active torsions:
REMARK  status: ('A' for Active; 'I' for Inactive)
ROOT
ATOM      1  C4' PXY d   1       1.380  -2.082  -0.961  0.00  0.00     0.077 C 
ATOM      2  C1' PXY d   1      -1.371   1.817   2.301  0.00  0.00     0.077 C 
ATOM      3  C1  PXY d   1      -0.657   0.798   1.435  0.00  0.00    -0.082 A 
ATOM      4  C2  PXY d   1      -0.107  -0.267   1.996  0.00  0.00     0.003 A 
ATOM      5  C3  PXY d   1       0.571  -1.182   1.232  0.00  0.00     0.003 A 
ATOM      6  C4  PXY d   1       0.641  -1.033  -0.127  0.00  0.00    -0.082 A 
ATOM      7  C5  PXY d   1       0.073   0.045  -0.708  0.00  0.00     0.003 A 
ATOM      8  C6  PXY d   1      -0.575   0.984   0.090  0.00  0.00     0.003 A 
ENDROOT
TORSDOF 0
ENDMDL
