MODEL 1
REMARK minimizedAffinity -5.46610403
REMARK minimizedRMSD -1
REMARK  0 active torsions:
REMARK  status: ('A' for Active; 'I' for Inactive)
ROOT
ATOM      1  C4' PXY d   1       0.917  -1.877  -1.430  0.00  0.00     0.077 C 
ATOM      2  C1' PXY d   1      -2.345   2.019   1.326  0.00  0.00     0.077 C 
ATOM      3  C1  PXY d   1      -1.484   1.007   0.596  0.00  0.00    -0.082 A 
ATOM      4  C2  PXY d   1      -1.894  -0.247   0.493  0.00  0.00     0.003 A 
ATOM      5  C3  PXY d   1      -1.113  -1.183  -0.135  0.00  0.00     0.003 A 
ATOM      6  C4  PXY d   1       0.076  -0.819  -0.711  0.00  0.00    -0.082 A 
ATOM      7  C5  PXY d   1       0.496   0.460  -0.619  0.00  0.00     0.003 A 
ATOM      8  C6  PXY d   1      -0.293   1.386   0.059  0.00  0.00     0.003 A 
ENDROOT
TORSDOF 0
ENDMDL
