MODEL 1
REMARK minimizedAffinity -3.65716791
REMARK minimizedRMSD -1
REMARK  0 active torsions:
REMARK  status: ('A' for Active; 'I' for Inactive)
ROOT
ATOM      1  C4' PXY d   1       0.932  -2.028  -1.417  0.00  0.00     0.077 C 
ATOM      2  C1' PXY d   1      -1.085   1.846   2.369  0.00  0.00     0.077 C 
ATOM      3  C1  PXY d   1      -0.559   0.838   1.366  0.00  0.00    -0.082 A 
ATOM      4  C2  PXY d   1      -0.484  -0.440   1.702  0.00  0.00     0.003 A 
ATOM      5  C3  PXY d   1       0.019  -1.360   0.818  0.00  0.00     0.003 A 
ATOM      6  C4  PXY d   1       0.399  -0.977  -0.440  0.00  0.00    -0.082 A 
ATOM      7  C5  PXY d   1       0.315   0.324  -0.793  0.00  0.00     0.003 A 
ATOM      8  C6  PXY d   1      -0.159   1.248   0.132  0.00  0.00     0.003 A 
ENDROOT
TORSDOF 0
ENDMDL
