MODEL 1
REMARK minimizedAffinity -4.51770067
REMARK minimizedRMSD -1
REMARK  0 active torsions:
REMARK  status: ('A' for Active; 'I' for Inactive)
ROOT
ATOM      1  C4' PXY d   1      -1.136   2.213   1.927  0.00  0.00     0.077 C 
ATOM      2  C1' PXY d   1       0.519  -1.868  -1.816  0.00  0.00     0.077 C 
ATOM      3  C1  PXY d   1       0.076  -0.794  -0.843  0.00  0.00    -0.082 A 
ATOM      4  C2  PXY d   1       0.916  -0.365   0.085  0.00  0.00     0.003 A 
ATOM      5  C3  PXY d   1       0.521   0.584   0.993  0.00  0.00     0.003 A 
ATOM      6  C4  PXY d   1      -0.729   1.137   0.918  0.00  0.00    -0.082 A 
ATOM      7  C5  PXY d   1      -1.588   0.712  -0.033  0.00  0.00     0.003 A 
ATOM      8  C6  PXY d   1      -1.182  -0.281  -0.919  0.00  0.00     0.003 A 
ENDROOT
TORSDOF 0
ENDMDL
