MODEL 1
REMARK minimizedAffinity -4.3853116
REMARK minimizedRMSD -1
REMARK  0 active torsions:
REMARK  status: ('A' for Active; 'I' for Inactive)
ROOT
ATOM      1  C4' PXY d   1      -2.409   2.678   1.168  0.00  0.00     0.077 C 
ATOM      2  C1' PXY d   1       1.872  -0.791  -0.580  0.00  0.00     0.077 C 
ATOM      3  C1  PXY d   1       0.753   0.128  -0.130  0.00  0.00    -0.082 A 
ATOM      4  C2  PXY d   1       0.222  -0.029   1.071  0.00  0.00     0.003 A 
ATOM      5  C3  PXY d   1      -0.812   0.773   1.482  0.00  0.00     0.003 A 
ATOM      6  C4  PXY d   1      -1.271   1.779   0.676  0.00  0.00    -0.082 A 
ATOM      7  C5  PXY d   1      -0.727   1.952  -0.548  0.00  0.00     0.003 A 
ATOM      8  C6  PXY d   1       0.294   1.101  -0.962  0.00  0.00     0.003 A 
ENDROOT
TORSDOF 0
ENDMDL
