MODEL 1
REMARK minimizedAffinity -2.76726556
REMARK minimizedRMSD -1
REMARK  0 active torsions:
REMARK  status: ('A' for Active; 'I' for Inactive)
ROOT
ATOM      1  C4' PXY d   1       0.730  -2.013  -1.712  0.00  0.00     0.077 C 
ATOM      2  C1' PXY d   1      -1.181   1.650   2.331  0.00  0.00     0.077 C 
ATOM      3  C1  PXY d   1      -0.689   0.694   1.263  0.00  0.00    -0.082 A 
ATOM      4  C2  PXY d   1      -0.048  -0.409   1.616  0.00  0.00     0.003 A 
ATOM      5  C3  PXY d   1       0.432  -1.268   0.661  0.00  0.00     0.003 A 
ATOM      6  C4  PXY d   1       0.207  -1.024  -0.667  0.00  0.00    -0.082 A 
ATOM      7  C5  PXY d   1      -0.455   0.093  -1.035  0.00  0.00     0.003 A 
ATOM      8  C6  PXY d   1      -0.898   0.974  -0.052  0.00  0.00     0.003 A 
ENDROOT
TORSDOF 0
ENDMDL
