MODEL 1
REMARK minimizedAffinity -5.29478931
REMARK minimizedRMSD -1
REMARK  0 active torsions:
REMARK  status: ('A' for Active; 'I' for Inactive)
ROOT
ATOM      1  C4' PXY d   1       1.546  -1.165  -0.954  0.00  0.00     0.077 C 
ATOM      2  C1' PXY d   1      -2.180   2.595   1.369  0.00  0.00     0.077 C 
ATOM      3  C1  PXY d   1      -1.205   1.614   0.748  0.00  0.00    -0.082 A 
ATOM      4  C2  PXY d   1      -0.965   0.460   1.350  0.00  0.00     0.003 A 
ATOM      5  C3  PXY d   1      -0.062  -0.424   0.819  0.00  0.00     0.003 A 
ATOM      6  C4  PXY d   1       0.562  -0.149  -0.368  0.00  0.00    -0.082 A 
ATOM      7  C5  PXY d   1       0.315   1.021  -0.994  0.00  0.00     0.003 A 
ATOM      8  C6  PXY d   1      -0.574   1.924  -0.417  0.00  0.00     0.003 A 
ENDROOT
TORSDOF 0
ENDMDL
