MODEL 1
REMARK minimizedAffinity 8.17397308
REMARK minimizedRMSD -1
REMARK  0 active torsions:
REMARK  status: ('A' for Active; 'I' for Inactive)
ROOT
ATOM      1  C   UNL d   1       2.244   3.537  -2.232  0.00  0.00    -0.002 A 
ATOM      2  C1  UNL d   1       2.728   4.125  -1.071  0.00  0.00     0.010 A 
ATOM      3  C2  UNL d   1       3.887   4.903  -1.098  0.00  0.00     0.041 A 
ATOM      4  C3  UNL d   1       4.557   5.084  -2.324  0.00  0.00    -0.075 A 
ATOM      5  S   UNL d   1       5.994   5.996  -2.598  0.00  0.00     0.015 SA
ATOM      6  C4  UNL d   1       6.000   5.628  -4.262  0.00  0.00     0.022 A 
ATOM      7  C5  UNL d   1       4.939   4.830  -4.617  0.00  0.00     0.026 A 
ATOM      8  C6  UNL d   1       4.089   4.503  -3.506  0.00  0.00    -0.082 A 
ATOM      9  C7  UNL d   1       2.912   3.719  -3.446  0.00  0.00     0.045 A 
ENDROOT
TORSDOF 0
ENDMDL
