MODEL 1
REMARK minimizedAffinity 4.72817087
REMARK minimizedRMSD -1
REMARK  0 active torsions:
REMARK  status: ('A' for Active; 'I' for Inactive)
ROOT
ATOM      1  C   UNL d   1       4.120   4.176  -5.833  0.00  0.00    -0.002 A 
ATOM      2  C1  UNL d   1       5.348   4.801  -5.999  0.00  0.00     0.010 A 
ATOM      3  C2  UNL d   1       5.997   5.391  -4.913  0.00  0.00     0.041 A 
ATOM      4  C3  UNL d   1       5.387   5.341  -3.645  0.00  0.00    -0.075 A 
ATOM      5  S   UNL d   1       5.997   5.995  -2.171  0.00  0.00     0.015 SA
ATOM      6  C4  UNL d   1       4.642   5.460  -1.286  0.00  0.00     0.022 A 
ATOM      7  C5  UNL d   1       3.737   4.797  -2.079  0.00  0.00     0.026 A 
ATOM      8  C6  UNL d   1       4.151   4.717  -3.452  0.00  0.00    -0.082 A 
ATOM      9  C7  UNL d   1       3.517   4.129  -4.573  0.00  0.00     0.045 A 
ENDROOT
TORSDOF 0
ENDMDL
