MODEL 1
REMARK minimizedAffinity 0.636852622
REMARK minimizedRMSD -1
REMARK  0 active torsions:
REMARK  status: ('A' for Active; 'I' for Inactive)
ROOT
ATOM      1  C   UNL d   1       4.274   5.247  -1.566  0.00  0.00    -0.002 A 
ATOM      2  C1  UNL d   1       5.398   6.000  -1.876  0.00  0.00     0.010 A 
ATOM      3  C2  UNL d   1       5.996   5.898  -3.134  0.00  0.00     0.041 A 
ATOM      4  C3  UNL d   1       5.438   5.020  -4.084  0.00  0.00    -0.075 A 
ATOM      5  S   UNL d   1       6.000   4.731  -5.689  0.00  0.00     0.015 SA
ATOM      6  C4  UNL d   1       4.761   3.603  -6.000  0.00  0.00     0.022 A 
ATOM      7  C5  UNL d   1       3.930   3.438  -4.917  0.00  0.00     0.026 A 
ATOM      8  C6  UNL d   1       4.306   4.252  -3.795  0.00  0.00    -0.082 A 
ATOM      9  C7  UNL d   1       3.724   4.377  -2.511  0.00  0.00     0.045 A 
ENDROOT
TORSDOF 0
ENDMDL
