MODEL 1
REMARK minimizedAffinity 4.65102196
REMARK minimizedRMSD -1
REMARK  0 active torsions:
REMARK  status: ('A' for Active; 'I' for Inactive)
ROOT
ATOM      1  C   UNL d   1       3.125   5.686  -0.811  0.00  0.00    -0.002 A 
ATOM      2  C1  UNL d   1       2.251   4.864  -1.508  0.00  0.00     0.010 A 
ATOM      3  C2  UNL d   1       2.614   4.331  -2.747  0.00  0.00     0.041 A 
ATOM      4  C3  UNL d   1       3.882   4.639  -3.277  0.00  0.00    -0.075 A 
ATOM      5  S   UNL d   1       4.542   4.100  -4.776  0.00  0.00     0.015 SA
ATOM      6  C4  UNL d   1       5.999   4.946  -4.524  0.00  0.00     0.022 A 
ATOM      7  C5  UNL d   1       6.000   5.630  -3.331  0.00  0.00     0.026 A 
ATOM      8  C6  UNL d   1       4.780   5.463  -2.592  0.00  0.00    -0.082 A 
ATOM      9  C7  UNL d   1       4.383   5.989  -1.339  0.00  0.00     0.045 A 
ENDROOT
TORSDOF 0
ENDMDL
