MODEL 1
REMARK minimizedAffinity 10.7371454
REMARK minimizedRMSD -1
REMARK  0 active torsions:
REMARK  status: ('A' for Active; 'I' for Inactive)
ROOT
ATOM      1  C   UNL d   1       3.241   4.547  -1.344  0.00  0.00    -0.002 A 
ATOM      2  C1  UNL d   1       2.399   4.113  -2.357  0.00  0.00     0.010 A 
ATOM      3  C2  UNL d   1       2.743   4.300  -3.697  0.00  0.00     0.041 A 
ATOM      4  C3  UNL d   1       3.962   4.936  -4.004  0.00  0.00    -0.075 A 
ATOM      5  S   UNL d   1       4.592   5.273  -5.574  0.00  0.00     0.015 SA
ATOM      6  C4  UNL d   1       5.996   6.000  -4.936  0.00  0.00     0.022 A 
ATOM      7  C5  UNL d   1       6.000   5.995  -3.561  0.00  0.00     0.026 A 
ATOM      8  C6  UNL d   1       4.828   5.381  -3.002  0.00  0.00    -0.082 A 
ATOM      9  C7  UNL d   1       4.450   5.177  -1.653  0.00  0.00     0.045 A 
ENDROOT
TORSDOF 0
ENDMDL
