MODEL 1
REMARK minimizedAffinity 1.85719514
REMARK minimizedRMSD -1
REMARK  0 active torsions:
REMARK  status: ('A' for Active; 'I' for Inactive)
ROOT
ATOM      1  C   UNL d   1       5.256   4.641  -5.276  0.00  0.00    -0.002 A 
ATOM      2  C1  UNL d   1       3.964   4.198  -5.031  0.00  0.00     0.010 A 
ATOM      3  C2  UNL d   1       3.388   4.349  -3.768  0.00  0.00     0.041 A 
ATOM      4  C3  UNL d   1       4.140   4.961  -2.745  0.00  0.00    -0.075 A 
ATOM      5  S   UNL d   1       3.641   5.253  -1.121  0.00  0.00     0.015 SA
ATOM      6  C4  UNL d   1       5.131   5.974  -0.714  0.00  0.00     0.022 A 
ATOM      7  C5  UNL d   1       6.000   5.999  -1.779  0.00  0.00     0.026 A 
ATOM      8  C6  UNL d   1       5.443   5.416  -2.968  0.00  0.00    -0.082 A 
ATOM      9  C7  UNL d   1       5.999   5.247  -4.259  0.00  0.00     0.045 A 
ENDROOT
TORSDOF 0
ENDMDL
