MODEL 1
REMARK minimizedAffinity 0.0342231393
REMARK minimizedRMSD -1
REMARK  0 active torsions:
REMARK  status: ('A' for Active; 'I' for Inactive)
ROOT
ATOM      1  C   UNL d   1       3.360   4.589  -1.620  0.00  0.00    -0.002 A 
ATOM      2  C1  UNL d   1       2.543   5.515  -2.252  0.00  0.00     0.010 A 
ATOM      3  C2  UNL d   1       2.868   6.000  -3.521  0.00  0.00     0.041 A 
ATOM      4  C3  UNL d   1       4.038   5.531  -4.150  0.00  0.00    -0.075 A 
ATOM      5  S   UNL d   1       4.635   5.983  -5.703  0.00  0.00     0.015 SA
ATOM      6  C4  UNL d   1       5.988   4.956  -5.565  0.00  0.00     0.022 A 
ATOM      7  C5  UNL d   1       6.000   4.277  -4.369  0.00  0.00     0.026 A 
ATOM      8  C6  UNL d   1       4.876   4.597  -3.534  0.00  0.00    -0.082 A 
ATOM      9  C7  UNL d   1       4.520   4.126  -2.248  0.00  0.00     0.045 A 
ENDROOT
TORSDOF 0
ENDMDL
