MODEL 1
REMARK minimizedAffinity 1.02667809
REMARK minimizedRMSD -1
REMARK  0 active torsions:
REMARK  status: ('A' for Active; 'I' for Inactive)
ROOT
ATOM      1  C   UNL d   1       5.076   4.203  -5.999  0.00  0.00    -0.002 A 
ATOM      2  C1  UNL d   1       5.990   5.206  -5.710  0.00  0.00     0.010 A 
ATOM      3  C2  UNL d   1       6.000   5.817  -4.454  0.00  0.00     0.041 A 
ATOM      4  C3  UNL d   1       5.068   5.397  -3.484  0.00  0.00    -0.075 A 
ATOM      5  S   UNL d   1       4.895   6.000  -1.879  0.00  0.00     0.015 SA
ATOM      6  C4  UNL d   1       3.605   4.940  -1.539  0.00  0.00     0.022 A 
ATOM      7  C5  UNL d   1       3.300   4.138  -2.614  0.00  0.00     0.026 A 
ATOM      8  C6  UNL d   1       4.138   4.388  -3.752  0.00  0.00    -0.082 A 
ATOM      9  C7  UNL d   1       4.153   3.789  -5.035  0.00  0.00     0.045 A 
ENDROOT
TORSDOF 0
ENDMDL
