MODEL 1
REMARK minimizedAffinity 3.80202389
REMARK minimizedRMSD -1
REMARK  0 active torsions:
REMARK  status: ('A' for Active; 'I' for Inactive)
ROOT
ATOM      1  C   UNL d   1       1.743   4.125  -2.651  0.00  0.00    -0.002 A 
ATOM      2  C1  UNL d   1       2.299   4.070  -1.380  0.00  0.00     0.010 A 
ATOM      3  C2  UNL d   1       3.614   4.484  -1.161  0.00  0.00     0.041 A 
ATOM      4  C3  UNL d   1       4.369   4.960  -2.251  0.00  0.00    -0.075 A 
ATOM      5  S   UNL d   1       5.999   5.521  -2.221  0.00  0.00     0.015 SA
ATOM      6  C4  UNL d   1       5.996   5.849  -3.893  0.00  0.00     0.022 A 
ATOM      7  C5  UNL d   1       4.790   5.543  -4.477  0.00  0.00     0.026 A 
ATOM      8  C6  UNL d   1       3.831   5.027  -3.540  0.00  0.00    -0.082 A 
ATOM      9  C7  UNL d   1       2.495   4.599  -3.730  0.00  0.00     0.045 A 
ENDROOT
TORSDOF 0
ENDMDL
