MODEL 1
REMARK minimizedAffinity 11.7393007
REMARK minimizedRMSD -1
REMARK  0 active torsions:
REMARK  status: ('A' for Active; 'I' for Inactive)
ROOT
ATOM      1  C   UNL d   1       5.878   3.891  -4.551  0.00  0.00    -0.002 A 
ATOM      2  C1  UNL d   1       5.974   5.272  -4.456  0.00  0.00     0.010 A 
ATOM      3  C2  UNL d   1       5.045   6.000  -3.710  0.00  0.00     0.041 A 
ATOM      4  C3  UNL d   1       4.007   5.309  -3.054  0.00  0.00    -0.075 A 
ATOM      5  S   UNL d   1       2.756   5.991  -2.083  0.00  0.00     0.015 SA
ATOM      6  C4  UNL d   1       2.064   4.465  -1.771  0.00  0.00     0.022 A 
ATOM      7  C5  UNL d   1       2.758   3.449  -2.384  0.00  0.00     0.026 A 
ATOM      8  C6  UNL d   1       3.890   3.919  -3.133  0.00  0.00    -0.082 A 
ATOM      9  C7  UNL d   1       4.848   3.210  -3.897  0.00  0.00     0.045 A 
ENDROOT
TORSDOF 0
ENDMDL
