MODEL 1
REMARK minimizedAffinity 3.09286976
REMARK minimizedRMSD -1
REMARK  0 active torsions:
REMARK  status: ('A' for Active; 'I' for Inactive)
ROOT
ATOM      1  C   UNL d   1       5.160   2.839  -4.828  0.00  0.00    -0.002 A 
ATOM      2  C1  UNL d   1       3.781   2.839  -4.672  0.00  0.00     0.010 A 
ATOM      3  C2  UNL d   1       3.176   3.640  -3.702  0.00  0.00     0.041 A 
ATOM      4  C3  UNL d   1       3.988   4.451  -2.884  0.00  0.00    -0.075 A 
ATOM      5  S   UNL d   1       3.467   5.514  -1.630  0.00  0.00     0.015 SA
ATOM      6  C4  UNL d   1       5.063   5.993  -1.272  0.00  0.00     0.022 A 
ATOM      7  C5  UNL d   1       5.983   5.368  -2.079  0.00  0.00     0.026 A 
ATOM      8  C6  UNL d   1       5.378   4.469  -3.022  0.00  0.00    -0.082 A 
ATOM      9  C7  UNL d   1       5.962   3.645  -4.014  0.00  0.00     0.045 A 
ENDROOT
TORSDOF 0
ENDMDL
