MODEL 1
REMARK minimizedAffinity 1.06594968
REMARK minimizedRMSD -1
REMARK  0 active torsions:
REMARK  status: ('A' for Active; 'I' for Inactive)
ROOT
ATOM      1  C   UNL d   1       5.312   4.487  -5.830  0.00  0.00    -0.002 A 
ATOM      2  C1  UNL d   1       4.116   3.854  -5.520  0.00  0.00     0.010 A 
ATOM      3  C2  UNL d   1       3.584   3.934  -4.231  0.00  0.00     0.041 A 
ATOM      4  C3  UNL d   1       4.280   4.669  -3.251  0.00  0.00    -0.075 A 
ATOM      5  S   UNL d   1       3.818   4.906  -1.607  0.00  0.00     0.015 SA
ATOM      6  C4  UNL d   1       5.196   5.853  -1.279  0.00  0.00     0.022 A 
ATOM      7  C5  UNL d   1       6.000   5.996  -2.385  0.00  0.00     0.026 A 
ATOM      8  C6  UNL d   1       5.485   5.316  -3.540  0.00  0.00    -0.082 A 
ATOM      9  C7  UNL d   1       5.998   5.215  -4.856  0.00  0.00     0.045 A 
ENDROOT
TORSDOF 0
ENDMDL
