MODEL 1
REMARK minimizedAffinity 12.2605448
REMARK minimizedRMSD -1
REMARK  0 active torsions:
REMARK  status: ('A' for Active; 'I' for Inactive)
ROOT
ATOM      1  C   UNL d   1       3.007   5.040  -0.395  0.00  0.00    -0.002 A 
ATOM      2  C1  UNL d   1       2.105   4.776  -1.416  0.00  0.00     0.010 A 
ATOM      3  C2  UNL d   1       2.485   4.911  -2.753  0.00  0.00     0.041 A 
ATOM      4  C3  UNL d   1       3.801   5.316  -3.049  0.00  0.00    -0.075 A 
ATOM      5  S   UNL d   1       4.490   5.547  -4.613  0.00  0.00     0.015 SA
ATOM      6  C4  UNL d   1       5.999   6.000  -3.963  0.00  0.00     0.022 A 
ATOM      7  C5  UNL d   1       5.995   5.981  -2.588  0.00  0.00     0.026 A 
ATOM      8  C6  UNL d   1       4.728   5.586  -2.039  0.00  0.00    -0.082 A 
ATOM      9  C7  UNL d   1       4.312   5.442  -0.693  0.00  0.00     0.045 A 
ENDROOT
TORSDOF 0
ENDMDL
