MODEL 1
REMARK minimizedAffinity 0.146669388
REMARK minimizedRMSD -1
REMARK  0 active torsions:
REMARK  status: ('A' for Active; 'I' for Inactive)
ROOT
ATOM      1  C   UNL d   1       2.336   3.793  -2.343  0.00  0.00    -0.002 A 
ATOM      2  C1  UNL d   1       2.824   4.792  -1.513  0.00  0.00     0.010 A 
ATOM      3  C2  UNL d   1       3.957   5.524  -1.872  0.00  0.00     0.041 A 
ATOM      4  C3  UNL d   1       4.598   5.233  -3.093  0.00  0.00    -0.075 A 
ATOM      5  S   UNL d   1       6.000   6.000  -3.740  0.00  0.00     0.015 SA
ATOM      6  C4  UNL d   1       5.984   5.019  -5.134  0.00  0.00     0.022 A 
ATOM      7  C5  UNL d   1       4.942   4.123  -5.122  0.00  0.00     0.026 A 
ATOM      8  C6  UNL d   1       4.125   4.232  -3.946  0.00  0.00    -0.082 A 
ATOM      9  C7  UNL d   1       2.975   3.507  -3.553  0.00  0.00     0.045 A 
ENDROOT
TORSDOF 0
ENDMDL
