MODEL 1
REMARK minimizedAffinity 14.2364368
REMARK minimizedRMSD -1
REMARK  0 active torsions:
REMARK  status: ('A' for Active; 'I' for Inactive)
ROOT
ATOM      1  C   UNL d   1       5.230   2.382  -4.272  0.00  0.00    -0.002 A 
ATOM      2  C1  UNL d   1       3.940   2.796  -4.576  0.00  0.00     0.010 A 
ATOM      3  C2  UNL d   1       3.372   3.889  -3.920  0.00  0.00     0.041 A 
ATOM      4  C3  UNL d   1       4.129   4.567  -2.945  0.00  0.00    -0.075 A 
ATOM      5  S   UNL d   1       3.639   5.933  -2.013  0.00  0.00     0.015 SA
ATOM      6  C4  UNL d   1       5.130   6.000  -1.190  0.00  0.00     0.022 A 
ATOM      7  C5  UNL d   1       5.992   5.012  -1.603  0.00  0.00     0.026 A 
ATOM      8  C6  UNL d   1       5.429   4.170  -2.621  0.00  0.00    -0.082 A 
ATOM      9  C7  UNL d   1       5.977   3.057  -3.304  0.00  0.00     0.045 A 
ENDROOT
TORSDOF 0
ENDMDL
