MODEL 1
REMARK minimizedAffinity 3.32993627
REMARK minimizedRMSD -1
REMARK  0 active torsions:
REMARK  status: ('A' for Active; 'I' for Inactive)
ROOT
ATOM      1  C   UNL d   1       5.317   2.675  -5.586  0.00  0.00    -0.002 A 
ATOM      2  C1  UNL d   1       4.076   3.180  -5.947  0.00  0.00     0.010 A 
ATOM      3  C2  UNL d   1       3.488   4.212  -5.212  0.00  0.00     0.041 A 
ATOM      4  C3  UNL d   1       4.177   4.734  -4.100  0.00  0.00    -0.075 A 
ATOM      5  S   UNL d   1       3.652   6.000  -3.053  0.00  0.00     0.015 SA
ATOM      6  C4  UNL d   1       5.064   5.901  -2.103  0.00  0.00     0.022 A 
ATOM      7  C5  UNL d   1       5.925   4.931  -2.559  0.00  0.00     0.026 A 
ATOM      8  C6  UNL d   1       5.428   4.243  -3.718  0.00  0.00    -0.082 A 
ATOM      9  C7  UNL d   1       5.997   3.196  -4.482  0.00  0.00     0.045 A 
ENDROOT
TORSDOF 0
ENDMDL
