MODEL 1
REMARK minimizedAffinity -6.0542407
REMARK minimizedRMSD -1
REMARK  0 active torsions:
REMARK  status: ('A' for Active; 'I' for Inactive)
ROOT
ATOM      1  C   UNL d   1       3.504   1.011  -1.099  0.00  0.00     0.077 C 
ATOM      2  C1  UNL d   1       2.465   1.428  -0.101  0.00  0.00    -0.074 A 
ATOM      3  C2  UNL d   1       2.652   2.558   0.702  0.00  0.00    -0.005 A 
ATOM      4  C3  UNL d   1       1.673   2.939   1.619  0.00  0.00     0.006 A 
ATOM      5  C4  UNL d   1       0.498   2.196   1.742  0.00  0.00    -0.005 A 
ATOM      6  C5  UNL d   1       0.293   1.064   0.947  0.00  0.00    -0.074 A 
ATOM      7  C6  UNL d   1      -0.968   0.260   1.060  0.00  0.00     0.077 C 
ATOM      8  C7  UNL d   1       1.279   0.691   0.023  0.00  0.00    -0.001 A 
ENDROOT
TORSDOF 0
ENDMDL
