MODEL 1
REMARK minimizedAffinity -5.42640162
REMARK minimizedRMSD -1
REMARK  0 active torsions:
REMARK  status: ('A' for Active; 'I' for Inactive)
ROOT
ATOM      1  C   UNL d   1      -1.285  -0.311  -0.978  0.00  0.00     0.077 C 
ATOM      2  C1  UNL d   1      -0.266   0.463  -0.196  0.00  0.00    -0.074 A 
ATOM      3  C2  UNL d   1      -0.622   1.142   0.974  0.00  0.00    -0.005 A 
ATOM      4  C3  UNL d   1       0.339   1.851   1.695  0.00  0.00     0.006 A 
ATOM      5  C4  UNL d   1       1.663   1.887   1.256  0.00  0.00    -0.005 A 
ATOM      6  C5  UNL d   1       2.037   1.213   0.089  0.00  0.00    -0.074 A 
ATOM      7  C6  UNL d   1       3.458   1.234  -0.392  0.00  0.00     0.077 C 
ATOM      8  C7  UNL d   1       1.068   0.498  -0.627  0.00  0.00    -0.001 A 
ENDROOT
TORSDOF 0
ENDMDL
