MODEL 1
REMARK minimizedAffinity -6.18732119
REMARK minimizedRMSD -1
REMARK  0 active torsions:
REMARK  status: ('A' for Active; 'I' for Inactive)
ROOT
ATOM      1  C   UNL d   1      -0.222  -1.043  -0.401  0.00  0.00     0.077 C 
ATOM      2  C1  UNL d   1       0.293   0.098   0.425  0.00  0.00    -0.074 A 
ATOM      3  C2  UNL d   1      -0.389   0.522   1.570  0.00  0.00    -0.005 A 
ATOM      4  C3  UNL d   1       0.107   1.579   2.333  0.00  0.00     0.006 A 
ATOM      5  C4  UNL d   1       1.288   2.222   1.959  0.00  0.00    -0.005 A 
ATOM      6  C5  UNL d   1       1.984   1.812   0.817  0.00  0.00    -0.074 A 
ATOM      7  C6  UNL d   1       3.259   2.486   0.407  0.00  0.00     0.077 C 
ATOM      8  C7  UNL d   1       1.482   0.744   0.060  0.00  0.00    -0.001 A 
ENDROOT
TORSDOF 0
ENDMDL
