MODEL 1
REMARK minimizedAffinity -3.84443355
REMARK minimizedRMSD -1
REMARK  0 active torsions:
REMARK  status: ('A' for Active; 'I' for Inactive)
ROOT
ATOM      1  C   UNL d   1      -0.625  -0.792  -0.788  0.00  0.00     0.077 C 
ATOM      2  C1  UNL d   1       0.119   0.155   0.106  0.00  0.00    -0.074 A 
ATOM      3  C2  UNL d   1      -0.533   0.824   1.147  0.00  0.00    -0.005 A 
ATOM      4  C3  UNL d   1       0.175   1.694   1.976  0.00  0.00     0.006 A 
ATOM      5  C4  UNL d   1       1.539   1.903   1.774  0.00  0.00    -0.005 A 
ATOM      6  C5  UNL d   1       2.209   1.242   0.739  0.00  0.00    -0.074 A 
ATOM      7  C6  UNL d   1       3.677   1.448   0.515  0.00  0.00     0.077 C 
ATOM      8  C7  UNL d   1       1.492   0.364  -0.085  0.00  0.00    -0.001 A 
ENDROOT
TORSDOF 0
ENDMDL
