MODEL 1
REMARK minimizedAffinity -2.33768177
REMARK minimizedRMSD -1
REMARK  0 active torsions:
REMARK  status: ('A' for Active; 'I' for Inactive)
ROOT
ATOM      1  C   UNL d   1       0.716   1.074   3.888  0.00  0.00     0.077 C 
ATOM      2  C1  UNL d   1       0.655   1.187   2.393  0.00  0.00    -0.074 A 
ATOM      3  C2  UNL d   1       1.405   2.152   1.714  0.00  0.00    -0.005 A 
ATOM      4  C3  UNL d   1       1.345   2.238   0.323  0.00  0.00     0.006 A 
ATOM      5  C4  UNL d   1       0.536   1.362  -0.401  0.00  0.00    -0.005 A 
ATOM      6  C5  UNL d   1      -0.221   0.390   0.261  0.00  0.00    -0.074 A 
ATOM      7  C6  UNL d   1      -1.088  -0.566  -0.503  0.00  0.00     0.077 C 
ATOM      8  C7  UNL d   1      -0.150   0.305   1.658  0.00  0.00    -0.001 A 
ENDROOT
TORSDOF 0
ENDMDL
