MODEL 1
REMARK minimizedAffinity -5.96849442
REMARK minimizedRMSD -1
REMARK  0 active torsions:
REMARK  status: ('A' for Active; 'I' for Inactive)
ROOT
ATOM      1  C   UNL d   1       2.219   2.984   1.340  0.00  0.00     0.077 C 
ATOM      2  C1  UNL d   1       1.566   1.710   0.895  0.00  0.00    -0.074 A 
ATOM      3  C2  UNL d   1       2.146   0.914  -0.099  0.00  0.00    -0.005 A 
ATOM      4  C3  UNL d   1       1.531  -0.273  -0.497  0.00  0.00     0.006 A 
ATOM      5  C4  UNL d   1       0.334  -0.677   0.094  0.00  0.00    -0.005 A 
ATOM      6  C5  UNL d   1      -0.260   0.105   1.090  0.00  0.00    -0.074 A 
ATOM      7  C6  UNL d   1      -1.542  -0.319   1.743  0.00  0.00     0.077 C 
ATOM      8  C7  UNL d   1       0.367   1.293   1.489  0.00  0.00    -0.001 A 
ENDROOT
TORSDOF 0
ENDMDL
