MODEL 1
REMARK minimizedAffinity -1.34870863
REMARK minimizedRMSD -1
REMARK  0 active torsions:
REMARK  status: ('A' for Active; 'I' for Inactive)
ROOT
ATOM      1  C   UNL d   1       1.801   3.078   1.691  0.00  0.00     0.077 C 
ATOM      2  C1  UNL d   1       1.422   1.930   0.803  0.00  0.00    -0.074 A 
ATOM      3  C2  UNL d   1       2.242   1.544  -0.262  0.00  0.00    -0.005 A 
ATOM      4  C3  UNL d   1       1.881   0.469  -1.074  0.00  0.00     0.006 A 
ATOM      5  C4  UNL d   1       0.698  -0.230  -0.829  0.00  0.00    -0.005 A 
ATOM      6  C5  UNL d   1      -0.134   0.141   0.232  0.00  0.00    -0.074 A 
ATOM      7  C6  UNL d   1      -1.404  -0.605   0.514  0.00  0.00     0.077 C 
ATOM      8  C7  UNL d   1       0.239   1.218   1.047  0.00  0.00    -0.001 A 
ENDROOT
TORSDOF 0
ENDMDL
