MODEL 1
REMARK minimizedAffinity -5.2725606
REMARK minimizedRMSD -1
REMARK  0 active torsions:
REMARK  status: ('A' for Active; 'I' for Inactive)
ROOT
ATOM      1  C   UNL d   1       2.058   1.912   3.693  0.00  0.00     0.077 C 
ATOM      2  C1  UNL d   1       2.033   1.527   2.243  0.00  0.00    -0.074 A 
ATOM      3  C2  UNL d   1       3.193   1.094   1.594  0.00  0.00    -0.005 A 
ATOM      4  C3  UNL d   1       3.152   0.730   0.248  0.00  0.00     0.006 A 
ATOM      5  C4  UNL d   1       1.952   0.796  -0.461  0.00  0.00    -0.005 A 
ATOM      6  C5  UNL d   1       0.781   1.226   0.172  0.00  0.00    -0.074 A 
ATOM      7  C6  UNL d   1      -0.519   1.294  -0.573  0.00  0.00     0.077 C 
ATOM      8  C7  UNL d   1       0.829   1.583   1.526  0.00  0.00    -0.001 A 
ENDROOT
TORSDOF 0
ENDMDL
