MODEL 1
REMARK minimizedAffinity -5.41996288
REMARK minimizedRMSD -1
REMARK  0 active torsions:
REMARK  status: ('A' for Active; 'I' for Inactive)
ROOT
ATOM      1  C   UNL d   1      -1.507   1.030   0.746  0.00  0.00     0.077 C 
ATOM      2  C1  UNL d   1      -0.054   1.396   0.808  0.00  0.00    -0.074 A 
ATOM      3  C2  UNL d   1       0.399   2.403   1.667  0.00  0.00    -0.005 A 
ATOM      4  C3  UNL d   1       1.755   2.725   1.720  0.00  0.00     0.006 A 
ATOM      5  C4  UNL d   1       2.671   2.045   0.917  0.00  0.00    -0.005 A 
ATOM      6  C5  UNL d   1       2.237   1.034   0.053  0.00  0.00    -0.074 A 
ATOM      7  C6  UNL d   1       3.210   0.287  -0.810  0.00  0.00     0.077 C 
ATOM      8  C7  UNL d   1       0.874   0.711   0.010  0.00  0.00    -0.001 A 
ENDROOT
TORSDOF 0
ENDMDL
