MODEL 1
REMARK minimizedAffinity -1.66206455
REMARK minimizedRMSD -1
REMARK  0 active torsions:
REMARK  status: ('A' for Active; 'I' for Inactive)
ROOT
ATOM      1  C   UNL d   1       1.792   3.109   0.980  0.00  0.00     0.077 C 
ATOM      2  C1  UNL d   1       0.852   1.947   1.106  0.00  0.00    -0.074 A 
ATOM      3  C2  UNL d   1      -0.050   1.865   2.172  0.00  0.00    -0.005 A 
ATOM      4  C3  UNL d   1      -0.925   0.783   2.271  0.00  0.00     0.006 A 
ATOM      5  C4  UNL d   1      -0.906  -0.226   1.307  0.00  0.00    -0.005 A 
ATOM      6  C5  UNL d   1      -0.011  -0.160   0.234  0.00  0.00    -0.074 A 
ATOM      7  C6  UNL d   1       0.015  -1.232  -0.815  0.00  0.00     0.077 C 
ATOM      8  C7  UNL d   1       0.860   0.934   0.138  0.00  0.00    -0.001 A 
ENDROOT
TORSDOF 0
ENDMDL
