MODEL 1
REMARK minimizedAffinity -1.00938165
REMARK minimizedRMSD -1
REMARK  0 active torsions:
REMARK  status: ('A' for Active; 'I' for Inactive)
ROOT
ATOM      1  C   UNL d   1       2.723   1.474  -0.837  0.00  0.00     0.077 C 
ATOM      2  C1  UNL d   1       1.448   0.850  -0.351  0.00  0.00    -0.074 A 
ATOM      3  C2  UNL d   1       0.728   1.418   0.705  0.00  0.00    -0.005 A 
ATOM      4  C3  UNL d   1      -0.461   0.832   1.140  0.00  0.00     0.006 A 
ATOM      5  C4  UNL d   1      -0.941  -0.325   0.525  0.00  0.00    -0.005 A 
ATOM      6  C5  UNL d   1      -0.234  -0.906  -0.533  0.00  0.00    -0.074 A 
ATOM      7  C6  UNL d   1      -0.741  -2.143  -1.212  0.00  0.00     0.077 C 
ATOM      8  C7  UNL d   1       0.956  -0.307  -0.969  0.00  0.00    -0.001 A 
ENDROOT
TORSDOF 0
ENDMDL
