MODEL 1
REMARK minimizedAffinity -5.12466908
REMARK minimizedRMSD -1
REMARK  0 active torsions:
REMARK  status: ('A' for Active; 'I' for Inactive)
ROOT
ATOM      1  C   UNL d   1      -0.962  -1.063  -0.960  0.00  0.00     0.077 C 
ATOM      2  C1  UNL d   1      -0.319  -0.038  -0.075  0.00  0.00    -0.074 A 
ATOM      3  C2  UNL d   1      -1.023   0.536   0.989  0.00  0.00    -0.005 A 
ATOM      4  C3  UNL d   1      -0.408   1.482   1.810  0.00  0.00     0.006 A 
ATOM      5  C4  UNL d   1       0.914   1.862   1.577  0.00  0.00    -0.005 A 
ATOM      6  C5  UNL d   1       1.634   1.298   0.518  0.00  0.00    -0.074 A 
ATOM      7  C6  UNL d   1       3.058   1.689   0.260  0.00  0.00     0.077 C 
ATOM      8  C7  UNL d   1       1.011   0.344  -0.298  0.00  0.00    -0.001 A 
ENDROOT
TORSDOF 0
ENDMDL
