MODEL 1
REMARK minimizedAffinity -4.29649878
REMARK minimizedRMSD -1
REMARK  0 active torsions:
REMARK  status: ('A' for Active; 'I' for Inactive)
ROOT
ATOM      1  C   UNL d   1       0.013  -1.181  -0.765  0.00  0.00     0.077 C 
ATOM      2  C1  UNL d   1       0.007  -0.024   0.190  0.00  0.00    -0.074 A 
ATOM      3  C2  UNL d   1      -1.131   0.279   0.945  0.00  0.00    -0.005 A 
ATOM      4  C3  UNL d   1      -1.118   1.352   1.837  0.00  0.00     0.006 A 
ATOM      5  C4  UNL d   1       0.030   2.132   1.981  0.00  0.00    -0.005 A 
ATOM      6  C5  UNL d   1       1.177   1.844   1.235  0.00  0.00    -0.074 A 
ATOM      7  C6  UNL d   1       2.422   2.666   1.385  0.00  0.00     0.077 C 
ATOM      8  C7  UNL d   1       1.159   0.760   0.347  0.00  0.00    -0.001 A 
ENDROOT
TORSDOF 0
ENDMDL
