MODEL 1
REMARK minimizedAffinity -6.10729742
REMARK minimizedRMSD -1
REMARK  0 active torsions:
REMARK  status: ('A' for Active; 'I' for Inactive)
ROOT
ATOM      1  C   UNL d   1      -0.850  -0.509   0.827  0.00  0.00     0.077 C 
ATOM      2  C1  UNL d   1       0.009   0.719   0.864  0.00  0.00    -0.074 A 
ATOM      3  C2  UNL d   1      -0.489   1.931   1.355  0.00  0.00    -0.005 A 
ATOM      4  C3  UNL d   1       0.326   3.062   1.393  0.00  0.00     0.006 A 
ATOM      5  C4  UNL d   1       1.644   2.995   0.941  0.00  0.00    -0.005 A 
ATOM      6  C5  UNL d   1       2.160   1.792   0.447  0.00  0.00    -0.074 A 
ATOM      7  C6  UNL d   1       3.578   1.700  -0.033  0.00  0.00     0.077 C 
ATOM      8  C7  UNL d   1       1.337   0.657   0.419  0.00  0.00    -0.001 A 
ENDROOT
TORSDOF 0
ENDMDL
