MODEL 1
REMARK minimizedAffinity -6.06390238
REMARK minimizedRMSD -1
REMARK  0 active torsions:
REMARK  status: ('A' for Active; 'I' for Inactive)
ROOT
ATOM      1  C   UNL d   1      -0.120  -1.245  -0.601  0.00  0.00     0.077 C 
ATOM      2  C1  UNL d   1       0.337  -0.104   0.259  0.00  0.00    -0.074 A 
ATOM      3  C2  UNL d   1      -0.483   0.406   1.271  0.00  0.00    -0.005 A 
ATOM      4  C3  UNL d   1      -0.040   1.461   2.069  0.00  0.00     0.006 A 
ATOM      5  C4  UNL d   1       1.224   2.015   1.864  0.00  0.00    -0.005 A 
ATOM      6  C5  UNL d   1       2.057   1.518   0.857  0.00  0.00    -0.074 A 
ATOM      7  C6  UNL d   1       3.423   2.096   0.630  0.00  0.00     0.077 C 
ATOM      8  C7  UNL d   1       1.609   0.453   0.064  0.00  0.00    -0.001 A 
ENDROOT
TORSDOF 0
ENDMDL
