MODEL 1
REMARK minimizedAffinity -3.53244328
REMARK minimizedRMSD -1
REMARK  0 active torsions:
REMARK  status: ('A' for Active; 'I' for Inactive)
ROOT
ATOM      1  C   UNL d   1       4.018   0.798  -0.169  0.00  0.00     0.077 C 
ATOM      2  C1  UNL d   1       2.805   1.427   0.448  0.00  0.00    -0.074 A 
ATOM      3  C2  UNL d   1       2.878   2.684   1.057  0.00  0.00    -0.005 A 
ATOM      4  C3  UNL d   1       1.739   3.261   1.618  0.00  0.00     0.006 A 
ATOM      5  C4  UNL d   1       0.517   2.588   1.577  0.00  0.00    -0.005 A 
ATOM      6  C5  UNL d   1       0.425   1.331   0.972  0.00  0.00    -0.074 A 
ATOM      7  C6  UNL d   1      -0.883   0.598   0.910  0.00  0.00     0.077 C 
ATOM      8  C7  UNL d   1       1.572   0.761   0.404  0.00  0.00    -0.001 A 
ENDROOT
TORSDOF 0
ENDMDL
