MODEL 1
REMARK minimizedAffinity -3.80101752
REMARK minimizedRMSD -1
REMARK  2 active torsions:
REMARK  status: ('A' for Active; 'I' for Inactive)
REMARK    1  A    between atoms: C2'_3  and  C1'_4 
REMARK    2  A    between atoms: C1'_4  and  C1_5 
ROOT
ATOM      1  C1  I4B d   1      -0.366  -0.019  -0.475  0.00  0.00    -0.075 A 
ATOM      2  C2  I4B d   1       0.897  -0.398  -0.093  0.00  0.00     0.003 A 
ATOM      3  C3  I4B d   1       1.157  -0.755   1.252  0.00  0.00     0.002 A 
ATOM      4  C4  I4B d   1       0.145  -0.672   2.186  0.00  0.00    -0.004 A 
ATOM      5  C5  I4B d   1      -1.140  -0.309   1.793  0.00  0.00     0.002 A 
ATOM      6  C6  I4B d   1      -1.401   0.008   0.451  0.00  0.00     0.003 A 
ENDROOT
BRANCH   1   7
ATOM      7  C1' I4B d   1      -0.599   0.384  -1.897  0.00  0.00     0.060 C 
BRANCH   7   8
ATOM      8  C2' I4B d   1      -1.399   1.670  -1.892  0.00  0.00    -0.013 C 
ATOM      9  C4' I4B d   1      -0.555   2.840  -2.326  0.00  0.00     0.013 C 
ATOM     10  C3' I4B d   1      -2.577   1.486  -2.803  0.00  0.00     0.013 C 
ENDBRANCH   7   8
ENDBRANCH   1   7
TORSDOF 2
ENDMDL
