MODEL 1
REMARK minimizedAffinity -6.43400621
REMARK minimizedRMSD -1
REMARK  2 active torsions:
REMARK  status: ('A' for Active; 'I' for Inactive)
REMARK    1  A    between atoms: C2'_3  and  C1'_4 
REMARK    2  A    between atoms: C1'_4  and  C1_5 
ROOT
ATOM      1  C1  I4B d   1       0.635  -0.355   0.818  0.00  0.00    -0.075 A 
ATOM      2  C2  I4B d   1       0.636  -0.292   2.189  0.00  0.00     0.003 A 
ATOM      3  C3  I4B d   1       1.625  -0.981   2.933  0.00  0.00     0.002 A 
ATOM      4  C4  I4B d   1       2.556  -1.756   2.272  0.00  0.00    -0.004 A 
ATOM      5  C5  I4B d   1       2.566  -1.800   0.881  0.00  0.00     0.002 A 
ATOM      6  C6  I4B d   1       1.608  -1.085   0.148  0.00  0.00     0.003 A 
ENDROOT
BRANCH   1   7
ATOM      7  C1' I4B d   1      -0.444   0.358   0.065  0.00  0.00     0.060 C 
BRANCH   7   8
ATOM      8  C2' I4B d   1       0.012   0.509  -1.372  0.00  0.00    -0.013 C 
ATOM      9  C4' I4B d   1      -0.343  -0.706  -2.187  0.00  0.00     0.013 C 
ATOM     10  C3' I4B d   1      -0.628   1.744  -1.933  0.00  0.00     0.013 C 
ENDBRANCH   7   8
ENDBRANCH   1   7
TORSDOF 2
ENDMDL
