MODEL 1
REMARK minimizedAffinity -2.70121527
REMARK minimizedRMSD -1
REMARK  2 active torsions:
REMARK  status: ('A' for Active; 'I' for Inactive)
REMARK    1  A    between atoms: C2'_3  and  C1'_4 
REMARK    2  A    between atoms: C1'_4  and  C1_5 
ROOT
ATOM      1  C1  I4B d   1      -0.610   0.115  -0.328  0.00  0.00    -0.075 A 
ATOM      2  C2  I4B d   1       0.509  -0.596   0.030  0.00  0.00     0.003 A 
ATOM      3  C3  I4B d   1       0.736  -0.931   1.387  0.00  0.00     0.002 A 
ATOM      4  C4  I4B d   1      -0.149  -0.495   2.352  0.00  0.00    -0.004 A 
ATOM      5  C5  I4B d   1      -1.294   0.205   1.984  0.00  0.00     0.002 A 
ATOM      6  C6  I4B d   1      -1.533   0.501   0.635  0.00  0.00     0.003 A 
ENDROOT
BRANCH   1   7
ATOM      7  C1' I4B d   1      -0.802   0.480  -1.766  0.00  0.00     0.060 C 
BRANCH   7   8
ATOM      8  C2' I4B d   1      -1.317   1.903  -1.821  0.00  0.00    -0.013 C 
ATOM      9  C4' I4B d   1      -0.189   2.885  -1.997  0.00  0.00     0.013 C 
ATOM     10  C3' I4B d   1      -2.298   1.997  -2.951  0.00  0.00     0.013 C 
ENDBRANCH   7   8
ENDBRANCH   1   7
TORSDOF 2
ENDMDL
