MODEL 1
REMARK minimizedAffinity -5.51506281
REMARK minimizedRMSD -1
REMARK  2 active torsions:
REMARK  status: ('A' for Active; 'I' for Inactive)
REMARK    1  A    between atoms: C2'_3  and  C1'_4 
REMARK    2  A    between atoms: C1'_4  and  C1_5 
ROOT
ATOM      1  C1  I4B d   1      -0.471   0.221  -0.391  0.00  0.00    -0.075 A 
ATOM      2  C2  I4B d   1       0.742  -0.410  -0.269  0.00  0.00     0.003 A 
ATOM      3  C3  I4B d   1       1.123  -0.990   0.965  0.00  0.00     0.002 A 
ATOM      4  C4  I4B d   1       0.289  -0.872   2.058  0.00  0.00    -0.004 A 
ATOM      5  C5  I4B d   1      -0.951  -0.253   1.927  0.00  0.00     0.002 A 
ATOM      6  C6  I4B d   1      -1.339   0.286   0.692  0.00  0.00     0.003 A 
ENDROOT
BRANCH   1   7
ATOM      7  C1' I4B d   1      -0.828   0.850  -1.700  0.00  0.00     0.060 C 
BRANCH   7   8
ATOM      8  C2' I4B d   1      -0.545   2.335  -1.596  0.00  0.00    -0.013 C 
ATOM      9  C4' I4B d   1       0.599   2.737  -2.489  0.00  0.00     0.013 C 
ATOM     10  C3' I4B d   1      -1.800   3.072  -1.959  0.00  0.00     0.013 C 
ENDBRANCH   7   8
ENDBRANCH   1   7
TORSDOF 2
ENDMDL
