MODEL 1
REMARK minimizedAffinity -2.78964257
REMARK minimizedRMSD -1
REMARK  0 active torsions:
REMARK  status: ('A' for Active; 'I' for Inactive)
ROOT
ATOM      1  N1  IND d   1      -4.110   5.728  -5.622  0.00  0.00    -0.196 N 
ATOM      2  C2  IND d   1      -2.777   5.993  -5.475  0.00  0.00     0.054 A 
ATOM      3  C3  IND d   1      -2.065   4.844  -5.484  0.00  0.00    -0.031 A 
ATOM      4  C4  IND d   1      -2.872   2.423  -5.828  0.00  0.00     0.051 A 
ATOM      5  C5  IND d   1      -4.008   1.675  -5.966  0.00  0.00    -0.031 A 
ATOM      6  C6  IND d   1      -5.261   2.252  -5.999  0.00  0.00     0.015 A 
ATOM      7  C7  IND d   1      -5.425   3.605  -5.907  0.00  0.00    -0.016 A 
ATOM      8  C8  IND d   1      -4.274   4.367  -5.760  0.00  0.00    -0.047 A 
ATOM      9  C9  IND d   1      -3.003   3.784  -5.683  0.00  0.00    -0.096 A 
ATOM     10  HN1 IND d   1      -4.740   6.313  -5.627  0.00  0.00     0.298 HD
ENDROOT
TORSDOF 0
ENDMDL
