MODEL 1
REMARK minimizedAffinity -3.83864641
REMARK minimizedRMSD -1
REMARK  0 active torsions:
REMARK  status: ('A' for Active; 'I' for Inactive)
ROOT
ATOM      1  N1  IND d   1      -3.800   5.581  -5.969  0.00  0.00    -0.196 N 
ATOM      2  C2  IND d   1      -2.470   5.896  -5.935  0.00  0.00     0.054 A 
ATOM      3  C3  IND d   1      -1.721   4.771  -5.902  0.00  0.00    -0.031 A 
ATOM      4  C4  IND d   1      -2.463   2.308  -6.000  0.00  0.00     0.051 A 
ATOM      5  C5  IND d   1      -3.579   1.518  -6.000  0.00  0.00    -0.031 A 
ATOM      6  C6  IND d   1      -4.851   2.054  -5.993  0.00  0.00     0.015 A 
ATOM      7  C7  IND d   1      -5.056   3.404  -5.996  0.00  0.00    -0.016 A 
ATOM      8  C8  IND d   1      -3.925   4.209  -5.988  0.00  0.00    -0.047 A 
ATOM      9  C9  IND d   1      -2.632   3.672  -5.953  0.00  0.00    -0.096 A 
ATOM     10  HN1 IND d   1      -4.449   6.145  -5.976  0.00  0.00     0.298 HD
ENDROOT
TORSDOF 0
ENDMDL
