MODEL 1
REMARK minimizedAffinity -1.43078434
REMARK minimizedRMSD -1
REMARK  0 active torsions:
REMARK  status: ('A' for Active; 'I' for Inactive)
ROOT
ATOM      1  N1  IND d   1      -6.000   4.411  -5.960  0.00  0.00    -0.196 N 
ATOM      2  C2  IND d   1      -5.179   5.503  -5.919  0.00  0.00     0.054 A 
ATOM      3  C3  IND d   1      -3.884   5.117  -5.885  0.00  0.00    -0.031 A 
ATOM      4  C4  IND d   1      -2.880   2.749  -5.992  0.00  0.00     0.051 A 
ATOM      5  C5  IND d   1      -3.233   1.429  -6.000  0.00  0.00    -0.031 A 
ATOM      6  C6  IND d   1      -4.553   1.027  -5.998  0.00  0.00     0.015 A 
ATOM      7  C7  IND d   1      -5.574   1.935  -6.000  0.00  0.00    -0.016 A 
ATOM      8  C8  IND d   1      -5.219   3.276  -5.984  0.00  0.00    -0.047 A 
ATOM      9  C9  IND d   1      -3.881   3.690  -5.943  0.00  0.00    -0.096 A 
ATOM     10  HN1 IND d   1      -6.859   4.430  -5.970  0.00  0.00     0.298 HD
ENDROOT
TORSDOF 0
ENDMDL
