MODEL 1
REMARK minimizedAffinity 0.730316341
REMARK minimizedRMSD -1
REMARK  0 active torsions:
REMARK  status: ('A' for Active; 'I' for Inactive)
ROOT
ATOM      1  N1  IND d   1      -5.260  -2.337  -5.280  0.00  0.00    -0.196 N 
ATOM      2  C2  IND d   1      -4.133  -1.596  -5.058  0.00  0.00     0.054 A 
ATOM      3  C3  IND d   1      -3.034  -2.381  -5.119  0.00  0.00    -0.031 A 
ATOM      4  C4  IND d   1      -2.843  -4.888  -5.670  0.00  0.00     0.051 A 
ATOM      5  C5  IND d   1      -3.603  -5.999  -5.910  0.00  0.00    -0.031 A 
ATOM      6  C6  IND d   1      -4.981  -5.944  -5.956  0.00  0.00     0.015 A 
ATOM      7  C7  IND d   1      -5.653  -4.769  -5.774  0.00  0.00    -0.016 A 
ATOM      8  C8  IND d   1      -4.886  -3.640  -5.523  0.00  0.00    -0.047 A 
ATOM      9  C9  IND d   1      -3.489  -3.698  -5.433  0.00  0.00    -0.096 A 
ATOM     10  HN1 IND d   1      -6.067  -2.039  -5.270  0.00  0.00     0.298 HD
ENDROOT
TORSDOF 0
ENDMDL
