MODEL 1
REMARK minimizedAffinity 1.03596187
REMARK minimizedRMSD -1
REMARK  0 active torsions:
REMARK  status: ('A' for Active; 'I' for Inactive)
ROOT
ATOM      1  N1  IND d   1       2.345   1.713  -0.332  0.00  0.00    -0.196 N 
ATOM      2  C2  IND d   1       1.709   2.020   0.838  0.00  0.00     0.054 A 
ATOM      3  C3  IND d   1       0.647   1.204   1.025  0.00  0.00    -0.031 A 
ATOM      4  C4  IND d   1      -0.171  -0.770  -0.411  0.00  0.00     0.051 A 
ATOM      5  C5  IND d   1       0.065  -1.412  -1.594  0.00  0.00    -0.031 A 
ATOM      6  C6  IND d   1       1.097  -1.040  -2.432  0.00  0.00     0.015 A 
ATOM      7  C7  IND d   1       1.940  -0.014  -2.112  0.00  0.00    -0.016 A 
ATOM      8  C8  IND d   1       1.699   0.645  -0.915  0.00  0.00    -0.047 A 
ATOM      9  C9  IND d   1       0.628   0.299  -0.081  0.00  0.00    -0.096 A 
ATOM     10  HN1 IND d   1       3.033   2.118  -0.650  0.00  0.00     0.298 HD
ENDROOT
TORSDOF 0
ENDMDL
