MODEL 1
REMARK minimizedAffinity 3.61519003
REMARK minimizedRMSD -1
REMARK  0 active torsions:
REMARK  status: ('A' for Active; 'I' for Inactive)
ROOT
ATOM      1  N1  IND d   1      -4.511   2.494  -6.000  0.00  0.00    -0.196 N 
ATOM      2  C2  IND d   1      -3.392   3.278  -5.975  0.00  0.00     0.054 A 
ATOM      3  C3  IND d   1      -2.280   2.510  -5.928  0.00  0.00    -0.031 A 
ATOM      4  C4  IND d   1      -2.061  -0.055  -5.986  0.00  0.00     0.051 A 
ATOM      5  C5  IND d   1      -2.806  -1.200  -5.970  0.00  0.00    -0.031 A 
ATOM      6  C6  IND d   1      -4.186  -1.172  -5.967  0.00  0.00     0.015 A 
ATOM      7  C7  IND d   1      -4.874   0.007  -5.990  0.00  0.00    -0.016 A 
ATOM      8  C8  IND d   1      -4.121   1.173  -5.998  0.00  0.00    -0.047 A 
ATOM      9  C9  IND d   1      -2.721   1.151  -5.959  0.00  0.00    -0.096 A 
ATOM     10  HN1 IND d   1      -5.322   2.778  -6.014  0.00  0.00     0.298 HD
ENDROOT
TORSDOF 0
ENDMDL
