MODEL 1
REMARK minimizedAffinity -3.84274888
REMARK minimizedRMSD -1
REMARK  0 active torsions:
REMARK  status: ('A' for Active; 'I' for Inactive)
ROOT
ATOM      1  N1  IND d   1      -5.869   3.490  -5.993  0.00  0.00    -0.196 N 
ATOM      2  C2  IND d   1      -5.903   4.856  -6.000  0.00  0.00     0.054 A 
ATOM      3  C3  IND d   1      -4.650   5.358  -5.909  0.00  0.00    -0.031 A 
ATOM      4  C4  IND d   1      -2.394   4.120  -5.842  0.00  0.00     0.051 A 
ATOM      5  C5  IND d   1      -1.855   2.866  -5.776  0.00  0.00    -0.031 A 
ATOM      6  C6  IND d   1      -2.642   1.732  -5.782  0.00  0.00     0.015 A 
ATOM      7  C7  IND d   1      -4.003   1.811  -5.866  0.00  0.00    -0.016 A 
ATOM      8  C8  IND d   1      -4.555   3.083  -5.926  0.00  0.00    -0.047 A 
ATOM      9  C9  IND d   1      -3.763   4.238  -5.877  0.00  0.00    -0.096 A 
ATOM     10  HN1 IND d   1      -6.554   2.971  -6.025  0.00  0.00     0.298 HD
ENDROOT
TORSDOF 0
ENDMDL
