MODEL 1
REMARK minimizedAffinity -0.662363768
REMARK minimizedRMSD -1
REMARK  0 active torsions:
REMARK  status: ('A' for Active; 'I' for Inactive)
ROOT
ATOM      1  N1  IND d   1       1.839   1.858   0.212  0.00  0.00    -0.196 N 
ATOM      2  C2  IND d   1       2.746   2.440  -0.628  0.00  0.00     0.054 A 
ATOM      3  C3  IND d   1       2.887   1.703  -1.753  0.00  0.00    -0.031 A 
ATOM      4  C4  IND d   1       1.652  -0.439  -2.469  0.00  0.00     0.051 A 
ATOM      5  C5  IND d   1       0.758  -1.369  -2.018  0.00  0.00    -0.031 A 
ATOM      6  C6  IND d   1       0.164  -1.267  -0.777  0.00  0.00     0.015 A 
ATOM      7  C7  IND d   1       0.435  -0.221   0.059  0.00  0.00    -0.016 A 
ATOM      8  C8  IND d   1       1.348   0.721  -0.393  0.00  0.00    -0.047 A 
ATOM      9  C9  IND d   1       1.986   0.601  -1.634  0.00  0.00    -0.096 A 
ATOM     10  HN1 IND d   1       1.612   2.152   0.987  0.00  0.00     0.298 HD
ENDROOT
TORSDOF 0
ENDMDL
