MODEL 1
REMARK minimizedAffinity 3.40480638
REMARK minimizedRMSD -1
REMARK  0 active torsions:
REMARK  status: ('A' for Active; 'I' for Inactive)
ROOT
ATOM      1  N1  IND d   1       2.205   0.812  -2.234  0.00  0.00    -0.196 N 
ATOM      2  C2  IND d   1       1.939  -0.370  -2.867  0.00  0.00     0.054 A 
ATOM      3  C3  IND d   1       1.258  -1.200  -2.045  0.00  0.00    -0.031 A 
ATOM      4  C4  IND d   1       0.387  -0.788   0.342  0.00  0.00     0.051 A 
ATOM      5  C5  IND d   1       0.415   0.129   1.355  0.00  0.00    -0.031 A 
ATOM      6  C6  IND d   1       1.052   1.346   1.220  0.00  0.00     0.015 A 
ATOM      7  C7  IND d   1       1.677   1.697   0.058  0.00  0.00    -0.016 A 
ATOM      8  C8  IND d   1       1.657   0.766  -0.971  0.00  0.00    -0.047 A 
ATOM      9  C9  IND d   1       1.049  -0.487  -0.825  0.00  0.00    -0.096 A 
ATOM     10  HN1 IND d   1       2.641   1.473  -2.569  0.00  0.00     0.298 HD
ENDROOT
TORSDOF 0
ENDMDL
