MODEL 1
REMARK minimizedAffinity -1.51358473
REMARK minimizedRMSD -1
REMARK  0 active torsions:
REMARK  status: ('A' for Active; 'I' for Inactive)
ROOT
ATOM      1  N1  IND d   1      -5.358   2.256  -5.998  0.00  0.00    -0.196 N 
ATOM      2  C2  IND d   1      -4.215   1.506  -5.991  0.00  0.00     0.054 A 
ATOM      3  C3  IND d   1      -3.127   2.308  -5.989  0.00  0.00    -0.031 A 
ATOM      4  C4  IND d   1      -2.988   4.877  -5.894  0.00  0.00     0.051 A 
ATOM      5  C5  IND d   1      -3.767   6.000  -5.923  0.00  0.00    -0.031 A 
ATOM      6  C6  IND d   1      -5.144   5.930  -5.977  0.00  0.00     0.015 A 
ATOM      7  C7  IND d   1      -5.797   4.730  -5.992  0.00  0.00    -0.016 A 
ATOM      8  C8  IND d   1      -5.009   3.588  -5.970  0.00  0.00    -0.047 A 
ATOM      9  C9  IND d   1      -3.610   3.652  -5.958  0.00  0.00    -0.096 A 
ATOM     10  HN1 IND d   1      -6.160   1.947  -6.017  0.00  0.00     0.298 HD
ENDROOT
TORSDOF 0
ENDMDL
