MODEL 1
REMARK minimizedAffinity -0.494196594
REMARK minimizedRMSD -1
REMARK  0 active torsions:
REMARK  status: ('A' for Active; 'I' for Inactive)
ROOT
ATOM      1  N1  IND d   1      -6.000   3.017  -5.976  0.00  0.00    -0.196 N 
ATOM      2  C2  IND d   1      -5.589   4.321  -5.948  0.00  0.00     0.054 A 
ATOM      3  C3  IND d   1      -4.239   4.388  -5.912  0.00  0.00    -0.031 A 
ATOM      4  C4  IND d   1      -2.504   2.488  -5.997  0.00  0.00     0.051 A 
ATOM      5  C5  IND d   1      -2.398   1.126  -5.990  0.00  0.00    -0.031 A 
ATOM      6  C6  IND d   1      -3.509   0.307  -5.982  0.00  0.00     0.015 A 
ATOM      7  C7  IND d   1      -4.774   0.824  -5.990  0.00  0.00    -0.016 A 
ATOM      8  C8  IND d   1      -4.886   2.207  -5.989  0.00  0.00    -0.047 A 
ATOM      9  C9  IND d   1      -3.762   3.042  -5.955  0.00  0.00    -0.096 A 
ATOM     10  HN1 IND d   1      -6.817   2.749  -5.984  0.00  0.00     0.298 HD
ENDROOT
TORSDOF 0
ENDMDL
