MODEL 1
REMARK minimizedAffinity -2.97624254
REMARK minimizedRMSD -1
REMARK  0 active torsions:
REMARK  status: ('A' for Active; 'I' for Inactive)
ROOT
ATOM      1  N1  IND d   1      -5.649   4.146  -5.929  0.00  0.00    -0.196 N 
ATOM      2  C2  IND d   1      -4.715   5.143  -5.906  0.00  0.00     0.054 A 
ATOM      3  C3  IND d   1      -3.469   4.620  -5.890  0.00  0.00    -0.031 A 
ATOM      4  C4  IND d   1      -2.727   2.157  -6.000  0.00  0.00     0.051 A 
ATOM      5  C5  IND d   1      -3.221   0.883  -5.996  0.00  0.00    -0.031 A 
ATOM      6  C6  IND d   1      -4.576   0.625  -5.971  0.00  0.00     0.015 A 
ATOM      7  C7  IND d   1      -5.493   1.638  -5.962  0.00  0.00    -0.016 A 
ATOM      8  C8  IND d   1      -4.996   2.933  -5.958  0.00  0.00    -0.047 A 
ATOM      9  C9  IND d   1      -3.621   3.200  -5.940  0.00  0.00    -0.096 A 
ATOM     10  HN1 IND d   1      -6.502   4.257  -5.925  0.00  0.00     0.298 HD
ENDROOT
TORSDOF 0
ENDMDL
