MODEL 1
REMARK minimizedAffinity 2.35190654
REMARK minimizedRMSD -1
REMARK  0 active torsions:
REMARK  status: ('A' for Active; 'I' for Inactive)
ROOT
ATOM      1  N1  IND d   1      -1.935   2.994  -5.980  0.00  0.00    -0.196 N 
ATOM      2  C2  IND d   1      -1.847   4.359  -5.977  0.00  0.00     0.054 A 
ATOM      3  C3  IND d   1      -3.082   4.909  -5.995  0.00  0.00    -0.031 A 
ATOM      4  C4  IND d   1      -5.385   3.762  -5.929  0.00  0.00     0.051 A 
ATOM      5  C5  IND d   1      -5.977   2.530  -5.962  0.00  0.00    -0.031 A 
ATOM      6  C6  IND d   1      -5.236   1.367  -6.000  0.00  0.00     0.015 A 
ATOM      7  C7  IND d   1      -3.870   1.391  -5.995  0.00  0.00    -0.016 A 
ATOM      8  C8  IND d   1      -3.266   2.641  -5.970  0.00  0.00    -0.047 A 
ATOM      9  C9  IND d   1      -4.013   3.826  -5.974  0.00  0.00    -0.096 A 
ATOM     10  HN1 IND d   1      -1.270   2.449  -5.986  0.00  0.00     0.298 HD
ENDROOT
TORSDOF 0
ENDMDL
