MODEL 1
REMARK minimizedAffinity 0.135867342
REMARK minimizedRMSD -1
REMARK  0 active torsions:
REMARK  status: ('A' for Active; 'I' for Inactive)
ROOT
ATOM      1  N1  IND d   1       0.334  -0.193   0.955  0.00  0.00    -0.196 N 
ATOM      2  C2  IND d   1      -0.538  -1.213   0.695  0.00  0.00     0.054 A 
ATOM      3  C3  IND d   1      -0.474  -1.566  -0.609  0.00  0.00    -0.031 A 
ATOM      4  C4  IND d   1       1.066  -0.674  -2.470  0.00  0.00     0.051 A 
ATOM      5  C5  IND d   1       2.006   0.285  -2.723  0.00  0.00    -0.031 A 
ATOM      6  C6  IND d   1       2.448   1.149  -1.742  0.00  0.00     0.015 A 
ATOM      7  C7  IND d   1       1.973   1.078  -0.463  0.00  0.00    -0.016 A 
ATOM      8  C8  IND d   1       1.012   0.111  -0.205  0.00  0.00    -0.047 A 
ATOM      9  C9  IND d   1       0.529  -0.741  -1.206  0.00  0.00    -0.096 A 
ATOM     10  HN1 IND d   1       0.442   0.193   1.716  0.00  0.00     0.298 HD
ENDROOT
TORSDOF 0
ENDMDL
