MODEL 1
REMARK minimizedAffinity -1.08628714
REMARK minimizedRMSD -1
REMARK  0 active torsions:
REMARK  status: ('A' for Active; 'I' for Inactive)
ROOT
ATOM      1  N1  IND d   1      -5.130   2.629  -5.985  0.00  0.00    -0.196 N 
ATOM      2  C2  IND d   1      -4.237   3.663  -5.954  0.00  0.00     0.054 A 
ATOM      3  C3  IND d   1      -2.971   3.191  -5.916  0.00  0.00    -0.031 A 
ATOM      4  C4  IND d   1      -2.130   0.759  -6.000  0.00  0.00     0.051 A 
ATOM      5  C5  IND d   1      -2.571  -0.534  -5.995  0.00  0.00    -0.031 A 
ATOM      6  C6  IND d   1      -3.916  -0.846  -5.989  0.00  0.00     0.015 A 
ATOM      7  C7  IND d   1      -4.873   0.129  -6.000  0.00  0.00    -0.016 A 
ATOM      8  C8  IND d   1      -4.428   1.444  -5.997  0.00  0.00    -0.047 A 
ATOM      9  C9  IND d   1      -3.065   1.766  -5.960  0.00  0.00    -0.096 A 
ATOM     10  HN1 IND d   1      -5.987   2.706  -5.995  0.00  0.00     0.298 HD
ENDROOT
TORSDOF 0
ENDMDL
