MODEL 1
REMARK minimizedAffinity -2.62495708
REMARK minimizedRMSD -1
REMARK  0 active torsions:
REMARK  status: ('A' for Active; 'I' for Inactive)
ROOT
ATOM      1  C4' PXY d   1       1.374  -3.613   0.012  0.00  0.00     0.077 C 
ATOM      2  C1' PXY d   1       1.144   1.925  -1.626  0.00  0.00     0.077 C 
ATOM      3  C1  PXY d   1       1.194   0.470  -1.203  0.00  0.00    -0.082 A 
ATOM      4  C2  PXY d   1       1.807   0.136  -0.080  0.00  0.00     0.003 A 
ATOM      5  C3  PXY d   1       1.889  -1.179   0.301  0.00  0.00     0.003 A 
ATOM      6  C4  PXY d   1       1.291  -2.156  -0.449  0.00  0.00    -0.082 A 
ATOM      7  C5  PXY d   1       0.654  -1.822  -1.591  0.00  0.00     0.003 A 
ATOM      8  C6  PXY d   1       0.618  -0.486  -1.981  0.00  0.00     0.003 A 
ENDROOT
TORSDOF 0
ENDMDL
