MODEL 1
REMARK minimizedAffinity -3.32121706
REMARK minimizedRMSD -1
REMARK  0 active torsions:
REMARK  status: ('A' for Active; 'I' for Inactive)
ROOT
ATOM      1  C4' PXY d   1       1.020  -2.589   0.499  0.00  0.00     0.077 C 
ATOM      2  C1' PXY d   1       1.511   2.263  -2.605  0.00  0.00     0.077 C 
ATOM      3  C1  PXY d   1       1.393   0.994  -1.784  0.00  0.00    -0.082 A 
ATOM      4  C2  PXY d   1       0.773  -0.058  -2.292  0.00  0.00     0.003 A 
ATOM      5  C3  PXY d   1       0.629  -1.203  -1.552  0.00  0.00     0.003 A 
ATOM      6  C4  PXY d   1       1.171  -1.290  -0.297  0.00  0.00    -0.082 A 
ATOM      7  C5  PXY d   1       1.814  -0.223   0.225  0.00  0.00     0.003 A 
ATOM      8  C6  PXY d   1       1.913   0.943  -0.528  0.00  0.00     0.003 A 
ENDROOT
TORSDOF 0
ENDMDL
