MODEL 1
REMARK minimizedAffinity -4.10605907
REMARK minimizedRMSD -1
REMARK  0 active torsions:
REMARK  status: ('A' for Active; 'I' for Inactive)
ROOT
ATOM      1  C4' PXY d   1       1.997   4.260   0.205  0.00  0.00     0.077 C 
ATOM      2  C1' PXY d   1       0.428  -0.490  -2.692  0.00  0.00     0.077 C 
ATOM      3  C1  PXY d   1       0.835   0.750  -1.921  0.00  0.00    -0.082 A 
ATOM      4  C2  PXY d   1       0.951   1.906  -2.555  0.00  0.00     0.003 A 
ATOM      5  C3  PXY d   1       1.349   3.031  -1.880  0.00  0.00     0.003 A 
ATOM      6  C4  PXY d   1       1.579   2.984  -0.531  0.00  0.00    -0.082 A 
ATOM      7  C5  PXY d   1       1.453   1.811   0.125  0.00  0.00     0.003 A 
ATOM      8  C6  PXY d   1       1.087   0.672  -0.586  0.00  0.00     0.003 A 
ENDROOT
TORSDOF 0
ENDMDL
