MODEL 1
REMARK minimizedAffinity -0.887096763
REMARK minimizedRMSD -1
REMARK  0 active torsions:
REMARK  status: ('A' for Active; 'I' for Inactive)
ROOT
ATOM      1  C4' PXY d   1       0.960  -0.778  -2.346  0.00  0.00     0.077 C 
ATOM      2  C1' PXY d   1       1.852   3.411   1.537  0.00  0.00     0.077 C 
ATOM      3  C1  PXY d   1       1.615   2.321   0.509  0.00  0.00    -0.082 A 
ATOM      4  C2  PXY d   1       1.300   1.101   0.911  0.00  0.00     0.003 A 
ATOM      5  C3  PXY d   1       1.113   0.096  -0.003  0.00  0.00     0.003 A 
ATOM      6  C4  PXY d   1       1.199   0.355  -1.344  0.00  0.00    -0.082 A 
ATOM      7  C5  PXY d   1       1.510   1.601  -1.763  0.00  0.00     0.003 A 
ATOM      8  C6  PXY d   1       1.736   2.597  -0.817  0.00  0.00     0.003 A 
ENDROOT
TORSDOF 0
ENDMDL
