MODEL 1
REMARK minimizedAffinity 6.22270012
REMARK minimizedRMSD -1
REMARK  0 active torsions:
REMARK  status: ('A' for Active; 'I' for Inactive)
ROOT
ATOM      1  C4' PXY d   1      -1.776   1.879  -2.379  0.00  0.00     0.077 C 
ATOM      2  C1' PXY d   1       3.429   0.351  -0.380  0.00  0.00     0.077 C 
ATOM      3  C1  PXY d   1       2.068   0.763  -0.906  0.00  0.00    -0.082 A 
ATOM      4  C2  PXY d   1       0.996   0.068  -0.563  0.00  0.00     0.003 A 
ATOM      5  C3  PXY d   1      -0.238   0.408  -1.055  0.00  0.00     0.003 A 
ATOM      6  C4  PXY d   1      -0.383   1.504  -1.864  0.00  0.00    -0.082 A 
ATOM      7  C5  PXY d   1       0.705   2.225  -2.209  0.00  0.00     0.003 A 
ATOM      8  C6  PXY d   1       1.954   1.838  -1.732  0.00  0.00     0.003 A 
ENDROOT
TORSDOF 0
ENDMDL
