MODEL 1
REMARK minimizedAffinity 2.10773945
REMARK minimizedRMSD -1
REMARK  0 active torsions:
REMARK  status: ('A' for Active; 'I' for Inactive)
ROOT
ATOM      1  C4' PXY d   1       0.967  -0.884  -3.031  0.00  0.00     0.077 C 
ATOM      2  C1' PXY d   1       1.744   2.464   1.617  0.00  0.00     0.077 C 
ATOM      3  C1  PXY d   1       1.536   1.596   0.391  0.00  0.00    -0.082 A 
ATOM      4  C2  PXY d   1       1.358   0.293   0.535  0.00  0.00     0.003 A 
ATOM      5  C3  PXY d   1       1.200  -0.511  -0.565  0.00  0.00     0.003 A 
ATOM      6  C4  PXY d   1       1.171   0.032  -1.821  0.00  0.00    -0.082 A 
ATOM      7  C5  PXY d   1       1.341   1.363  -1.975  0.00  0.00     0.003 A 
ATOM      8  C6  PXY d   1       1.541   2.156  -0.849  0.00  0.00     0.003 A 
ENDROOT
TORSDOF 0
ENDMDL
