MODEL 1
REMARK minimizedAffinity 5.51454163
REMARK minimizedRMSD -1
REMARK  0 active torsions:
REMARK  status: ('A' for Active; 'I' for Inactive)
ROOT
ATOM      1  C4' PXY d   1      -3.070   1.524   5.114  0.00  0.00     0.077 C 
ATOM      2  C1' PXY d   1      -3.179   2.865  -0.508  0.00  0.00     0.077 C 
ATOM      3  C1  PXY d   1      -3.162   2.509   0.966  0.00  0.00    -0.082 A 
ATOM      4  C2  PXY d   1      -2.351   3.156   1.786  0.00  0.00     0.003 A 
ATOM      5  C3  PXY d   1      -2.300   2.825   3.116  0.00  0.00     0.003 A 
ATOM      6  C4  PXY d   1      -3.127   1.857   3.620  0.00  0.00    -0.082 A 
ATOM      7  C5  PXY d   1      -3.965   1.199   2.792  0.00  0.00     0.003 A 
ATOM      8  C6  PXY d   1      -3.972   1.522   1.438  0.00  0.00     0.003 A 
ENDROOT
TORSDOF 0
ENDMDL
