MODEL 1
REMARK minimizedAffinity 2.82799649
REMARK minimizedRMSD -1
REMARK  0 active torsions:
REMARK  status: ('A' for Active; 'I' for Inactive)
ROOT
ATOM      1  C4' PXY d   1       1.022  -1.266  -3.175  0.00  0.00     0.077 C 
ATOM      2  C1' PXY d   1       1.626   2.096   1.489  0.00  0.00     0.077 C 
ATOM      3  C1  PXY d   1       1.462   1.224   0.259  0.00  0.00    -0.082 A 
ATOM      4  C2  PXY d   1       1.418  -0.092   0.392  0.00  0.00     0.003 A 
ATOM      5  C3  PXY d   1       1.302  -0.896  -0.713  0.00  0.00     0.003 A 
ATOM      6  C4  PXY d   1       1.177  -0.347  -1.960  0.00  0.00    -0.082 A 
ATOM      7  C5  PXY d   1       1.210   0.995  -2.102  0.00  0.00     0.003 A 
ATOM      8  C6  PXY d   1       1.369   1.793  -0.973  0.00  0.00     0.003 A 
ENDROOT
TORSDOF 0
ENDMDL
