MODEL 1
REMARK minimizedAffinity -1.64912605
REMARK minimizedRMSD -1
REMARK  0 active torsions:
REMARK  status: ('A' for Active; 'I' for Inactive)
ROOT
ATOM      1  C4' PXY d   1       0.792  -0.320  -0.758  0.00  0.00     0.077 C 
ATOM      2  C1' PXY d   1       2.684   5.142  -0.806  0.00  0.00     0.077 C 
ATOM      3  C1  PXY d   1       2.191   3.709  -0.781  0.00  0.00    -0.082 A 
ATOM      4  C2  PXY d   1       2.146   3.013  -1.905  0.00  0.00     0.003 A 
ATOM      5  C3  PXY d   1       1.673   1.726  -1.906  0.00  0.00     0.003 A 
ATOM      6  C4  PXY d   1       1.292   1.127  -0.734  0.00  0.00    -0.082 A 
ATOM      7  C5  PXY d   1       1.345   1.828   0.418  0.00  0.00     0.003 A 
ATOM      8  C6  PXY d   1       1.790   3.146   0.391  0.00  0.00     0.003 A 
ENDROOT
TORSDOF 0
ENDMDL
