MODEL 1
REMARK minimizedAffinity -1.93660843
REMARK minimizedRMSD -1
REMARK  0 active torsions:
REMARK  status: ('A' for Active; 'I' for Inactive)
ROOT
ATOM      1  C4' PXY d   1       2.206   5.079  -1.023  0.00  0.00     0.077 C 
ATOM      2  C1' PXY d   1       0.708  -0.484  -0.557  0.00  0.00     0.077 C 
ATOM      3  C1  PXY d   1       1.107   0.972  -0.690  0.00  0.00    -0.082 A 
ATOM      4  C2  PXY d   1       1.162   1.737   0.388  0.00  0.00     0.003 A 
ATOM      5  C3  PXY d   1       1.490   3.064   0.281  0.00  0.00     0.003 A 
ATOM      6  C4  PXY d   1       1.817   3.601  -0.935  0.00  0.00    -0.082 A 
ATOM      7  C5  PXY d   1       1.774   2.825  -2.038  0.00  0.00     0.003 A 
ATOM      8  C6  PXY d   1       1.399   1.490  -1.914  0.00  0.00     0.003 A 
ENDROOT
TORSDOF 0
ENDMDL
