MODEL 1
REMARK minimizedAffinity 5.680233
REMARK minimizedRMSD -1
REMARK  0 active torsions:
REMARK  status: ('A' for Active; 'I' for Inactive)
ROOT
ATOM      1  C4' PXY d   1      -3.429   3.482   0.161  0.00  0.00     0.077 C 
ATOM      2  C1' PXY d   1      -1.964   1.481   5.382  0.00  0.00     0.077 C 
ATOM      3  C1  PXY d   1      -2.355   1.995   4.011  0.00  0.00    -0.082 A 
ATOM      4  C2  PXY d   1      -1.621   2.930   3.429  0.00  0.00     0.003 A 
ATOM      5  C3  PXY d   1      -1.978   3.429   2.203  0.00  0.00     0.003 A 
ATOM      6  C4  PXY d   1      -3.067   2.927   1.541  0.00  0.00    -0.082 A 
ATOM      7  C5  PXY d   1      -3.814   1.965   2.123  0.00  0.00     0.003 A 
ATOM      8  C6  PXY d   1      -3.459   1.502   3.386  0.00  0.00     0.003 A 
ENDROOT
TORSDOF 0
ENDMDL
