MODEL 1
REMARK minimizedAffinity -4.51626348
REMARK minimizedRMSD -1
REMARK  0 active torsions:
REMARK  status: ('A' for Active; 'I' for Inactive)
ROOT
ATOM      1  C4' PXY d   1       2.424   0.679  -1.355  0.00  0.00     0.077 C 
ATOM      2  C1' PXY d   1      -1.964   1.042   2.390  0.00  0.00     0.077 C 
ATOM      3  C1  PXY d   1      -0.819   0.937   1.402  0.00  0.00    -0.082 A 
ATOM      4  C2  PXY d   1       0.370   1.419   1.725  0.00  0.00     0.003 A 
ATOM      5  C3  PXY d   1       1.408   1.361   0.831  0.00  0.00     0.003 A 
ATOM      6  C4  PXY d   1       1.242   0.755  -0.386  0.00  0.00    -0.082 A 
ATOM      7  C5  PXY d   1       0.035   0.251  -0.718  0.00  0.00     0.003 A 
ATOM      8  C6  PXY d   1      -1.017   0.357   0.187  0.00  0.00     0.003 A 
ENDROOT
TORSDOF 0
ENDMDL
