MODEL 1
REMARK minimizedAffinity 9.14663506
REMARK minimizedRMSD -1
REMARK  0 active torsions:
REMARK  status: ('A' for Active; 'I' for Inactive)
ROOT
ATOM      1  C4' PXY d   1       0.045   3.090  -3.961  0.00  0.00     0.077 C 
ATOM      2  C1' PXY d   1       2.002   1.355   1.194  0.00  0.00     0.077 C 
ATOM      3  C1  PXY d   1       1.494   1.822  -0.156  0.00  0.00    -0.082 A 
ATOM      4  C2  PXY d   1       0.493   1.179  -0.736  0.00  0.00     0.003 A 
ATOM      5  C3  PXY d   1       0.041   1.569  -1.971  0.00  0.00     0.003 A 
ATOM      6  C4  PXY d   1       0.585   2.660  -2.594  0.00  0.00    -0.082 A 
ATOM      7  C5  PXY d   1       1.599   3.327  -2.005  0.00  0.00     0.003 A 
ATOM      8  C6  PXY d   1       2.070   2.891  -0.770  0.00  0.00     0.003 A 
ENDROOT
TORSDOF 0
ENDMDL
