MODEL 1
REMARK minimizedAffinity -1.88586533
REMARK minimizedRMSD -1
REMARK  0 active torsions:
REMARK  status: ('A' for Active; 'I' for Inactive)
ROOT
ATOM      1  C4' PXY d   1       1.940   5.240  -1.111  0.00  0.00     0.077 C 
ATOM      2  C1' PXY d   1       1.532  -0.511  -0.700  0.00  0.00     0.077 C 
ATOM      3  C1  PXY d   1       1.645   0.996  -0.819  0.00  0.00    -0.082 A 
ATOM      4  C2  PXY d   1       1.612   1.743   0.272  0.00  0.00     0.003 A 
ATOM      5  C3  PXY d   1       1.681   3.109   0.180  0.00  0.00     0.003 A 
ATOM      6  C4  PXY d   1       1.838   3.714  -1.038  0.00  0.00    -0.082 A 
ATOM      7  C5  PXY d   1       1.883   2.958  -2.155  0.00  0.00     0.003 A 
ATOM      8  C6  PXY d   1       1.770   1.576  -2.044  0.00  0.00     0.003 A 
ENDROOT
TORSDOF 0
ENDMDL
