MODEL 1
REMARK minimizedAffinity 0.0694982484
REMARK minimizedRMSD -1
REMARK  0 active torsions:
REMARK  status: ('A' for Active; 'I' for Inactive)
ROOT
ATOM      1  C4' PXY d   1      -1.835   1.077   5.442  0.00  0.00     0.077 C 
ATOM      2  C1' PXY d   1      -3.276   2.843   0.130  0.00  0.00     0.077 C 
ATOM      3  C1  PXY d   1      -2.910   2.375   1.525  0.00  0.00    -0.082 A 
ATOM      4  C2  PXY d   1      -1.913   2.958   2.170  0.00  0.00     0.003 A 
ATOM      5  C3  PXY d   1      -1.548   2.527   3.419  0.00  0.00     0.003 A 
ATOM      6  C4  PXY d   1      -2.245   1.523   4.036  0.00  0.00    -0.082 A 
ATOM      7  C5  PXY d   1      -3.271   0.930   3.389  0.00  0.00     0.003 A 
ATOM      8  C6  PXY d   1      -3.599   1.355   2.105  0.00  0.00     0.003 A 
ENDROOT
TORSDOF 0
ENDMDL
