MODEL 1
REMARK minimizedAffinity 7.52564716
REMARK minimizedRMSD -1
REMARK  0 active torsions:
REMARK  status: ('A' for Active; 'I' for Inactive)
ROOT
ATOM      1  C4' PXY d   1      -1.139   2.253  -1.740  0.00  0.00     0.077 C 
ATOM      2  C1' PXY d   1       2.898  -0.326   1.496  0.00  0.00     0.077 C 
ATOM      3  C1  PXY d   1       1.836   0.358   0.657  0.00  0.00    -0.082 A 
ATOM      4  C2  PXY d   1       1.320  -0.272  -0.386  0.00  0.00     0.003 A 
ATOM      5  C3  PXY d   1       0.383   0.344  -1.174  0.00  0.00     0.003 A 
ATOM      6  C4  PXY d   1      -0.071   1.597  -0.860  0.00  0.00    -0.082 A 
ATOM      7  C5  PXY d   1       0.442   2.242   0.209  0.00  0.00     0.003 A 
ATOM      8  C6  PXY d   1       1.423   1.616   0.972  0.00  0.00     0.003 A 
ENDROOT
TORSDOF 0
ENDMDL
