MODEL 1
REMARK minimizedAffinity 3.19168401
REMARK minimizedRMSD -1
REMARK  0 active torsions:
REMARK  status: ('A' for Active; 'I' for Inactive)
ROOT
ATOM      1  C4' PXY d   1       0.470  -2.186  -2.273  0.00  0.00     0.077 C 
ATOM      2  C1' PXY d   1       1.581   2.552   0.847  0.00  0.00     0.077 C 
ATOM      3  C1  PXY d   1       1.280   1.316   0.023  0.00  0.00    -0.082 A 
ATOM      4  C2  PXY d   1       1.620   0.123   0.484  0.00  0.00     0.003 A 
ATOM      5  C3  PXY d   1       1.384  -1.002  -0.263  0.00  0.00     0.003 A 
ATOM      6  C4  PXY d   1       0.746  -0.911  -1.471  0.00  0.00    -0.082 A 
ATOM      7  C5  PXY d   1       0.387   0.301  -1.943  0.00  0.00     0.003 A 
ATOM      8  C6  PXY d   1       0.672   1.435  -1.189  0.00  0.00     0.003 A 
ENDROOT
TORSDOF 0
ENDMDL
