MODEL 1
REMARK minimizedAffinity -1.45520651
REMARK minimizedRMSD -1
REMARK  0 active torsions:
REMARK  status: ('A' for Active; 'I' for Inactive)
ROOT
ATOM      1  C4' PXY d   1       1.588  -3.016   0.367  0.00  0.00     0.077 C 
ATOM      2  C1' PXY d   1       1.560   2.483  -1.417  0.00  0.00     0.077 C 
ATOM      3  C1  PXY d   1       1.556   1.039  -0.954  0.00  0.00    -0.082 A 
ATOM      4  C2  PXY d   1       2.315   0.677   0.067  0.00  0.00     0.003 A 
ATOM      5  C3  PXY d   1       2.347  -0.630   0.479  0.00  0.00     0.003 A 
ATOM      6  C4  PXY d   1       1.554  -1.567  -0.128  0.00  0.00    -0.082 A 
ATOM      7  C5  PXY d   1       0.769  -1.204  -1.164  0.00  0.00     0.003 A 
ATOM      8  C6  PXY d   1       0.782   0.120  -1.593  0.00  0.00     0.003 A 
ENDROOT
TORSDOF 0
ENDMDL
