MODEL 1
REMARK minimizedAffinity 0.412514478
REMARK minimizedRMSD -1
REMARK  0 active torsions:
REMARK  status: ('A' for Active; 'I' for Inactive)
ROOT
ATOM      1  C4' PXY d   1       1.492   1.327   0.383  0.00  0.00     0.077 C 
ATOM      2  C1' PXY d   1      -0.343  -3.706  -1.787  0.00  0.00     0.077 C 
ATOM      3  C1  PXY d   1       0.137  -2.381  -1.230  0.00  0.00    -0.082 A 
ATOM      4  C2  PXY d   1       0.860  -2.361  -0.122  0.00  0.00     0.003 A 
ATOM      5  C3  PXY d   1       1.276  -1.169   0.413  0.00  0.00     0.003 A 
ATOM      6  C4  PXY d   1       0.994   0.011  -0.221  0.00  0.00    -0.082 A 
ATOM      7  C5  PXY d   1       0.266  -0.002  -1.358  0.00  0.00     0.003 A 
ATOM      8  C6  PXY d   1      -0.182  -1.219  -1.862  0.00  0.00     0.003 A 
ENDROOT
TORSDOF 0
ENDMDL
