MODEL 1
REMARK minimizedAffinity 5.46264744
REMARK minimizedRMSD -1
REMARK  0 active torsions:
REMARK  status: ('A' for Active; 'I' for Inactive)
ROOT
ATOM      1  C4' PXY d   1       2.197   4.085  -1.163  0.00  0.00     0.077 C 
ATOM      2  C1' PXY d   1       0.868  -1.429  -0.045  0.00  0.00     0.077 C 
ATOM      3  C1  PXY d   1       1.214   0.020  -0.326  0.00  0.00    -0.082 A 
ATOM      4  C2  PXY d   1       1.118   0.488  -1.559  0.00  0.00     0.003 A 
ATOM      5  C3  PXY d   1       1.458   1.788  -1.837  0.00  0.00     0.003 A 
ATOM      6  C4  PXY d   1       1.849   2.631  -0.831  0.00  0.00    -0.082 A 
ATOM      7  C5  PXY d   1       1.939   2.164   0.432  0.00  0.00     0.003 A 
ATOM      8  C6  PXY d   1       1.629   0.831   0.685  0.00  0.00     0.003 A 
ENDROOT
TORSDOF 0
ENDMDL
