MODEL 1
REMARK minimizedAffinity 5.27250671
REMARK minimizedRMSD -1
REMARK  1 active torsions:
REMARK  status: ('A' for Active; 'I' for Inactive)
REMARK    1  A    between atoms: C1_2  and  C2_3 
ROOT
ATOM      1  C2  UNL d   1       3.308   0.873  -0.202  0.00  0.00    -0.073 A 
ATOM      2  C3  UNL d   1       3.923   1.112  -1.437  0.00  0.00    -0.002 A 
ATOM      3  C4  UNL d   1       5.026   1.962  -1.522  0.00  0.00     0.004 A 
ATOM      4  C5  UNL d   1       5.530   2.575  -0.376  0.00  0.00    -0.004 A 
ATOM      5  C6  UNL d   1       4.937   2.340   0.869  0.00  0.00    -0.075 A 
ATOM      6  C7  UNL d   1       5.466   2.994   2.112  0.00  0.00     0.076 C 
ATOM      7  C8  UNL d   1       3.827   1.488   0.946  0.00  0.00     0.001 A 
ENDROOT
BRANCH   1   8
ATOM      8  C1  UNL d   1       2.120  -0.048  -0.104  0.00  0.00     0.053 C 
ATOM      9  C   UNL d   1       2.367  -1.374  -0.807  0.00  0.00     0.018 C 
ENDBRANCH   1   8
TORSDOF 1
ENDMDL
