MODEL 1
REMARK minimizedAffinity 7.63773012
REMARK minimizedRMSD -1
REMARK  1 active torsions:
REMARK  status: ('A' for Active; 'I' for Inactive)
REMARK    1  A    between atoms: C1_2  and  C2_3 
ROOT
ATOM      1  C2  UNL d   1       3.113   1.041   0.069  0.00  0.00    -0.073 A 
ATOM      2  C3  UNL d   1       3.269   1.449  -1.261  0.00  0.00    -0.002 A 
ATOM      3  C4  UNL d   1       4.104   2.522  -1.575  0.00  0.00     0.004 A 
ATOM      4  C5  UNL d   1       4.796   3.193  -0.567  0.00  0.00    -0.004 A 
ATOM      5  C6  UNL d   1       4.663   2.792   0.766  0.00  0.00    -0.075 A 
ATOM      6  C7  UNL d   1       5.399   3.504   1.863  0.00  0.00     0.076 C 
ATOM      7  C8  UNL d   1       3.820   1.716   1.075  0.00  0.00     0.001 A 
ENDROOT
BRANCH   1   8
ATOM      8  C1  UNL d   1       2.218  -0.121   0.413  0.00  0.00     0.053 C 
ATOM      9  C   UNL d   1       2.109  -1.115  -0.732  0.00  0.00     0.018 C 
ENDBRANCH   1   8
TORSDOF 1
ENDMDL
