MODEL 1
REMARK minimizedAffinity 13.8538151
REMARK minimizedRMSD -1
REMARK  1 active torsions:
REMARK  status: ('A' for Active; 'I' for Inactive)
REMARK    1  A    between atoms: C1_2  and  C2_3 
ROOT
ATOM      1  C2  UNL d   1      -1.504  -5.355   2.231  0.00  0.00    -0.073 A 
ATOM      2  C3  UNL d   1      -0.748  -4.177   2.247  0.00  0.00    -0.002 A 
ATOM      3  C4  UNL d   1      -0.386  -3.589   3.460  0.00  0.00     0.004 A 
ATOM      4  C5  UNL d   1      -0.770  -4.174   4.666  0.00  0.00    -0.004 A 
ATOM      5  C6  UNL d   1      -1.515  -5.358   4.671  0.00  0.00    -0.075 A 
ATOM      6  C7  UNL d   1      -1.937  -5.999   5.960  0.00  0.00     0.076 C 
ATOM      7  C8  UNL d   1      -1.876  -5.941   3.449  0.00  0.00     0.001 A 
ENDROOT
BRANCH   1   8
ATOM      8  C1  UNL d   1      -1.891  -5.998   0.924  0.00  0.00     0.053 C 
ATOM      9  C   UNL d   1      -1.254  -5.298  -0.266  0.00  0.00     0.018 C 
ENDBRANCH   1   8
TORSDOF 1
ENDMDL
