MODEL 1
REMARK minimizedAffinity 10.6851263
REMARK minimizedRMSD -1
REMARK  1 active torsions:
REMARK  status: ('A' for Active; 'I' for Inactive)
REMARK    1  A    between atoms: C1_2  and  C2_3 
ROOT
ATOM      1  C2  UNL d   1       2.940   1.284  -1.203  0.00  0.00    -0.073 A 
ATOM      2  C3  UNL d   1       2.793   2.652  -0.952  0.00  0.00    -0.002 A 
ATOM      3  C4  UNL d   1       3.454   3.590  -1.747  0.00  0.00     0.004 A 
ATOM      4  C5  UNL d   1       4.262   3.169  -2.803  0.00  0.00    -0.004 A 
ATOM      5  C6  UNL d   1       4.413   1.806  -3.077  0.00  0.00    -0.075 A 
ATOM      6  C7  UNL d   1       5.280   1.337  -4.208  0.00  0.00     0.076 C 
ATOM      7  C8  UNL d   1       3.747   0.871  -2.272  0.00  0.00     0.001 A 
ENDROOT
BRANCH   1   8
ATOM      8  C1  UNL d   1       2.223   0.268  -0.351  0.00  0.00     0.053 C 
ATOM      9  C   UNL d   1       2.070   0.737   1.087  0.00  0.00     0.018 C 
ENDBRANCH   1   8
TORSDOF 1
ENDMDL
