MODEL 1
REMARK minimizedAffinity 9.02068806
REMARK minimizedRMSD -1
REMARK  1 active torsions:
REMARK  status: ('A' for Active; 'I' for Inactive)
REMARK    1  A    between atoms: C1_2  and  C2_3 
ROOT
ATOM      1  C2  UNL d   1       4.410   1.928  -3.593  0.00  0.00    -0.073 A 
ATOM      2  C3  UNL d   1       3.408   1.960  -2.617  0.00  0.00    -0.002 A 
ATOM      3  C4  UNL d   1       3.252   3.083  -1.803  0.00  0.00     0.004 A 
ATOM      4  C5  UNL d   1       4.090   4.187  -1.962  0.00  0.00    -0.004 A 
ATOM      5  C6  UNL d   1       5.089   4.179  -2.941  0.00  0.00    -0.075 A 
ATOM      6  C7  UNL d   1       6.000   5.357  -3.123  0.00  0.00     0.076 C 
ATOM      7  C8  UNL d   1       5.242   3.046  -3.752  0.00  0.00     0.001 A 
ENDROOT
BRANCH   1   8
ATOM      8  C1  UNL d   1       4.579   0.720  -4.478  0.00  0.00     0.053 C 
ATOM      9  C   UNL d   1       6.000   0.592  -5.004  0.00  0.00     0.018 C 
ENDBRANCH   1   8
TORSDOF 1
ENDMDL
