MODEL 1
REMARK minimizedAffinity 16.4974976
REMARK minimizedRMSD -1
REMARK  1 active torsions:
REMARK  status: ('A' for Active; 'I' for Inactive)
REMARK    1  A    between atoms: C1_2  and  C2_3 
ROOT
ATOM      1  C2  UNL d   1       3.300   0.877  -1.912  0.00  0.00    -0.073 A 
ATOM      2  C3  UNL d   1       3.215   0.666  -0.531  0.00  0.00    -0.002 A 
ATOM      3  C4  UNL d   1       2.704  -0.532  -0.031  0.00  0.00     0.004 A 
ATOM      4  C5  UNL d   1       2.279  -1.533  -0.904  0.00  0.00    -0.004 A 
ATOM      5  C6  UNL d   1       2.366  -1.346  -2.288  0.00  0.00    -0.075 A 
ATOM      6  C7  UNL d   1       1.911  -2.412  -3.241  0.00  0.00     0.076 C 
ATOM      7  C8  UNL d   1       2.878  -0.139  -2.782  0.00  0.00     0.001 A 
ENDROOT
BRANCH   1   8
ATOM      8  C1  UNL d   1       3.857   2.166  -2.457  0.00  0.00     0.053 C 
ATOM      9  C   UNL d   1       3.436   3.366  -1.623  0.00  0.00     0.018 C 
ENDBRANCH   1   8
TORSDOF 1
ENDMDL
