MODEL 1
REMARK minimizedAffinity 11.1712704
REMARK minimizedRMSD -1
REMARK  1 active torsions:
REMARK  status: ('A' for Active; 'I' for Inactive)
REMARK    1  A    between atoms: C1_2  and  C2_3 
ROOT
ATOM      1  C2  UNL d   1       2.673  -0.242  -0.106  0.00  0.00    -0.073 A 
ATOM      2  C3  UNL d   1       2.451  -1.111   0.968  0.00  0.00    -0.002 A 
ATOM      3  C4  UNL d   1       1.834  -2.346   0.759  0.00  0.00     0.004 A 
ATOM      4  C5  UNL d   1       1.441  -2.726  -0.524  0.00  0.00    -0.004 A 
ATOM      5  C6  UNL d   1       1.666  -1.876  -1.611  0.00  0.00    -0.075 A 
ATOM      6  C7  UNL d   1       1.247  -2.269  -2.997  0.00  0.00     0.076 C 
ATOM      7  C8  UNL d   1       2.283  -0.637  -1.393  0.00  0.00     0.001 A 
ENDROOT
BRANCH   1   8
ATOM      8  C1  UNL d   1       3.345   1.089   0.114  0.00  0.00     0.053 C 
ATOM      9  C   UNL d   1       3.708   1.767  -1.197  0.00  0.00     0.018 C 
ENDBRANCH   1   8
TORSDOF 1
ENDMDL
