MODEL 1
REMARK minimizedAffinity 1.38637948
REMARK minimizedRMSD -1
REMARK  1 active torsions:
REMARK  status: ('A' for Active; 'I' for Inactive)
REMARK    1  A    between atoms: C1_2  and  C2_3 
ROOT
ATOM      1  C2  UNL d   1      -5.551   1.545  -2.642  0.00  0.00    -0.073 A 
ATOM      2  C3  UNL d   1      -5.691   2.937  -2.614  0.00  0.00    -0.002 A 
ATOM      3  C4  UNL d   1      -5.269   3.665  -1.501  0.00  0.00     0.004 A 
ATOM      4  C5  UNL d   1      -4.699   3.011  -0.409  0.00  0.00    -0.004 A 
ATOM      5  C6  UNL d   1      -4.540   1.622  -0.423  0.00  0.00    -0.075 A 
ATOM      6  C7  UNL d   1      -3.930   0.903   0.744  0.00  0.00     0.076 C 
ATOM      7  C8  UNL d   1      -4.968   0.897  -1.544  0.00  0.00     0.001 A 
ENDROOT
BRANCH   1   8
ATOM      8  C1  UNL d   1      -5.999   0.755  -3.845  0.00  0.00     0.053 C 
ATOM      9  C   UNL d   1      -6.000   1.596  -5.112  0.00  0.00     0.018 C 
ENDBRANCH   1   8
TORSDOF 1
ENDMDL
