MODEL 1
REMARK minimizedAffinity 24.8289757
REMARK minimizedRMSD -1
REMARK  0 active torsions:
REMARK  status: ('A' for Active; 'I' for Inactive)
ROOT
ATOM      1  C   UNL d   1      -1.356   0.951  -4.630  0.00  0.00     0.124 A 
ATOM      2  C1  UNL d   1      -0.180   1.494  -5.129  0.00  0.00     0.062 A 
ATOM      3  C2  UNL d   1      -0.137   2.829  -5.521  0.00  0.00     0.162 A 
ATOM      4  C3  UNL d   1      -1.273   3.631  -5.414  0.00  0.00    -0.034 A 
ATOM      5  C4  UNL d   1      -2.452   3.078  -4.912  0.00  0.00     0.162 A 
ATOM      6  C5  UNL d   1      -2.490   1.743  -4.522  0.00  0.00     0.062 A 
ATOM      7  F   UNL d   1      -3.627   1.220  -4.040  0.00  0.00    -0.097 F 
ATOM      8  F1  UNL d   1      -3.563   3.821  -4.796  0.00  0.00    -0.096 F 
ATOM      9  I   UNL d   1      -1.212   5.628  -5.999  0.00  0.00    -0.060 I 
ATOM     10  F2  UNL d   1       1.013   3.327  -6.000  0.00  0.00    -0.096 F 
ATOM     11  F3  UNL d   1       0.917   0.731  -5.236  0.00  0.00    -0.097 F 
ATOM     12  F4  UNL d   1      -1.395  -0.334  -4.255  0.00  0.00    -0.092 F 
ENDROOT
TORSDOF 0
ENDMDL
