MODEL 1
REMARK minimizedAffinity 4.37979317
REMARK minimizedRMSD -1
REMARK  0 active torsions:
REMARK  status: ('A' for Active; 'I' for Inactive)
ROOT
ATOM      1  C   UNL d   1      -1.664  -0.350   1.502  0.00  0.00     0.124 A 
ATOM      2  C1  UNL d   1      -1.430   0.875   0.893  0.00  0.00     0.062 A 
ATOM      3  C2  UNL d   1      -0.526   0.973  -0.161  0.00  0.00     0.162 A 
ATOM      4  C3  UNL d   1       0.151  -0.160  -0.614  0.00  0.00    -0.034 A 
ATOM      5  C4  UNL d   1      -0.088  -1.388   0.004  0.00  0.00     0.162 A 
ATOM      6  C5  UNL d   1      -0.993  -1.480   1.057  0.00  0.00     0.062 A 
ATOM      7  F   UNL d   1      -1.217  -2.665   1.644  0.00  0.00    -0.097 F 
ATOM      8  F1  UNL d   1       0.545  -2.497  -0.406  0.00  0.00    -0.096 F 
ATOM      9  I   UNL d   1       1.503  -0.019  -2.189  0.00  0.00    -0.060 I 
ATOM     10  F2  UNL d   1      -0.320   2.169  -0.730  0.00  0.00    -0.096 F 
ATOM     11  F3  UNL d   1      -2.076   1.969   1.322  0.00  0.00    -0.097 F 
ATOM     12  F4  UNL d   1      -2.533  -0.440   2.517  0.00  0.00    -0.092 F 
ENDROOT
TORSDOF 0
ENDMDL
