MODEL 1
REMARK minimizedAffinity 24.3284321
REMARK minimizedRMSD -1
REMARK  0 active torsions:
REMARK  status: ('A' for Active; 'I' for Inactive)
ROOT
ATOM      1  C   UNL d   1       3.852   2.378   1.150  0.00  0.00     0.124 A 
ATOM      2  C1  UNL d   1       4.657   2.064   2.236  0.00  0.00     0.062 A 
ATOM      3  C2  UNL d   1       5.226   3.078   3.001  0.00  0.00     0.162 A 
ATOM      4  C3  UNL d   1       4.992   4.416   2.684  0.00  0.00    -0.034 A 
ATOM      5  C4  UNL d   1       4.182   4.724   1.589  0.00  0.00     0.162 A 
ATOM      6  C5  UNL d   1       3.616   3.707   0.827  0.00  0.00     0.062 A 
ATOM      7  F   UNL d   1       2.839   4.012  -0.223  0.00  0.00    -0.097 F 
ATOM      8  F1  UNL d   1       3.937   5.999   1.255  0.00  0.00    -0.096 F 
ATOM      9  I   UNL d   1       5.841   5.934   3.825  0.00  0.00    -0.060 I 
ATOM     10  F2  UNL d   1       5.999   2.746   4.046  0.00  0.00    -0.096 F 
ATOM     11  F3  UNL d   1       4.887   0.781   2.549  0.00  0.00    -0.097 F 
ATOM     12  F4  UNL d   1       3.306   1.401   0.414  0.00  0.00    -0.092 F 
ENDROOT
TORSDOF 0
ENDMDL
