MODEL 1
REMARK minimizedAffinity 18.5102673
REMARK minimizedRMSD -1
REMARK  0 active torsions:
REMARK  status: ('A' for Active; 'I' for Inactive)
ROOT
ATOM      1  C   UNL d   1       2.333   1.568  -2.625  0.00  0.00     0.124 A 
ATOM      2  C1  UNL d   1       1.385   1.763  -1.630  0.00  0.00     0.062 A 
ATOM      3  C2  UNL d   1       0.028   1.723  -1.938  0.00  0.00     0.162 A 
ATOM      4  C3  UNL d   1      -0.389   1.485  -3.248  0.00  0.00    -0.034 A 
ATOM      5  C4  UNL d   1       0.570   1.291  -4.243  0.00  0.00     0.162 A 
ATOM      6  C5  UNL d   1       1.925   1.332  -3.930  0.00  0.00     0.062 A 
ATOM      7  F   UNL d   1       2.839   1.144  -4.893  0.00  0.00    -0.097 F 
ATOM      8  F1  UNL d   1       0.203   1.061  -5.513  0.00  0.00    -0.096 F 
ATOM      9  I   UNL d   1      -2.417   1.425  -3.713  0.00  0.00    -0.060 I 
ATOM     10  F2  UNL d   1      -0.866   1.914  -0.957  0.00  0.00    -0.096 F 
ATOM     11  F3  UNL d   1       1.777   1.991  -0.368  0.00  0.00    -0.097 F 
ATOM     12  F4  UNL d   1       3.637   1.608  -2.326  0.00  0.00    -0.092 F 
ENDROOT
TORSDOF 0
ENDMDL
