MODEL 1
REMARK minimizedAffinity 21.0865555
REMARK minimizedRMSD -1
REMARK  0 active torsions:
REMARK  status: ('A' for Active; 'I' for Inactive)
ROOT
ATOM      1  C   UNL d   1      -1.770  -3.837   1.273  0.00  0.00     0.124 A 
ATOM      2  C1  UNL d   1      -1.801  -2.915   2.311  0.00  0.00     0.062 A 
ATOM      3  C2  UNL d   1      -2.221  -1.610   2.075  0.00  0.00     0.162 A 
ATOM      4  C3  UNL d   1      -2.616  -1.217   0.796  0.00  0.00    -0.034 A 
ATOM      5  C4  UNL d   1      -2.582  -2.149  -0.243  0.00  0.00     0.162 A 
ATOM      6  C5  UNL d   1      -2.161  -3.453  -0.002  0.00  0.00     0.062 A 
ATOM      7  F   UNL d   1      -2.132  -4.342  -1.006  0.00  0.00    -0.097 F 
ATOM      8  F1  UNL d   1      -2.954  -1.806  -1.485  0.00  0.00    -0.096 F 
ATOM      9  I   UNL d   1      -3.245   0.734   0.439  0.00  0.00    -0.060 I 
ATOM     10  F2  UNL d   1      -2.240  -0.740   3.096  0.00  0.00    -0.096 F 
ATOM     11  F3  UNL d   1      -1.423  -3.283   3.543  0.00  0.00    -0.097 F 
ATOM     12  F4  UNL d   1      -1.365  -5.092   1.502  0.00  0.00    -0.092 F 
ENDROOT
TORSDOF 0
ENDMDL
