MODEL 1
REMARK minimizedAffinity 11.933156
REMARK minimizedRMSD -1
REMARK  0 active torsions:
REMARK  status: ('A' for Active; 'I' for Inactive)
ROOT
ATOM      1  C   UNL d   1      -1.145  -1.524   0.705  0.00  0.00     0.124 A 
ATOM      2  C1  UNL d   1      -1.845  -1.258  -0.463  0.00  0.00     0.062 A 
ATOM      3  C2  UNL d   1      -2.577  -2.266  -1.085  0.00  0.00     0.162 A 
ATOM      4  C3  UNL d   1      -2.612  -3.549  -0.539  0.00  0.00    -0.034 A 
ATOM      5  C4  UNL d   1      -1.904  -3.809   0.636  0.00  0.00     0.162 A 
ATOM      6  C5  UNL d   1      -1.175  -2.798   1.254  0.00  0.00     0.062 A 
ATOM      7  F   UNL d   1      -0.498  -3.056   2.382  0.00  0.00    -0.097 F 
ATOM      8  F1  UNL d   1      -1.917  -5.031   1.188  0.00  0.00    -0.096 F 
ATOM      9  I   UNL d   1      -3.705  -5.059  -1.466  0.00  0.00    -0.060 I 
ATOM     10  F2  UNL d   1      -3.244  -1.981  -2.213  0.00  0.00    -0.096 F 
ATOM     11  F3  UNL d   1      -1.817  -0.028  -0.995  0.00  0.00    -0.097 F 
ATOM     12  F4  UNL d   1      -0.441  -0.552   1.301  0.00  0.00    -0.092 F 
ENDROOT
TORSDOF 0
ENDMDL
