MODEL 1
REMARK minimizedAffinity 5.5640564
REMARK minimizedRMSD -1
REMARK  0 active torsions:
REMARK  status: ('A' for Active; 'I' for Inactive)
ROOT
ATOM      1  C   UNL d   1      -5.935   2.377  -0.666  0.00  0.00     0.124 A 
ATOM      2  C1  UNL d   1      -5.878   2.090  -2.023  0.00  0.00     0.062 A 
ATOM      3  C2  UNL d   1      -5.824   3.123  -2.955  0.00  0.00     0.162 A 
ATOM      4  C3  UNL d   1      -5.826   4.452  -2.533  0.00  0.00    -0.034 A 
ATOM      5  C4  UNL d   1      -5.885   4.733  -1.167  0.00  0.00     0.162 A 
ATOM      6  C5  UNL d   1      -5.939   3.697  -0.239  0.00  0.00     0.062 A 
ATOM      7  F   UNL d   1      -5.994   3.976   1.071  0.00  0.00    -0.097 F 
ATOM      8  F1  UNL d   1      -5.889   6.000  -0.727  0.00  0.00    -0.096 F 
ATOM      9  I   UNL d   1      -5.746   5.999  -3.923  0.00  0.00    -0.060 I 
ATOM     10  F2  UNL d   1      -5.769   2.817  -4.260  0.00  0.00    -0.096 F 
ATOM     11  F3  UNL d   1      -5.875   0.815  -2.438  0.00  0.00    -0.097 F 
ATOM     12  F4  UNL d   1      -5.988   1.382   0.228  0.00  0.00    -0.092 F 
ENDROOT
TORSDOF 0
ENDMDL
