MODEL 1
REMARK minimizedAffinity 4.5440588
REMARK minimizedRMSD -1
REMARK  0 active torsions:
REMARK  status: ('A' for Active; 'I' for Inactive)
ROOT
ATOM      1  C   UNL d   1       1.767   0.934  -0.473  0.00  0.00     0.124 A 
ATOM      2  C1  UNL d   1       0.724   0.216  -1.042  0.00  0.00     0.062 A 
ATOM      3  C2  UNL d   1      -0.505   0.135  -0.393  0.00  0.00     0.162 A 
ATOM      4  C3  UNL d   1      -0.698   0.774   0.832  0.00  0.00    -0.034 A 
ATOM      5  C4  UNL d   1       0.356   1.492   1.398  0.00  0.00     0.162 A 
ATOM      6  C5  UNL d   1       1.583   1.571   0.746  0.00  0.00     0.062 A 
ATOM      7  F   UNL d   1       2.589   2.265   1.297  0.00  0.00    -0.097 F 
ATOM      8  F1  UNL d   1       0.205   2.119   2.574  0.00  0.00    -0.096 F 
ATOM      9  I   UNL d   1      -2.534   0.654   1.805  0.00  0.00    -0.060 I 
ATOM     10  F2  UNL d   1      -1.495  -0.566  -0.966  0.00  0.00    -0.096 F 
ATOM     11  F3  UNL d   1       0.900  -0.401  -2.219  0.00  0.00    -0.097 F 
ATOM     12  F4  UNL d   1       2.949   1.010  -1.099  0.00  0.00    -0.092 F 
ENDROOT
TORSDOF 0
ENDMDL
