MODEL 1
REMARK minimizedAffinity 23.3491497
REMARK minimizedRMSD -1
REMARK  0 active torsions:
REMARK  status: ('A' for Active; 'I' for Inactive)
ROOT
ATOM      1  C   UNL d   1       4.265   2.398  -5.463  0.00  0.00     0.124 A 
ATOM      2  C1  UNL d   1       2.952   1.954  -5.381  0.00  0.00     0.062 A 
ATOM      3  C2  UNL d   1       1.899   2.856  -5.506  0.00  0.00     0.162 A 
ATOM      4  C3  UNL d   1       2.154   4.211  -5.715  0.00  0.00    -0.034 A 
ATOM      5  C4  UNL d   1       3.477   4.650  -5.796  0.00  0.00     0.162 A 
ATOM      6  C5  UNL d   1       4.526   3.745  -5.671  0.00  0.00     0.062 A 
ATOM      7  F   UNL d   1       5.793   4.176  -5.750  0.00  0.00    -0.097 F 
ATOM      8  F1  UNL d   1       3.758   5.946  -5.997  0.00  0.00    -0.096 F 
ATOM      9  I   UNL d   1       0.582   5.562  -5.902  0.00  0.00    -0.060 I 
ATOM     10  F2  UNL d   1       0.641   2.399  -5.422  0.00  0.00    -0.096 F 
ATOM     11  F3  UNL d   1       2.698   0.653  -5.180  0.00  0.00    -0.097 F 
ATOM     12  F4  UNL d   1       5.276   1.529  -5.342  0.00  0.00    -0.092 F 
ENDROOT
TORSDOF 0
ENDMDL
