MODEL 1
REMARK minimizedAffinity 14.6665754
REMARK minimizedRMSD -1
REMARK  0 active torsions:
REMARK  status: ('A' for Active; 'I' for Inactive)
ROOT
ATOM      1  C   UNL d   1      -0.208   1.260   1.305  0.00  0.00     0.124 A 
ATOM      2  C1  UNL d   1      -0.561   2.351   2.087  0.00  0.00     0.062 A 
ATOM      3  C2  UNL d   1       0.408   3.262   2.498  0.00  0.00     0.162 A 
ATOM      4  C3  UNL d   1       1.741   3.086   2.126  0.00  0.00    -0.034 A 
ATOM      5  C4  UNL d   1       2.089   1.986   1.340  0.00  0.00     0.162 A 
ATOM      6  C5  UNL d   1       1.116   1.079   0.932  0.00  0.00     0.062 A 
ATOM      7  F   UNL d   1       1.459   0.025   0.176  0.00  0.00    -0.097 F 
ATOM      8  F1  UNL d   1       3.361   1.786   0.964  0.00  0.00    -0.096 F 
ATOM      9  I   UNL d   1       3.194   4.445   2.737  0.00  0.00    -0.060 I 
ATOM     10  F2  UNL d   1       0.039   4.307   3.253  0.00  0.00    -0.096 F 
ATOM     11  F3  UNL d   1      -1.840   2.529   2.450  0.00  0.00    -0.097 F 
ATOM     12  F4  UNL d   1      -1.143   0.386   0.913  0.00  0.00    -0.092 F 
ENDROOT
TORSDOF 0
ENDMDL
