MODEL 1
REMARK minimizedAffinity 13.2372093
REMARK minimizedRMSD -1
REMARK  0 active torsions:
REMARK  status: ('A' for Active; 'I' for Inactive)
ROOT
ATOM      1  C   UNL d   1      -0.521   2.620  -4.622  0.00  0.00     0.124 A 
ATOM      2  C1  UNL d   1      -0.060   3.829  -5.125  0.00  0.00     0.062 A 
ATOM      3  C2  UNL d   1       1.268   3.962  -5.518  0.00  0.00     0.162 A 
ATOM      4  C3  UNL d   1       2.145   2.883  -5.412  0.00  0.00    -0.034 A 
ATOM      5  C4  UNL d   1       1.675   1.671  -4.905  0.00  0.00     0.162 A 
ATOM      6  C5  UNL d   1       0.346   1.542  -4.513  0.00  0.00     0.062 A 
ATOM      7  F   UNL d   1      -0.098   0.373  -4.028  0.00  0.00    -0.097 F 
ATOM      8  F1  UNL d   1       2.491   0.613  -4.790  0.00  0.00    -0.096 F 
ATOM      9  I   UNL d   1       4.132   3.079  -6.000  0.00  0.00    -0.060 I 
ATOM     10  F2  UNL d   1       1.686   5.142  -6.000  0.00  0.00    -0.096 F 
ATOM     11  F3  UNL d   1      -0.896   4.872  -5.230  0.00  0.00    -0.097 F 
ATOM     12  F4  UNL d   1      -1.800   2.495  -4.244  0.00  0.00    -0.092 F 
ENDROOT
TORSDOF 0
ENDMDL
