MODEL 1
REMARK minimizedAffinity 3.5313592
REMARK minimizedRMSD -1
REMARK  0 active torsions:
REMARK  status: ('A' for Active; 'I' for Inactive)
ROOT
ATOM      1  C   UNL d   1      -3.034  -4.482  -2.084  0.00  0.00     0.124 A 
ATOM      2  C1  UNL d   1      -3.014  -4.766  -0.726  0.00  0.00     0.062 A 
ATOM      3  C2  UNL d   1      -2.681  -3.775   0.193  0.00  0.00     0.162 A 
ATOM      4  C3  UNL d   1      -2.365  -2.488  -0.245  0.00  0.00    -0.034 A 
ATOM      5  C4  UNL d   1      -2.386  -2.210  -1.612  0.00  0.00     0.162 A 
ATOM      6  C5  UNL d   1      -2.719  -3.204  -2.526  0.00  0.00     0.062 A 
ATOM      7  F   UNL d   1      -2.737  -2.928  -3.838  0.00  0.00    -0.097 F 
ATOM      8  F1  UNL d   1      -2.087  -0.984  -2.067  0.00  0.00    -0.096 F 
ATOM      9  I   UNL d   1      -1.866  -1.003   1.125  0.00  0.00    -0.060 I 
ATOM     10  F2  UNL d   1      -2.671  -4.078   1.499  0.00  0.00    -0.096 F 
ATOM     11  F3  UNL d   1      -3.317  -6.000  -0.296  0.00  0.00    -0.097 F 
ATOM     12  F4  UNL d   1      -3.354  -5.438  -2.965  0.00  0.00    -0.092 F 
ENDROOT
TORSDOF 0
ENDMDL
