MODEL 1
REMARK minimizedAffinity 29.5698299
REMARK minimizedRMSD -1
REMARK  0 active torsions:
REMARK  status: ('A' for Active; 'I' for Inactive)
ROOT
ATOM      1  C   UNL d   1      -0.576   2.065   2.118  0.00  0.00     0.124 A 
ATOM      2  C1  UNL d   1       0.284   1.567   1.148  0.00  0.00     0.062 A 
ATOM      3  C2  UNL d   1       1.628   1.926   1.153  0.00  0.00     0.162 A 
ATOM      4  C3  UNL d   1       2.123   2.787   2.133  0.00  0.00    -0.034 A 
ATOM      5  C4  UNL d   1       1.253   3.285   3.104  0.00  0.00     0.162 A 
ATOM      6  C5  UNL d   1      -0.090   2.923   3.094  0.00  0.00     0.062 A 
ATOM      7  F   UNL d   1      -0.919   3.406   4.032  0.00  0.00    -0.097 F 
ATOM      8  F1  UNL d   1       1.695   4.115   4.060  0.00  0.00    -0.096 F 
ATOM      9  I   UNL d   1       4.134   3.325   2.145  0.00  0.00    -0.060 I 
ATOM     10  F2  UNL d   1       2.436   1.429   0.204  0.00  0.00    -0.096 F 
ATOM     11  F3  UNL d   1      -0.183   0.739   0.203  0.00  0.00    -0.097 F 
ATOM     12  F4  UNL d   1      -1.869   1.720   2.109  0.00  0.00    -0.092 F 
ENDROOT
TORSDOF 0
ENDMDL
