MODEL 1
REMARK minimizedAffinity 1.26703024
REMARK minimizedRMSD -1
REMARK  0 active torsions:
REMARK  status: ('A' for Active; 'I' for Inactive)
ROOT
ATOM      1  C   UNL d   1      -5.991   2.205  -2.413  0.00  0.00     0.124 A 
ATOM      2  C1  UNL d   1      -5.982   1.991  -3.785  0.00  0.00     0.062 A 
ATOM      3  C2  UNL d   1      -5.974   3.072  -4.661  0.00  0.00     0.162 A 
ATOM      4  C3  UNL d   1      -5.974   4.378  -4.169  0.00  0.00    -0.034 A 
ATOM      5  C4  UNL d   1      -5.984   4.584  -2.789  0.00  0.00     0.162 A 
ATOM      6  C5  UNL d   1      -5.991   3.501  -1.916  0.00  0.00     0.062 A 
ATOM      7  F   UNL d   1      -6.000   3.709  -0.592  0.00  0.00    -0.097 F 
ATOM      8  F1  UNL d   1      -5.983   5.826  -2.282  0.00  0.00    -0.096 F 
ATOM      9  I   UNL d   1      -5.962   5.997  -5.477  0.00  0.00    -0.060 I 
ATOM     10  F2  UNL d   1      -5.966   2.836  -5.982  0.00  0.00    -0.096 F 
ATOM     11  F3  UNL d   1      -5.982   0.740  -4.267  0.00  0.00    -0.097 F 
ATOM     12  F4  UNL d   1      -5.999   1.163  -1.572  0.00  0.00    -0.092 F 
ENDROOT
TORSDOF 0
ENDMDL
