MODEL 1
REMARK minimizedAffinity 17.8381233
REMARK minimizedRMSD -1
REMARK  0 active torsions:
REMARK  status: ('A' for Active; 'I' for Inactive)
ROOT
ATOM      1  C   UNL d   1      -1.997  -3.146   3.950  0.00  0.00     0.124 A 
ATOM      2  C1  UNL d   1      -1.732  -2.909   2.609  0.00  0.00     0.062 A 
ATOM      3  C2  UNL d   1      -2.530  -2.032   1.881  0.00  0.00     0.162 A 
ATOM      4  C3  UNL d   1      -3.603  -1.384   2.494  0.00  0.00    -0.034 A 
ATOM      5  C4  UNL d   1      -3.865  -1.628   3.843  0.00  0.00     0.162 A 
ATOM      6  C5  UNL d   1      -3.063  -2.506   4.566  0.00  0.00     0.062 A 
ATOM      7  F   UNL d   1      -3.321  -2.733   5.862  0.00  0.00    -0.097 F 
ATOM      8  F1  UNL d   1      -4.888  -1.022   4.464  0.00  0.00    -0.096 F 
ATOM      9  I   UNL d   1      -4.800  -0.071   1.410  0.00  0.00    -0.060 I 
ATOM     10  F2  UNL d   1      -2.250  -1.822   0.586  0.00  0.00    -0.096 F 
ATOM     11  F3  UNL d   1      -0.703  -3.528   2.011  0.00  0.00    -0.097 F 
ATOM     12  F4  UNL d   1      -1.227  -3.991   4.648  0.00  0.00    -0.092 F 
ENDROOT
TORSDOF 0
ENDMDL
