MODEL 1
REMARK minimizedAffinity 12.233572
REMARK minimizedRMSD -1
REMARK  0 active torsions:
REMARK  status: ('A' for Active; 'I' for Inactive)
ROOT
ATOM      1  C   UNL d   1      -1.212   1.223   1.123  0.00  0.00     0.124 A 
ATOM      2  C1  UNL d   1       0.147   1.283   1.397  0.00  0.00     0.062 A 
ATOM      3  C2  UNL d   1       0.608   1.995   2.500  0.00  0.00     0.162 A 
ATOM      4  C3  UNL d   1      -0.291   2.654   3.339  0.00  0.00    -0.034 A 
ATOM      5  C4  UNL d   1      -1.657   2.590   3.056  0.00  0.00     0.162 A 
ATOM      6  C5  UNL d   1      -2.113   1.876   1.952  0.00  0.00     0.062 A 
ATOM      7  F   UNL d   1      -3.426   1.820   1.689  0.00  0.00    -0.097 F 
ATOM      8  F1  UNL d   1      -2.549   3.211   3.842  0.00  0.00    -0.096 F 
ATOM      9  I   UNL d   1       0.395   3.721   4.989  0.00  0.00    -0.060 I 
ATOM     10  F2  UNL d   1       1.927   2.036   2.740  0.00  0.00    -0.096 F 
ATOM     11  F3  UNL d   1       1.019   0.653   0.596  0.00  0.00    -0.097 F 
ATOM     12  F4  UNL d   1      -1.653   0.537   0.060  0.00  0.00    -0.092 F 
ENDROOT
TORSDOF 0
ENDMDL
