MODEL 1
REMARK minimizedAffinity 11.8324833
REMARK minimizedRMSD -1
REMARK  0 active torsions:
REMARK  status: ('A' for Active; 'I' for Inactive)
ROOT
ATOM      1  C   UNL d   1      -3.195  -1.655   1.324  0.00  0.00     0.124 A 
ATOM      2  C1  UNL d   1      -1.993  -2.233   1.707  0.00  0.00     0.062 A 
ATOM      3  C2  UNL d   1      -0.807  -1.511   1.608  0.00  0.00     0.162 A 
ATOM      4  C3  UNL d   1      -0.817  -0.203   1.124  0.00  0.00    -0.034 A 
ATOM      5  C4  UNL d   1      -2.030   0.371   0.740  0.00  0.00     0.162 A 
ATOM      6  C5  UNL d   1      -3.213  -0.354   0.841  0.00  0.00     0.062 A 
ATOM      7  F   UNL d   1      -4.374   0.206   0.471  0.00  0.00    -0.097 F 
ATOM      8  F1  UNL d   1      -2.076   1.627   0.271  0.00  0.00    -0.096 F 
ATOM      9  I   UNL d   1       0.954   0.879   0.975  0.00  0.00    -0.060 I 
ATOM     10  F2  UNL d   1       0.341  -2.095   1.985  0.00  0.00    -0.096 F 
ATOM     11  F3  UNL d   1      -1.973  -3.490   2.172  0.00  0.00    -0.097 F 
ATOM     12  F4  UNL d   1      -4.335  -2.352   1.419  0.00  0.00    -0.092 F 
ENDROOT
TORSDOF 0
ENDMDL
