MODEL 1
REMARK minimizedAffinity 9.69934177
REMARK minimizedRMSD -1
REMARK  0 active torsions:
REMARK  status: ('A' for Active; 'I' for Inactive)
ROOT
ATOM      1  C   UNL d   1       5.704   3.329  -0.633  0.00  0.00    -0.002 A 
ATOM      2  C1  UNL d   1       5.998   2.163  -1.326  0.00  0.00     0.010 A 
ATOM      3  C2  UNL d   1       5.089   1.103  -1.351  0.00  0.00     0.041 A 
ATOM      4  C3  UNL d   1       3.867   1.236  -0.664  0.00  0.00    -0.075 A 
ATOM      5  S   UNL d   1       2.602   0.070  -0.556  0.00  0.00     0.015 SA
ATOM      6  C4  UNL d   1       1.640   1.092   0.411  0.00  0.00     0.022 A 
ATOM      7  C5  UNL d   1       2.254   2.298   0.656  0.00  0.00     0.026 A 
ATOM      8  C6  UNL d   1       3.548   2.401   0.040  0.00  0.00    -0.082 A 
ATOM      9  C7  UNL d   1       4.490   3.457   0.048  0.00  0.00     0.045 A 
ENDROOT
TORSDOF 0
ENDMDL
