MODEL 1
REMARK minimizedAffinity 3.09922242
REMARK minimizedRMSD -1
REMARK  0 active torsions:
REMARK  status: ('A' for Active; 'I' for Inactive)
ROOT
ATOM      1  C   UNL d   1       4.025  -2.090  -2.725  0.00  0.00    -0.002 A 
ATOM      2  C1  UNL d   1       4.374  -0.798  -2.356  0.00  0.00     0.010 A 
ATOM      3  C2  UNL d   1       3.618  -0.100  -1.413  0.00  0.00     0.041 A 
ATOM      4  C3  UNL d   1       2.496  -0.728  -0.839  0.00  0.00    -0.075 A 
ATOM      5  S   UNL d   1       1.423  -0.067   0.338  0.00  0.00     0.015 SA
ATOM      6  C4  UNL d   1       0.476  -1.484   0.380  0.00  0.00     0.022 A 
ATOM      7  C5  UNL d   1       0.953  -2.448  -0.476  0.00  0.00     0.026 A 
ATOM      8  C6  UNL d   1       2.125  -2.029  -1.193  0.00  0.00    -0.082 A 
ATOM      9  C7  UNL d   1       2.911  -2.710  -2.153  0.00  0.00     0.045 A 
ENDROOT
TORSDOF 0
ENDMDL
