MODEL 1
REMARK minimizedAffinity 1.54308057
REMARK minimizedRMSD -1
REMARK  0 active torsions:
REMARK  status: ('A' for Active; 'I' for Inactive)
ROOT
ATOM      1  C   UNL d   1       3.650  -1.097  -0.932  0.00  0.00    -0.002 A 
ATOM      2  C1  UNL d   1       3.570   0.282  -0.796  0.00  0.00     0.010 A 
ATOM      3  C2  UNL d   1       2.346   0.899  -0.531  0.00  0.00     0.041 A 
ATOM      4  C3  UNL d   1       1.193   0.100  -0.402  0.00  0.00    -0.075 A 
ATOM      5  S   UNL d   1      -0.413   0.636  -0.077  0.00  0.00     0.015 SA
ATOM      6  C4  UNL d   1      -1.030  -0.952  -0.110  0.00  0.00     0.022 A 
ATOM      7  C5  UNL d   1      -0.049  -1.882  -0.362  0.00  0.00     0.026 A 
ATOM      8  C6  UNL d   1       1.249  -1.291  -0.533  0.00  0.00    -0.082 A 
ATOM      9  C7  UNL d   1       2.505  -1.887  -0.803  0.00  0.00     0.045 A 
ENDROOT
TORSDOF 0
ENDMDL
