MODEL 1
REMARK minimizedAffinity 12.4497108
REMARK minimizedRMSD -1
REMARK  0 active torsions:
REMARK  status: ('A' for Active; 'I' for Inactive)
ROOT
ATOM      1  C   UNL d   1      -0.807  -2.913  -1.746  0.00  0.00    -0.002 A 
ATOM      2  C1  UNL d   1       0.273  -3.134  -0.904  0.00  0.00     0.010 A 
ATOM      3  C2  UNL d   1       0.860  -2.074  -0.209  0.00  0.00     0.041 A 
ATOM      4  C3  UNL d   1       0.337  -0.777  -0.375  0.00  0.00    -0.075 A 
ATOM      5  S   UNL d   1       0.894   0.672   0.375  0.00  0.00     0.015 SA
ATOM      6  C4  UNL d   1      -0.291   1.618  -0.404  0.00  0.00     0.022 A 
ATOM      7  C5  UNL d   1      -1.099   0.864  -1.220  0.00  0.00     0.026 A 
ATOM      8  C6  UNL d   1      -0.751  -0.530  -1.216  0.00  0.00    -0.082 A 
ATOM      9  C7  UNL d   1      -1.324  -1.624  -1.908  0.00  0.00     0.045 A 
ENDROOT
TORSDOF 0
ENDMDL
