MODEL 1
REMARK minimizedAffinity 4.73346996
REMARK minimizedRMSD -1
REMARK  0 active torsions:
REMARK  status: ('A' for Active; 'I' for Inactive)
ROOT
ATOM      1  C   UNL d   1      -0.869  -2.502  -0.963  0.00  0.00    -0.002 A 
ATOM      2  C1  UNL d   1       0.244  -3.300  -1.184  0.00  0.00     0.010 A 
ATOM      3  C2  UNL d   1       1.531  -2.785  -1.021  0.00  0.00     0.041 A 
ATOM      4  C3  UNL d   1       1.682  -1.442  -0.625  0.00  0.00    -0.075 A 
ATOM      5  S   UNL d   1       3.162  -0.596  -0.361  0.00  0.00     0.015 SA
ATOM      6  C4  UNL d   1       2.351   0.845   0.053  0.00  0.00     0.022 A 
ATOM      7  C5  UNL d   1       0.984   0.702  -0.004  0.00  0.00     0.026 A 
ATOM      8  C6  UNL d   1       0.577  -0.618  -0.394  0.00  0.00    -0.082 A 
ATOM      9  C7  UNL d   1      -0.715  -1.170  -0.570  0.00  0.00     0.045 A 
ENDROOT
TORSDOF 0
ENDMDL
