MODEL 1
REMARK minimizedAffinity -5.19440317
REMARK minimizedRMSD -1
REMARK  1 active torsions:
REMARK  status: ('A' for Active; 'I' for Inactive)
REMARK    1  A    between atoms: N_2  and  C1_3 
ROOT
ATOM      1  C1  UNL d   1      -0.995  -0.059   0.722  0.00  0.00     0.143 A 
ATOM      2  C2  UNL d   1      -0.499  -1.356   0.552  0.00  0.00    -0.057 A 
ATOM      3  C3  UNL d   1      -1.154  -2.462   1.108  0.00  0.00     0.033 A 
ATOM      4  C4  UNL d   1      -2.305  -2.286   1.870  0.00  0.00    -0.042 A 
ATOM      5  C5  UNL d   1      -2.801  -1.004   2.072  0.00  0.00     0.033 A 
ATOM      6  C6  UNL d   1      -2.146   0.096   1.509  0.00  0.00    -0.057 A 
ENDROOT
BRANCH   1   7
ATOM      7  N   UNL d   1      -0.335   1.090   0.278  0.00  0.00    -0.732 N 
ATOM      8  C   UNL d   1       0.947   0.994  -0.386  0.00  0.00     0.284 C 
ATOM      9  H3  UNL d   1      -0.971   1.765  -0.141  0.00  0.00     0.395 HD
ENDBRANCH   1   7
TORSDOF 1
ENDMDL
