MODEL 1
REMARK minimizedAffinity -5.29896736
REMARK minimizedRMSD -1
REMARK  1 active torsions:
REMARK  status: ('A' for Active; 'I' for Inactive)
REMARK    1  A    between atoms: N_2  and  C1_3 
ROOT
ATOM      1  C1  UNL d   1      -0.272  -0.961   0.542  0.00  0.00     0.143 A 
ATOM      2  C2  UNL d   1      -0.102  -2.323   0.812  0.00  0.00    -0.057 A 
ATOM      3  C3  UNL d   1      -1.177  -3.123   1.219  0.00  0.00     0.033 A 
ATOM      4  C4  UNL d   1      -2.440  -2.566   1.391  0.00  0.00    -0.042 A 
ATOM      5  C5  UNL d   1      -2.627  -1.209   1.152  0.00  0.00     0.033 A 
ATOM      6  C6  UNL d   1      -1.551  -0.417   0.740  0.00  0.00    -0.057 A 
ENDROOT
BRANCH   1   7
ATOM      7  N   UNL d   1       0.777  -0.093   0.229  0.00  0.00    -0.732 N 
ATOM      8  C   UNL d   1       0.514   1.288  -0.111  0.00  0.00     0.284 C 
ATOM      9  H3  UNL d   1       1.584  -0.226   0.835  0.00  0.00     0.395 HD
ENDBRANCH   1   7
TORSDOF 1
ENDMDL
