MODEL 1
REMARK minimizedAffinity -2.57645106
REMARK minimizedRMSD -1
REMARK  1 active torsions:
REMARK  status: ('A' for Active; 'I' for Inactive)
REMARK    1  A    between atoms: N_2  and  C1_3 
ROOT
ATOM      1  C1  UNL d   1      -1.020   0.154   0.776  0.00  0.00     0.143 A 
ATOM      2  C2  UNL d   1      -0.618  -1.173   0.961  0.00  0.00    -0.057 A 
ATOM      3  C3  UNL d   1      -1.339  -2.042   1.790  0.00  0.00     0.033 A 
ATOM      4  C4  UNL d   1      -2.462  -1.588   2.473  0.00  0.00    -0.042 A 
ATOM      5  C5  UNL d   1      -2.866  -0.266   2.324  0.00  0.00     0.033 A 
ATOM      6  C6  UNL d   1      -2.146   0.594   1.489  0.00  0.00    -0.057 A 
ENDROOT
BRANCH   1   7
ATOM      7  N   UNL d   1      -0.290   1.093   0.043  0.00  0.00    -0.732 N 
ATOM      8  C   UNL d   1       1.155   1.024  -0.011  0.00  0.00     0.284 C 
ATOM      9  H3  UNL d   1      -0.729   1.318  -0.847  0.00  0.00     0.395 HD
ENDBRANCH   1   7
TORSDOF 1
ENDMDL
