MODEL 1
REMARK minimizedAffinity -2.32696414
REMARK minimizedRMSD -1
REMARK  1 active torsions:
REMARK  status: ('A' for Active; 'I' for Inactive)
REMARK    1  A    between atoms: N_2  and  C1_3 
ROOT
ATOM      1  C1  UNL d   1       0.560   0.021  -0.237  0.00  0.00     0.143 A 
ATOM      2  C2  UNL d   1      -0.818   0.124  -0.018  0.00  0.00    -0.057 A 
ATOM      3  C3  UNL d   1      -1.532  -0.904   0.610  0.00  0.00     0.033 A 
ATOM      4  C4  UNL d   1      -0.883  -2.069   1.005  0.00  0.00    -0.042 A 
ATOM      5  C5  UNL d   1       0.481  -2.203   0.775  0.00  0.00     0.033 A 
ATOM      6  C6  UNL d   1       1.190  -1.171   0.153  0.00  0.00    -0.057 A 
ENDROOT
BRANCH   1   7
ATOM      7  N   UNL d   1       1.308   0.966  -0.944  0.00  0.00    -0.732 N 
ATOM      8  C   UNL d   1       0.827   1.494  -2.203  0.00  0.00     0.284 C 
ATOM      9  H3  UNL d   1       1.729   1.663  -0.335  0.00  0.00     0.395 HD
ENDBRANCH   1   7
TORSDOF 1
ENDMDL
