MODEL 1
REMARK minimizedAffinity -1.27152705
REMARK minimizedRMSD -1
REMARK  1 active torsions:
REMARK  status: ('A' for Active; 'I' for Inactive)
REMARK    1  A    between atoms: N_2  and  C1_3 
ROOT
ATOM      1  C1  UNL d   1      -1.056  -2.268   0.920  0.00  0.00     0.143 A 
ATOM      2  C2  UNL d   1       0.337  -2.399   0.919  0.00  0.00    -0.057 A 
ATOM      3  C3  UNL d   1       1.170  -1.290   0.728  0.00  0.00     0.033 A 
ATOM      4  C4  UNL d   1       0.622  -0.031   0.504  0.00  0.00    -0.042 A 
ATOM      5  C5  UNL d   1      -0.760   0.118   0.477  0.00  0.00     0.033 A 
ATOM      6  C6  UNL d   1      -1.587  -0.992   0.675  0.00  0.00    -0.057 A 
ENDROOT
BRANCH   1   7
ATOM      7  N   UNL d   1      -1.939  -3.348   1.006  0.00  0.00    -0.732 N 
ATOM      8  C   UNL d   1      -3.177  -3.230   1.746  0.00  0.00     0.284 C 
ATOM      9  H3  UNL d   1      -2.027  -3.849   0.125  0.00  0.00     0.395 HD
ENDBRANCH   1   7
TORSDOF 1
ENDMDL
