MODEL 1
REMARK minimizedAffinity -3.11251116
REMARK minimizedRMSD -1
REMARK  1 active torsions:
REMARK  status: ('A' for Active; 'I' for Inactive)
REMARK    1  A    between atoms: N_2  and  C1_3 
ROOT
ATOM      1  C1  UNL d   1       0.032   1.029  -0.204  0.00  0.00     0.143 A 
ATOM      2  C2  UNL d   1      -0.915   1.745   0.534  0.00  0.00    -0.057 A 
ATOM      3  C3  UNL d   1      -1.977   1.097   1.176  0.00  0.00     0.033 A 
ATOM      4  C4  UNL d   1      -2.127  -0.282   1.066  0.00  0.00    -0.042 A 
ATOM      5  C5  UNL d   1      -1.211  -1.011   0.316  0.00  0.00     0.033 A 
ATOM      6  C6  UNL d   1      -0.149  -0.359  -0.317  0.00  0.00    -0.057 A 
ENDROOT
BRANCH   1   7
ATOM      7  N   UNL d   1       1.054   1.626  -0.947  0.00  0.00    -0.732 N 
ATOM      8  C   UNL d   1       0.810   2.090  -2.296  0.00  0.00     0.284 C 
ATOM      9  H3  UNL d   1       1.623   2.257  -0.387  0.00  0.00     0.395 HD
ENDBRANCH   1   7
TORSDOF 1
ENDMDL
