MODEL 1
REMARK minimizedAffinity -4.94346333
REMARK minimizedRMSD -1
REMARK  1 active torsions:
REMARK  status: ('A' for Active; 'I' for Inactive)
REMARK    1  A    between atoms: N_2  and  C1_3 
ROOT
ATOM      1  C1  UNL d   1       0.624  -0.129   0.068  0.00  0.00     0.143 A 
ATOM      2  C2  UNL d   1       1.381  -1.286   0.279  0.00  0.00    -0.057 A 
ATOM      3  C3  UNL d   1       0.789  -2.465   0.750  0.00  0.00     0.033 A 
ATOM      4  C4  UNL d   1      -0.569  -2.498   1.047  0.00  0.00    -0.042 A 
ATOM      5  C5  UNL d   1      -1.336  -1.352   0.869  0.00  0.00     0.033 A 
ATOM      6  C6  UNL d   1      -0.741  -0.180   0.392  0.00  0.00    -0.057 A 
ENDROOT
BRANCH   1   7
ATOM      7  N   UNL d   1       1.171   1.101  -0.304  0.00  0.00    -0.732 N 
ATOM      8  C   UNL d   1       0.782   1.736  -1.545  0.00  0.00     0.284 C 
ATOM      9  H3  UNL d   1       1.258   1.742   0.482  0.00  0.00     0.395 HD
ENDBRANCH   1   7
TORSDOF 1
ENDMDL
