MODEL 1
REMARK minimizedAffinity -3.13281798
REMARK minimizedRMSD -1
REMARK  1 active torsions:
REMARK  status: ('A' for Active; 'I' for Inactive)
REMARK    1  A    between atoms: N_2  and  C1_3 
ROOT
ATOM      1  C1  UNL d   1       1.016   2.690  -1.599  0.00  0.00     0.143 A 
ATOM      2  C2  UNL d   1       2.113   1.975  -2.092  0.00  0.00    -0.057 A 
ATOM      3  C3  UNL d   1       2.241   1.693  -3.458  0.00  0.00     0.033 A 
ATOM      4  C4  UNL d   1       1.255   2.096  -4.353  0.00  0.00    -0.042 A 
ATOM      5  C5  UNL d   1       0.144   2.786  -3.881  0.00  0.00     0.033 A 
ATOM      6  C6  UNL d   1       0.026   3.071  -2.517  0.00  0.00    -0.057 A 
ENDROOT
BRANCH   1   7
ATOM      7  N   UNL d   1       0.783   2.917  -0.240  0.00  0.00    -0.732 N 
ATOM      8  C   UNL d   1       0.179   1.893   0.585  0.00  0.00     0.284 C 
ATOM      9  H3  UNL d   1       1.550   3.413   0.208  0.00  0.00     0.395 HD
ENDBRANCH   1   7
TORSDOF 1
ENDMDL
