MODEL 1
REMARK minimizedAffinity -3.89249587
REMARK minimizedRMSD -1
REMARK  1 active torsions:
REMARK  status: ('A' for Active; 'I' for Inactive)
REMARK    1  A    between atoms: N_2  and  C1_3 
ROOT
ATOM      1  C1  UNL d   1      -0.458   0.220   0.494  0.00  0.00     0.143 A 
ATOM      2  C2  UNL d   1       0.883  -0.149   0.637  0.00  0.00    -0.057 A 
ATOM      3  C3  UNL d   1       1.268  -1.496   0.653  0.00  0.00     0.033 A 
ATOM      4  C4  UNL d   1       0.311  -2.500   0.556  0.00  0.00    -0.042 A 
ATOM      5  C5  UNL d   1      -1.031  -2.157   0.438  0.00  0.00     0.033 A 
ATOM      6  C6  UNL d   1      -1.408  -0.811   0.416  0.00  0.00    -0.057 A 
ENDROOT
BRANCH   1   7
ATOM      7  N   UNL d   1      -0.915   1.538   0.569  0.00  0.00    -0.732 N 
ATOM      8  C   UNL d   1      -2.163   1.850   1.232  0.00  0.00     0.284 C 
ATOM      9  H3  UNL d   1      -0.165   2.198   0.763  0.00  0.00     0.395 HD
ENDBRANCH   1   7
TORSDOF 1
ENDMDL
