MODEL 1
REMARK minimizedAffinity -1.67867064
REMARK minimizedRMSD -1
REMARK  1 active torsions:
REMARK  status: ('A' for Active; 'I' for Inactive)
REMARK    1  A    between atoms: N_2  and  C1_3 
ROOT
ATOM      1  C1  UNL d   1      -1.082  -0.271   0.333  0.00  0.00     0.143 A 
ATOM      2  C2  UNL d   1      -2.274  -0.889  -0.059  0.00  0.00    -0.057 A 
ATOM      3  C3  UNL d   1      -2.400  -2.283  -0.068  0.00  0.00     0.033 A 
ATOM      4  C4  UNL d   1      -1.323  -3.087   0.288  0.00  0.00    -0.042 A 
ATOM      5  C5  UNL d   1      -0.120  -2.495   0.657  0.00  0.00     0.033 A 
ATOM      6  C6  UNL d   1      -0.003  -1.102   0.671  0.00  0.00    -0.057 A 
ENDROOT
BRANCH   1   7
ATOM      7  N   UNL d   1      -0.863   1.108   0.269  0.00  0.00    -0.732 N 
ATOM      8  C   UNL d   1       0.203   1.648  -0.547  0.00  0.00     0.284 C 
ATOM      9  H3  UNL d   1      -1.731   1.637   0.224  0.00  0.00     0.395 HD
ENDBRANCH   1   7
TORSDOF 1
ENDMDL
