MODEL 1
REMARK minimizedAffinity -3.97910261
REMARK minimizedRMSD -1
REMARK  1 active torsions:
REMARK  status: ('A' for Active; 'I' for Inactive)
REMARK    1  A    between atoms: N_2  and  C1_3 
ROOT
ATOM      1  C1  UNL d   1       0.307  -0.910   0.219  0.00  0.00     0.143 A 
ATOM      2  C2  UNL d   1       0.590  -2.078   0.935  0.00  0.00    -0.057 A 
ATOM      3  C3  UNL d   1      -0.436  -2.880   1.450  0.00  0.00     0.033 A 
ATOM      4  C4  UNL d   1      -1.766  -2.511   1.282  0.00  0.00    -0.042 A 
ATOM      5  C5  UNL d   1      -2.070  -1.341   0.595  0.00  0.00     0.033 A 
ATOM      6  C6  UNL d   1      -1.041  -0.548   0.077  0.00  0.00    -0.057 A 
ENDROOT
BRANCH   1   7
ATOM      7  N   UNL d   1       1.284  -0.019  -0.233  0.00  0.00    -0.732 N 
ATOM      8  C   UNL d   1       0.909   1.219  -0.881  0.00  0.00     0.284 C 
ATOM      9  H3  UNL d   1       2.059   0.071   0.420  0.00  0.00     0.395 HD
ENDBRANCH   1   7
TORSDOF 1
ENDMDL
