MODEL 1
REMARK minimizedAffinity -5.77502632
REMARK minimizedRMSD -1
REMARK  1 active torsions:
REMARK  status: ('A' for Active; 'I' for Inactive)
REMARK    1  A    between atoms: N_2  and  C1_3 
ROOT
ATOM      1  C1  UNL d   1      -0.024  -0.243   0.161  0.00  0.00     0.143 A 
ATOM      2  C2  UNL d   1       0.745  -1.361   0.503  0.00  0.00    -0.057 A 
ATOM      3  C3  UNL d   1       0.145  -2.583   0.832  0.00  0.00     0.033 A 
ATOM      4  C4  UNL d   1      -1.241  -2.699   0.854  0.00  0.00    -0.042 A 
ATOM      5  C5  UNL d   1      -2.026  -1.594   0.543  0.00  0.00     0.033 A 
ATOM      6  C6  UNL d   1      -1.420  -0.380   0.208  0.00  0.00    -0.057 A 
ENDROOT
BRANCH   1   7
ATOM      7  N   UNL d   1       0.511   1.024  -0.080  0.00  0.00    -0.732 N 
ATOM      8  C   UNL d   1       0.607   1.540  -1.429  0.00  0.00     0.284 C 
ATOM      9  H3  UNL d   1       0.208   1.711   0.607  0.00  0.00     0.395 HD
ENDBRANCH   1   7
TORSDOF 1
ENDMDL
