MODEL 1
REMARK minimizedAffinity -3.01898241
REMARK minimizedRMSD -1
REMARK  1 active torsions:
REMARK  status: ('A' for Active; 'I' for Inactive)
REMARK    1  A    between atoms: N_2  and  C1_3 
ROOT
ATOM      1  C1  UNL d   1       0.155  -0.826   0.239  0.00  0.00     0.143 A 
ATOM      2  C2  UNL d   1       0.433  -2.053   0.849  0.00  0.00    -0.057 A 
ATOM      3  C3  UNL d   1      -0.586  -2.833   1.410  0.00  0.00     0.033 A 
ATOM      4  C4  UNL d   1      -1.902  -2.383   1.395  0.00  0.00    -0.042 A 
ATOM      5  C5  UNL d   1      -2.198  -1.154   0.816  0.00  0.00     0.033 A 
ATOM      6  C6  UNL d   1      -1.177  -0.383   0.251  0.00  0.00    -0.057 A 
ENDROOT
BRANCH   1   7
ATOM      7  N   UNL d   1       1.137   0.040  -0.249  0.00  0.00    -0.732 N 
ATOM      8  C   UNL d   1       0.813   1.412  -0.575  0.00  0.00     0.284 C 
ATOM      9  H3  UNL d   1       2.028  -0.074   0.229  0.00  0.00     0.395 HD
ENDBRANCH   1   7
TORSDOF 1
ENDMDL
