MODEL 1
REMARK minimizedAffinity -5.24556589
REMARK minimizedRMSD -1
REMARK  1 active torsions:
REMARK  status: ('A' for Active; 'I' for Inactive)
REMARK    1  A    between atoms: N_2  and  C1_3 
ROOT
ATOM      1  C1  UNL d   1      -0.076  -0.240   0.062  0.00  0.00     0.143 A 
ATOM      2  C2  UNL d   1       0.593  -1.409   0.439  0.00  0.00    -0.057 A 
ATOM      3  C3  UNL d   1      -0.110  -2.551   0.841  0.00  0.00     0.033 A 
ATOM      4  C4  UNL d   1      -1.500  -2.534   0.900  0.00  0.00    -0.042 A 
ATOM      5  C5  UNL d   1      -2.185  -1.375   0.554  0.00  0.00     0.033 A 
ATOM      6  C6  UNL d   1      -1.477  -0.240   0.147  0.00  0.00    -0.057 A 
ENDROOT
BRANCH   1   7
ATOM      7  N   UNL d   1       0.569   0.959  -0.252  0.00  0.00    -0.732 N 
ATOM      8  C   UNL d   1       0.323   1.620  -1.515  0.00  0.00     0.284 C 
ATOM      9  H3  UNL d   1       0.624   1.591   0.544  0.00  0.00     0.395 HD
ENDBRANCH   1   7
TORSDOF 1
ENDMDL
