MODEL 1
REMARK minimizedAffinity 4.78259325
REMARK minimizedRMSD -1
REMARK  2 active torsions:
REMARK  status: ('A' for Active; 'I' for Inactive)
REMARK    1  A    between atoms: C2'_3  and  C1'_4 
REMARK    2  A    between atoms: C1'_4  and  C1_5 
ROOT
ATOM      1  C1  I4B d   1       3.348   0.880   3.159  0.00  0.00    -0.075 A 
ATOM      2  C2  I4B d   1       3.568   1.873   2.237  0.00  0.00     0.003 A 
ATOM      3  C3  I4B d   1       4.185   3.085   2.630  0.00  0.00     0.002 A 
ATOM      4  C4  I4B d   1       4.518   3.281   3.955  0.00  0.00    -0.004 A 
ATOM      5  C5  I4B d   1       4.314   2.264   4.883  0.00  0.00     0.002 A 
ATOM      6  C6  I4B d   1       3.737   1.051   4.481  0.00  0.00     0.003 A 
ENDROOT
BRANCH   1   7
ATOM      7  C1' I4B d   1       2.664  -0.375   2.716  0.00  0.00     0.060 C 
BRANCH   7   8
ATOM      8  C2' I4B d   1       1.367  -0.497   3.490  0.00  0.00    -0.013 C 
ATOM      9  C4' I4B d   1       0.175  -0.327   2.586  0.00  0.00     0.013 C 
ATOM     10  C3' I4B d   1       1.352  -1.839   4.159  0.00  0.00     0.013 C 
ENDBRANCH   7   8
ENDBRANCH   1   7
TORSDOF 2
ENDMDL
