MODEL 1
REMARK minimizedAffinity 17.4373493
REMARK minimizedRMSD -1
REMARK  2 active torsions:
REMARK  status: ('A' for Active; 'I' for Inactive)
REMARK    1  A    between atoms: C2'_3  and  C1'_4 
REMARK    2  A    between atoms: C1'_4  and  C1_5 
ROOT
ATOM      1  C1  I4B d   1      -5.896   2.734  -1.137  0.00  0.00    -0.075 A 
ATOM      2  C2  I4B d   1      -5.815   3.217  -2.420  0.00  0.00     0.003 A 
ATOM      3  C3  I4B d   1      -5.811   4.613  -2.657  0.00  0.00     0.002 A 
ATOM      4  C4  I4B d   1      -5.939   5.483  -1.593  0.00  0.00    -0.004 A 
ATOM      5  C5  I4B d   1      -5.998   4.993  -0.292  0.00  0.00     0.002 A 
ATOM      6  C6  I4B d   1      -5.963   3.610  -0.061  0.00  0.00     0.003 A 
ENDROOT
BRANCH   1   7
ATOM      7  C1' I4B d   1      -5.931   1.254  -0.925  0.00  0.00     0.060 C 
BRANCH   7   8
ATOM      8  C2' I4B d   1      -5.053   0.610  -1.980  0.00  0.00    -0.013 C 
ATOM      9  C4' I4B d   1      -4.279  -0.549  -1.411  0.00  0.00     0.013 C 
ATOM     10  C3' I4B d   1      -5.935   0.170  -3.110  0.00  0.00     0.013 C 
ENDBRANCH   7   8
ENDBRANCH   1   7
TORSDOF 2
ENDMDL
