MODEL 1
REMARK minimizedAffinity 19.4701691
REMARK minimizedRMSD -1
REMARK  2 active torsions:
REMARK  status: ('A' for Active; 'I' for Inactive)
REMARK    1  A    between atoms: C2'_3  and  C1'_4 
REMARK    2  A    between atoms: C1'_4  and  C1_5 
ROOT
ATOM      1  C1  I4B d   1      -0.888  -3.246  -5.894  0.00  0.00    -0.075 A 
ATOM      2  C2  I4B d   1       0.191  -4.090  -5.981  0.00  0.00     0.003 A 
ATOM      3  C3  I4B d   1       0.009  -5.492  -5.888  0.00  0.00     0.002 A 
ATOM      4  C4  I4B d   1      -1.253  -5.999  -5.659  0.00  0.00    -0.004 A 
ATOM      5  C5  I4B d   1      -2.349  -5.144  -5.593  0.00  0.00     0.002 A 
ATOM      6  C6  I4B d   1      -2.168  -3.759  -5.724  0.00  0.00     0.003 A 
ENDROOT
BRANCH   1   7
ATOM      7  C1' I4B d   1      -0.656  -1.770  -5.963  0.00  0.00     0.060 C 
BRANCH   7   8
ATOM      8  C2' I4B d   1      -0.106  -1.321  -4.625  0.00  0.00    -0.013 C 
ATOM      9  C4' I4B d   1       0.390   0.100  -4.689  0.00  0.00     0.013 C 
ATOM     10  C3' I4B d   1      -1.194  -1.469  -3.604  0.00  0.00     0.013 C 
ENDBRANCH   7   8
ENDBRANCH   1   7
TORSDOF 2
ENDMDL
