MODEL 1
REMARK minimizedAffinity 19.5651131
REMARK minimizedRMSD -1
REMARK  2 active torsions:
REMARK  status: ('A' for Active; 'I' for Inactive)
REMARK    1  A    between atoms: C2'_3  and  C1'_4 
REMARK    2  A    between atoms: C1'_4  and  C1_5 
ROOT
ATOM      1  C1  I4B d   1       2.047   1.311   5.044  0.00  0.00    -0.075 A 
ATOM      2  C2  I4B d   1       1.178   2.252   5.536  0.00  0.00     0.003 A 
ATOM      3  C3  I4B d   1       1.664   3.498   6.000  0.00  0.00     0.002 A 
ATOM      4  C4  I4B d   1       3.023   3.740   6.000  0.00  0.00    -0.004 A 
ATOM      5  C5  I4B d   1       3.901   2.793   5.479  0.00  0.00     0.002 A 
ATOM      6  C6  I4B d   1       3.409   1.576   4.987  0.00  0.00     0.003 A 
ENDROOT
BRANCH   1   7
ATOM      7  C1' I4B d   1       1.502  -0.007   4.593  0.00  0.00     0.060 C 
BRANCH   7   8
ATOM      8  C2' I4B d   1       1.396   0.023   3.082  0.00  0.00    -0.013 C 
ATOM      9  C4' I4B d   1       1.121  -1.349   2.527  0.00  0.00     0.013 C 
ATOM     10  C3' I4B d   1       0.305   0.985   2.714  0.00  0.00     0.013 C 
ENDBRANCH   7   8
ENDBRANCH   1   7
TORSDOF 2
ENDMDL
