MODEL 1
REMARK minimizedAffinity 8.86527729
REMARK minimizedRMSD -1
REMARK  1 active torsions:
REMARK  status: ('A' for Active; 'I' for Inactive)
REMARK    1  A    between atoms: C1_2  and  C2_3 
ROOT
ATOM      1  C2  UNL d   1       5.863  -4.267  -2.997  0.00  0.00    -0.076 A 
ATOM      2  C3  UNL d   1       5.798  -2.918  -2.606  0.00  0.00     0.004 A 
ATOM      3  C4  UNL d   1       5.842  -1.895  -3.551  0.00  0.00    -0.003 A 
ATOM      4  C5  UNL d   1       5.950  -2.203  -4.903  0.00  0.00     0.000 A 
ATOM      5  C6  UNL d   1       5.998  -3.536  -5.309  0.00  0.00     0.000 A 
ATOM      6  C7  UNL d   1       5.939  -4.581  -4.371  0.00  0.00    -0.073 A 
ATOM      7  C8  UNL d   1       6.000  -6.000  -4.865  0.00  0.00     0.078 C 
ENDROOT
BRANCH   1   8
ATOM      8  C1  UNL d   1       5.839  -5.333  -1.925  0.00  0.00     0.053 C 
ATOM      9  C   UNL d   1       4.607  -5.240  -1.038  0.00  0.00     0.018 C 
ENDBRANCH   1   8
TORSDOF 1
ENDMDL
