MODEL 1
REMARK minimizedAffinity 9.84163761
REMARK minimizedRMSD -1
REMARK  1 active torsions:
REMARK  status: ('A' for Active; 'I' for Inactive)
REMARK    1  A    between atoms: C1_2  and  C2_3 
ROOT
ATOM      1  C2  UNL d   1      -1.401   2.620  -1.923  0.00  0.00    -0.076 A 
ATOM      2  C3  UNL d   1      -0.468   1.915  -1.143  0.00  0.00     0.004 A 
ATOM      3  C4  UNL d   1       0.734   2.505  -0.755  0.00  0.00    -0.003 A 
ATOM      4  C5  UNL d   1       1.021   3.810  -1.139  0.00  0.00     0.000 A 
ATOM      5  C6  UNL d   1       0.099   4.530  -1.897  0.00  0.00     0.000 A 
ATOM      6  C7  UNL d   1      -1.124   3.956  -2.284  0.00  0.00    -0.073 A 
ATOM      7  C8  UNL d   1      -2.079   4.777  -3.106  0.00  0.00     0.078 C 
ENDROOT
BRANCH   1   8
ATOM      8  C1  UNL d   1      -2.675   1.919  -2.338  0.00  0.00     0.053 C 
ATOM      9  C   UNL d   1      -3.401   1.286  -1.161  0.00  0.00     0.018 C 
ENDBRANCH   1   8
TORSDOF 1
ENDMDL
