MODEL 1
REMARK minimizedAffinity 0.0836498067
REMARK minimizedRMSD -1
REMARK  1 active torsions:
REMARK  status: ('A' for Active; 'I' for Inactive)
REMARK    1  A    between atoms: C1_2  and  C2_3 
ROOT
ATOM      1  C2  UNL d   1       0.294   3.398  -0.227  0.00  0.00    -0.076 A 
ATOM      2  C3  UNL d   1      -0.261   4.021  -1.358  0.00  0.00     0.004 A 
ATOM      3  C4  UNL d   1       0.138   5.301  -1.740  0.00  0.00    -0.003 A 
ATOM      4  C5  UNL d   1       1.098   5.978  -0.998  0.00  0.00     0.000 A 
ATOM      5  C6  UNL d   1       1.672   5.368   0.117  0.00  0.00     0.000 A 
ATOM      6  C7  UNL d   1       1.294   4.072   0.507  0.00  0.00    -0.073 A 
ATOM      7  C8  UNL d   1       1.941   3.465   1.721  0.00  0.00     0.078 C 
ENDROOT
BRANCH   1   8
ATOM      8  C1  UNL d   1      -0.196   2.020   0.155  0.00  0.00     0.053 C 
ATOM      9  C   UNL d   1      -0.421   1.125  -1.055  0.00  0.00     0.018 C 
ENDBRANCH   1   8
TORSDOF 1
ENDMDL
