MODEL 1
REMARK minimizedAffinity 11.5813351
REMARK minimizedRMSD -1
REMARK  1 active torsions:
REMARK  status: ('A' for Active; 'I' for Inactive)
REMARK    1  A    between atoms: C1_2  and  C2_3 
ROOT
ATOM      1  C2  UNL d   1       0.959   2.341   0.660  0.00  0.00    -0.076 A 
ATOM      2  C3  UNL d   1       0.145   2.480  -0.477  0.00  0.00     0.004 A 
ATOM      3  C4  UNL d   1       0.400   3.469  -1.426  0.00  0.00    -0.003 A 
ATOM      4  C5  UNL d   1       1.474   4.335  -1.252  0.00  0.00     0.000 A 
ATOM      5  C6  UNL d   1       2.303   4.201  -0.138  0.00  0.00     0.000 A 
ATOM      6  C7  UNL d   1       2.069   3.199   0.819  0.00  0.00    -0.073 A 
ATOM      7  C8  UNL d   1       2.991   3.103   2.004  0.00  0.00     0.078 C 
ENDROOT
BRANCH   1   8
ATOM      8  C1  UNL d   1       0.618   1.268   1.669  0.00  0.00     0.053 C 
ATOM      9  C   UNL d   1      -0.842   1.312   2.095  0.00  0.00     0.018 C 
ENDBRANCH   1   8
TORSDOF 1
ENDMDL
