MODEL 1
REMARK minimizedAffinity 1.18912947
REMARK minimizedRMSD -1
REMARK  1 active torsions:
REMARK  status: ('A' for Active; 'I' for Inactive)
REMARK    1  A    between atoms: C1_2  and  C2_3 
ROOT
ATOM      1  C2  UNL d   1       4.488  -4.744  -1.866  0.00  0.00    -0.076 A 
ATOM      2  C3  UNL d   1       3.858  -3.574  -2.324  0.00  0.00     0.004 A 
ATOM      3  C4  UNL d   1       3.907  -2.395  -1.582  0.00  0.00    -0.003 A 
ATOM      4  C5  UNL d   1       4.586  -2.367  -0.370  0.00  0.00     0.000 A 
ATOM      5  C6  UNL d   1       5.232  -3.513   0.092  0.00  0.00     0.000 A 
ATOM      6  C7  UNL d   1       5.207  -4.705  -0.652  0.00  0.00    -0.073 A 
ATOM      7  C8  UNL d   1       5.915  -5.914  -0.103  0.00  0.00     0.078 C 
ENDROOT
BRANCH   1   8
ATOM      8  C1  UNL d   1       4.379  -6.000  -2.701  0.00  0.00     0.053 C 
ATOM      9  C   UNL d   1       5.273  -5.961  -3.931  0.00  0.00     0.018 C 
ENDBRANCH   1   8
TORSDOF 1
ENDMDL
