MODEL 1
REMARK minimizedAffinity 5.20604801
REMARK minimizedRMSD -1
REMARK  1 active torsions:
REMARK  status: ('A' for Active; 'I' for Inactive)
REMARK    1  A    between atoms: C1_2  and  C2_3 
ROOT
ATOM      1  C2  UNL d   1       3.767  -4.787  -2.014  0.00  0.00    -0.076 A 
ATOM      2  C3  UNL d   1       5.043  -4.198  -1.993  0.00  0.00     0.004 A 
ATOM      3  C4  UNL d   1       5.362  -3.211  -1.062  0.00  0.00    -0.003 A 
ATOM      4  C5  UNL d   1       4.410  -2.797  -0.137  0.00  0.00     0.000 A 
ATOM      5  C6  UNL d   1       3.145  -3.383  -0.133  0.00  0.00     0.000 A 
ATOM      6  C7  UNL d   1       2.812  -4.391  -1.054  0.00  0.00    -0.073 A 
ATOM      7  C8  UNL d   1       1.431  -4.984  -1.007  0.00  0.00     0.078 C 
ENDROOT
BRANCH   1   8
ATOM      8  C1  UNL d   1       3.470  -5.834  -3.064  0.00  0.00     0.053 C 
ATOM      9  C   UNL d   1       4.608  -6.000  -4.060  0.00  0.00     0.018 C 
ENDBRANCH   1   8
TORSDOF 1
ENDMDL
