MODEL 1
REMARK minimizedAffinity -0.266234338
REMARK minimizedRMSD -1
REMARK  1 active torsions:
REMARK  status: ('A' for Active; 'I' for Inactive)
REMARK    1  A    between atoms: C1_2  and  C2_3 
ROOT
ATOM      1  C2  UNL d   1      -2.006   2.225  -1.648  0.00  0.00    -0.076 A 
ATOM      2  C3  UNL d   1      -2.445   3.238  -2.519  0.00  0.00     0.004 A 
ATOM      3  C4  UNL d   1      -3.632   3.102  -3.237  0.00  0.00    -0.003 A 
ATOM      4  C5  UNL d   1      -4.400   1.952  -3.094  0.00  0.00     0.000 A 
ATOM      5  C6  UNL d   1      -3.989   0.945  -2.222  0.00  0.00     0.000 A 
ATOM      6  C7  UNL d   1      -2.803   1.073  -1.478  0.00  0.00    -0.073 A 
ATOM      7  C8  UNL d   1      -2.405  -0.046  -0.556  0.00  0.00     0.078 C 
ENDROOT
BRANCH   1   8
ATOM      8  C1  UNL d   1      -0.697   2.416  -0.917  0.00  0.00     0.053 C 
ATOM      9  C   UNL d   1      -0.193   3.850  -0.988  0.00  0.00     0.018 C 
ENDBRANCH   1   8
TORSDOF 1
ENDMDL
