MODEL 1
REMARK minimizedAffinity 6.47012949
REMARK minimizedRMSD -1
REMARK  1 active torsions:
REMARK  status: ('A' for Active; 'I' for Inactive)
REMARK    1  A    between atoms: C1_2  and  C2_3 
ROOT
ATOM      1  C2  UNL d   1       4.292  -4.623  -1.605  0.00  0.00    -0.076 A 
ATOM      2  C3  UNL d   1       3.958  -3.552  -0.758  0.00  0.00     0.004 A 
ATOM      3  C4  UNL d   1       3.725  -2.277  -1.272  0.00  0.00    -0.003 A 
ATOM      4  C5  UNL d   1       3.823  -2.053  -2.641  0.00  0.00     0.000 A 
ATOM      5  C6  UNL d   1       4.136  -3.108  -3.497  0.00  0.00     0.000 A 
ATOM      6  C7  UNL d   1       4.358  -4.403  -2.997  0.00  0.00    -0.073 A 
ATOM      7  C8  UNL d   1       4.698  -5.502  -3.966  0.00  0.00     0.078 C 
ENDROOT
BRANCH   1   8
ATOM      8  C1  UNL d   1       4.560  -5.977  -0.988  0.00  0.00     0.053 C 
ATOM      9  C   UNL d   1       5.627  -5.923   0.095  0.00  0.00     0.018 C 
ENDBRANCH   1   8
TORSDOF 1
ENDMDL
