MODEL 1
REMARK minimizedAffinity 3.07276559
REMARK minimizedRMSD -1
REMARK  1 active torsions:
REMARK  status: ('A' for Active; 'I' for Inactive)
REMARK    1  A    between atoms: C1_2  and  C2_3 
ROOT
ATOM      1  C2  UNL d   1       0.369   2.984   0.486  0.00  0.00    -0.076 A 
ATOM      2  C3  UNL d   1       0.548   3.172   1.868  0.00  0.00     0.004 A 
ATOM      3  C4  UNL d   1       0.442   2.104   2.757  0.00  0.00    -0.003 A 
ATOM      4  C5  UNL d   1       0.155   0.830   2.280  0.00  0.00     0.000 A 
ATOM      5  C6  UNL d   1      -0.008   0.622   0.911  0.00  0.00     0.000 A 
ATOM      6  C7  UNL d   1       0.112   1.685  -0.001  0.00  0.00    -0.073 A 
ATOM      7  C8  UNL d   1      -0.080   1.404  -1.466  0.00  0.00     0.078 C 
ENDROOT
BRANCH   1   8
ATOM      8  C1  UNL d   1       0.469   4.184  -0.427  0.00  0.00     0.053 C 
ATOM      9  C   UNL d   1      -0.154   5.432   0.179  0.00  0.00     0.018 C 
ENDBRANCH   1   8
TORSDOF 1
ENDMDL
