MODEL 1
REMARK minimizedAffinity 4.18958426
REMARK minimizedRMSD -1
REMARK  2 active torsions:
REMARK  status: ('A' for Active; 'I' for Inactive)
REMARK    1  A    between atoms: C1_2  and  C2_3 
REMARK    2  A    between atoms: C2_3  and  C3_4 
ROOT
ATOM      1  C3  UNL d   1       0.371  -2.871   0.911  0.00  0.00    -0.075 A 
ATOM      2  C4  UNL d   1       1.200  -3.982   1.125  0.00  0.00     0.002 A 
ATOM      3  C5  UNL d   1       2.172  -3.958   2.125  0.00  0.00     0.002 A 
ATOM      4  C6  UNL d   1       2.336  -2.822   2.915  0.00  0.00    -0.004 A 
ATOM      5  C7  UNL d   1       1.529  -1.707   2.701  0.00  0.00     0.002 A 
ATOM      6  C8  UNL d   1       0.552  -1.730   1.704  0.00  0.00     0.002 A 
ENDROOT
BRANCH   1   7
ATOM      7  C2  UNL d   1      -0.703  -2.902  -0.150  0.00  0.00     0.056 C 
BRANCH   7   8
ATOM      8  C1  UNL d   1      -2.030  -3.506   0.323  0.00  0.00     0.007 C 
ATOM      9  C   UNL d   1      -2.310  -4.879  -0.272  0.00  0.00     0.009 C 
ENDBRANCH   7   8
ENDBRANCH   1   7
TORSDOF 2
ENDMDL
