MODEL 1
REMARK minimizedAffinity 4.66660023
REMARK minimizedRMSD -1
REMARK  2 active torsions:
REMARK  status: ('A' for Active; 'I' for Inactive)
REMARK    1  A    between atoms: C1_2  and  C2_3 
REMARK    2  A    between atoms: C2_3  and  C3_4 
ROOT
ATOM      1  C3  UNL d   1       3.494  -1.911   4.180  0.00  0.00    -0.075 A 
ATOM      2  C4  UNL d   1       4.673  -1.517   3.531  0.00  0.00     0.002 A 
ATOM      3  C5  UNL d   1       5.918  -1.775   4.105  0.00  0.00     0.002 A 
ATOM      4  C6  UNL d   1       6.000  -2.420   5.338  0.00  0.00    -0.004 A 
ATOM      5  C7  UNL d   1       4.834  -2.801   5.999  0.00  0.00     0.002 A 
ATOM      6  C8  UNL d   1       3.587  -2.548   5.425  0.00  0.00     0.002 A 
ENDROOT
BRANCH   1   7
ATOM      7  C2  UNL d   1       2.144  -1.661   3.550  0.00  0.00     0.056 C 
BRANCH   7   8
ATOM      8  C1  UNL d   1       2.159  -0.600   2.444  0.00  0.00     0.007 C 
ATOM      9  C   UNL d   1       1.149  -0.872   1.338  0.00  0.00     0.009 C 
ENDBRANCH   7   8
ENDBRANCH   1   7
TORSDOF 2
ENDMDL
