MODEL 1
REMARK minimizedAffinity 3.88515854
REMARK minimizedRMSD -1
REMARK  2 active torsions:
REMARK  status: ('A' for Active; 'I' for Inactive)
REMARK    1  A    between atoms: C1_2  and  C2_3 
REMARK    2  A    between atoms: C2_3  and  C3_4 
ROOT
ATOM      1  C3  UNL d   1       2.949  -2.300   4.752  0.00  0.00    -0.075 A 
ATOM      2  C4  UNL d   1       2.581  -3.258   3.797  0.00  0.00     0.002 A 
ATOM      3  C5  UNL d   1       1.910  -2.878   2.635  0.00  0.00     0.002 A 
ATOM      4  C6  UNL d   1       1.590  -1.540   2.417  0.00  0.00    -0.004 A 
ATOM      5  C7  UNL d   1       1.936  -0.581   3.367  0.00  0.00     0.002 A 
ATOM      6  C8  UNL d   1       2.612  -0.958   4.529  0.00  0.00     0.002 A 
ENDROOT
BRANCH   1   7
ATOM      7  C2  UNL d   1       3.702  -2.701   5.999  0.00  0.00     0.056 C 
BRANCH   7   8
ATOM      8  C1  UNL d   1       5.175  -2.281   6.000  0.00  0.00     0.007 C 
ATOM      9  C   UNL d   1       5.694  -1.907   4.618  0.00  0.00     0.009 C 
ENDBRANCH   7   8
ENDBRANCH   1   7
TORSDOF 2
ENDMDL
