MODEL 1
REMARK minimizedAffinity 0.663148582
REMARK minimizedRMSD -1
REMARK  2 active torsions:
REMARK  status: ('A' for Active; 'I' for Inactive)
REMARK    1  A    between atoms: C1_2  and  C2_3 
REMARK    2  A    between atoms: C2_3  and  C3_4 
ROOT
ATOM      1  C3  UNL d   1       3.827  -1.681   3.627  0.00  0.00    -0.075 A 
ATOM      2  C4  UNL d   1       5.202  -1.901   3.462  0.00  0.00     0.002 A 
ATOM      3  C5  UNL d   1       5.999  -2.252   4.551  0.00  0.00     0.002 A 
ATOM      4  C6  UNL d   1       5.436  -2.377   5.819  0.00  0.00    -0.004 A 
ATOM      5  C7  UNL d   1       4.074  -2.144   5.998  0.00  0.00     0.002 A 
ATOM      6  C8  UNL d   1       3.273  -1.797   4.909  0.00  0.00     0.002 A 
ENDROOT
BRANCH   1   7
ATOM      7  C2  UNL d   1       2.953  -1.329   2.447  0.00  0.00     0.056 C 
BRANCH   7   8
ATOM      8  C1  UNL d   1       1.692  -0.541   2.817  0.00  0.00     0.007 C 
ATOM      9  C   UNL d   1       0.669  -0.483   1.691  0.00  0.00     0.009 C 
ENDBRANCH   7   8
ENDBRANCH   1   7
TORSDOF 2
ENDMDL
