MODEL 1
REMARK minimizedAffinity -2.00906253
REMARK minimizedRMSD -1
REMARK  0 active torsions:
REMARK  status: ('A' for Active; 'I' for Inactive)
ROOT
ATOM      1  C   UNL d   1       4.511  -4.484   2.439  0.00  0.00     0.172 C 
ATOM      2  N   UNL d   1       4.530  -4.475   3.883  0.00  0.00    -0.070 N 
ATOM      3  C1  UNL d   1       4.538  -5.582   4.689  0.00  0.00    -0.004 A 
ATOM      4  C2  UNL d   1       4.556  -5.152   5.998  0.00  0.00    -0.047 A 
ATOM      5  C3  UNL d   1       4.558  -3.737   5.978  0.00  0.00    -0.047 A 
ATOM      6  C4  UNL d   1       4.542  -3.344   4.657  0.00  0.00    -0.004 A 
ENDROOT
TORSDOF 0
ENDMDL
