MODEL 1
REMARK minimizedAffinity -2.38853073
REMARK minimizedRMSD -1
REMARK  0 active torsions:
REMARK  status: ('A' for Active; 'I' for Inactive)
ROOT
ATOM      1  C   UNL d   1       5.994   2.841  -5.976  0.00  0.00     0.172 C 
ATOM      2  N   UNL d   1       4.984   3.873  -5.984  0.00  0.00    -0.070 N 
ATOM      3  C1  UNL d   1       5.221   5.222  -5.980  0.00  0.00    -0.004 A 
ATOM      4  C2  UNL d   1       4.001   5.865  -5.990  0.00  0.00    -0.047 A 
ATOM      5  C3  UNL d   1       2.997   4.868  -6.000  0.00  0.00    -0.047 A 
ATOM      6  C4  UNL d   1       3.633   3.644  -5.995  0.00  0.00    -0.004 A 
ENDROOT
TORSDOF 0
ENDMDL
