MODEL 1
REMARK minimizedAffinity 1.89103353
REMARK minimizedRMSD -1
REMARK  0 active torsions:
REMARK  status: ('A' for Active; 'I' for Inactive)
ROOT
ATOM      1  C   UNL d   1      -0.296   5.969   4.134  0.00  0.00     0.172 C 
ATOM      2  N   UNL d   1       1.061   5.960   4.627  0.00  0.00    -0.070 N 
ATOM      3  C1  UNL d   1       1.431   5.995   5.945  0.00  0.00    -0.004 A 
ATOM      4  C2  UNL d   1       2.808   5.971   5.998  0.00  0.00    -0.047 A 
ATOM      5  C3  UNL d   1       3.282   5.922   4.665  0.00  0.00    -0.047 A 
ATOM      6  C4  UNL d   1       2.179   5.916   3.837  0.00  0.00    -0.004 A 
ENDROOT
TORSDOF 0
ENDMDL
