MODEL 1
REMARK minimizedAffinity -1.68657315
REMARK minimizedRMSD -1
REMARK  0 active torsions:
REMARK  status: ('A' for Active; 'I' for Inactive)
ROOT
ATOM      1  C   UNL d   1       5.776   2.167  -5.998  0.00  0.00     0.172 C 
ATOM      2  N   UNL d   1       4.561   2.946  -5.998  0.00  0.00    -0.070 N 
ATOM      3  C1  UNL d   1       4.489   4.314  -5.996  0.00  0.00    -0.004 A 
ATOM      4  C2  UNL d   1       3.157   4.667  -5.998  0.00  0.00    -0.047 A 
ATOM      5  C3  UNL d   1       2.402   3.470  -5.999  0.00  0.00    -0.047 A 
ATOM      6  C4  UNL d   1       3.296   2.420  -6.000  0.00  0.00    -0.004 A 
ENDROOT
TORSDOF 0
ENDMDL
