MODEL 1
REMARK minimizedAffinity -2.41737723
REMARK minimizedRMSD -1
REMARK  0 active torsions:
REMARK  status: ('A' for Active; 'I' for Inactive)
ROOT
ATOM      1  C   UNL d   1       5.461   2.993  -5.999  0.00  0.00     0.172 C 
ATOM      2  N   UNL d   1       4.149   3.597  -5.998  0.00  0.00    -0.070 N 
ATOM      3  C1  UNL d   1       2.959   2.920  -5.995  0.00  0.00    -0.004 A 
ATOM      4  C2  UNL d   1       1.944   3.852  -5.993  0.00  0.00    -0.047 A 
ATOM      5  C3  UNL d   1       2.545   5.133  -5.997  0.00  0.00    -0.047 A 
ATOM      6  C4  UNL d   1       3.911   4.946  -6.000  0.00  0.00    -0.004 A 
ENDROOT
TORSDOF 0
ENDMDL
