MODEL 1
REMARK minimizedAffinity -2.51568127
REMARK minimizedRMSD -1
REMARK  0 active torsions:
REMARK  status: ('A' for Active; 'I' for Inactive)
ROOT
ATOM      1  C   UNL d   1       4.339  -4.274   3.031  0.00  0.00     0.172 C 
ATOM      2  N   UNL d   1       3.903  -3.559   1.855  0.00  0.00    -0.070 N 
ATOM      3  C1  UNL d   1       2.844  -2.693   1.793  0.00  0.00    -0.004 A 
ATOM      4  C2  UNL d   1       2.759  -2.221   0.501  0.00  0.00    -0.047 A 
ATOM      5  C3  UNL d   1       3.802  -2.825  -0.240  0.00  0.00    -0.047 A 
ATOM      6  C4  UNL d   1       4.495  -3.648   0.622  0.00  0.00    -0.004 A 
ENDROOT
TORSDOF 0
ENDMDL
