MODEL 1
REMARK minimizedAffinity -2.82507277
REMARK minimizedRMSD -1
REMARK  0 active torsions:
REMARK  status: ('A' for Active; 'I' for Inactive)
ROOT
ATOM      1  C   UNL d   1       5.998   3.306  -5.604  0.00  0.00     0.172 C 
ATOM      2  N   UNL d   1       4.826   4.146  -5.690  0.00  0.00    -0.070 N 
ATOM      3  C1  UNL d   1       3.562   3.723  -6.000  0.00  0.00    -0.004 A 
ATOM      4  C2  UNL d   1       2.731   4.822  -5.978  0.00  0.00    -0.047 A 
ATOM      5  C3  UNL d   1       3.525   5.945  -5.644  0.00  0.00    -0.047 A 
ATOM      6  C4  UNL d   1       4.818   5.498  -5.471  0.00  0.00    -0.004 A 
ENDROOT
TORSDOF 0
ENDMDL
