MODEL 1
REMARK minimizedAffinity -4.14799356
REMARK minimizedRMSD -1
REMARK  0 active torsions:
REMARK  status: ('A' for Active; 'I' for Inactive)
ROOT
ATOM      1  O1  BZF d   1      -0.793   0.511  -5.283  0.00  0.00    -0.204 OA
ATOM      2  C2  BZF d   1      -1.862  -0.296  -4.946  0.00  0.00     0.174 A 
ATOM      3  C3  BZF d   1      -1.563  -1.068  -3.881  0.00  0.00    -0.012 A 
ATOM      4  C3A BZF d   1      -0.255  -0.655  -3.474  0.00  0.00    -0.107 A 
ATOM      5  C4  BZF d   1       0.579  -1.040  -2.463  0.00  0.00     0.055 A 
ATOM      6  C5  BZF d   1       1.820  -0.491  -2.385  0.00  0.00    -0.016 A 
ATOM      7  C6  BZF d   1       2.261   0.440  -3.302  0.00  0.00     0.022 A 
ATOM      8  C7  BZF d   1       1.468   0.857  -4.319  0.00  0.00     0.029 A 
ATOM      9  C7A BZF d   1       0.202   0.329  -4.381  0.00  0.00     0.058 A 
ENDROOT
TORSDOF 0
ENDMDL
