MODEL 1
REMARK minimizedAffinity -4.10037327
REMARK minimizedRMSD -1
REMARK  0 active torsions:
REMARK  status: ('A' for Active; 'I' for Inactive)
ROOT
ATOM      1  O1  BZF d   1      -0.909  -0.276  -1.133  0.00  0.00    -0.204 OA
ATOM      2  C2  BZF d   1       0.451  -0.490  -1.256  0.00  0.00     0.174 A 
ATOM      3  C3  BZF d   1       1.086  -0.203  -0.101  0.00  0.00    -0.012 A 
ATOM      4  C3A BZF d   1       0.049   0.129   0.827  0.00  0.00    -0.107 A 
ATOM      5  C4  BZF d   1       0.047   0.488   2.144  0.00  0.00     0.055 A 
ATOM      6  C5  BZF d   1      -1.130   0.816   2.738  0.00  0.00    -0.016 A 
ATOM      7  C6  BZF d   1      -2.322   0.801   2.044  0.00  0.00     0.022 A 
ATOM      8  C7  BZF d   1      -2.372   0.447   0.737  0.00  0.00     0.029 A 
ATOM      9  C7A BZF d   1      -1.188   0.082   0.143  0.00  0.00     0.058 A 
ENDROOT
TORSDOF 0
ENDMDL
