MODEL 1
REMARK minimizedAffinity -2.14604378
REMARK minimizedRMSD -1
REMARK  0 active torsions:
REMARK  status: ('A' for Active; 'I' for Inactive)
ROOT
ATOM      1  O1  BZF d   1      -1.539   0.827   0.845  0.00  0.00    -0.204 OA
ATOM      2  C2  BZF d   1      -1.507   1.470   2.067  0.00  0.00     0.174 A 
ATOM      3  C3  BZF d   1      -0.302   1.323   2.654  0.00  0.00    -0.012 A 
ATOM      4  C3A BZF d   1       0.498   0.619   1.699  0.00  0.00    -0.107 A 
ATOM      5  C4  BZF d   1       1.795   0.191   1.694  0.00  0.00     0.055 A 
ATOM      6  C5  BZF d   1       2.247  -0.533   0.637  0.00  0.00    -0.016 A 
ATOM      7  C6  BZF d   1       1.431  -0.852  -0.428  0.00  0.00     0.022 A 
ATOM      8  C7  BZF d   1       0.138  -0.445  -0.470  0.00  0.00     0.029 A 
ATOM      9  C7A BZF d   1      -0.313   0.315   0.581  0.00  0.00     0.058 A 
ENDROOT
TORSDOF 0
ENDMDL
