MODEL 1
REMARK minimizedAffinity -5.27965736
REMARK minimizedRMSD -1
REMARK  0 active torsions:
REMARK  status: ('A' for Active; 'I' for Inactive)
ROOT
ATOM      1  O1  BZF d   1       1.106   0.263  -0.277  0.00  0.00    -0.204 OA
ATOM      2  C2  BZF d   1       0.574  -0.522  -1.282  0.00  0.00     0.174 A 
ATOM      3  C3  BZF d   1      -0.698  -0.867  -0.996  0.00  0.00    -0.012 A 
ATOM      4  C3A BZF d   1      -1.009  -0.183   0.222  0.00  0.00    -0.107 A 
ATOM      5  C4  BZF d   1      -2.128  -0.115   1.002  0.00  0.00     0.055 A 
ATOM      6  C5  BZF d   1      -2.080   0.582   2.167  0.00  0.00    -0.016 A 
ATOM      7  C6  BZF d   1      -0.930   1.219   2.585  0.00  0.00     0.022 A 
ATOM      8  C7  BZF d   1       0.204   1.184   1.843  0.00  0.00     0.029 A 
ATOM      9  C7A BZF d   1       0.149   0.507   0.649  0.00  0.00     0.058 A 
ENDROOT
TORSDOF 0
ENDMDL
