MODEL 1
REMARK minimizedAffinity -4.25527334
REMARK minimizedRMSD -1
REMARK  0 active torsions:
REMARK  status: ('A' for Active; 'I' for Inactive)
ROOT
ATOM      1  O1  BZF d   1      -1.417  -0.856  -0.175  0.00  0.00    -0.204 OA
ATOM      2  C2  BZF d   1      -0.363  -1.016  -1.053  0.00  0.00     0.174 A 
ATOM      3  C3  BZF d   1       0.721  -0.336  -0.628  0.00  0.00    -0.012 A 
ATOM      4  C3A BZF d   1       0.347   0.215   0.639  0.00  0.00    -0.107 A 
ATOM      5  C4  BZF d   1       1.004   0.978   1.561  0.00  0.00     0.055 A 
ATOM      6  C5  BZF d   1       0.331   1.409   2.660  0.00  0.00    -0.016 A 
ATOM      7  C6  BZF d   1      -0.997   1.101   2.866  0.00  0.00     0.022 A 
ATOM      8  C7  BZF d   1      -1.689   0.342   1.982  0.00  0.00     0.029 A 
ATOM      9  C7A BZF d   1      -1.003  -0.123   0.886  0.00  0.00     0.058 A 
ENDROOT
TORSDOF 0
ENDMDL
