MODEL 1
REMARK minimizedAffinity -3.60909724
REMARK minimizedRMSD -1
REMARK  0 active torsions:
REMARK  status: ('A' for Active; 'I' for Inactive)
ROOT
ATOM      1  O1  BZF d   1      -1.246  -1.092  -0.202  0.00  0.00    -0.204 OA
ATOM      2  C2  BZF d   1      -0.053  -1.141  -0.899  0.00  0.00     0.174 A 
ATOM      3  C3  BZF d   1       0.868  -0.340  -0.326  0.00  0.00    -0.012 A 
ATOM      4  C3A BZF d   1       0.240   0.175   0.851  0.00  0.00    -0.107 A 
ATOM      5  C4  BZF d   1       0.654   1.015   1.845  0.00  0.00     0.055 A 
ATOM      6  C5  BZF d   1      -0.228   1.378   2.814  0.00  0.00    -0.016 A 
ATOM      7  C6  BZF d   1      -1.531   0.924   2.815  0.00  0.00     0.022 A 
ATOM      8  C7  BZF d   1      -1.986   0.086   1.853  0.00  0.00     0.029 A 
ATOM      9  C7A BZF d   1      -1.088  -0.309   0.892  0.00  0.00     0.058 A 
ENDROOT
TORSDOF 0
ENDMDL
