MODEL 1
REMARK minimizedAffinity -3.25768185
REMARK minimizedRMSD -1
REMARK  0 active torsions:
REMARK  status: ('A' for Active; 'I' for Inactive)
ROOT
ATOM      1  O1  BZF d   1      -0.565  -0.981  -0.142  0.00  0.00    -0.204 OA
ATOM      2  C2  BZF d   1       0.769  -1.058  -0.492  0.00  0.00     0.174 A 
ATOM      3  C3  BZF d   1       1.502  -0.176   0.218  0.00  0.00    -0.012 A 
ATOM      4  C3A BZF d   1       0.581   0.430   1.130  0.00  0.00    -0.107 A 
ATOM      5  C4  BZF d   1       0.712   1.375   2.107  0.00  0.00     0.055 A 
ATOM      6  C5  BZF d   1      -0.396   1.800   2.767  0.00  0.00    -0.016 A 
ATOM      7  C6  BZF d   1      -1.651   1.307   2.473  0.00  0.00     0.022 A 
ATOM      8  C7  BZF d   1      -1.830   0.365   1.516  0.00  0.00     0.029 A 
ATOM      9  C7A BZF d   1      -0.707  -0.091   0.869  0.00  0.00     0.058 A 
ENDROOT
TORSDOF 0
ENDMDL
