MODEL 1
REMARK minimizedAffinity -4.20755196
REMARK minimizedRMSD -1
REMARK  0 active torsions:
REMARK  status: ('A' for Active; 'I' for Inactive)
ROOT
ATOM      1  O1  BZF d   1       1.486  -0.385   0.275  0.00  0.00    -0.204 OA
ATOM      2  C2  BZF d   1       0.777  -0.729  -0.860  0.00  0.00     0.174 A 
ATOM      3  C3  BZF d   1      -0.550  -0.643  -0.638  0.00  0.00    -0.012 A 
ATOM      4  C3A BZF d   1      -0.678  -0.131   0.692  0.00  0.00    -0.107 A 
ATOM      5  C4  BZF d   1      -1.749   0.187   1.476  0.00  0.00     0.055 A 
ATOM      6  C5  BZF d   1      -1.534   0.594   2.755  0.00  0.00    -0.016 A 
ATOM      7  C6  BZF d   1      -0.263   0.689   3.282  0.00  0.00     0.022 A 
ATOM      8  C7  BZF d   1       0.832   0.389   2.541  0.00  0.00     0.029 A 
ATOM      9  C7A BZF d   1       0.619   0.009   1.238  0.00  0.00     0.058 A 
ENDROOT
TORSDOF 0
ENDMDL
