MODEL 1
REMARK minimizedAffinity -3.71168375
REMARK minimizedRMSD -1
REMARK  0 active torsions:
REMARK  status: ('A' for Active; 'I' for Inactive)
ROOT
ATOM      1  O1  BZF d   1       0.030  -0.465  -5.965  0.00  0.00    -0.204 OA
ATOM      2  C2  BZF d   1      -1.008  -1.126  -5.336  0.00  0.00     0.174 A 
ATOM      3  C3  BZF d   1      -1.046  -0.817  -4.024  0.00  0.00    -0.012 A 
ATOM      4  C3A BZF d   1      -0.022   0.164  -3.838  0.00  0.00    -0.107 A 
ATOM      5  C4  BZF d   1       0.418   0.869  -2.754  0.00  0.00     0.055 A 
ATOM      6  C5  BZF d   1       1.487   1.696  -2.893  0.00  0.00    -0.016 A 
ATOM      7  C6  BZF d   1       2.142   1.839  -4.099  0.00  0.00     0.022 A 
ATOM      8  C7  BZF d   1       1.739   1.165  -5.203  0.00  0.00     0.029 A 
ATOM      9  C7A BZF d   1       0.639   0.353  -5.074  0.00  0.00     0.058 A 
ENDROOT
TORSDOF 0
ENDMDL
