MODEL 1
REMARK minimizedAffinity -5.08895302
REMARK minimizedRMSD -1
REMARK  0 active torsions:
REMARK  status: ('A' for Active; 'I' for Inactive)
ROOT
ATOM      1  O1  BZF d   1       1.082   0.007  -0.258  0.00  0.00    -0.204 OA
ATOM      2  C2  BZF d   1       0.395  -0.655  -1.258  0.00  0.00     0.174 A 
ATOM      3  C3  BZF d   1      -0.897  -0.830  -0.914  0.00  0.00    -0.012 A 
ATOM      4  C3A BZF d   1      -1.048  -0.159   0.341  0.00  0.00    -0.107 A 
ATOM      5  C4  BZF d   1      -2.107   0.033   1.181  0.00  0.00     0.055 A 
ATOM      6  C5  BZF d   1      -1.903   0.670   2.364  0.00  0.00    -0.016 A 
ATOM      7  C6  BZF d   1      -0.656   1.123   2.740  0.00  0.00     0.022 A 
ATOM      8  C7  BZF d   1       0.424   0.960   1.937  0.00  0.00     0.029 A 
ATOM      9  C7A BZF d   1       0.215   0.345   0.726  0.00  0.00     0.058 A 
ENDROOT
TORSDOF 0
ENDMDL
