MODEL 1
REMARK minimizedAffinity -5.51862526
REMARK minimizedRMSD -1
REMARK  0 active torsions:
REMARK  status: ('A' for Active; 'I' for Inactive)
ROOT
ATOM      1  O1  BZF d   1       2.097  -1.180   0.965  0.00  0.00    -0.204 OA
ATOM      2  C2  BZF d   1       1.667  -1.305  -0.342  0.00  0.00     0.174 A 
ATOM      3  C3  BZF d   1       0.453  -0.740  -0.502  0.00  0.00    -0.012 A 
ATOM      4  C3A BZF d   1       0.143  -0.149   0.764  0.00  0.00    -0.107 A 
ATOM      5  C4  BZF d   1      -0.921   0.570   1.229  0.00  0.00     0.055 A 
ATOM      6  C5  BZF d   1      -0.949   0.938   2.537  0.00  0.00    -0.016 A 
ATOM      7  C6  BZF d   1       0.066   0.599   3.407  0.00  0.00     0.022 A 
ATOM      8  C7  BZF d   1       1.144  -0.109   2.991  0.00  0.00     0.029 A 
ATOM      9  C7A BZF d   1       1.191  -0.453   1.662  0.00  0.00     0.058 A 
ENDROOT
TORSDOF 0
ENDMDL
