MODEL 1
REMARK minimizedAffinity 3.12331176
REMARK minimizedRMSD -1
REMARK  2 active torsions:
REMARK  status: ('A' for Active; 'I' for Inactive)
REMARK    1  A    between atoms: C1_2  and  C2_3 
REMARK    2  A    between atoms: C2_3  and  C3_4 
ROOT
ATOM      1  C3  UNL d   1      -3.621  -5.274  -5.216  0.00  0.00    -0.075 A 
ATOM      2  C4  UNL d   1      -4.803  -5.999  -5.427  0.00  0.00     0.002 A 
ATOM      3  C5  UNL d   1      -5.973  -5.349  -5.821  0.00  0.00     0.002 A 
ATOM      4  C6  UNL d   1      -5.979  -3.968  -5.999  0.00  0.00    -0.004 A 
ATOM      5  C7  UNL d   1      -4.816  -3.235  -5.776  0.00  0.00     0.002 A 
ATOM      6  C8  UNL d   1      -3.642  -3.883  -5.386  0.00  0.00     0.002 A 
ENDROOT
BRANCH   1   7
ATOM      7  C2  UNL d   1      -2.344  -5.975  -4.819  0.00  0.00     0.056 C 
BRANCH   7   8
ATOM      8  C1  UNL d   1      -1.089  -5.106  -4.948  0.00  0.00     0.007 C 
ATOM      9  C   UNL d   1      -0.634  -4.507  -3.624  0.00  0.00     0.009 C 
ENDBRANCH   7   8
ENDBRANCH   1   7
TORSDOF 2
ENDMDL
