MODEL 1
REMARK minimizedAffinity 2.79593444
REMARK minimizedRMSD -1
REMARK  2 active torsions:
REMARK  status: ('A' for Active; 'I' for Inactive)
REMARK    1  A    between atoms: C1_2  and  C2_3 
REMARK    2  A    between atoms: C2_3  and  C3_4 
ROOT
ATOM      1  C3  UNL d   1      -0.281   1.922   2.514  0.00  0.00    -0.075 A 
ATOM      2  C4  UNL d   1      -1.404   1.225   2.984  0.00  0.00     0.002 A 
ATOM      3  C5  UNL d   1      -1.255   0.002   3.638  0.00  0.00     0.002 A 
ATOM      4  C6  UNL d   1       0.014  -0.544   3.821  0.00  0.00    -0.004 A 
ATOM      5  C7  UNL d   1       1.135   0.132   3.343  0.00  0.00     0.002 A 
ATOM      6  C8  UNL d   1       0.989   1.358   2.692  0.00  0.00     0.002 A 
ENDROOT
BRANCH   1   7
ATOM      7  C2  UNL d   1      -0.433   3.261   1.831  0.00  0.00     0.056 C 
BRANCH   7   8
ATOM      8  C1  UNL d   1       0.520   3.470   0.649  0.00  0.00     0.007 C 
ATOM      9  C   UNL d   1      -0.128   3.192  -0.701  0.00  0.00     0.009 C 
ENDBRANCH   7   8
ENDBRANCH   1   7
TORSDOF 2
ENDMDL
