MODEL 1
REMARK minimizedAffinity 14.4420595
REMARK minimizedRMSD -1
REMARK  2 active torsions:
REMARK  status: ('A' for Active; 'I' for Inactive)
REMARK    1  A    between atoms: C1_2  and  C2_3 
REMARK    2  A    between atoms: C2_3  and  C3_4 
ROOT
ATOM      1  C3  UNL d   1      -1.392   5.475  -1.066  0.00  0.00    -0.075 A 
ATOM      2  C4  UNL d   1      -2.171   4.946  -2.105  0.00  0.00     0.002 A 
ATOM      3  C5  UNL d   1      -3.563   4.956  -2.022  0.00  0.00     0.002 A 
ATOM      4  C6  UNL d   1      -4.193   5.486  -0.898  0.00  0.00    -0.004 A 
ATOM      5  C7  UNL d   1      -3.429   5.999   0.147  0.00  0.00     0.002 A 
ATOM      6  C8  UNL d   1      -2.036   5.994   0.065  0.00  0.00     0.002 A 
ENDROOT
BRANCH   1   7
ATOM      7  C2  UNL d   1       0.115   5.494  -1.162  0.00  0.00     0.056 C 
BRANCH   7   8
ATOM      8  C1  UNL d   1       0.746   4.109  -1.341  0.00  0.00     0.007 C 
ATOM      9  C   UNL d   1      -0.008   3.007  -0.608  0.00  0.00     0.009 C 
ENDBRANCH   7   8
ENDBRANCH   1   7
TORSDOF 2
ENDMDL
