MODEL 1
REMARK minimizedAffinity 10.1872425
REMARK minimizedRMSD -1
REMARK  2 active torsions:
REMARK  status: ('A' for Active; 'I' for Inactive)
REMARK    1  A    between atoms: C1_2  and  C2_3 
REMARK    2  A    between atoms: C2_3  and  C3_4 
ROOT
ATOM      1  C3  UNL d   1      -0.311   3.223  -0.488  0.00  0.00    -0.075 A 
ATOM      2  C4  UNL d   1      -1.374   3.743  -1.240  0.00  0.00     0.002 A 
ATOM      3  C5  UNL d   1      -1.148   4.734  -2.196  0.00  0.00     0.002 A 
ATOM      4  C6  UNL d   1       0.140   5.223  -2.405  0.00  0.00    -0.004 A 
ATOM      5  C7  UNL d   1       1.201   4.725  -1.652  0.00  0.00     0.002 A 
ATOM      6  C8  UNL d   1       0.978   3.731  -0.698  0.00  0.00     0.002 A 
ENDROOT
BRANCH   1   7
ATOM      7  C2  UNL d   1      -0.545   2.129   0.527  0.00  0.00     0.056 C 
BRANCH   7   8
ATOM      8  C1  UNL d   1       0.365   2.216   1.757  0.00  0.00     0.007 C 
ATOM      9  C   UNL d   1       1.359   1.067   1.851  0.00  0.00     0.009 C 
ENDBRANCH   7   8
ENDBRANCH   1   7
TORSDOF 2
ENDMDL
