MODEL 1
REMARK minimizedAffinity 7.66972637
REMARK minimizedRMSD -1
REMARK  2 active torsions:
REMARK  status: ('A' for Active; 'I' for Inactive)
REMARK    1  A    between atoms: C1_2  and  C2_3 
REMARK    2  A    between atoms: C2_3  and  C3_4 
ROOT
ATOM      1  C3  UNL d   1       3.299  -5.696  -1.971  0.00  0.00    -0.075 A 
ATOM      2  C4  UNL d   1       3.710  -5.178  -0.734  0.00  0.00     0.002 A 
ATOM      3  C5  UNL d   1       5.052  -4.874  -0.504  0.00  0.00     0.002 A 
ATOM      4  C6  UNL d   1       6.000  -5.092  -1.501  0.00  0.00    -0.004 A 
ATOM      5  C7  UNL d   1       5.605  -5.621  -2.728  0.00  0.00     0.002 A 
ATOM      6  C8  UNL d   1       4.262  -5.923  -2.963  0.00  0.00     0.002 A 
ENDROOT
BRANCH   1   7
ATOM      7  C2  UNL d   1       1.844  -6.000  -2.236  0.00  0.00     0.056 C 
BRANCH   7   8
ATOM      8  C1  UNL d   1       0.889  -4.867  -1.846  0.00  0.00     0.007 C 
ATOM      9  C   UNL d   1      -0.122  -4.532  -2.935  0.00  0.00     0.009 C 
ENDBRANCH   7   8
ENDBRANCH   1   7
TORSDOF 2
ENDMDL
