MODEL 1
REMARK minimizedAffinity 5.78589535
REMARK minimizedRMSD -1
REMARK  2 active torsions:
REMARK  status: ('A' for Active; 'I' for Inactive)
REMARK    1  A    between atoms: C1_2  and  C2_3 
REMARK    2  A    between atoms: C2_3  and  C3_4 
ROOT
ATOM      1  C3  UNL d   1      -1.106   4.960   0.066  0.00  0.00    -0.075 A 
ATOM      2  C4  UNL d   1      -1.214   3.723   0.718  0.00  0.00     0.002 A 
ATOM      3  C5  UNL d   1      -0.179   2.791   0.645  0.00  0.00     0.002 A 
ATOM      4  C6  UNL d   1       0.971   3.078  -0.087  0.00  0.00    -0.004 A 
ATOM      5  C7  UNL d   1       1.082   4.297  -0.753  0.00  0.00     0.002 A 
ATOM      6  C8  UNL d   1       0.049   5.234  -0.678  0.00  0.00     0.002 A 
ENDROOT
BRANCH   1   7
ATOM      7  C2  UNL d   1      -2.211   5.984   0.166  0.00  0.00     0.056 C 
BRANCH   7   8
ATOM      8  C1  UNL d   1      -2.939   5.988   1.514  0.00  0.00     0.007 C 
ATOM      9  C   UNL d   1      -4.456   5.997   1.377  0.00  0.00     0.009 C 
ENDBRANCH   7   8
ENDBRANCH   1   7
TORSDOF 2
ENDMDL
