MODEL 1
REMARK minimizedAffinity 0.372828573
REMARK minimizedRMSD -1
REMARK  0 active torsions:
REMARK  status: ('A' for Active; 'I' for Inactive)
ROOT
ATOM      1  C   UNL d   1       1.428  -0.388  -2.727  0.00  0.00     0.172 C 
ATOM      2  N   UNL d   1       1.354   0.430  -1.539  0.00  0.00    -0.070 N 
ATOM      3  C1  UNL d   1       1.937   1.658  -1.377  0.00  0.00    -0.004 A 
ATOM      4  C2  UNL d   1       1.633   2.106  -0.110  0.00  0.00    -0.047 A 
ATOM      5  C3  UNL d   1       0.840   1.113   0.512  0.00  0.00    -0.047 A 
ATOM      6  C4  UNL d   1       0.683   0.086  -0.395  0.00  0.00    -0.004 A 
ENDROOT
TORSDOF 0
ENDMDL
