MODEL 1
REMARK minimizedAffinity 4.08489418
REMARK minimizedRMSD -1
REMARK  0 active torsions:
REMARK  status: ('A' for Active; 'I' for Inactive)
ROOT
ATOM      1  C   UNL d   1       1.776   3.458  -1.360  0.00  0.00     0.172 C 
ATOM      2  N   UNL d   1       1.415   2.079  -1.125  0.00  0.00    -0.070 N 
ATOM      3  C1  UNL d   1       1.616   1.389   0.040  0.00  0.00    -0.004 A 
ATOM      4  C2  UNL d   1       1.137   0.109  -0.139  0.00  0.00    -0.047 A 
ATOM      5  C3  UNL d   1       0.631   0.028  -1.458  0.00  0.00    -0.047 A 
ATOM      6  C4  UNL d   1       0.816   1.261  -2.046  0.00  0.00    -0.004 A 
ENDROOT
TORSDOF 0
ENDMDL
