MODEL 1
REMARK minimizedAffinity 2.65742254
REMARK minimizedRMSD -1
REMARK  0 active torsions:
REMARK  status: ('A' for Active; 'I' for Inactive)
ROOT
ATOM      1  C   UNL d   1       1.583   1.508   1.267  0.00  0.00     0.172 C 
ATOM      2  N   UNL d   1       1.209   1.005  -0.034  0.00  0.00    -0.070 N 
ATOM      3  C1  UNL d   1       0.463  -0.118  -0.271  0.00  0.00    -0.004 A 
ATOM      4  C2  UNL d   1       0.327  -0.254  -1.636  0.00  0.00    -0.047 A 
ATOM      5  C3  UNL d   1       1.016   0.824  -2.240  0.00  0.00    -0.047 A 
ATOM      6  C4  UNL d   1       1.553   1.588  -1.225  0.00  0.00    -0.004 A 
ENDROOT
TORSDOF 0
ENDMDL
