MODEL 1
REMARK minimizedAffinity 1.05846369
REMARK minimizedRMSD -1
REMARK  0 active torsions:
REMARK  status: ('A' for Active; 'I' for Inactive)
ROOT
ATOM      1  C   UNL d   1       1.394   2.012   1.181  0.00  0.00     0.172 C 
ATOM      2  N   UNL d   1       1.274   1.387  -0.115  0.00  0.00    -0.070 N 
ATOM      3  C1  UNL d   1       1.327   2.033  -1.321  0.00  0.00    -0.004 A 
ATOM      4  C2  UNL d   1       1.173   1.088  -2.313  0.00  0.00    -0.047 A 
ATOM      5  C3  UNL d   1       1.019  -0.168  -1.681  0.00  0.00    -0.047 A 
ATOM      6  C4  UNL d   1       1.086   0.045  -0.320  0.00  0.00    -0.004 A 
ENDROOT
TORSDOF 0
ENDMDL
