MODEL 1
REMARK minimizedAffinity -0.00636540214
REMARK minimizedRMSD -1
REMARK  0 active torsions:
REMARK  status: ('A' for Active; 'I' for Inactive)
ROOT
ATOM      1  C   UNL d   1       0.924   1.176   1.454  0.00  0.00     0.172 C 
ATOM      2  N   UNL d   1       0.986   0.788   0.065  0.00  0.00    -0.070 N 
ATOM      3  C1  UNL d   1       0.449  -0.353  -0.470  0.00  0.00    -0.004 A 
ATOM      4  C2  UNL d   1       0.722  -0.354  -1.821  0.00  0.00    -0.047 A 
ATOM      5  C3  UNL d   1       1.448   0.826  -2.108  0.00  0.00    -0.047 A 
ATOM      6  C4  UNL d   1       1.598   1.514  -0.922  0.00  0.00    -0.004 A 
ENDROOT
TORSDOF 0
ENDMDL
