MODEL 1
REMARK minimizedAffinity 0.964709401
REMARK minimizedRMSD -1
REMARK  0 active torsions:
REMARK  status: ('A' for Active; 'I' for Inactive)
ROOT
ATOM      1  C   UNL d   1       1.404   3.270  -1.561  0.00  0.00     0.172 C 
ATOM      2  N   UNL d   1       1.282   1.968  -0.948  0.00  0.00    -0.070 N 
ATOM      3  C1  UNL d   1       1.125   1.728   0.391  0.00  0.00    -0.004 A 
ATOM      4  C2  UNL d   1       1.047   0.364   0.569  0.00  0.00    -0.047 A 
ATOM      5  C3  UNL d   1       1.164  -0.237  -0.707  0.00  0.00    -0.047 A 
ATOM      6  C4  UNL d   1       1.308   0.779  -1.628  0.00  0.00    -0.004 A 
ENDROOT
TORSDOF 0
ENDMDL
