MODEL 1
REMARK minimizedAffinity 2.00037217
REMARK minimizedRMSD -1
REMARK  0 active torsions:
REMARK  status: ('A' for Active; 'I' for Inactive)
ROOT
ATOM      1  C   UNL d   1      -3.254   2.944  -0.274  0.00  0.00     0.172 C 
ATOM      2  N   UNL d   1      -3.166   2.558   1.115  0.00  0.00    -0.070 N 
ATOM      3  C1  UNL d   1      -2.423   3.193   2.074  0.00  0.00    -0.004 A 
ATOM      4  C2  UNL d   1      -2.606   2.520   3.263  0.00  0.00    -0.047 A 
ATOM      5  C3  UNL d   1      -3.488   1.443   3.009  0.00  0.00    -0.047 A 
ATOM      6  C4  UNL d   1      -3.819   1.490   1.671  0.00  0.00    -0.004 A 
ENDROOT
TORSDOF 0
ENDMDL
