MODEL 1
REMARK minimizedAffinity 0.605130255
REMARK minimizedRMSD -1
REMARK  0 active torsions:
REMARK  status: ('A' for Active; 'I' for Inactive)
ROOT
ATOM      1  C   UNL d   1       1.929   1.852   1.542  0.00  0.00     0.172 C 
ATOM      2  N   UNL d   1       1.503   1.138   0.361  0.00  0.00    -0.070 N 
ATOM      3  C1  UNL d   1       2.164   1.114  -0.838  0.00  0.00    -0.004 A 
ATOM      4  C2  UNL d   1       1.438   0.324  -1.703  0.00  0.00    -0.047 A 
ATOM      5  C3  UNL d   1       0.301  -0.140  -1.000  0.00  0.00    -0.047 A 
ATOM      6  C4  UNL d   1       0.367   0.379   0.276  0.00  0.00    -0.004 A 
ENDROOT
TORSDOF 0
ENDMDL
