MODEL 1
REMARK minimizedAffinity -0.987629712
REMARK minimizedRMSD -1
REMARK  0 active torsions:
REMARK  status: ('A' for Active; 'I' for Inactive)
ROOT
ATOM      1  C   UNL d   1       1.268   1.507   1.865  0.00  0.00     0.172 C 
ATOM      2  N   UNL d   1       0.957   0.881   0.602  0.00  0.00    -0.070 N 
ATOM      3  C1  UNL d   1       0.455   1.516  -0.502  0.00  0.00    -0.004 A 
ATOM      4  C2  UNL d   1       0.298   0.575  -1.496  0.00  0.00    -0.047 A 
ATOM      5  C3  UNL d   1       0.720  -0.670  -0.971  0.00  0.00    -0.047 A 
ATOM      6  C4  UNL d   1       1.123  -0.452   0.330  0.00  0.00    -0.004 A 
ENDROOT
TORSDOF 0
ENDMDL
