MODEL 1
REMARK minimizedAffinity 1.21482253
REMARK minimizedRMSD -1
REMARK  0 active torsions:
REMARK  status: ('A' for Active; 'I' for Inactive)
ROOT
ATOM      1  C   UNL d   1       1.307   2.047   1.180  0.00  0.00     0.172 C 
ATOM      2  N   UNL d   1       1.188   1.244  -0.014  0.00  0.00    -0.070 N 
ATOM      3  C1  UNL d   1       0.969   1.721  -1.279  0.00  0.00    -0.004 A 
ATOM      4  C2  UNL d   1       0.920   0.642  -2.135  0.00  0.00    -0.047 A 
ATOM      5  C3  UNL d   1       1.116  -0.524  -1.358  0.00  0.00    -0.047 A 
ATOM      6  C4  UNL d   1       1.279  -0.123  -0.049  0.00  0.00    -0.004 A 
ENDROOT
TORSDOF 0
ENDMDL
