MODEL 1
REMARK minimizedAffinity -0.557757974
REMARK minimizedRMSD -1
REMARK  0 active torsions:
REMARK  status: ('A' for Active; 'I' for Inactive)
ROOT
ATOM      1  C   UNL d   1       1.763  -1.048  -1.297  0.00  0.00     0.172 C 
ATOM      2  N   UNL d   1       1.614  -0.015  -0.298  0.00  0.00    -0.070 N 
ATOM      3  C1  UNL d   1       0.449   0.633   0.013  0.00  0.00    -0.004 A 
ATOM      4  C2  UNL d   1       0.724   1.541   1.012  0.00  0.00    -0.047 A 
ATOM      5  C3  UNL d   1       2.103   1.435   1.312  0.00  0.00    -0.047 A 
ATOM      6  C4  UNL d   1       2.630   0.464   0.487  0.00  0.00    -0.004 A 
ENDROOT
TORSDOF 0
ENDMDL
