MODEL 1
REMARK minimizedAffinity -1.81547916
REMARK minimizedRMSD -1
REMARK  0 active torsions:
REMARK  status: ('A' for Active; 'I' for Inactive)
ROOT
ATOM      1  C   UNL d   1       0.620  -2.785  -0.413  0.00  0.00     0.172 C 
ATOM      2  N   UNL d   1       0.957  -1.435  -0.799  0.00  0.00    -0.070 N 
ATOM      3  C1  UNL d   1       1.826  -1.083  -1.797  0.00  0.00    -0.004 A 
ATOM      4  C2  UNL d   1       1.873   0.293  -1.851  0.00  0.00    -0.047 A 
ATOM      5  C3  UNL d   1       1.003   0.786  -0.850  0.00  0.00    -0.047 A 
ATOM      6  C4  UNL d   1       0.449  -0.305  -0.214  0.00  0.00    -0.004 A 
ENDROOT
TORSDOF 0
ENDMDL
