MODEL 1
REMARK minimizedAffinity 1.37971151
REMARK minimizedRMSD -1
REMARK  0 active torsions:
REMARK  status: ('A' for Active; 'I' for Inactive)
ROOT
ATOM      1  C   UNL d   1       1.551   1.486   1.696  0.00  0.00     0.172 C 
ATOM      2  N   UNL d   1       1.257   0.947   0.388  0.00  0.00    -0.070 N 
ATOM      3  C1  UNL d   1       1.233  -0.382   0.060  0.00  0.00    -0.004 A 
ATOM      4  C2  UNL d   1       0.913  -0.481  -1.277  0.00  0.00    -0.047 A 
ATOM      5  C3  UNL d   1       0.741   0.835  -1.769  0.00  0.00    -0.047 A 
ATOM      6  C4  UNL d   1       0.960   1.699  -0.717  0.00  0.00    -0.004 A 
ENDROOT
TORSDOF 0
ENDMDL
