MODEL 1
REMARK minimizedAffinity -2.76458502
REMARK minimizedRMSD -1
REMARK  0 active torsions:
REMARK  status: ('A' for Active; 'I' for Inactive)
ROOT
ATOM      1  C   UNL d   1       3.962   0.083   0.393  0.00  0.00     0.172 C 
ATOM      2  N   UNL d   1       2.633   0.534   0.052  0.00  0.00    -0.070 N 
ATOM      3  C1  UNL d   1       2.015   0.353  -1.157  0.00  0.00    -0.004 A 
ATOM      4  C2  UNL d   1       0.764   0.926  -1.081  0.00  0.00    -0.047 A 
ATOM      5  C3  UNL d   1       0.626   1.471   0.218  0.00  0.00    -0.047 A 
ATOM      6  C4  UNL d   1       1.798   1.214   0.898  0.00  0.00    -0.004 A 
ENDROOT
TORSDOF 0
ENDMDL
