MODEL 1
REMARK minimizedAffinity 0.358522177
REMARK minimizedRMSD -1
REMARK  0 active torsions:
REMARK  status: ('A' for Active; 'I' for Inactive)
ROOT
ATOM      1  C   UNL d   1       1.896   1.554   1.886  0.00  0.00     0.172 C 
ATOM      2  N   UNL d   1       1.380   0.997   0.659  0.00  0.00    -0.070 N 
ATOM      3  C1  UNL d   1       0.551   1.638  -0.223  0.00  0.00    -0.004 A 
ATOM      4  C2  UNL d   1       0.288   0.772  -1.262  0.00  0.00    -0.047 A 
ATOM      5  C3  UNL d   1       0.981  -0.433  -0.995  0.00  0.00    -0.047 A 
ATOM      6  C4  UNL d   1       1.648  -0.266   0.200  0.00  0.00    -0.004 A 
ENDROOT
TORSDOF 0
ENDMDL
