MODEL 1
REMARK minimizedAffinity 2.37228966
REMARK minimizedRMSD -1
REMARK  0 active torsions:
REMARK  status: ('A' for Active; 'I' for Inactive)
ROOT
ATOM      1  C   UNL d   1       1.150   0.789   1.263  0.00  0.00     0.172 C 
ATOM      2  N   UNL d   1       1.094   0.824  -0.179  0.00  0.00    -0.070 N 
ATOM      3  C1  UNL d   1       1.316   1.927  -0.960  0.00  0.00    -0.004 A 
ATOM      4  C2  UNL d   1       1.170   1.548  -2.277  0.00  0.00    -0.047 A 
ATOM      5  C3  UNL d   1       0.849   0.170  -2.288  0.00  0.00    -0.047 A 
ATOM      6  C4  UNL d   1       0.808  -0.253  -0.976  0.00  0.00    -0.004 A 
ENDROOT
TORSDOF 0
ENDMDL
