MODEL 1
REMARK minimizedAffinity -4.03755999
REMARK minimizedRMSD -1
REMARK  1 active torsions:
REMARK  status: ('A' for Active; 'I' for Inactive)
REMARK    1  A    between atoms: C1_2  and  C2_3 
ROOT
ATOM      1  C2  UNL d   1      -1.015  -0.078  -0.433  0.00  0.00    -0.073 A 
ATOM      2  C3  UNL d   1      -1.274  -1.204   0.357  0.00  0.00    -0.002 A 
ATOM      3  C4  UNL d   1      -0.281  -1.727   1.186  0.00  0.00     0.004 A 
ATOM      4  C5  UNL d   1       0.977  -1.127   1.239  0.00  0.00    -0.004 A 
ATOM      5  C6  UNL d   1       1.251   0.006   0.467  0.00  0.00    -0.075 A 
ATOM      6  C7  UNL d   1       2.600   0.662   0.511  0.00  0.00     0.076 C 
ATOM      7  C8  UNL d   1       0.250   0.524  -0.365  0.00  0.00     0.001 A 
ENDROOT
BRANCH   1   8
ATOM      8  C1  UNL d   1      -2.086   0.495  -1.324  0.00  0.00     0.053 C 
ATOM      9  C   UNL d   1      -2.215  -0.277  -2.628  0.00  0.00     0.018 C 
ENDBRANCH   1   8
TORSDOF 1
ENDMDL
