MODEL 1
REMARK minimizedAffinity -6.20560026
REMARK minimizedRMSD -1
REMARK  1 active torsions:
REMARK  status: ('A' for Active; 'I' for Inactive)
REMARK    1  A    between atoms: C1_2  and  C2_3 
ROOT
ATOM      1  C2  UNL d   1       0.807   0.061   0.326  0.00  0.00    -0.073 A 
ATOM      2  C3  UNL d   1       2.150   0.448   0.275  0.00  0.00    -0.002 A 
ATOM      3  C4  UNL d   1       3.123  -0.290   0.951  0.00  0.00     0.004 A 
ATOM      4  C5  UNL d   1       2.764  -1.425   1.678  0.00  0.00    -0.004 A 
ATOM      5  C6  UNL d   1       1.427  -1.834   1.732  0.00  0.00    -0.075 A 
ATOM      6  C7  UNL d   1       1.024  -3.051   2.512  0.00  0.00     0.076 C 
ATOM      7  C8  UNL d   1       0.456  -1.086   1.052  0.00  0.00     0.001 A 
ENDROOT
BRANCH   1   8
ATOM      8  C1  UNL d   1      -0.246   0.851  -0.408  0.00  0.00     0.053 C 
ATOM      9  C   UNL d   1      -1.464   0.005  -0.742  0.00  0.00     0.018 C 
ENDBRANCH   1   8
TORSDOF 1
ENDMDL
