MODEL 1
REMARK minimizedAffinity -3.51506734
REMARK minimizedRMSD -1
REMARK  1 active torsions:
REMARK  status: ('A' for Active; 'I' for Inactive)
REMARK    1  A    between atoms: C1_2  and  C2_3 
ROOT
ATOM      1  C2  UNL d   1      -0.752  -0.545  -0.973  0.00  0.00    -0.073 A 
ATOM      2  C3  UNL d   1      -0.948   0.615  -0.215  0.00  0.00    -0.002 A 
ATOM      3  C4  UNL d   1       0.084   1.125   0.572  0.00  0.00     0.004 A 
ATOM      4  C5  UNL d   1       1.324   0.486   0.605  0.00  0.00    -0.004 A 
ATOM      5  C6  UNL d   1       1.543  -0.667  -0.155  0.00  0.00    -0.075 A 
ATOM      6  C7  UNL d   1       2.870  -1.367  -0.130  0.00  0.00     0.076 C 
ATOM      7  C8  UNL d   1       0.501  -1.175  -0.942  0.00  0.00     0.001 A 
ENDROOT
BRANCH   1   8
ATOM      8  C1  UNL d   1      -1.862  -1.097  -1.830  0.00  0.00     0.053 C 
ATOM      9  C   UNL d   1      -2.294  -0.113  -2.906  0.00  0.00     0.018 C 
ENDBRANCH   1   8
TORSDOF 1
ENDMDL
