MODEL 1
REMARK minimizedAffinity -2.49897981
REMARK minimizedRMSD -1
REMARK  1 active torsions:
REMARK  status: ('A' for Active; 'I' for Inactive)
REMARK    1  A    between atoms: C1_2  and  C2_3 
ROOT
ATOM      1  C2  UNL d   1      -0.598  -0.143  -0.744  0.00  0.00    -0.073 A 
ATOM      2  C3  UNL d   1      -0.935   0.955   0.056  0.00  0.00    -0.002 A 
ATOM      3  C4  UNL d   1       0.006   1.508   0.926  0.00  0.00     0.004 A 
ATOM      4  C5  UNL d   1       1.293   0.974   1.000  0.00  0.00    -0.004 A 
ATOM      5  C6  UNL d   1       1.652  -0.116   0.200  0.00  0.00    -0.075 A 
ATOM      6  C7  UNL d   1       3.031  -0.703   0.270  0.00  0.00     0.076 C 
ATOM      7  C8  UNL d   1       0.701  -0.667  -0.669  0.00  0.00     0.001 A 
ENDROOT
BRANCH   1   8
ATOM      8  C1  UNL d   1      -1.608  -0.740  -1.689  0.00  0.00     0.053 C 
ATOM      9  C   UNL d   1      -2.291   0.322  -2.537  0.00  0.00     0.018 C 
ENDBRANCH   1   8
TORSDOF 1
ENDMDL
