MODEL 1
REMARK minimizedAffinity -2.56231809
REMARK minimizedRMSD -1
REMARK  1 active torsions:
REMARK  status: ('A' for Active; 'I' for Inactive)
REMARK    1  A    between atoms: C1_2  and  C2_3 
ROOT
ATOM      1  C2  UNL d   1       0.154   0.198   0.186  0.00  0.00    -0.073 A 
ATOM      2  C3  UNL d   1      -0.264  -0.734   1.143  0.00  0.00    -0.002 A 
ATOM      3  C4  UNL d   1      -1.583  -1.189   1.154  0.00  0.00     0.004 A 
ATOM      4  C5  UNL d   1      -2.495  -0.722   0.208  0.00  0.00    -0.004 A 
ATOM      5  C6  UNL d   1      -2.093   0.201  -0.763  0.00  0.00    -0.075 A 
ATOM      6  C7  UNL d   1      -3.063   0.714  -1.787  0.00  0.00     0.076 C 
ATOM      7  C8  UNL d   1      -0.768   0.655  -0.767  0.00  0.00     0.001 A 
ENDROOT
BRANCH   1   8
ATOM      8  C1  UNL d   1       1.579   0.687   0.165  0.00  0.00     0.053 C 
ATOM      9  C   UNL d   1       2.545  -0.348   0.719  0.00  0.00     0.018 C 
ENDBRANCH   1   8
TORSDOF 1
ENDMDL
