MODEL 1
REMARK minimizedAffinity 12.7260685
REMARK minimizedRMSD -1
REMARK  0 active torsions:
REMARK  status: ('A' for Active; 'I' for Inactive)
ROOT
ATOM      1  C   UNL d   1      -2.184  -0.985  -4.308  0.00  0.00     0.020 A 
ATOM      2  C1  UNL d   1      -3.239  -1.362  -5.138  0.00  0.00     0.020 A 
ATOM      3  C2  UNL d   1      -3.555  -2.713  -5.296  0.00  0.00     0.034 A 
ATOM      4  C3  UNL d   1      -2.815  -3.692  -4.622  0.00  0.00     0.017 A 
ATOM      5  C4  UNL d   1      -1.757  -3.312  -3.788  0.00  0.00     0.017 A 
ATOM      6  C5  UNL d   1      -1.445  -1.958  -3.635  0.00  0.00     0.034 A 
ATOM      7 Cl   UNL d   1      -0.799  -4.462  -2.924  0.00  0.00    -0.070 Cl
ATOM      8 Cl1  UNL d   1      -3.261  -5.344  -4.862  0.00  0.00    -0.070 Cl
ENDROOT
TORSDOF 0
ENDMDL
