MODEL 1
REMARK minimizedAffinity 3.58509803
REMARK minimizedRMSD -1
REMARK  0 active torsions:
REMARK  status: ('A' for Active; 'I' for Inactive)
ROOT
ATOM      1  C   UNL d   1       6.000   2.863  -1.784  0.00  0.00     0.020 A 
ATOM      2  C1  UNL d   1       5.170   2.292  -2.749  0.00  0.00     0.020 A 
ATOM      3  C2  UNL d   1       3.972   1.684  -2.368  0.00  0.00     0.034 A 
ATOM      4  C3  UNL d   1       3.600   1.645  -1.019  0.00  0.00     0.017 A 
ATOM      5  C4  UNL d   1       4.434   2.218  -0.052  0.00  0.00     0.017 A 
ATOM      6  C5  UNL d   1       5.632   2.826  -0.439  0.00  0.00     0.034 A 
ATOM      7 Cl   UNL d   1       4.043   2.209   1.632  0.00  0.00    -0.070 Cl
ATOM      8 Cl1  UNL d   1       2.105   0.877  -0.619  0.00  0.00    -0.070 Cl
ENDROOT
TORSDOF 0
ENDMDL
