MODEL 1
REMARK minimizedAffinity 9.6453495
REMARK minimizedRMSD -1
REMARK  0 active torsions:
REMARK  status: ('A' for Active; 'I' for Inactive)
ROOT
ATOM      1  C   UNL d   1       3.283  -1.805   2.417  0.00  0.00     0.020 A 
ATOM      2  C1  UNL d   1       4.018  -0.631   2.580  0.00  0.00     0.020 A 
ATOM      3  C2  UNL d   1       3.953   0.373   1.611  0.00  0.00     0.034 A 
ATOM      4  C3  UNL d   1       3.152   0.205   0.476  0.00  0.00     0.017 A 
ATOM      5  C4  UNL d   1       2.414  -0.973   0.314  0.00  0.00     0.017 A 
ATOM      6  C5  UNL d   1       2.482  -1.975   1.287  0.00  0.00     0.034 A 
ATOM      7 Cl   UNL d   1       1.403  -1.252  -1.060  0.00  0.00    -0.070 Cl
ATOM      8 Cl1  UNL d   1       3.119   1.488  -0.681  0.00  0.00    -0.070 Cl
ENDROOT
TORSDOF 0
ENDMDL
