MODEL 1
REMARK minimizedAffinity 5.33054256
REMARK minimizedRMSD -1
REMARK  0 active torsions:
REMARK  status: ('A' for Active; 'I' for Inactive)
ROOT
ATOM      1  C   UNL d   1       5.231   2.607  -2.728  0.00  0.00     0.020 A 
ATOM      2  C1  UNL d   1       5.999   3.114  -1.680  0.00  0.00     0.020 A 
ATOM      3  C2  UNL d   1       5.617   2.881  -0.358  0.00  0.00     0.034 A 
ATOM      4  C3  UNL d   1       4.462   2.140  -0.079  0.00  0.00     0.017 A 
ATOM      5  C4  UNL d   1       3.692   1.632  -1.131  0.00  0.00     0.017 A 
ATOM      6  C5  UNL d   1       4.080   1.867  -2.453  0.00  0.00     0.034 A 
ATOM      7 Cl   UNL d   1       2.256   0.708  -0.865  0.00  0.00    -0.070 Cl
ATOM      8 Cl1  UNL d   1       4.049   1.891   1.580  0.00  0.00    -0.070 Cl
ENDROOT
TORSDOF 0
ENDMDL
