MODEL 1
REMARK minimizedAffinity -2.64269805
REMARK minimizedRMSD -1
REMARK  0 active torsions:
REMARK  status: ('A' for Active; 'I' for Inactive)
ROOT
ATOM      1  C   UNL d   1       6.000   0.216   2.623  0.00  0.00     0.020 A 
ATOM      2  C1  UNL d   1       5.769  -0.816   3.532  0.00  0.00     0.020 A 
ATOM      3  C2  UNL d   1       4.559  -1.513   3.504  0.00  0.00     0.034 A 
ATOM      4  C3  UNL d   1       3.576  -1.179   2.566  0.00  0.00     0.017 A 
ATOM      5  C4  UNL d   1       3.809  -0.143   1.654  0.00  0.00     0.017 A 
ATOM      6  C5  UNL d   1       5.022   0.552   1.686  0.00  0.00     0.034 A 
ATOM      7 Cl   UNL d   1       2.643   0.326   0.467  0.00  0.00    -0.070 Cl
ATOM      8 Cl1  UNL d   1       2.104  -2.083   2.589  0.00  0.00    -0.070 Cl
ENDROOT
TORSDOF 0
ENDMDL
