MODEL 1
REMARK minimizedAffinity 4.97062159
REMARK minimizedRMSD -1
REMARK  0 active torsions:
REMARK  status: ('A' for Active; 'I' for Inactive)
ROOT
ATOM      1  C   UNL d   1       1.226   3.687   2.905  0.00  0.00     0.020 A 
ATOM      2  C1  UNL d   1       2.505   3.139   2.820  0.00  0.00     0.020 A 
ATOM      3  C2  UNL d   1       2.892   2.443   1.673  0.00  0.00     0.034 A 
ATOM      4  C3  UNL d   1       1.999   2.294   0.605  0.00  0.00     0.017 A 
ATOM      5  C4  UNL d   1       0.715   2.845   0.692  0.00  0.00     0.017 A 
ATOM      6  C5  UNL d   1       0.333   3.540   1.843  0.00  0.00     0.034 A 
ATOM      7 Cl   UNL d   1      -0.443   2.702  -0.584  0.00  0.00    -0.070 Cl
ATOM      8 Cl1  UNL d   1       2.544   1.422  -0.783  0.00  0.00    -0.070 Cl
ENDROOT
TORSDOF 0
ENDMDL
