MODEL 1
REMARK minimizedAffinity 8.52391911
REMARK minimizedRMSD -1
REMARK  0 active torsions:
REMARK  status: ('A' for Active; 'I' for Inactive)
ROOT
ATOM      1  C   UNL d   1       2.956   0.925  -0.480  0.00  0.00     0.020 A 
ATOM      2  C1  UNL d   1       3.797   1.717   0.301  0.00  0.00     0.020 A 
ATOM      3  C2  UNL d   1       4.131   1.314   1.596  0.00  0.00     0.034 A 
ATOM      4  C3  UNL d   1       3.624   0.117   2.113  0.00  0.00     0.017 A 
ATOM      5  C4  UNL d   1       2.779  -0.677   1.329  0.00  0.00     0.017 A 
ATOM      6  C5  UNL d   1       2.448  -0.269   0.033  0.00  0.00     0.034 A 
ATOM      7 Cl   UNL d   1       2.114  -2.167   1.898  0.00  0.00    -0.070 Cl
ATOM      8 Cl1  UNL d   1       4.078  -0.319   3.722  0.00  0.00    -0.070 Cl
ENDROOT
TORSDOF 0
ENDMDL
