MODEL 1
REMARK minimizedAffinity 1.36948967
REMARK minimizedRMSD -1
REMARK  0 active torsions:
REMARK  status: ('A' for Active; 'I' for Inactive)
ROOT
ATOM      1  C   UNL d   1       5.955   2.874  -2.811  0.00  0.00     0.020 A 
ATOM      2  C1  UNL d   1       4.981   1.931  -3.139  0.00  0.00     0.020 A 
ATOM      3  C2  UNL d   1       4.051   1.527  -2.179  0.00  0.00     0.034 A 
ATOM      4  C3  UNL d   1       4.092   2.065  -0.888  0.00  0.00     0.017 A 
ATOM      5  C4  UNL d   1       5.070   3.011  -0.560  0.00  0.00     0.017 A 
ATOM      6  C5  UNL d   1       5.999   3.413  -1.525  0.00  0.00     0.034 A 
ATOM      7 Cl   UNL d   1       5.184   3.720   1.012  0.00  0.00    -0.070 Cl
ATOM      8 Cl1  UNL d   1       2.910   1.520   0.248  0.00  0.00    -0.070 Cl
ENDROOT
TORSDOF 0
ENDMDL
