MODEL 1
REMARK minimizedAffinity -0.769224644
REMARK minimizedRMSD -1
REMARK  0 active torsions:
REMARK  status: ('A' for Active; 'I' for Inactive)
ROOT
ATOM      1  C   UNL d   1       4.922   2.216  -2.046  0.00  0.00     0.020 A 
ATOM      2  C1  UNL d   1       5.733   2.387  -0.925  0.00  0.00     0.020 A 
ATOM      3  C2  UNL d   1       5.340   1.860   0.308  0.00  0.00     0.034 A 
ATOM      4  C3  UNL d   1       4.132   1.161   0.422  0.00  0.00     0.017 A 
ATOM      5  C4  UNL d   1       3.319   0.991  -0.704  0.00  0.00     0.017 A 
ATOM      6  C5  UNL d   1       3.718   1.520  -1.936  0.00  0.00     0.034 A 
ATOM      7 Cl   UNL d   1       1.816   0.141  -0.642  0.00  0.00    -0.070 Cl
ATOM      8 Cl1  UNL d   1       3.709   0.537   1.976  0.00  0.00    -0.070 Cl
ENDROOT
TORSDOF 0
ENDMDL
