MODEL 1
REMARK minimizedAffinity 12.0340338
REMARK minimizedRMSD -1
REMARK  2 active torsions:
REMARK  status: ('A' for Active; 'I' for Inactive)
REMARK    1  A    between atoms: C2'_3  and  C1'_4 
REMARK    2  A    between atoms: C1'_4  and  C1_5 
ROOT
ATOM      1  C1  I4B d   1      -0.693   1.879  -0.129  0.00  0.00    -0.075 A 
ATOM      2  C2  I4B d   1      -1.955   2.318  -0.444  0.00  0.00     0.003 A 
ATOM      3  C3  I4B d   1      -2.883   2.615   0.583  0.00  0.00     0.002 A 
ATOM      4  C4  I4B d   1      -2.526   2.414   1.901  0.00  0.00    -0.004 A 
ATOM      5  C5  I4B d   1      -1.239   1.991   2.219  0.00  0.00     0.002 A 
ATOM      6  C6  I4B d   1      -0.312   1.733   1.198  0.00  0.00     0.003 A 
ENDROOT
BRANCH   1   7
ATOM      7  C1' I4B d   1       0.251   1.542  -1.240  0.00  0.00     0.060 C 
BRANCH   7   8
ATOM      8  C2' I4B d   1       0.492   0.046  -1.210  0.00  0.00    -0.013 C 
ATOM      9  C4' I4B d   1       0.143  -0.588  -2.531  0.00  0.00     0.013 C 
ATOM     10  C3' I4B d   1       1.932  -0.184  -0.863  0.00  0.00     0.013 C 
ENDBRANCH   7   8
ENDBRANCH   1   7
TORSDOF 2
ENDMDL
