MODEL 1
REMARK minimizedAffinity 6.79862928
REMARK minimizedRMSD -1
REMARK  2 active torsions:
REMARK  status: ('A' for Active; 'I' for Inactive)
REMARK    1  A    between atoms: C2'_3  and  C1'_4 
REMARK    2  A    between atoms: C1'_4  and  C1_5 
ROOT
ATOM      1  C1  I4B d   1      -0.974   1.321  -0.591  0.00  0.00    -0.075 A 
ATOM      2  C2  I4B d   1       0.290   0.820  -0.780  0.00  0.00     0.003 A 
ATOM      3  C3  I4B d   1       0.497  -0.286  -1.640  0.00  0.00     0.002 A 
ATOM      4  C4  I4B d   1      -0.586  -0.887  -2.247  0.00  0.00    -0.004 A 
ATOM      5  C5  I4B d   1      -1.864  -0.363  -2.073  0.00  0.00     0.002 A 
ATOM      6  C6  I4B d   1      -2.058   0.755  -1.249  0.00  0.00     0.003 A 
ENDROOT
BRANCH   1   7
ATOM      7  C1' I4B d   1      -1.161   2.469   0.350  0.00  0.00     0.060 C 
BRANCH   7   8
ATOM      8  C2' I4B d   1      -2.469   2.261   1.085  0.00  0.00    -0.013 C 
ATOM      9  C4' I4B d   1      -2.240   1.666   2.449  0.00  0.00     0.013 C 
ATOM     10  C3' I4B d   1      -3.161   3.588   1.181  0.00  0.00     0.013 C 
ENDBRANCH   7   8
ENDBRANCH   1   7
TORSDOF 2
ENDMDL
