MODEL 1
REMARK minimizedAffinity 3.42899489
REMARK minimizedRMSD -1
REMARK  2 active torsions:
REMARK  status: ('A' for Active; 'I' for Inactive)
REMARK    1  A    between atoms: C2'_3  and  C1'_4 
REMARK    2  A    between atoms: C1'_4  and  C1_5 
ROOT
ATOM      1  C1  I4B d   1      -1.386   1.499   1.953  0.00  0.00    -0.075 A 
ATOM      2  C2  I4B d   1      -2.384   2.339   1.527  0.00  0.00     0.003 A 
ATOM      3  C3  I4B d   1      -2.555   2.601   0.146  0.00  0.00     0.002 A 
ATOM      4  C4  I4B d   1      -1.680   2.044  -0.764  0.00  0.00    -0.004 A 
ATOM      5  C5  I4B d   1      -0.683   1.174  -0.333  0.00  0.00     0.002 A 
ATOM      6  C6  I4B d   1      -0.542   0.890   1.033  0.00  0.00     0.003 A 
ENDROOT
BRANCH   1   7
ATOM      7  C1' I4B d   1      -1.213   1.271   3.421  0.00  0.00     0.060 C 
BRANCH   7   8
ATOM      8  C2' I4B d   1       0.069   1.953   3.852  0.00  0.00    -0.013 C 
ATOM      9  C4' I4B d   1       0.403   3.108   2.945  0.00  0.00     0.013 C 
ATOM     10  C3' I4B d   1      -0.103   2.410   5.270  0.00  0.00     0.013 C 
ENDBRANCH   7   8
ENDBRANCH   1   7
TORSDOF 2
ENDMDL
