MODEL 1
REMARK minimizedAffinity 7.84420919
REMARK minimizedRMSD -1
REMARK  2 active torsions:
REMARK  status: ('A' for Active; 'I' for Inactive)
REMARK    1  A    between atoms: C2'_3  and  C1'_4 
REMARK    2  A    between atoms: C1'_4  and  C1_5 
ROOT
ATOM      1  C1  I4B d   1       5.092  -3.543  -2.387  0.00  0.00    -0.075 A 
ATOM      2  C2  I4B d   1       3.878  -4.181  -2.431  0.00  0.00     0.003 A 
ATOM      3  C3  I4B d   1       2.982  -3.938  -3.500  0.00  0.00     0.002 A 
ATOM      4  C4  I4B d   1       3.317  -3.017  -4.471  0.00  0.00    -0.004 A 
ATOM      5  C5  I4B d   1       4.558  -2.387  -4.438  0.00  0.00     0.002 A 
ATOM      6  C6  I4B d   1       5.457  -2.661  -3.396  0.00  0.00     0.003 A 
ENDROOT
BRANCH   1   7
ATOM      7  C1' I4B d   1       6.000  -3.798  -1.226  0.00  0.00     0.060 C 
BRANCH   7   8
ATOM      8  C2' I4B d   1       5.238  -3.473   0.042  0.00  0.00    -0.013 C 
ATOM      9  C4' I4B d   1       5.177  -4.664   0.962  0.00  0.00     0.013 C 
ATOM     10  C3' I4B d   1       5.917  -2.311   0.705  0.00  0.00     0.013 C 
ENDBRANCH   7   8
ENDBRANCH   1   7
TORSDOF 2
ENDMDL
