MODEL 1
REMARK minimizedAffinity 11.5325193
REMARK minimizedRMSD -1
REMARK  2 active torsions:
REMARK  status: ('A' for Active; 'I' for Inactive)
REMARK    1  A    between atoms: C2'_3  and  C1'_4 
REMARK    2  A    between atoms: C1'_4  and  C1_5 
ROOT
ATOM      1  C1  I4B d   1      -1.750  -1.058   3.126  0.00  0.00    -0.075 A 
ATOM      2  C2  I4B d   1      -2.808  -0.278   2.731  0.00  0.00     0.003 A 
ATOM      3  C3  I4B d   1      -2.579   0.956   2.076  0.00  0.00     0.002 A 
ATOM      4  C4  I4B d   1      -1.284   1.393   1.883  0.00  0.00    -0.004 A 
ATOM      5  C5  I4B d   1      -0.212   0.590   2.263  0.00  0.00     0.002 A 
ATOM      6  C6  I4B d   1      -0.446  -0.649   2.877  0.00  0.00     0.003 A 
ENDROOT
BRANCH   1   7
ATOM      7  C1' I4B d   1      -2.028  -2.340   3.844  0.00  0.00     0.060 C 
BRANCH   7   8
ATOM      8  C2' I4B d   1      -0.698  -2.963   4.219  0.00  0.00    -0.013 C 
ATOM      9  C4' I4B d   1      -0.794  -3.708   5.524  0.00  0.00     0.013 C 
ATOM     10  C3' I4B d   1      -0.283  -3.875   3.104  0.00  0.00     0.013 C 
ENDBRANCH   7   8
ENDBRANCH   1   7
TORSDOF 2
ENDMDL
