MODEL 1
REMARK minimizedAffinity 9.51144981
REMARK minimizedRMSD -1
REMARK  2 active torsions:
REMARK  status: ('A' for Active; 'I' for Inactive)
REMARK    1  A    between atoms: C2'_3  and  C1'_4 
REMARK    2  A    between atoms: C1'_4  and  C1_5 
ROOT
ATOM      1  C1  I4B d   1       3.780  -3.564  -4.206  0.00  0.00    -0.075 A 
ATOM      2  C2  I4B d   1       5.040  -3.021  -4.189  0.00  0.00     0.003 A 
ATOM      3  C3  I4B d   1       5.998  -3.473  -3.249  0.00  0.00     0.002 A 
ATOM      4  C4  I4B d   1       5.639  -4.427  -2.318  0.00  0.00    -0.004 A 
ATOM      5  C5  I4B d   1       4.368  -4.993  -2.353  0.00  0.00     0.002 A 
ATOM      6  C6  I4B d   1       3.436  -4.567  -3.310  0.00  0.00     0.003 A 
ENDROOT
BRANCH   1   7
ATOM      7  C1' I4B d   1       2.783  -3.039  -5.191  0.00  0.00     0.060 C 
BRANCH   7   8
ATOM      8  C2' I4B d   1       2.513  -1.587  -4.853  0.00  0.00    -0.013 C 
ATOM      9  C4' I4B d   1       3.076  -0.669  -5.906  0.00  0.00     0.013 C 
ATOM     10  C3' I4B d   1       1.030  -1.411  -4.719  0.00  0.00     0.013 C 
ENDBRANCH   7   8
ENDBRANCH   1   7
TORSDOF 2
ENDMDL
