MODEL 1
REMARK minimizedAffinity -2.80887651
REMARK minimizedRMSD -1
REMARK  2 active torsions:
REMARK  status: ('A' for Active; 'I' for Inactive)
REMARK    1  A    between atoms: C2'_3  and  C1'_4 
REMARK    2  A    between atoms: C1'_4  and  C1_5 
ROOT
ATOM      1  C1  I4B d   1      -0.078   1.085  -0.446  0.00  0.00    -0.075 A 
ATOM      2  C2  I4B d   1       0.507   0.334   0.543  0.00  0.00     0.003 A 
ATOM      3  C3  I4B d   1       0.055   0.442   1.881  0.00  0.00     0.002 A 
ATOM      4  C4  I4B d   1      -0.943   1.343   2.190  0.00  0.00    -0.004 A 
ATOM      5  C5  I4B d   1      -1.550   2.087   1.182  0.00  0.00     0.002 A 
ATOM      6  C6  I4B d   1      -1.124   1.948  -0.146  0.00  0.00     0.003 A 
ENDROOT
BRANCH   1   7
ATOM      7  C1' I4B d   1       0.446   0.970  -1.843  0.00  0.00     0.060 C 
BRANCH   7   8
ATOM      8  C2' I4B d   1       0.127  -0.422  -2.349  0.00  0.00    -0.013 C 
ATOM      9  C4' I4B d   1      -1.359  -0.619  -2.501  0.00  0.00     0.013 C 
ATOM     10  C3' I4B d   1       0.835  -0.613  -3.656  0.00  0.00     0.013 C 
ENDBRANCH   7   8
ENDBRANCH   1   7
TORSDOF 2
ENDMDL
