MODEL 1
REMARK minimizedAffinity 12.2172375
REMARK minimizedRMSD -1
REMARK  2 active torsions:
REMARK  status: ('A' for Active; 'I' for Inactive)
REMARK    1  A    between atoms: C2'_3  and  C1'_4 
REMARK    2  A    between atoms: C1'_4  and  C1_5 
ROOT
ATOM      1  C1  I4B d   1       0.524   0.880   0.752  0.00  0.00    -0.075 A 
ATOM      2  C2  I4B d   1      -0.477   1.819   0.768  0.00  0.00     0.003 A 
ATOM      3  C3  I4B d   1      -1.326   1.936   1.895  0.00  0.00     0.002 A 
ATOM      4  C4  I4B d   1      -1.172   1.066   2.956  0.00  0.00    -0.004 A 
ATOM      5  C5  I4B d   1      -0.142   0.130   2.947  0.00  0.00     0.002 A 
ATOM      6  C6  I4B d   1       0.720   0.044   1.843  0.00  0.00     0.003 A 
ENDROOT
BRANCH   1   7
ATOM      7  C1' I4B d   1       1.381   0.762  -0.468  0.00  0.00     0.060 C 
BRANCH   7   8
ATOM      8  C2' I4B d   1       0.553   1.189  -1.664  0.00  0.00    -0.013 C 
ATOM      9  C4' I4B d   1       1.367   2.015  -2.624  0.00  0.00     0.013 C 
ATOM     10  C3' I4B d   1       0.026  -0.049  -2.326  0.00  0.00     0.013 C 
ENDBRANCH   7   8
ENDBRANCH   1   7
TORSDOF 2
ENDMDL
