MODEL 1
REMARK minimizedAffinity 8.15659142
REMARK minimizedRMSD -1
REMARK  2 active torsions:
REMARK  status: ('A' for Active; 'I' for Inactive)
REMARK    1  A    between atoms: C2'_3  and  C1'_4 
REMARK    2  A    between atoms: C1'_4  and  C1_5 
ROOT
ATOM      1  C1  I4B d   1      -1.013   1.975   1.395  0.00  0.00    -0.075 A 
ATOM      2  C2  I4B d   1      -1.413   0.919   2.174  0.00  0.00     0.003 A 
ATOM      3  C3  I4B d   1      -1.011   0.840   3.530  0.00  0.00     0.002 A 
ATOM      4  C4  I4B d   1      -0.173   1.806   4.047  0.00  0.00    -0.004 A 
ATOM      5  C5  I4B d   1       0.214   2.888   3.262  0.00  0.00     0.002 A 
ATOM      6  C6  I4B d   1      -0.219   2.981   1.931  0.00  0.00     0.003 A 
ENDROOT
BRANCH   1   7
ATOM      7  C1' I4B d   1      -1.429   2.010  -0.041  0.00  0.00     0.060 C 
BRANCH   7   8
ATOM      8  C2' I4B d   1      -0.184   2.205  -0.883  0.00  0.00    -0.013 C 
ATOM      9  C4' I4B d   1       0.253   0.911  -1.518  0.00  0.00     0.013 C 
ATOM     10  C3' I4B d   1      -0.486   3.243  -1.922  0.00  0.00     0.013 C 
ENDBRANCH   7   8
ENDBRANCH   1   7
TORSDOF 2
ENDMDL
