MODEL 1
REMARK minimizedAffinity 3.00030971
REMARK minimizedRMSD -1
REMARK  2 active torsions:
REMARK  status: ('A' for Active; 'I' for Inactive)
REMARK    1  A    between atoms: C2'_3  and  C1'_4 
REMARK    2  A    between atoms: C1'_4  and  C1_5 
ROOT
ATOM      1  C1  I4B d   1       4.861  -2.955  -1.405  0.00  0.00    -0.075 A 
ATOM      2  C2  I4B d   1       5.897  -3.017  -0.506  0.00  0.00     0.003 A 
ATOM      3  C3  I4B d   1       5.782  -2.392   0.759  0.00  0.00     0.002 A 
ATOM      4  C4  I4B d   1       4.641  -1.677   1.062  0.00  0.00    -0.004 A 
ATOM      5  C5  I4B d   1       3.583  -1.634   0.159  0.00  0.00     0.002 A 
ATOM      6  C6  I4B d   1       3.688  -2.287  -1.077  0.00  0.00     0.003 A 
ENDROOT
BRANCH   1   7
ATOM      7  C1' I4B d   1       5.029  -3.598  -2.744  0.00  0.00     0.060 C 
BRANCH   7   8
ATOM      8  C2' I4B d   1       3.662  -4.042  -3.224  0.00  0.00    -0.013 C 
ATOM      9  C4' I4B d   1       3.534  -3.894  -4.718  0.00  0.00     0.013 C 
ATOM     10  C3' I4B d   1       3.463  -5.467  -2.802  0.00  0.00     0.013 C 
ENDBRANCH   7   8
ENDBRANCH   1   7
TORSDOF 2
ENDMDL
