MODEL 1
REMARK minimizedAffinity 9.8117342
REMARK minimizedRMSD -1
REMARK  2 active torsions:
REMARK  status: ('A' for Active; 'I' for Inactive)
REMARK    1  A    between atoms: C2'_3  and  C1'_4 
REMARK    2  A    between atoms: C1'_4  and  C1_5 
ROOT
ATOM      1  C1  I4B d   1      -0.985   0.251   2.843  0.00  0.00    -0.075 A 
ATOM      2  C2  I4B d   1      -2.195  -0.279   3.217  0.00  0.00     0.003 A 
ATOM      3  C3  I4B d   1      -2.285  -1.631   3.628  0.00  0.00     0.002 A 
ATOM      4  C4  I4B d   1      -1.157  -2.426   3.601  0.00  0.00    -0.004 A 
ATOM      5  C5  I4B d   1       0.073  -1.882   3.243  0.00  0.00     0.002 A 
ATOM      6  C6  I4B d   1       0.162  -0.532   2.873  0.00  0.00     0.003 A 
ENDROOT
BRANCH   1   7
ATOM      7  C1' I4B d   1      -0.932   1.673   2.384  0.00  0.00     0.060 C 
BRANCH   7   8
ATOM      8  C2' I4B d   1      -1.527   1.737   0.992  0.00  0.00    -0.013 C 
ATOM      9  C4' I4B d   1      -2.617   2.772   0.912  0.00  0.00     0.013 C 
ATOM     10  C3' I4B d   1      -0.419   2.042   0.028  0.00  0.00     0.013 C 
ENDBRANCH   7   8
ENDBRANCH   1   7
TORSDOF 2
ENDMDL
