MODEL 1
REMARK minimizedAffinity 14.4119616
REMARK minimizedRMSD -1
REMARK  2 active torsions:
REMARK  status: ('A' for Active; 'I' for Inactive)
REMARK    1  A    between atoms: C2'_3  and  C1'_4 
REMARK    2  A    between atoms: C1'_4  and  C1_5 
ROOT
ATOM      1  C1  I4B d   1      -0.612   1.858  -1.397  0.00  0.00    -0.075 A 
ATOM      2  C2  I4B d   1      -1.343   1.085  -2.263  0.00  0.00     0.003 A 
ATOM      3  C3  I4B d   1      -0.722   0.493  -3.389  0.00  0.00     0.002 A 
ATOM      4  C4  I4B d   1       0.613   0.740  -3.637  0.00  0.00    -0.004 A 
ATOM      5  C5  I4B d   1       1.359   1.505  -2.745  0.00  0.00     0.002 A 
ATOM      6  C6  I4B d   1       0.746   2.058  -1.611  0.00  0.00     0.003 A 
ENDROOT
BRANCH   1   7
ATOM      7  C1' I4B d   1      -1.307   2.495  -0.236  0.00  0.00     0.060 C 
BRANCH   7   8
ATOM      8  C2' I4B d   1      -1.261   1.524   0.927  0.00  0.00    -0.013 C 
ATOM      9  C4' I4B d   1      -0.269   1.969   1.969  0.00  0.00     0.013 C 
ATOM     10  C3' I4B d   1      -2.642   1.422   1.501  0.00  0.00     0.013 C 
ENDBRANCH   7   8
ENDBRANCH   1   7
TORSDOF 2
ENDMDL
