MODEL 1
REMARK minimizedAffinity 11.7329493
REMARK minimizedRMSD -1
REMARK  2 active torsions:
REMARK  status: ('A' for Active; 'I' for Inactive)
REMARK    1  A    between atoms: C2'_3  and  C1'_4 
REMARK    2  A    between atoms: C1'_4  and  C1_5 
ROOT
ATOM      1  C1  I4B d   1      -1.764   4.161  -3.264  0.00  0.00    -0.075 A 
ATOM      2  C2  I4B d   1      -1.038   5.043  -4.024  0.00  0.00     0.003 A 
ATOM      3  C3  I4B d   1      -1.699   5.997  -4.836  0.00  0.00     0.002 A 
ATOM      4  C4  I4B d   1      -3.077   6.000  -4.895  0.00  0.00    -0.004 A 
ATOM      5  C5  I4B d   1      -3.813   5.120  -4.106  0.00  0.00     0.002 A 
ATOM      6  C6  I4B d   1      -3.152   4.203  -3.276  0.00  0.00     0.003 A 
ENDROOT
BRANCH   1   7
ATOM      7  C1' I4B d   1      -1.034   3.146  -2.443  0.00  0.00     0.060 C 
BRANCH   7   8
ATOM      8  C2' I4B d   1      -0.938   3.672  -1.026  0.00  0.00    -0.013 C 
ATOM      9  C4' I4B d   1      -1.427   2.652  -0.031  0.00  0.00     0.013 C 
ATOM     10  C3' I4B d   1       0.491   4.042  -0.765  0.00  0.00     0.013 C 
ENDBRANCH   7   8
ENDBRANCH   1   7
TORSDOF 2
ENDMDL
