MODEL 1
REMARK minimizedAffinity -4.23055077
REMARK minimizedRMSD -1
REMARK  0 active torsions:
REMARK  status: ('A' for Active; 'I' for Inactive)
ROOT
ATOM      1  C   UNL d   1       0.491  -0.424  -0.700  0.00  0.00     0.078 C 
ATOM      2  C1  UNL d   1      -0.450   0.412   0.114  0.00  0.00    -0.077 A 
ATOM      3  C2  UNL d   1      -1.476   1.144  -0.496  0.00  0.00    -0.001 A 
ATOM      4  C3  UNL d   1      -2.339   1.926   0.274  0.00  0.00     0.003 A 
ATOM      5  C4  UNL d   1      -2.185   1.984   1.657  0.00  0.00    -0.005 A 
ATOM      6  C5  UNL d   1      -1.165   1.260   2.273  0.00  0.00     0.003 A 
ATOM      7  C6  UNL d   1      -0.301   0.478   1.505  0.00  0.00    -0.001 A 
ENDROOT
TORSDOF 0
ENDMDL
