MODEL 1
REMARK minimizedAffinity -3.25924563
REMARK minimizedRMSD -1
REMARK  0 active torsions:
REMARK  status: ('A' for Active; 'I' for Inactive)
ROOT
ATOM      1  C   UNL d   1      -2.451   1.909   1.095  0.00  0.00     0.078 C 
ATOM      2  C1  UNL d   1      -1.281   1.179   0.506  0.00  0.00    -0.077 A 
ATOM      3  C2  UNL d   1      -0.740   1.560  -0.727  0.00  0.00    -0.001 A 
ATOM      4  C3  UNL d   1       0.343   0.864  -1.268  0.00  0.00     0.003 A 
ATOM      5  C4  UNL d   1       0.893  -0.217  -0.582  0.00  0.00    -0.005 A 
ATOM      6  C5  UNL d   1       0.360  -0.605   0.645  0.00  0.00     0.003 A 
ATOM      7  C6  UNL d   1      -0.723   0.089   1.187  0.00  0.00    -0.001 A 
ENDROOT
TORSDOF 0
ENDMDL
