MODEL 1
REMARK minimizedAffinity -5.05081558
REMARK minimizedRMSD -1
REMARK  0 active torsions:
REMARK  status: ('A' for Active; 'I' for Inactive)
ROOT
ATOM      1  C   UNL d   1      -1.954   2.113   0.741  0.00  0.00     0.078 C 
ATOM      2  C1  UNL d   1      -0.869   1.191   0.270  0.00  0.00    -0.077 A 
ATOM      3  C2  UNL d   1      -0.589  -0.000   0.951  0.00  0.00    -0.001 A 
ATOM      4  C3  UNL d   1       0.431  -0.844   0.507  0.00  0.00     0.003 A 
ATOM      5  C4  UNL d   1       1.179  -0.505  -0.619  0.00  0.00    -0.005 A 
ATOM      6  C5  UNL d   1       0.908   0.679  -1.301  0.00  0.00     0.003 A 
ATOM      7  C6  UNL d   1      -0.110   1.524  -0.859  0.00  0.00    -0.001 A 
ENDROOT
TORSDOF 0
ENDMDL
