MODEL 1
REMARK minimizedAffinity 2.78474927
REMARK minimizedRMSD -1
REMARK  0 active torsions:
REMARK  status: ('A' for Active; 'I' for Inactive)
ROOT
ATOM      1  C   UNL d   1       1.150  -0.344   0.384  0.00  0.00     0.078 C 
ATOM      2  C1  UNL d   1       0.200   0.595  -0.297  0.00  0.00    -0.077 A 
ATOM      3  C2  UNL d   1       0.538   1.938  -0.503  0.00  0.00    -0.001 A 
ATOM      4  C3  UNL d   1      -0.360   2.804  -1.129  0.00  0.00     0.003 A 
ATOM      5  C4  UNL d   1      -1.603   2.337  -1.553  0.00  0.00    -0.005 A 
ATOM      6  C5  UNL d   1      -1.949   1.002  -1.350  0.00  0.00     0.003 A 
ATOM      7  C6  UNL d   1      -1.052   0.135  -0.724  0.00  0.00    -0.001 A 
ENDROOT
TORSDOF 0
ENDMDL
