MODEL 1
REMARK minimizedAffinity -4.59209251
REMARK minimizedRMSD -1
REMARK  0 active torsions:
REMARK  status: ('A' for Active; 'I' for Inactive)
ROOT
ATOM      1  C   UNL d   1       0.756  -1.332  -0.121  0.00  0.00     0.078 C 
ATOM      2  C1  UNL d   1      -0.134  -0.263   0.439  0.00  0.00    -0.077 A 
ATOM      3  C2  UNL d   1      -0.459   0.872  -0.314  0.00  0.00    -0.001 A 
ATOM      4  C3  UNL d   1      -1.281   1.864   0.224  0.00  0.00     0.003 A 
ATOM      5  C4  UNL d   1      -1.784   1.731   1.517  0.00  0.00    -0.005 A 
ATOM      6  C5  UNL d   1      -1.465   0.606   2.274  0.00  0.00     0.003 A 
ATOM      7  C6  UNL d   1      -0.643  -0.387   1.738  0.00  0.00    -0.001 A 
ENDROOT
TORSDOF 0
ENDMDL
