MODEL 1
REMARK minimizedAffinity -4.78829098
REMARK minimizedRMSD -1
REMARK  0 active torsions:
REMARK  status: ('A' for Active; 'I' for Inactive)
ROOT
ATOM      1  C   UNL d   1      -2.523   2.418   1.021  0.00  0.00     0.078 C 
ATOM      2  C1  UNL d   1      -1.438   1.385   0.964  0.00  0.00    -0.077 A 
ATOM      3  C2  UNL d   1      -1.146   0.585   2.076  0.00  0.00    -0.001 A 
ATOM      4  C3  UNL d   1      -0.127  -0.367   2.012  0.00  0.00     0.003 A 
ATOM      5  C4  UNL d   1       0.609  -0.527   0.840  0.00  0.00    -0.005 A 
ATOM      6  C5  UNL d   1       0.327   0.266  -0.271  0.00  0.00     0.003 A 
ATOM      7  C6  UNL d   1      -0.692   1.218  -0.209  0.00  0.00    -0.001 A 
ENDROOT
TORSDOF 0
ENDMDL
