MODEL 1
REMARK minimizedAffinity -4.13404894
REMARK minimizedRMSD -1
REMARK  0 active torsions:
REMARK  status: ('A' for Active; 'I' for Inactive)
ROOT
ATOM      1  C   UNL d   1      -1.957   1.845   1.472  0.00  0.00     0.078 C 
ATOM      2  C1  UNL d   1      -0.945   0.927   0.855  0.00  0.00    -0.077 A 
ATOM      3  C2  UNL d   1      -0.409  -0.146   1.578  0.00  0.00    -0.001 A 
ATOM      4  C3  UNL d   1       0.540  -0.986   0.994  0.00  0.00     0.003 A 
ATOM      5  C4  UNL d   1       0.963  -0.762  -0.315  0.00  0.00    -0.005 A 
ATOM      6  C5  UNL d   1       0.437   0.305  -1.041  0.00  0.00     0.003 A 
ATOM      7  C6  UNL d   1      -0.512   1.146  -0.459  0.00  0.00    -0.001 A 
ENDROOT
TORSDOF 0
ENDMDL
