MODEL 1
REMARK minimizedAffinity -3.88567948
REMARK minimizedRMSD -1
REMARK  0 active torsions:
REMARK  status: ('A' for Active; 'I' for Inactive)
ROOT
ATOM      1  C   UNL d   1      -1.608   1.725   1.439  0.00  0.00     0.078 C 
ATOM      2  C1  UNL d   1      -0.644   0.827   0.723  0.00  0.00    -0.077 A 
ATOM      3  C2  UNL d   1      -0.234  -0.387   1.289  0.00  0.00    -0.001 A 
ATOM      4  C3  UNL d   1       0.672  -1.209   0.617  0.00  0.00     0.003 A 
ATOM      5  C4  UNL d   1       1.176  -0.826  -0.625  0.00  0.00    -0.005 A 
ATOM      6  C5  UNL d   1       0.775   0.381  -1.195  0.00  0.00     0.003 A 
ATOM      7  C6  UNL d   1      -0.130   1.204  -0.524  0.00  0.00    -0.001 A 
ENDROOT
TORSDOF 0
ENDMDL
