MODEL 1
REMARK minimizedAffinity -5.27985668
REMARK minimizedRMSD -1
REMARK  0 active torsions:
REMARK  status: ('A' for Active; 'I' for Inactive)
ROOT
ATOM      1  C   UNL d   1       0.752  -1.073  -0.691  0.00  0.00     0.078 C 
ATOM      2  C1  UNL d   1      -0.038  -0.047   0.065  0.00  0.00    -0.077 A 
ATOM      3  C2  UNL d   1      -0.319  -0.213   1.427  0.00  0.00    -0.001 A 
ATOM      4  C3  UNL d   1      -1.064   0.745   2.116  0.00  0.00     0.003 A 
ATOM      5  C4  UNL d   1      -1.535   1.876   1.452  0.00  0.00    -0.005 A 
ATOM      6  C5  UNL d   1      -1.263   2.048   0.096  0.00  0.00     0.003 A 
ATOM      7  C6  UNL d   1      -0.518   1.091  -0.595  0.00  0.00    -0.001 A 
ENDROOT
TORSDOF 0
ENDMDL
