MODEL 1
REMARK minimizedAffinity -5.70048285
REMARK minimizedRMSD -1
REMARK  0 active torsions:
REMARK  status: ('A' for Active; 'I' for Inactive)
ROOT
ATOM      1  C   UNL d   1      -2.232   2.969   1.241  0.00  0.00     0.078 C 
ATOM      2  C1  UNL d   1      -1.234   1.960   0.757  0.00  0.00    -0.077 A 
ATOM      3  C2  UNL d   1      -0.488   2.184  -0.406  0.00  0.00    -0.001 A 
ATOM      4  C3  UNL d   1       0.430   1.231  -0.850  0.00  0.00     0.003 A 
ATOM      5  C4  UNL d   1       0.610   0.047  -0.138  0.00  0.00    -0.005 A 
ATOM      6  C5  UNL d   1      -0.130  -0.185   1.020  0.00  0.00     0.003 A 
ATOM      7  C6  UNL d   1      -1.048   0.766   1.466  0.00  0.00    -0.001 A 
ENDROOT
TORSDOF 0
ENDMDL
