MODEL 1
REMARK minimizedAffinity -2.29576755
REMARK minimizedRMSD -1
REMARK  0 active torsions:
REMARK  status: ('A' for Active; 'I' for Inactive)
ROOT
ATOM      1  C   UNL d   1      -2.342   1.755   0.955  0.00  0.00     0.078 C 
ATOM      2  C1  UNL d   1      -1.079   1.276   0.304  0.00  0.00    -0.077 A 
ATOM      3  C2  UNL d   1      -0.576  -0.005   0.561  0.00  0.00    -0.001 A 
ATOM      4  C3  UNL d   1       0.606  -0.434  -0.045  0.00  0.00     0.003 A 
ATOM      5  C4  UNL d   1       1.296   0.413  -0.909  0.00  0.00    -0.005 A 
ATOM      6  C5  UNL d   1       0.805   1.690  -1.169  0.00  0.00     0.003 A 
ATOM      7  C6  UNL d   1      -0.377   2.121  -0.565  0.00  0.00    -0.001 A 
ENDROOT
TORSDOF 0
ENDMDL
