MODEL 1
REMARK minimizedAffinity -5.30394697
REMARK minimizedRMSD -1
REMARK  0 active torsions:
REMARK  status: ('A' for Active; 'I' for Inactive)
ROOT
ATOM      1  C   UNL d   1      -2.362   1.761   0.757  0.00  0.00     0.078 C 
ATOM      2  C1  UNL d   1      -1.213   0.797   0.735  0.00  0.00    -0.077 A 
ATOM      3  C2  UNL d   1      -0.758   0.190   1.912  0.00  0.00    -0.001 A 
ATOM      4  C3  UNL d   1       0.318  -0.698   1.878  0.00  0.00     0.003 A 
ATOM      5  C4  UNL d   1       0.949  -0.987   0.669  0.00  0.00    -0.005 A 
ATOM      6  C5  UNL d   1       0.504  -0.386  -0.507  0.00  0.00     0.003 A 
ATOM      7  C6  UNL d   1      -0.572   0.502  -0.475  0.00  0.00    -0.001 A 
ENDROOT
TORSDOF 0
ENDMDL
