MODEL 1
REMARK minimizedAffinity -2.79302216
REMARK minimizedRMSD -1
REMARK  0 active torsions:
REMARK  status: ('A' for Active; 'I' for Inactive)
ROOT
ATOM      1  C   UNL d   1       1.074   0.135  -1.228  0.00  0.00     0.172 C 
ATOM      2  N   UNL d   1       0.183   0.441  -0.134  0.00  0.00    -0.070 N 
ATOM      3  C1  UNL d   1       0.138  -0.217   1.066  0.00  0.00    -0.004 A 
ATOM      4  C2  UNL d   1      -0.841   0.374   1.835  0.00  0.00    -0.047 A 
ATOM      5  C3  UNL d   1      -1.404   1.423   1.070  0.00  0.00    -0.047 A 
ATOM      6  C4  UNL d   1      -0.752   1.442  -0.145  0.00  0.00    -0.004 A 
ENDROOT
TORSDOF 0
ENDMDL
