MODEL 1
REMARK minimizedAffinity -2.48999572
REMARK minimizedRMSD -1
REMARK  0 active torsions:
REMARK  status: ('A' for Active; 'I' for Inactive)
ROOT
ATOM      1  C   UNL d   1       0.502  -0.925  -0.981  0.00  0.00     0.172 C 
ATOM      2  N   UNL d   1      -0.328   0.021  -0.273  0.00  0.00    -0.070 N 
ATOM      3  C1  UNL d   1      -0.338   0.217   1.082  0.00  0.00    -0.004 A 
ATOM      4  C2  UNL d   1      -1.262   1.201   1.359  0.00  0.00    -0.047 A 
ATOM      5  C3  UNL d   1      -1.828   1.609   0.128  0.00  0.00    -0.047 A 
ATOM      6  C4  UNL d   1      -1.232   0.862  -0.866  0.00  0.00    -0.004 A 
ENDROOT
TORSDOF 0
ENDMDL
