MODEL 1
REMARK minimizedAffinity -3.31740189
REMARK minimizedRMSD -1
REMARK  0 active torsions:
REMARK  status: ('A' for Active; 'I' for Inactive)
ROOT
ATOM      1  C   UNL d   1       0.779  -0.344  -0.186  0.00  0.00     0.172 C 
ATOM      2  N   UNL d   1      -0.090   0.395   0.699  0.00  0.00    -0.070 N 
ATOM      3  C1  UNL d   1      -0.488  -0.006   1.947  0.00  0.00    -0.004 A 
ATOM      4  C2  UNL d   1      -1.308   0.973   2.464  0.00  0.00    -0.047 A 
ATOM      5  C3  UNL d   1      -1.408   1.998   1.493  0.00  0.00    -0.047 A 
ATOM      6  C4  UNL d   1      -0.645   1.614   0.411  0.00  0.00    -0.004 A 
ENDROOT
TORSDOF 0
ENDMDL
