MODEL 1
REMARK minimizedAffinity -2.91429782
REMARK minimizedRMSD -1
REMARK  0 active torsions:
REMARK  status: ('A' for Active; 'I' for Inactive)
ROOT
ATOM      1  C   UNL d   1       0.039  -0.493   0.693  0.00  0.00     0.172 C 
ATOM      2  N   UNL d   1      -0.570   0.816   0.659  0.00  0.00    -0.070 N 
ATOM      3  C1  UNL d   1      -1.377   1.347   1.629  0.00  0.00    -0.004 A 
ATOM      4  C2  UNL d   1      -1.751   2.610   1.223  0.00  0.00    -0.047 A 
ATOM      5  C3  UNL d   1      -1.148   2.845  -0.036  0.00  0.00    -0.047 A 
ATOM      6  C4  UNL d   1      -0.423   1.719  -0.361  0.00  0.00    -0.004 A 
ENDROOT
TORSDOF 0
ENDMDL
