MODEL 1
REMARK minimizedAffinity -3.67422462
REMARK minimizedRMSD -1
REMARK  0 active torsions:
REMARK  status: ('A' for Active; 'I' for Inactive)
ROOT
ATOM      1  C   UNL d   1       0.809   0.111  -0.763  0.00  0.00     0.172 C 
ATOM      2  N   UNL d   1      -0.344   0.651  -0.082  0.00  0.00    -0.070 N 
ATOM      3  C1  UNL d   1      -0.611   0.530   1.255  0.00  0.00    -0.004 A 
ATOM      4  C2  UNL d   1      -1.799   1.181   1.510  0.00  0.00    -0.047 A 
ATOM      5  C3  UNL d   1      -2.262   1.712   0.282  0.00  0.00    -0.047 A 
ATOM      6  C4  UNL d   1      -1.342   1.369  -0.686  0.00  0.00    -0.004 A 
ENDROOT
TORSDOF 0
ENDMDL
