MODEL 1
REMARK minimizedAffinity -0.473915339
REMARK minimizedRMSD -1
REMARK  0 active torsions:
REMARK  status: ('A' for Active; 'I' for Inactive)
ROOT
ATOM      1  C   UNL d   1       1.113  -1.002  -0.375  0.00  0.00     0.172 C 
ATOM      2  N   UNL d   1       0.342   0.210  -0.517  0.00  0.00    -0.070 N 
ATOM      3  C1  UNL d   1       0.701   1.303  -1.260  0.00  0.00    -0.004 A 
ATOM      4  C2  UNL d   1      -0.298   2.244  -1.137  0.00  0.00    -0.047 A 
ATOM      5  C3  UNL d   1      -1.293   1.698  -0.291  0.00  0.00    -0.047 A 
ATOM      6  C4  UNL d   1      -0.871   0.438   0.078  0.00  0.00    -0.004 A 
ENDROOT
TORSDOF 0
ENDMDL
