MODEL 1
REMARK minimizedAffinity -3.90683508
REMARK minimizedRMSD -1
REMARK  0 active torsions:
REMARK  status: ('A' for Active; 'I' for Inactive)
ROOT
ATOM      1  C   UNL d   1       1.232  -0.319  -0.513  0.00  0.00     0.172 C 
ATOM      2  N   UNL d   1       0.136   0.111   0.323  0.00  0.00    -0.070 N 
ATOM      3  C1  UNL d   1       0.107   0.056   1.691  0.00  0.00    -0.004 A 
ATOM      4  C2  UNL d   1      -1.108   0.558   2.107  0.00  0.00    -0.047 A 
ATOM      5  C3  UNL d   1      -1.833   0.926   0.950  0.00  0.00    -0.047 A 
ATOM      6  C4  UNL d   1      -1.040   0.638  -0.141  0.00  0.00    -0.004 A 
ENDROOT
TORSDOF 0
ENDMDL
