MODEL 1
REMARK minimizedAffinity -2.84562659
REMARK minimizedRMSD -1
REMARK  0 active torsions:
REMARK  status: ('A' for Active; 'I' for Inactive)
ROOT
ATOM      1  C   UNL d   1       0.835  -0.769   0.132  0.00  0.00     0.172 C 
ATOM      2  N   UNL d   1       0.050   0.408  -0.158  0.00  0.00    -0.070 N 
ATOM      3  C1  UNL d   1       0.298   1.304  -1.163  0.00  0.00    -0.004 A 
ATOM      4  C2  UNL d   1      -0.674   2.280  -1.108  0.00  0.00    -0.047 A 
ATOM      5  C3  UNL d   1      -1.535   1.959  -0.032  0.00  0.00    -0.047 A 
ATOM      6  C4  UNL d   1      -1.064   0.795   0.538  0.00  0.00    -0.004 A 
ENDROOT
TORSDOF 0
ENDMDL
