MODEL 1
REMARK minimizedAffinity -3.02249455
REMARK minimizedRMSD -1
REMARK  0 active torsions:
REMARK  status: ('A' for Active; 'I' for Inactive)
ROOT
ATOM      1  C   UNL d   1      -1.390   1.897   1.449  0.00  0.00     0.172 C 
ATOM      2  N   UNL d   1      -0.432   1.219   0.607  0.00  0.00    -0.070 N 
ATOM      3  C1  UNL d   1       0.198   1.761  -0.481  0.00  0.00    -0.004 A 
ATOM      4  C2  UNL d   1       1.030   0.798  -1.009  0.00  0.00    -0.047 A 
ATOM      5  C3  UNL d   1       0.895  -0.363  -0.212  0.00  0.00    -0.047 A 
ATOM      6  C4  UNL d   1      -0.017  -0.074   0.782  0.00  0.00    -0.004 A 
ENDROOT
TORSDOF 0
ENDMDL
