MODEL 1
REMARK minimizedAffinity -1.44187462
REMARK minimizedRMSD -1
REMARK  0 active torsions:
REMARK  status: ('A' for Active; 'I' for Inactive)
ROOT
ATOM      1  C   UNL d   1      -1.221   1.425  -0.136  0.00  0.00     0.172 C 
ATOM      2  N   UNL d   1      -0.298   0.314  -0.147  0.00  0.00    -0.070 N 
ATOM      3  C1  UNL d   1       0.408  -0.126  -1.234  0.00  0.00    -0.004 A 
ATOM      4  C2  UNL d   1       1.173  -1.201  -0.835  0.00  0.00    -0.047 A 
ATOM      5  C3  UNL d   1       0.916  -1.415   0.541  0.00  0.00    -0.047 A 
ATOM      6  C4  UNL d   1       0.002  -0.463   0.941  0.00  0.00    -0.004 A 
ENDROOT
TORSDOF 0
ENDMDL
