MODEL 1
REMARK minimizedAffinity -3.78664732
REMARK minimizedRMSD -1
REMARK  0 active torsions:
REMARK  status: ('A' for Active; 'I' for Inactive)
ROOT
ATOM      1  C   UNL d   1       0.329  -0.905  -0.633  0.00  0.00     0.172 C 
ATOM      2  N   UNL d   1      -0.391   0.028   0.201  0.00  0.00    -0.070 N 
ATOM      3  C1  UNL d   1      -0.225   0.186   1.551  0.00  0.00    -0.004 A 
ATOM      4  C2  UNL d   1      -1.094   1.170   1.971  0.00  0.00    -0.047 A 
ATOM      5  C3  UNL d   1      -1.808   1.618   0.834  0.00  0.00    -0.047 A 
ATOM      6  C4  UNL d   1      -1.353   0.895  -0.248  0.00  0.00    -0.004 A 
ENDROOT
TORSDOF 0
ENDMDL
