MODEL 1
REMARK minimizedAffinity -3.34440422
REMARK minimizedRMSD -1
REMARK  0 active torsions:
REMARK  status: ('A' for Active; 'I' for Inactive)
ROOT
ATOM      1  C   UNL d   1      -2.263   1.211   1.118  0.00  0.00     0.172 C 
ATOM      2  N   UNL d   1      -1.147   0.662   0.385  0.00  0.00    -0.070 N 
ATOM      3  C1  UNL d   1      -0.743   1.051  -0.864  0.00  0.00    -0.004 A 
ATOM      4  C2  UNL d   1       0.353   0.290  -1.210  0.00  0.00    -0.047 A 
ATOM      5  C3  UNL d   1       0.616  -0.588  -0.132  0.00  0.00    -0.047 A 
ATOM      6  C4  UNL d   1      -0.327  -0.337   0.842  0.00  0.00    -0.004 A 
ENDROOT
TORSDOF 0
ENDMDL
