MODEL 1
REMARK minimizedAffinity -1.71515334
REMARK minimizedRMSD -1
REMARK  0 active torsions:
REMARK  status: ('A' for Active; 'I' for Inactive)
ROOT
ATOM      1  C   UNL d   1       0.870  -0.854  -0.762  0.00  0.00     0.172 C 
ATOM      2  N   UNL d   1      -0.044  -0.061   0.026  0.00  0.00    -0.070 N 
ATOM      3  C1  UNL d   1      -0.307  -0.234   1.359  0.00  0.00    -0.004 A 
ATOM      4  C2  UNL d   1      -1.229   0.719   1.734  0.00  0.00    -0.047 A 
ATOM      5  C3  UNL d   1      -1.532   1.490   0.587  0.00  0.00    -0.047 A 
ATOM      6  C4  UNL d   1      -0.785   0.986  -0.456  0.00  0.00    -0.004 A 
ENDROOT
TORSDOF 0
ENDMDL
