MODEL 1
REMARK minimizedAffinity -1.79612732
REMARK minimizedRMSD -1
REMARK  0 active torsions:
REMARK  status: ('A' for Active; 'I' for Inactive)
ROOT
ATOM      1  C   UNL d   1       1.016  -0.502  -0.904  0.00  0.00     0.172 C 
ATOM      2  N   UNL d   1       0.685  -1.807  -1.427  0.00  0.00    -0.070 N 
ATOM      3  C1  UNL d   1       0.058  -2.053  -2.619  0.00  0.00    -0.004 A 
ATOM      4  C2  UNL d   1      -0.074  -3.419  -2.752  0.00  0.00    -0.047 A 
ATOM      5  C3  UNL d   1       0.493  -4.013  -1.599  0.00  0.00    -0.047 A 
ATOM      6  C4  UNL d   1       0.955  -2.992  -0.796  0.00  0.00    -0.004 A 
ENDROOT
TORSDOF 0
ENDMDL
