MODEL 1
REMARK minimizedAffinity -3.12911582
REMARK minimizedRMSD -1
REMARK  0 active torsions:
REMARK  status: ('A' for Active; 'I' for Inactive)
ROOT
ATOM      1  C   UNL d   1      -1.655   2.374   1.617  0.00  0.00     0.172 C 
ATOM      2  N   UNL d   1      -0.908   1.656   0.611  0.00  0.00    -0.070 N 
ATOM      3  C1  UNL d   1      -0.156   2.224  -0.382  0.00  0.00    -0.004 A 
ATOM      4  C2  UNL d   1       0.395   1.205  -1.130  0.00  0.00    -0.047 A 
ATOM      5  C3  UNL d   1      -0.043  -0.017  -0.567  0.00  0.00    -0.047 A 
ATOM      6  C4  UNL d   1      -0.848   0.291   0.510  0.00  0.00    -0.004 A 
ENDROOT
TORSDOF 0
ENDMDL
