MODEL 1
REMARK minimizedAffinity -3.57383037
REMARK minimizedRMSD -1
REMARK  0 active torsions:
REMARK  status: ('A' for Active; 'I' for Inactive)
ROOT
ATOM      1  C2' OXE d   1       2.365  -0.238  -2.708  0.00  0.00     0.078 C 
ATOM      2  C1' OXE d   1       1.219   0.903  -0.414  0.00  0.00     0.078 C 
ATOM      3  C1  OXE d   1       0.359  -0.012  -1.249  0.00  0.00    -0.078 A 
ATOM      4  C2  OXE d   1       0.913  -0.529  -2.395  0.00  0.00    -0.078 A 
ATOM      5  C3  OXE d   1       0.182  -1.421  -3.173  0.00  0.00     0.003 A 
ATOM      6  C4  OXE d   1      -1.164  -1.677  -2.882  0.00  0.00    -0.002 A 
ATOM      7  C5  OXE d   1      -1.760  -1.129  -1.742  0.00  0.00    -0.002 A 
ATOM      8  C6  OXE d   1      -1.002  -0.330  -0.893  0.00  0.00     0.003 A 
ENDROOT
TORSDOF 0
ENDMDL
