MODEL 1
REMARK minimizedAffinity -2.6629343
REMARK minimizedRMSD -1
REMARK  0 active torsions:
REMARK  status: ('A' for Active; 'I' for Inactive)
ROOT
ATOM      1  C2' OXE d   1       0.279  -0.720  -2.059  0.00  0.00     0.078 C 
ATOM      2  C1' OXE d   1      -1.906   0.603  -0.895  0.00  0.00     0.078 C 
ATOM      3  C1  OXE d   1      -0.704   0.330  -0.026  0.00  0.00    -0.078 A 
ATOM      4  C2  OXE d   1       0.342  -0.359  -0.591  0.00  0.00    -0.078 A 
ATOM      5  C3  OXE d   1       1.497  -0.589   0.151  0.00  0.00     0.003 A 
ATOM      6  C4  OXE d   1       1.543  -0.261   1.511  0.00  0.00    -0.002 A 
ATOM      7  C5  OXE d   1       0.473   0.406   2.117  0.00  0.00    -0.002 A 
ATOM      8  C6  OXE d   1      -0.638   0.746   1.353  0.00  0.00     0.003 A 
ENDROOT
TORSDOF 0
ENDMDL
