MODEL 1
REMARK minimizedAffinity 1.96458137
REMARK minimizedRMSD -1
REMARK  0 active torsions:
REMARK  status: ('A' for Active; 'I' for Inactive)
ROOT
ATOM      1  C2' OXE d   1       1.289  -0.249  -2.146  0.00  0.00     0.078 C 
ATOM      2  C1' OXE d   1       1.497   0.714   0.482  0.00  0.00     0.078 C 
ATOM      3  C1  OXE d   1       0.116   0.447  -0.062  0.00  0.00    -0.078 A 
ATOM      4  C2  OXE d   1       0.021   0.021  -1.365  0.00  0.00    -0.078 A 
ATOM      5  C3  OXE d   1      -1.226  -0.292  -1.899  0.00  0.00     0.003 A 
ATOM      6  C4  OXE d   1      -2.394  -0.030  -1.172  0.00  0.00    -0.002 A 
ATOM      7  C5  OXE d   1      -2.321   0.442   0.143  0.00  0.00    -0.002 A 
ATOM      8  C6  OXE d   1      -1.075   0.645   0.726  0.00  0.00     0.003 A 
ENDROOT
TORSDOF 0
ENDMDL
