MODEL 1
REMARK minimizedAffinity -5.02886152
REMARK minimizedRMSD -1
REMARK  0 active torsions:
REMARK  status: ('A' for Active; 'I' for Inactive)
ROOT
ATOM      1  C2' OXE d   1      -2.099  -0.806  -0.308  0.00  0.00     0.078 C 
ATOM      2  C1' OXE d   1       0.189   0.696  -0.931  0.00  0.00     0.078 C 
ATOM      3  C1  OXE d   1       0.050   0.178   0.478  0.00  0.00    -0.078 A 
ATOM      4  C2  OXE d   1      -1.095  -0.516   0.787  0.00  0.00    -0.078 A 
ATOM      5  C3  OXE d   1      -1.248  -1.063   2.058  0.00  0.00     0.003 A 
ATOM      6  C4  OXE d   1      -0.319  -0.782   3.067  0.00  0.00    -0.002 A 
ATOM      7  C5  OXE d   1       0.835  -0.044   2.784  0.00  0.00    -0.002 A 
ATOM      8  C6  OXE d   1       1.055   0.406   1.487  0.00  0.00     0.003 A 
ENDROOT
TORSDOF 0
ENDMDL
