MODEL 1
REMARK minimizedAffinity -4.77013206
REMARK minimizedRMSD -1
REMARK  0 active torsions:
REMARK  status: ('A' for Active; 'I' for Inactive)
ROOT
ATOM      1  C2' OXE d   1       0.786   0.194  -2.593  0.00  0.00     0.078 C 
ATOM      2  C1' OXE d   1       1.509   0.608   0.087  0.00  0.00     0.078 C 
ATOM      3  C1  OXE d   1       0.090   0.188  -0.201  0.00  0.00    -0.078 A 
ATOM      4  C2  OXE d   1      -0.268   0.033  -1.519  0.00  0.00    -0.078 A 
ATOM      5  C3  OXE d   1      -1.549  -0.408  -1.838  0.00  0.00     0.003 A 
ATOM      6  C4  OXE d   1      -2.521  -0.545  -0.839  0.00  0.00    -0.002 A 
ATOM      7  C5  OXE d   1      -2.188  -0.353   0.506  0.00  0.00    -0.002 A 
ATOM      8  C6  OXE d   1      -0.879  -0.029   0.844  0.00  0.00     0.003 A 
ENDROOT
TORSDOF 0
ENDMDL
