MODEL 1
REMARK minimizedAffinity -6.47892475
REMARK minimizedRMSD -1
REMARK  0 active torsions:
REMARK  status: ('A' for Active; 'I' for Inactive)
ROOT
ATOM      1  C2' OXE d   1      -1.897   0.113  -1.244  0.00  0.00     0.078 C 
ATOM      2  C1' OXE d   1      -3.735   0.275   0.872  0.00  0.00     0.078 C 
ATOM      3  C1  OXE d   1      -2.297  -0.025   1.211  0.00  0.00    -0.078 A 
ATOM      4  C2  OXE d   1      -1.413  -0.148   0.166  0.00  0.00    -0.078 A 
ATOM      5  C3  OXE d   1      -0.064  -0.370   0.427  0.00  0.00     0.003 A 
ATOM      6  C4  OXE d   1       0.374  -0.620   1.733  0.00  0.00    -0.002 A 
ATOM      7  C5  OXE d   1      -0.517  -0.538   2.808  0.00  0.00    -0.002 A 
ATOM      8  C6  OXE d   1      -1.844  -0.200   2.569  0.00  0.00     0.003 A 
ENDROOT
TORSDOF 0
ENDMDL
