MODEL 1
REMARK minimizedAffinity -6.6564517
REMARK minimizedRMSD -1
REMARK  0 active torsions:
REMARK  status: ('A' for Active; 'I' for Inactive)
ROOT
ATOM      1  C2' OXE d   1       1.203   0.129   0.925  0.00  0.00     0.078 C 
ATOM      2  C1' OXE d   1      -0.099  -0.331   3.369  0.00  0.00     0.078 C 
ATOM      3  C1  OXE d   1      -0.952  -0.178   2.135  0.00  0.00    -0.078 A 
ATOM      4  C2  OXE d   1      -0.309   0.094   0.951  0.00  0.00    -0.078 A 
ATOM      5  C3  OXE d   1      -1.045   0.190  -0.226  0.00  0.00     0.003 A 
ATOM      6  C4  OXE d   1      -2.444   0.166  -0.192  0.00  0.00    -0.002 A 
ATOM      7  C5  OXE d   1      -3.121  -0.070   1.009  0.00  0.00    -0.002 A 
ATOM      8  C6  OXE d   1      -2.390  -0.286   2.172  0.00  0.00     0.003 A 
ENDROOT
TORSDOF 0
ENDMDL
