MODEL 1
REMARK minimizedAffinity -4.84133959
REMARK minimizedRMSD -1
REMARK  0 active torsions:
REMARK  status: ('A' for Active; 'I' for Inactive)
ROOT
ATOM      1  C2' OXE d   1       0.295   0.659  -0.537  0.00  0.00     0.078 C 
ATOM      2  C1' OXE d   1      -2.493   0.326  -0.557  0.00  0.00     0.078 C 
ATOM      3  C1  OXE d   1      -1.773   0.154   0.757  0.00  0.00    -0.078 A 
ATOM      4  C2  OXE d   1      -0.404   0.273   0.749  0.00  0.00    -0.078 A 
ATOM      5  C3  OXE d   1       0.304   0.178   1.944  0.00  0.00     0.003 A 
ATOM      6  C4  OXE d   1      -0.349  -0.189   3.127  0.00  0.00    -0.002 A 
ATOM      7  C5  OXE d   1      -1.738  -0.354   3.150  0.00  0.00    -0.002 A 
ATOM      8  C6  OXE d   1      -2.468  -0.144   1.985  0.00  0.00     0.003 A 
ENDROOT
TORSDOF 0
ENDMDL
