MODEL 1
REMARK minimizedAffinity -6.41230679
REMARK minimizedRMSD -1
REMARK  0 active torsions:
REMARK  status: ('A' for Active; 'I' for Inactive)
ROOT
ATOM      1  C2' OXE d   1       1.234  -0.098   0.903  0.00  0.00     0.078 C 
ATOM      2  C1' OXE d   1      -0.646  -0.154  -1.181  0.00  0.00     0.078 C 
ATOM      3  C1  OXE d   1      -1.164  -0.036   0.231  0.00  0.00    -0.078 A 
ATOM      4  C2  OXE d   1      -0.239  -0.057   1.247  0.00  0.00    -0.078 A 
ATOM      5  C3  OXE d   1      -0.659   0.104   2.565  0.00  0.00     0.003 A 
ATOM      6  C4  OXE d   1      -2.024   0.131   2.875  0.00  0.00    -0.002 A 
ATOM      7  C5  OXE d   1      -2.984   0.113   1.858  0.00  0.00    -0.002 A 
ATOM      8  C6  OXE d   1      -2.570   0.073   0.531  0.00  0.00     0.003 A 
ENDROOT
TORSDOF 0
ENDMDL
