MODEL 1
REMARK minimizedAffinity -6.57998323
REMARK minimizedRMSD -1
REMARK  0 active torsions:
REMARK  status: ('A' for Active; 'I' for Inactive)
ROOT
ATOM      1  C2' OXE d   1      -3.432  -0.024   1.375  0.00  0.00     0.078 C 
ATOM      2  C1' OXE d   1      -1.167  -0.510   2.959  0.00  0.00     0.078 C 
ATOM      3  C1  OXE d   1      -0.950  -0.196   1.500  0.00  0.00    -0.078 A 
ATOM      4  C2  OXE d   1      -2.067  -0.005   0.722  0.00  0.00    -0.078 A 
ATOM      5  C3  OXE d   1      -1.922   0.341  -0.618  0.00  0.00     0.003 A 
ATOM      6  C4  OXE d   1      -0.656   0.347  -1.216  0.00  0.00    -0.002 A 
ATOM      7  C5  OXE d   1       0.492   0.116  -0.451  0.00  0.00    -0.002 A 
ATOM      8  C6  OXE d   1       0.365  -0.114   0.915  0.00  0.00     0.003 A 
ENDROOT
TORSDOF 0
ENDMDL
