MODEL 1
REMARK minimizedAffinity -3.7498126
REMARK minimizedRMSD -1
REMARK  0 active torsions:
REMARK  status: ('A' for Active; 'I' for Inactive)
ROOT
ATOM      1  C2' OXE d   1      -2.243   0.083  -0.461  0.00  0.00     0.078 C 
ATOM      2  C1' OXE d   1       0.385   1.028  -0.175  0.00  0.00     0.078 C 
ATOM      3  C1  OXE d   1       0.092   0.103  -1.330  0.00  0.00    -0.078 A 
ATOM      4  C2  OXE d   1      -1.186  -0.392  -1.435  0.00  0.00    -0.078 A 
ATOM      5  C3  OXE d   1      -1.523  -1.206  -2.513  0.00  0.00     0.003 A 
ATOM      6  C4  OXE d   1      -0.537  -1.648  -3.403  0.00  0.00    -0.002 A 
ATOM      7  C5  OXE d   1       0.779  -1.187  -3.290  0.00  0.00    -0.002 A 
ATOM      8  C6  OXE d   1       1.100  -0.280  -2.287  0.00  0.00     0.003 A 
ENDROOT
TORSDOF 0
ENDMDL
