MODEL 1
REMARK minimizedAffinity -6.09373236
REMARK minimizedRMSD -1
REMARK  0 active torsions:
REMARK  status: ('A' for Active; 'I' for Inactive)
ROOT
ATOM      1  C2' OXE d   1       1.489  -0.044   0.802  0.00  0.00     0.078 C 
ATOM      2  C1' OXE d   1      -0.572   0.310  -1.071  0.00  0.00     0.078 C 
ATOM      3  C1  OXE d   1      -0.961   0.039   0.361  0.00  0.00    -0.078 A 
ATOM      4  C2  OXE d   1       0.054  -0.180   1.261  0.00  0.00    -0.078 A 
ATOM      5  C3  OXE d   1      -0.248  -0.380   2.605  0.00  0.00     0.003 A 
ATOM      6  C4  OXE d   1      -1.579  -0.514   3.020  0.00  0.00    -0.002 A 
ATOM      7  C5  OXE d   1      -2.627  -0.335   2.112  0.00  0.00    -0.002 A 
ATOM      8  C6  OXE d   1      -2.337  -0.016   0.790  0.00  0.00     0.003 A 
ENDROOT
TORSDOF 0
ENDMDL
