MODEL 1
REMARK minimizedAffinity -6.67628336
REMARK minimizedRMSD -1
REMARK  0 active torsions:
REMARK  status: ('A' for Active; 'I' for Inactive)
ROOT
ATOM      1  C2' OXE d   1       0.969  -0.173   0.900  0.00  0.00     0.078 C 
ATOM      2  C1' OXE d   1      -1.145   0.487  -0.824  0.00  0.00     0.078 C 
ATOM      3  C1  OXE d   1      -1.483   0.156   0.608  0.00  0.00    -0.078 A 
ATOM      4  C2  OXE d   1      -0.447  -0.211   1.433  0.00  0.00    -0.078 A 
ATOM      5  C3  OXE d   1      -0.695  -0.474   2.777  0.00  0.00     0.003 A 
ATOM      6  C4  OXE d   1      -2.009  -0.517   3.260  0.00  0.00    -0.002 A 
ATOM      7  C5  OXE d   1      -3.083  -0.185   2.427  0.00  0.00    -0.002 A 
ATOM      8  C6  OXE d   1      -2.833   0.194   1.112  0.00  0.00     0.003 A 
ENDROOT
TORSDOF 0
ENDMDL
