MODEL 1
REMARK minimizedAffinity -2.62659979
REMARK minimizedRMSD -1
REMARK  0 active torsions:
REMARK  status: ('A' for Active; 'I' for Inactive)
ROOT
ATOM      1  C2' OXE d   1       1.145   0.778  -0.731  0.00  0.00     0.078 C 
ATOM      2  C1' OXE d   1       2.050  -0.215  -3.196  0.00  0.00     0.078 C 
ATOM      3  C1  OXE d   1       0.677  -0.631  -2.731  0.00  0.00    -0.078 A 
ATOM      4  C2  OXE d   1       0.261  -0.178  -1.502  0.00  0.00    -0.078 A 
ATOM      5  C3  OXE d   1      -1.018  -0.488  -1.050  0.00  0.00     0.003 A 
ATOM      6  C4  OXE d   1      -1.825  -1.382  -1.764  0.00  0.00    -0.002 A 
ATOM      7  C5  OXE d   1      -1.405  -1.886  -3.000  0.00  0.00    -0.002 A 
ATOM      8  C6  OXE d   1      -0.177  -1.488  -3.516  0.00  0.00     0.003 A 
ENDROOT
TORSDOF 0
ENDMDL
