MODEL 1
REMARK minimizedAffinity -2.61791515
REMARK minimizedRMSD -1
REMARK  0 active torsions:
REMARK  status: ('A' for Active; 'I' for Inactive)
ROOT
ATOM      1  C2' OXE d   1       2.440   0.221   1.488  0.00  0.00     0.078 C 
ATOM      2  C1' OXE d   1      -0.004   0.386   2.860  0.00  0.00     0.078 C 
ATOM      3  C1  OXE d   1      -0.046   0.297   1.355  0.00  0.00    -0.078 A 
ATOM      4  C2  OXE d   1       1.155   0.264   0.689  0.00  0.00    -0.078 A 
ATOM      5  C3  OXE d   1       1.173   0.127  -0.696  0.00  0.00     0.003 A 
ATOM      6  C4  OXE d   1      -0.020   0.177  -1.428  0.00  0.00    -0.002 A 
ATOM      7  C5  OXE d   1      -1.253   0.250  -0.772  0.00  0.00    -0.002 A 
ATOM      8  C6  OXE d   1      -1.285   0.268   0.618  0.00  0.00     0.003 A 
ENDROOT
TORSDOF 0
ENDMDL
