MODEL 1
REMARK minimizedAffinity -4.74108648
REMARK minimizedRMSD -1
REMARK  0 active torsions:
REMARK  status: ('A' for Active; 'I' for Inactive)
ROOT
ATOM      1  C2' OXE d   1      -2.114   0.046  -0.455  0.00  0.00     0.078 C 
ATOM      2  C1' OXE d   1       0.537   0.924  -0.170  0.00  0.00     0.078 C 
ATOM      3  C1  OXE d   1       0.237  -0.062  -1.271  0.00  0.00    -0.078 A 
ATOM      4  C2  OXE d   1      -1.054  -0.522  -1.373  0.00  0.00    -0.078 A 
ATOM      5  C3  OXE d   1      -1.396  -1.391  -2.405  0.00  0.00     0.003 A 
ATOM      6  C4  OXE d   1      -0.407  -1.920  -3.244  0.00  0.00    -0.002 A 
ATOM      7  C5  OXE d   1       0.921  -1.495  -3.131  0.00  0.00    -0.002 A 
ATOM      8  C6  OXE d   1       1.251  -0.537  -2.180  0.00  0.00     0.003 A 
ENDROOT
TORSDOF 0
ENDMDL
