MODEL 1
REMARK minimizedAffinity -3.55363774
REMARK minimizedRMSD -1
REMARK  0 active torsions:
REMARK  status: ('A' for Active; 'I' for Inactive)
ROOT
ATOM      1  C2' OXE d   1       1.575  -1.233  -3.010  0.00  0.00     0.078 C 
ATOM      2  C1' OXE d   1      -1.049  -2.229  -3.048  0.00  0.00     0.078 C 
ATOM      3  C1  OXE d   1      -0.733  -1.115  -2.081  0.00  0.00    -0.078 A 
ATOM      4  C2  OXE d   1       0.565  -0.666  -2.037  0.00  0.00    -0.078 A 
ATOM      5  C3  OXE d   1       0.898   0.397  -1.202  0.00  0.00     0.003 A 
ATOM      6  C4  OXE d   1      -0.041   0.910  -0.298  0.00  0.00    -0.002 A 
ATOM      7  C5  OXE d   1      -1.358   0.439  -0.299  0.00  0.00    -0.002 A 
ATOM      8  C6  OXE d   1      -1.731  -0.541  -1.212  0.00  0.00     0.003 A 
ENDROOT
TORSDOF 0
ENDMDL
