MODEL 1
REMARK minimizedAffinity -4.10921812
REMARK minimizedRMSD -1
REMARK  0 active torsions:
REMARK  status: ('A' for Active; 'I' for Inactive)
ROOT
ATOM      1  C2' OXE d   1      -1.203  -0.430   0.105  0.00  0.00     0.078 C 
ATOM      2  C1' OXE d   1       1.067   1.219   0.007  0.00  0.00     0.078 C 
ATOM      3  C1  OXE d   1       0.753   0.381  -1.207  0.00  0.00    -0.078 A 
ATOM      4  C2  OXE d   1      -0.333  -0.458  -1.133  0.00  0.00    -0.078 A 
ATOM      5  C3  OXE d   1      -0.698  -1.212  -2.245  0.00  0.00     0.003 A 
ATOM      6  C4  OXE d   1       0.118  -1.239  -3.382  0.00  0.00    -0.002 A 
ATOM      7  C5  OXE d   1       1.250  -0.422  -3.463  0.00  0.00    -0.002 A 
ATOM      8  C6  OXE d   1       1.558   0.424  -2.403  0.00  0.00     0.003 A 
ENDROOT
TORSDOF 0
ENDMDL
