MODEL 1
REMARK minimizedAffinity -5.09917164
REMARK minimizedRMSD -1
REMARK  0 active torsions:
REMARK  status: ('A' for Active; 'I' for Inactive)
ROOT
ATOM      1  C2' OXE d   1      -2.948   0.341   1.225  0.00  0.00     0.078 C 
ATOM      2  C1' OXE d   1      -1.124  -0.106  -0.862  0.00  0.00     0.078 C 
ATOM      3  C1  OXE d   1      -0.583  -0.051   0.545  0.00  0.00    -0.078 A 
ATOM      4  C2  OXE d   1      -1.476   0.215   1.555  0.00  0.00    -0.078 A 
ATOM      5  C3  OXE d   1      -1.039   0.222   2.877  0.00  0.00     0.003 A 
ATOM      6  C4  OXE d   1       0.325   0.114   3.173  0.00  0.00    -0.002 A 
ATOM      7  C5  OXE d   1       1.256  -0.117   2.155  0.00  0.00    -0.002 A 
ATOM      8  C6  OXE d   1       0.814  -0.245   0.843  0.00  0.00     0.003 A 
ENDROOT
TORSDOF 0
ENDMDL
