MODEL 1
REMARK minimizedAffinity -5.74480629
REMARK minimizedRMSD -1
REMARK  0 active torsions:
REMARK  status: ('A' for Active; 'I' for Inactive)
ROOT
ATOM      1  C2' OXE d   1      -1.580   0.188   1.273  0.00  0.00     0.078 C 
ATOM      2  C1' OXE d   1       0.109   0.048  -0.965  0.00  0.00     0.078 C 
ATOM      3  C1  OXE d   1       0.658  -0.418   0.361  0.00  0.00    -0.078 A 
ATOM      4  C2  OXE d   1      -0.160  -0.302   1.459  0.00  0.00    -0.078 A 
ATOM      5  C3  OXE d   1       0.277  -0.768   2.696  0.00  0.00     0.003 A 
ATOM      6  C4  OXE d   1       1.595  -1.210   2.862  0.00  0.00    -0.002 A 
ATOM      7  C5  OXE d   1       2.457  -1.299   1.764  0.00  0.00    -0.002 A 
ATOM      8  C6  OXE d   1       1.992  -0.947   0.501  0.00  0.00     0.003 A 
ENDROOT
TORSDOF 0
ENDMDL
