MODEL 1
REMARK minimizedAffinity -6.12359858
REMARK minimizedRMSD -1
REMARK  0 active torsions:
REMARK  status: ('A' for Active; 'I' for Inactive)
ROOT
ATOM      1  C2' OXE d   1      -1.098   0.000   1.125  0.00  0.00     0.078 C 
ATOM      2  C1' OXE d   1       0.853   0.007  -0.894  0.00  0.00     0.078 C 
ATOM      3  C1  OXE d   1       1.241  -0.539   0.457  0.00  0.00    -0.078 A 
ATOM      4  C2  OXE d   1       0.294  -0.496   1.452  0.00  0.00    -0.078 A 
ATOM      5  C3  OXE d   1       0.582  -1.037   2.702  0.00  0.00     0.003 A 
ATOM      6  C4  OXE d   1       1.875  -1.484   3.000  0.00  0.00    -0.002 A 
ATOM      7  C5  OXE d   1       2.866  -1.500   2.012  0.00  0.00    -0.002 A 
ATOM      8  C6  OXE d   1       2.554  -1.072   0.727  0.00  0.00     0.003 A 
ENDROOT
TORSDOF 0
ENDMDL
