MODEL 1
REMARK minimizedAffinity -5.84330654
REMARK minimizedRMSD -1
REMARK  0 active torsions:
REMARK  status: ('A' for Active; 'I' for Inactive)
ROOT
ATOM      1  C2' OXE d   1      -0.668  -0.051  -0.681  0.00  0.00     0.078 C 
ATOM      2  C1' OXE d   1       1.787  -1.286  -1.253  0.00  0.00     0.078 C 
ATOM      3  C1  OXE d   1       1.353  -1.218   0.190  0.00  0.00    -0.078 A 
ATOM      4  C2  OXE d   1       0.173  -0.571   0.465  0.00  0.00    -0.078 A 
ATOM      5  C3  OXE d   1      -0.301  -0.527   1.774  0.00  0.00     0.003 A 
ATOM      6  C4  OXE d   1       0.487  -1.002   2.829  0.00  0.00    -0.002 A 
ATOM      7  C5  OXE d   1       1.711  -1.629   2.575  0.00  0.00    -0.002 A 
ATOM      8  C6  OXE d   1       2.138  -1.783   1.260  0.00  0.00     0.003 A 
ENDROOT
TORSDOF 0
ENDMDL
