MODEL 1
REMARK minimizedAffinity -6.89136791
REMARK minimizedRMSD -1
REMARK  0 active torsions:
REMARK  status: ('A' for Active; 'I' for Inactive)
ROOT
ATOM      1  C2' OXE d   1      -1.387   0.087   1.156  0.00  0.00     0.078 C 
ATOM      2  C1' OXE d   1       0.172  -0.293  -1.148  0.00  0.00     0.078 C 
ATOM      3  C1  OXE d   1       0.722  -0.793   0.165  0.00  0.00    -0.078 A 
ATOM      4  C2  OXE d   1      -0.026  -0.562   1.293  0.00  0.00    -0.078 A 
ATOM      5  C3  OXE d   1       0.409  -1.051   2.522  0.00  0.00     0.003 A 
ATOM      6  C4  OXE d   1       1.673  -1.640   2.642  0.00  0.00    -0.002 A 
ATOM      7  C5  OXE d   1       2.469  -1.850   1.511  0.00  0.00    -0.002 A 
ATOM      8  C6  OXE d   1       1.991  -1.472   0.261  0.00  0.00     0.003 A 
ENDROOT
TORSDOF 0
ENDMDL
