MODEL 1
REMARK minimizedAffinity -5.13448429
REMARK minimizedRMSD -1
REMARK  0 active torsions:
REMARK  status: ('A' for Active; 'I' for Inactive)
ROOT
ATOM      1  C2' OXE d   1       3.027  -2.035   0.027  0.00  0.00     0.078 C 
ATOM      2  C1' OXE d   1       2.475  -1.997   2.779  0.00  0.00     0.078 C 
ATOM      3  C1  OXE d   1       1.486  -1.333   1.854  0.00  0.00    -0.078 A 
ATOM      4  C2  OXE d   1       1.787  -1.315   0.514  0.00  0.00    -0.078 A 
ATOM      5  C3  OXE d   1       0.883  -0.763  -0.389  0.00  0.00     0.003 A 
ATOM      6  C4  OXE d   1      -0.256  -0.091   0.071  0.00  0.00    -0.002 A 
ATOM      7  C5  OXE d   1      -0.562  -0.063   1.435  0.00  0.00    -0.002 A 
ATOM      8  C6  OXE d   1       0.275  -0.714   2.335  0.00  0.00     0.003 A 
ENDROOT
TORSDOF 0
ENDMDL
