MODEL 1
REMARK minimizedAffinity -5.38115835
REMARK minimizedRMSD -1
REMARK  0 active torsions:
REMARK  status: ('A' for Active; 'I' for Inactive)
ROOT
ATOM      1  C2' OXE d   1      -0.085  -0.312  -1.099  0.00  0.00     0.078 C 
ATOM      2  C1' OXE d   1      -1.189  -0.186   1.479  0.00  0.00     0.078 C 
ATOM      3  C1  OXE d   1       0.023  -1.061   1.274  0.00  0.00    -0.078 A 
ATOM      4  C2  OXE d   1       0.528  -1.153  -0.000  0.00  0.00    -0.078 A 
ATOM      5  C3  OXE d   1       1.678  -1.902  -0.233  0.00  0.00     0.003 A 
ATOM      6  C4  OXE d   1       2.232  -2.685   0.787  0.00  0.00    -0.002 A 
ATOM      7  C5  OXE d   1       1.709  -2.637   2.083  0.00  0.00    -0.002 A 
ATOM      8  C6  OXE d   1       0.633  -1.799   2.353  0.00  0.00     0.003 A 
ENDROOT
TORSDOF 0
ENDMDL
