MODEL 1
REMARK minimizedAffinity -4.80042315
REMARK minimizedRMSD -1
REMARK  0 active torsions:
REMARK  status: ('A' for Active; 'I' for Inactive)
ROOT
ATOM      1  C2' OXE d   1      -1.930  -0.507   1.144  0.00  0.00     0.078 C 
ATOM      2  C1' OXE d   1       0.011   0.227  -0.746  0.00  0.00     0.078 C 
ATOM      3  C1  OXE d   1       0.488  -0.299   0.584  0.00  0.00    -0.078 A 
ATOM      4  C2  OXE d   1      -0.468  -0.612   1.520  0.00  0.00    -0.078 A 
ATOM      5  C3  OXE d   1      -0.084  -1.153   2.744  0.00  0.00     0.003 A 
ATOM      6  C4  OXE d   1       1.270  -1.237   3.088  0.00  0.00    -0.002 A 
ATOM      7  C5  OXE d   1       2.261  -0.887   2.164  0.00  0.00    -0.002 A 
ATOM      8  C6  OXE d   1       1.888  -0.457   0.895  0.00  0.00     0.003 A 
ENDROOT
TORSDOF 0
ENDMDL
