MODEL 1
REMARK minimizedAffinity -3.82374978
REMARK minimizedRMSD -1
REMARK  0 active torsions:
REMARK  status: ('A' for Active; 'I' for Inactive)
ROOT
ATOM      1  C2' OXE d   1       0.023   0.161  -1.070  0.00  0.00     0.078 C 
ATOM      2  C1' OXE d   1       2.287  -1.496  -1.163  0.00  0.00     0.078 C 
ATOM      3  C1  OXE d   1       1.621  -1.290   0.174  0.00  0.00    -0.078 A 
ATOM      4  C2  OXE d   1       0.542  -0.440   0.219  0.00  0.00    -0.078 A 
ATOM      5  C3  OXE d   1      -0.143  -0.257   1.417  0.00  0.00     0.003 A 
ATOM      6  C4  OXE d   1       0.349  -0.809   2.606  0.00  0.00    -0.002 A 
ATOM      7  C5  OXE d   1       1.470  -1.646   2.590  0.00  0.00    -0.002 A 
ATOM      8  C6  OXE d   1       2.091  -1.930   1.378  0.00  0.00     0.003 A 
ENDROOT
TORSDOF 0
ENDMDL
