MODEL 1
REMARK minimizedAffinity -5.90504074
REMARK minimizedRMSD -1
REMARK  0 active torsions:
REMARK  status: ('A' for Active; 'I' for Inactive)
ROOT
ATOM      1  C2' OXE d   1      -2.684  -0.825   0.701  0.00  0.00     0.078 C 
ATOM      2  C1' OXE d   1      -0.949   0.379  -1.149  0.00  0.00     0.078 C 
ATOM      3  C1  OXE d   1      -0.378  -0.039   0.183  0.00  0.00    -0.078 A 
ATOM      4  C2  OXE d   1      -1.244  -0.584   1.100  0.00  0.00    -0.078 A 
ATOM      5  C3  OXE d   1      -0.758  -1.036   2.323  0.00  0.00     0.003 A 
ATOM      6  C4  OXE d   1       0.573  -0.801   2.688  0.00  0.00    -0.002 A 
ATOM      7  C5  OXE d   1       1.463  -0.210   1.784  0.00  0.00    -0.002 A 
ATOM      8  C6  OXE d   1       1.014   0.137   0.515  0.00  0.00     0.003 A 
ENDROOT
TORSDOF 0
ENDMDL
