MODEL 1
REMARK minimizedAffinity -5.30433464
REMARK minimizedRMSD -1
REMARK  0 active torsions:
REMARK  status: ('A' for Active; 'I' for Inactive)
ROOT
ATOM      1  C2' OXE d   1      -0.349   0.422  -0.596  0.00  0.00     0.078 C 
ATOM      2  C1' OXE d   1      -1.450   0.445   1.986  0.00  0.00     0.078 C 
ATOM      3  C1  OXE d   1      -0.179  -0.339   1.770  0.00  0.00    -0.078 A 
ATOM      4  C2  OXE d   1       0.327  -0.383   0.493  0.00  0.00    -0.078 A 
ATOM      5  C3  OXE d   1       1.526  -1.047   0.249  0.00  0.00     0.003 A 
ATOM      6  C4  OXE d   1       2.139  -1.798   1.260  0.00  0.00    -0.002 A 
ATOM      7  C5  OXE d   1       1.618  -1.799   2.558  0.00  0.00    -0.002 A 
ATOM      8  C6  OXE d   1       0.486  -1.042   2.839  0.00  0.00     0.003 A 
ENDROOT
TORSDOF 0
ENDMDL
