MODEL 1
REMARK minimizedAffinity 5.6423564
REMARK minimizedRMSD -1
REMARK  1 active torsions:
REMARK  status: ('A' for Active; 'I' for Inactive)
REMARK    1  A    between atoms: C3_4  and  O_7 
ROOT
ATOM      1  C   UNL d   1      -2.882   0.241   1.527  0.00  0.00    -0.033 A 
ATOM      2  C1  UNL d   1      -2.674   0.169   0.148  0.00  0.00     0.039 A 
ATOM      3  C2  UNL d   1      -1.408  -0.138  -0.354  0.00  0.00    -0.080 A 
ATOM      4  C3  UNL d   1      -0.360  -0.372   0.532  0.00  0.00     0.150 A 
ATOM      5  C4  UNL d   1      -0.561  -0.307   1.906  0.00  0.00    -0.007 A 
ATOM      6  C5  UNL d   1      -1.825   0.001   2.406  0.00  0.00     0.039 A 
ENDROOT
BRANCH   4   7
ATOM      7  O   UNL d   1       0.894  -0.671   0.089  0.00  0.00    -0.526 OA
ATOM      8  H5  UNL d   1       0.890  -0.653  -0.883  0.00  0.00     0.418 HD
ENDBRANCH   4   7
TORSDOF 1
ENDMDL
