MODEL 1
REMARK minimizedAffinity 5.52629089
REMARK minimizedRMSD -1
REMARK  1 active torsions:
REMARK  status: ('A' for Active; 'I' for Inactive)
REMARK    1  A    between atoms: C3_4  and  O_7 
ROOT
ATOM      1  C   UNL d   1      -0.648   5.612   0.364  0.00  0.00    -0.033 A 
ATOM      2  C1  UNL d   1       0.320   5.226   1.294  0.00  0.00     0.039 A 
ATOM      3  C2  UNL d   1       1.670   5.224   0.939  0.00  0.00    -0.080 A 
ATOM      4  C3  UNL d   1       2.039   5.610  -0.347  0.00  0.00     0.150 A 
ATOM      5  C4  UNL d   1       1.081   6.000  -1.277  0.00  0.00    -0.007 A 
ATOM      6  C5  UNL d   1      -0.267   6.000  -0.921  0.00  0.00     0.039 A 
ENDROOT
BRANCH   4   7
ATOM      7  O   UNL d   1       3.344   5.620  -0.741  0.00  0.00    -0.526 OA
ATOM      8  H5  UNL d   1       3.891   5.300  -0.004  0.00  0.00     0.418 HD
ENDBRANCH   4   7
TORSDOF 1
ENDMDL
