MODEL 1
REMARK minimizedAffinity 2.76208043
REMARK minimizedRMSD -1
REMARK  1 active torsions:
REMARK  status: ('A' for Active; 'I' for Inactive)
REMARK    1  A    between atoms: C3_4  and  O_7 
ROOT
ATOM      1  C   UNL d   1      -1.411   0.317  -0.188  0.00  0.00    -0.033 A 
ATOM      2  C1  UNL d   1      -2.001   0.305   1.078  0.00  0.00     0.039 A 
ATOM      3  C2  UNL d   1      -1.259  -0.089   2.193  0.00  0.00    -0.080 A 
ATOM      4  C3  UNL d   1       0.071  -0.467   2.030  0.00  0.00     0.150 A 
ATOM      5  C4  UNL d   1       0.667  -0.454   0.773  0.00  0.00    -0.007 A 
ATOM      6  C5  UNL d   1      -0.076  -0.061  -0.340  0.00  0.00     0.039 A 
ENDROOT
BRANCH   4   7
ATOM      7  O   UNL d   1       0.834  -0.863   3.088  0.00  0.00    -0.526 OA
ATOM      8  H5  UNL d   1       0.282  -0.850   3.887  0.00  0.00     0.418 HD
ENDBRANCH   4   7
TORSDOF 1
ENDMDL
