MODEL 1
REMARK minimizedAffinity 0.179960802
REMARK minimizedRMSD -1
REMARK  1 active torsions:
REMARK  status: ('A' for Active; 'I' for Inactive)
REMARK    1  A    between atoms: C3_4  and  O_7 
ROOT
ATOM      1  C   UNL d   1      -1.656   0.118   1.059  0.00  0.00    -0.033 A 
ATOM      2  C1  UNL d   1      -0.426  -0.482   0.782  0.00  0.00     0.039 A 
ATOM      3  C2  UNL d   1       0.274  -1.142   1.794  0.00  0.00    -0.080 A 
ATOM      4  C3  UNL d   1      -0.267  -1.196   3.076  0.00  0.00     0.150 A 
ATOM      5  C4  UNL d   1      -1.494  -0.604   3.357  0.00  0.00    -0.007 A 
ATOM      6  C5  UNL d   1      -2.190   0.056   2.346  0.00  0.00     0.039 A 
ENDROOT
BRANCH   4   7
ATOM      7  O   UNL d   1       0.381  -1.825   4.097  0.00  0.00    -0.526 OA
ATOM      8  H5  UNL d   1       1.229  -2.163   3.762  0.00  0.00     0.418 HD
ENDBRANCH   4   7
TORSDOF 1
ENDMDL
