MODEL 1
REMARK minimizedAffinity -1.75152063
REMARK minimizedRMSD -1
REMARK  1 active torsions:
REMARK  status: ('A' for Active; 'I' for Inactive)
REMARK    1  A    between atoms: C3_4  and  O_7 
ROOT
ATOM      1  C   UNL d   1      -2.139   0.022   0.048  0.00  0.00    -0.033 A 
ATOM      2  C1  UNL d   1      -0.854  -0.503  -0.101  0.00  0.00     0.039 A 
ATOM      3  C2  UNL d   1      -0.082  -0.796   1.025  0.00  0.00    -0.080 A 
ATOM      4  C3  UNL d   1      -0.607  -0.561   2.293  0.00  0.00     0.150 A 
ATOM      5  C4  UNL d   1      -1.888  -0.042   2.449  0.00  0.00    -0.007 A 
ATOM      6  C5  UNL d   1      -2.657   0.251   1.324  0.00  0.00     0.039 A 
ENDROOT
BRANCH   4   7
ATOM      7  O   UNL d   1       0.110  -0.827   3.421  0.00  0.00    -0.526 OA
ATOM      8  H5  UNL d   1       0.987  -1.154   3.159  0.00  0.00     0.418 HD
ENDBRANCH   4   7
TORSDOF 1
ENDMDL
