MODEL 1
REMARK minimizedAffinity 5.24027395
REMARK minimizedRMSD -1
REMARK  1 active torsions:
REMARK  status: ('A' for Active; 'I' for Inactive)
REMARK    1  A    between atoms: C3_4  and  O_7 
ROOT
ATOM      1  C   UNL d   1      -0.717  -0.731  -0.758  0.00  0.00    -0.033 A 
ATOM      2  C1  UNL d   1      -2.109  -0.801  -0.671  0.00  0.00     0.039 A 
ATOM      3  C2  UNL d   1      -2.750  -0.509   0.534  0.00  0.00    -0.080 A 
ATOM      4  C3  UNL d   1      -1.989  -0.147   1.643  0.00  0.00     0.150 A 
ATOM      5  C4  UNL d   1      -0.603  -0.071   1.562  0.00  0.00    -0.007 A 
ATOM      6  C5  UNL d   1       0.036  -0.365   0.358  0.00  0.00     0.039 A 
ENDROOT
BRANCH   4   7
ATOM      7  O   UNL d   1      -2.570   0.143   2.842  0.00  0.00    -0.526 OA
ATOM      8  H5  UNL d   1      -3.530   0.021   2.756  0.00  0.00     0.418 HD
ENDBRANCH   4   7
TORSDOF 1
ENDMDL
