MODEL 1
REMARK minimizedAffinity 7.42957687
REMARK minimizedRMSD -1
REMARK  2 active torsions:
REMARK  status: ('A' for Active; 'I' for Inactive)
REMARK    1  A    between atoms: C2'_3  and  C1'_4 
REMARK    2  A    between atoms: C1'_4  and  C1_5 
ROOT
ATOM      1  C1  I4B d   1       0.699   1.646   1.247  0.00  0.00    -0.075 A 
ATOM      2  C2  I4B d   1       0.593   1.306   2.573  0.00  0.00     0.003 A 
ATOM      3  C3  I4B d   1       0.955   0.007   3.006  0.00  0.00     0.002 A 
ATOM      4  C4  I4B d   1       1.366  -0.929   2.079  0.00  0.00    -0.004 A 
ATOM      5  C5  I4B d   1       1.495  -0.574   0.739  0.00  0.00     0.002 A 
ATOM      6  C6  I4B d   1       1.171   0.725   0.322  0.00  0.00     0.003 A 
ENDROOT
BRANCH   1   7
ATOM      7  C1' I4B d   1       0.277   3.016   0.819  0.00  0.00     0.060 C 
BRANCH   7   8
ATOM      8  C2' I4B d   1       0.538   3.142  -0.668  0.00  0.00    -0.013 C 
ATOM      9  C4' I4B d   1      -0.385   2.254  -1.460  0.00  0.00     0.013 C 
ATOM     10  C3' I4B d   1       0.363   4.582  -1.049  0.00  0.00     0.013 C 
ENDBRANCH   7   8
ENDBRANCH   1   7
TORSDOF 2
ENDMDL
