MODEL 1
REMARK minimizedAffinity -2.16847157
REMARK minimizedRMSD -1
REMARK  2 active torsions:
REMARK  status: ('A' for Active; 'I' for Inactive)
REMARK    1  A    between atoms: C2'_3  and  C1'_4 
REMARK    2  A    between atoms: C1'_4  and  C1_5 
ROOT
ATOM      1  C1  I4B d   1       0.178  -0.252  -0.756  0.00  0.00    -0.075 A 
ATOM      2  C2  I4B d   1       0.089   0.792  -1.642  0.00  0.00     0.003 A 
ATOM      3  C3  I4B d   1      -1.064   0.946  -2.449  0.00  0.00     0.002 A 
ATOM      4  C4  I4B d   1      -2.075   0.010  -2.375  0.00  0.00    -0.004 A 
ATOM      5  C5  I4B d   1      -1.993  -1.035  -1.459  0.00  0.00     0.002 A 
ATOM      6  C6  I4B d   1      -0.865  -1.161  -0.636  0.00  0.00     0.003 A 
ENDROOT
BRANCH   1   7
ATOM      7  C1' I4B d   1       1.424  -0.403   0.058  0.00  0.00     0.060 C 
BRANCH   7   8
ATOM      8  C2' I4B d   1       1.041  -0.308   1.521  0.00  0.00    -0.013 C 
ATOM      9  C4' I4B d   1       2.101  -0.914   2.402  0.00  0.00     0.013 C 
ATOM     10  C3' I4B d   1       0.826   1.140   1.849  0.00  0.00     0.013 C 
ENDBRANCH   7   8
ENDBRANCH   1   7
TORSDOF 2
ENDMDL
