MODEL 1
REMARK minimizedAffinity 4.52424335
REMARK minimizedRMSD -1
REMARK  2 active torsions:
REMARK  status: ('A' for Active; 'I' for Inactive)
REMARK    1  A    between atoms: C2'_3  and  C1'_4 
REMARK    2  A    between atoms: C1'_4  and  C1_5 
ROOT
ATOM      1  C1  I4B d   1       0.628   2.581   0.020  0.00  0.00    -0.075 A 
ATOM      2  C2  I4B d   1       0.426   1.481  -0.775  0.00  0.00     0.003 A 
ATOM      3  C3  I4B d   1       0.389   0.186  -0.203  0.00  0.00     0.002 A 
ATOM      4  C4  I4B d   1       0.607   0.034   1.151  0.00  0.00    -0.004 A 
ATOM      5  C5  I4B d   1       0.789   1.153   1.959  0.00  0.00     0.002 A 
ATOM      6  C6  I4B d   1       0.787   2.436   1.392  0.00  0.00     0.003 A 
ENDROOT
BRANCH   1   7
ATOM      7  C1' I4B d   1       0.695   3.931  -0.621  0.00  0.00     0.060 C 
BRANCH   7   8
ATOM      8  C2' I4B d   1       0.940   4.954   0.469  0.00  0.00    -0.013 C 
ATOM      9  C4' I4B d   1       2.309   5.568   0.343  0.00  0.00     0.013 C 
ATOM     10  C3' I4B d   1      -0.132   5.999   0.372  0.00  0.00     0.013 C 
ENDBRANCH   7   8
ENDBRANCH   1   7
TORSDOF 2
ENDMDL
