MODEL 1
REMARK minimizedAffinity 0.80305624
REMARK minimizedRMSD -1
REMARK  2 active torsions:
REMARK  status: ('A' for Active; 'I' for Inactive)
REMARK    1  A    between atoms: C2'_3  and  C1'_4 
REMARK    2  A    between atoms: C1'_4  and  C1_5 
ROOT
ATOM      1  C1  I4B d   1       0.376   2.457  -0.053  0.00  0.00    -0.075 A 
ATOM      2  C2  I4B d   1       0.440   1.122  -0.364  0.00  0.00     0.003 A 
ATOM      3  C3  I4B d   1       0.502   0.152   0.666  0.00  0.00     0.002 A 
ATOM      4  C4  I4B d   1       0.549   0.562   1.983  0.00  0.00    -0.004 A 
ATOM      5  C5  I4B d   1       0.461   1.915   2.298  0.00  0.00     0.002 A 
ATOM      6  C6  I4B d   1       0.362   2.868   1.274  0.00  0.00     0.003 A 
ENDROOT
BRANCH   1   7
ATOM      7  C1' I4B d   1       0.344   3.455  -1.166  0.00  0.00     0.060 C 
BRANCH   7   8
ATOM      8  C2' I4B d   1       0.567   4.829  -0.567  0.00  0.00    -0.013 C 
ATOM      9  C4' I4B d   1       1.889   4.903   0.151  0.00  0.00     0.013 C 
ATOM     10  C3' I4B d   1       0.498   5.835  -1.677  0.00  0.00     0.013 C 
ENDBRANCH   7   8
ENDBRANCH   1   7
TORSDOF 2
ENDMDL
