MODEL 1
REMARK minimizedAffinity -2.63564372
REMARK minimizedRMSD -1
REMARK  2 active torsions:
REMARK  status: ('A' for Active; 'I' for Inactive)
REMARK    1  A    between atoms: C2'_3  and  C1'_4 
REMARK    2  A    between atoms: C1'_4  and  C1_5 
ROOT
ATOM      1  C1  I4B d   1       0.430   2.682  -0.412  0.00  0.00    -0.075 A 
ATOM      2  C2  I4B d   1       0.017   3.193  -1.617  0.00  0.00     0.003 A 
ATOM      3  C3  I4B d   1       0.282   4.545  -1.946  0.00  0.00     0.002 A 
ATOM      4  C4  I4B d   1       0.914   5.357  -1.027  0.00  0.00    -0.004 A 
ATOM      5  C5  I4B d   1       1.352   4.831   0.185  0.00  0.00     0.002 A 
ATOM      6  C6  I4B d   1       1.120   3.482   0.490  0.00  0.00     0.003 A 
ENDROOT
BRANCH   1   7
ATOM      7  C1' I4B d   1       0.104   1.259  -0.083  0.00  0.00     0.060 C 
BRANCH   7   8
ATOM      8  C2' I4B d   1       0.940   0.854   1.114  0.00  0.00    -0.013 C 
ATOM      9  C4' I4B d   1       0.229   1.162   2.405  0.00  0.00     0.013 C 
ATOM     10  C3' I4B d   1       1.238  -0.611   0.996  0.00  0.00     0.013 C 
ENDBRANCH   7   8
ENDBRANCH   1   7
TORSDOF 2
ENDMDL
