MODEL 1
REMARK minimizedAffinity 11.6112528
REMARK minimizedRMSD -1
REMARK  2 active torsions:
REMARK  status: ('A' for Active; 'I' for Inactive)
REMARK    1  A    between atoms: C2'_3  and  C1'_4 
REMARK    2  A    between atoms: C1'_4  and  C1_5 
ROOT
ATOM      1  C1  I4B d   1       3.478  -4.456  -1.774  0.00  0.00    -0.075 A 
ATOM      2  C2  I4B d   1       4.384  -5.423  -1.416  0.00  0.00     0.003 A 
ATOM      3  C3  I4B d   1       5.380  -5.841  -2.332  0.00  0.00     0.002 A 
ATOM      4  C4  I4B d   1       5.401  -5.307  -3.604  0.00  0.00    -0.004 A 
ATOM      5  C5  I4B d   1       4.495  -4.310  -3.958  0.00  0.00     0.002 A 
ATOM      6  C6  I4B d   1       3.536  -3.873  -3.033  0.00  0.00     0.003 A 
ENDROOT
BRANCH   1   7
ATOM      7  C1' I4B d   1       2.420  -4.061  -0.793  0.00  0.00     0.060 C 
BRANCH   7   8
ATOM      8  C2' I4B d   1       1.440  -5.211  -0.676  0.00  0.00    -0.013 C 
ATOM      9  C4' I4B d   1       1.668  -5.994   0.590  0.00  0.00     0.013 C 
ATOM     10  C3' I4B d   1       0.053  -4.643  -0.719  0.00  0.00     0.013 C 
ENDBRANCH   7   8
ENDBRANCH   1   7
TORSDOF 2
ENDMDL
