MODEL 1
REMARK minimizedAffinity -3.67249203
REMARK minimizedRMSD -1
REMARK  0 active torsions:
REMARK  status: ('A' for Active; 'I' for Inactive)
ROOT
ATOM      1  C   UNL d   1      -1.341   0.034  -0.311  0.00  0.00     0.078 C 
ATOM      2  C1  UNL d   1       0.099  -0.041   0.100  0.00  0.00    -0.077 A 
ATOM      3  C2  UNL d   1       0.734  -1.276   0.282  0.00  0.00    -0.001 A 
ATOM      4  C3  UNL d   1       2.072  -1.331   0.674  0.00  0.00     0.003 A 
ATOM      5  C4  UNL d   1       2.787  -0.155   0.889  0.00  0.00    -0.005 A 
ATOM      6  C5  UNL d   1       2.164   1.079   0.713  0.00  0.00     0.003 A 
ATOM      7  C6  UNL d   1       0.826   1.136   0.321  0.00  0.00    -0.001 A 
ENDROOT
TORSDOF 0
ENDMDL
