MODEL 1
REMARK minimizedAffinity -4.03751802
REMARK minimizedRMSD -1
REMARK  0 active torsions:
REMARK  status: ('A' for Active; 'I' for Inactive)
ROOT
ATOM      1  C   UNL d   1       0.775   0.519   0.042  0.00  0.00     0.078 C 
ATOM      2  C1  UNL d   1      -0.539   0.440  -0.677  0.00  0.00    -0.077 A 
ATOM      3  C2  UNL d   1      -1.750   0.523   0.022  0.00  0.00    -0.001 A 
ATOM      4  C3  UNL d   1      -2.965   0.439  -0.659  0.00  0.00     0.003 A 
ATOM      5  C4  UNL d   1      -2.982   0.270  -2.043  0.00  0.00    -0.005 A 
ATOM      6  C5  UNL d   1      -1.782   0.184  -2.746  0.00  0.00     0.003 A 
ATOM      7  C6  UNL d   1      -0.566   0.268  -2.067  0.00  0.00    -0.001 A 
ENDROOT
TORSDOF 0
ENDMDL
