MODEL 1
REMARK minimizedAffinity -3.914078
REMARK minimizedRMSD -1
REMARK  0 active torsions:
REMARK  status: ('A' for Active; 'I' for Inactive)
ROOT
ATOM      1  C   UNL d   1      -1.158   0.075  -1.120  0.00  0.00     0.078 C 
ATOM      2  C1  UNL d   1       0.137   0.026  -0.365  0.00  0.00    -0.077 A 
ATOM      3  C2  UNL d   1       0.364   0.865   0.733  0.00  0.00    -0.001 A 
ATOM      4  C3  UNL d   1       1.578   0.815   1.420  0.00  0.00     0.003 A 
ATOM      5  C4  UNL d   1       2.574  -0.072   1.016  0.00  0.00    -0.005 A 
ATOM      6  C5  UNL d   1       2.358  -0.909  -0.077  0.00  0.00     0.003 A 
ATOM      7  C6  UNL d   1       1.145  -0.860  -0.765  0.00  0.00    -0.001 A 
ENDROOT
TORSDOF 0
ENDMDL
