MODEL 1
REMARK minimizedAffinity -5.53769779
REMARK minimizedRMSD -1
REMARK  0 active torsions:
REMARK  status: ('A' for Active; 'I' for Inactive)
ROOT
ATOM      1  C   UNL d   1       1.576  -3.008   1.921  0.00  0.00     0.078 C 
ATOM      2  C1  UNL d   1       1.356  -1.625   1.385  0.00  0.00    -0.077 A 
ATOM      3  C2  UNL d   1       2.407  -0.703   1.315  0.00  0.00    -0.001 A 
ATOM      4  C3  UNL d   1       2.185   0.584   0.823  0.00  0.00     0.003 A 
ATOM      5  C4  UNL d   1       0.913   0.961   0.397  0.00  0.00    -0.005 A 
ATOM      6  C5  UNL d   1      -0.140   0.050   0.464  0.00  0.00     0.003 A 
ATOM      7  C6  UNL d   1       0.080  -1.237   0.956  0.00  0.00    -0.001 A 
ENDROOT
TORSDOF 0
ENDMDL
