MODEL 1
REMARK minimizedAffinity -4.61568785
REMARK minimizedRMSD -1
REMARK  0 active torsions:
REMARK  status: ('A' for Active; 'I' for Inactive)
ROOT
ATOM      1  C   UNL d   1       1.110   2.261  -0.629  0.00  0.00     0.078 C 
ATOM      2  C1  UNL d   1       1.449   0.960   0.036  0.00  0.00    -0.077 A 
ATOM      3  C2  UNL d   1       2.740   0.711   0.518  0.00  0.00    -0.001 A 
ATOM      4  C3  UNL d   1       3.044  -0.508   1.125  0.00  0.00     0.003 A 
ATOM      5  C4  UNL d   1       2.062  -1.489   1.255  0.00  0.00    -0.005 A 
ATOM      6  C5  UNL d   1       0.775  -1.251   0.777  0.00  0.00     0.003 A 
ATOM      7  C6  UNL d   1       0.470  -0.033   0.169  0.00  0.00    -0.001 A 
ENDROOT
TORSDOF 0
ENDMDL
