MODEL 1
REMARK minimizedAffinity -0.451997638
REMARK minimizedRMSD -1
REMARK  0 active torsions:
REMARK  status: ('A' for Active; 'I' for Inactive)
ROOT
ATOM      1  C   UNL d   1      -0.010   3.972   0.372  0.00  0.00     0.078 C 
ATOM      2  C1  UNL d   1       0.624   2.663   0.738  0.00  0.00    -0.077 A 
ATOM      3  C2  UNL d   1       0.022   1.448   0.389  0.00  0.00    -0.001 A 
ATOM      4  C3  UNL d   1       0.619   0.237   0.746  0.00  0.00     0.003 A 
ATOM      5  C4  UNL d   1       1.819   0.230   1.454  0.00  0.00    -0.005 A 
ATOM      6  C5  UNL d   1       2.424   1.434   1.807  0.00  0.00     0.003 A 
ATOM      7  C6  UNL d   1       1.829   2.646   1.452  0.00  0.00    -0.001 A 
ENDROOT
TORSDOF 0
ENDMDL
