MODEL 1
REMARK minimizedAffinity -5.51482821
REMARK minimizedRMSD -1
REMARK  0 active torsions:
REMARK  status: ('A' for Active; 'I' for Inactive)
ROOT
ATOM      1  C   UNL d   1      -1.441   0.037  -0.030  0.00  0.00     0.078 C 
ATOM      2  C1  UNL d   1       0.006   0.088   0.358  0.00  0.00    -0.077 A 
ATOM      3  C2  UNL d   1       0.653   1.312   0.573  0.00  0.00    -0.001 A 
ATOM      4  C3  UNL d   1       2.003   1.345   0.925  0.00  0.00     0.003 A 
ATOM      5  C4  UNL d   1       2.719   0.157   1.064  0.00  0.00    -0.005 A 
ATOM      6  C5  UNL d   1       2.084  -1.065   0.851  0.00  0.00     0.003 A 
ATOM      7  C6  UNL d   1       0.734  -1.100   0.499  0.00  0.00    -0.001 A 
ENDROOT
TORSDOF 0
ENDMDL
