MODEL 1
REMARK minimizedAffinity 1.31215584
REMARK minimizedRMSD -1
REMARK  0 active torsions:
REMARK  status: ('A' for Active; 'I' for Inactive)
ROOT
ATOM      1  C   UNL d   1      -3.697   5.893   1.361  0.00  0.00    -0.002 A 
ATOM      2  C1  UNL d   1      -5.011   5.845   1.805  0.00  0.00     0.010 A 
ATOM      3  C2  UNL d   1      -5.299   5.847   3.172  0.00  0.00     0.041 A 
ATOM      4  C3  UNL d   1      -4.235   5.901   4.093  0.00  0.00    -0.075 A 
ATOM      5  S   UNL d   1      -4.348   5.916   5.813  0.00  0.00     0.015 SA
ATOM      6  C4  UNL d   1      -2.656   5.986   5.999  0.00  0.00     0.022 A 
ATOM      7  C5  UNL d   1      -2.004   5.999   4.789  0.00  0.00     0.026 A 
ATOM      8  C6  UNL d   1      -2.903   5.951   3.670  0.00  0.00    -0.082 A 
ATOM      9  C7  UNL d   1      -2.644   5.946   2.278  0.00  0.00     0.045 A 
ENDROOT
TORSDOF 0
ENDMDL
