MODEL 1
REMARK minimizedAffinity 1.9163264
REMARK minimizedRMSD -1
REMARK  0 active torsions:
REMARK  status: ('A' for Active; 'I' for Inactive)
ROOT
ATOM      1  C   UNL d   1      -3.007   5.999   3.788  0.00  0.00    -0.002 A 
ATOM      2  C1  UNL d   1      -3.519   5.665   5.033  0.00  0.00     0.010 A 
ATOM      3  C2  UNL d   1      -3.759   4.331   5.368  0.00  0.00     0.041 A 
ATOM      4  C3  UNL d   1      -3.471   3.328   4.421  0.00  0.00    -0.075 A 
ATOM      5  S   UNL d   1      -3.684   1.628   4.610  0.00  0.00     0.015 SA
ATOM      6  C4  UNL d   1      -3.099   1.305   3.042  0.00  0.00     0.022 A 
ATOM      7  C5  UNL d   1      -2.745   2.455   2.376  0.00  0.00     0.026 A 
ATOM      8  C6  UNL d   1      -2.954   3.640   3.160  0.00  0.00    -0.082 A 
ATOM      9  C7  UNL d   1      -2.722   5.002   2.851  0.00  0.00     0.045 A 
ENDROOT
TORSDOF 0
ENDMDL
