MODEL 1
REMARK minimizedAffinity 1.35101306
REMARK minimizedRMSD -1
REMARK  0 active torsions:
REMARK  status: ('A' for Active; 'I' for Inactive)
ROOT
ATOM      1  C   UNL d   1      -4.079   5.976   1.413  0.00  0.00    -0.002 A 
ATOM      2  C1  UNL d   1      -5.372   5.979   1.915  0.00  0.00     0.010 A 
ATOM      3  C2  UNL d   1      -5.600   5.985   3.293  0.00  0.00     0.041 A 
ATOM      4  C3  UNL d   1      -4.494   5.990   4.166  0.00  0.00    -0.075 A 
ATOM      5  S   UNL d   1      -4.531   5.998   5.889  0.00  0.00     0.015 SA
ATOM      6  C4  UNL d   1      -2.830   5.999   6.000  0.00  0.00     0.022 A 
ATOM      7  C5  UNL d   1      -2.233   5.992   4.762  0.00  0.00     0.026 A 
ATOM      8  C6  UNL d   1      -3.182   5.987   3.684  0.00  0.00    -0.082 A 
ATOM      9  C7  UNL d   1      -2.984   5.980   2.282  0.00  0.00     0.045 A 
ENDROOT
TORSDOF 0
ENDMDL
