MODEL 1
REMARK minimizedAffinity -1.58840454
REMARK minimizedRMSD -1
REMARK  0 active torsions:
REMARK  status: ('A' for Active; 'I' for Inactive)
ROOT
ATOM      1  C   UNL d   1      -4.261   5.850   1.126  0.00  0.00    -0.002 A 
ATOM      2  C1  UNL d   1      -5.534   5.589   1.615  0.00  0.00     0.010 A 
ATOM      3  C2  UNL d   1      -5.756   5.470   2.988  0.00  0.00     0.041 A 
ATOM      4  C3  UNL d   1      -4.669   5.621   3.871  0.00  0.00    -0.075 A 
ATOM      5  S   UNL d   1      -4.704   5.518   5.591  0.00  0.00     0.015 SA
ATOM      6  C4  UNL d   1      -3.031   5.819   5.718  0.00  0.00     0.022 A 
ATOM      7  C5  UNL d   1      -2.444   5.996   4.487  0.00  0.00     0.026 A 
ATOM      8  C6  UNL d   1      -3.378   5.885   3.402  0.00  0.00    -0.082 A 
ATOM      9  C7  UNL d   1      -3.185   5.999   2.005  0.00  0.00     0.045 A 
ENDROOT
TORSDOF 0
ENDMDL
