MODEL 1
REMARK minimizedAffinity 1.24833906
REMARK minimizedRMSD -1
REMARK  0 active torsions:
REMARK  status: ('A' for Active; 'I' for Inactive)
ROOT
ATOM      1  C   UNL d   1      -4.772   5.653   1.500  0.00  0.00    -0.002 A 
ATOM      2  C1  UNL d   1      -5.964   5.540   2.202  0.00  0.00     0.010 A 
ATOM      3  C2  UNL d   1      -5.973   5.578   3.598  0.00  0.00     0.041 A 
ATOM      4  C3  UNL d   1      -4.752   5.735   4.283  0.00  0.00    -0.075 A 
ATOM      5  S   UNL d   1      -4.521   5.810   5.990  0.00  0.00     0.015 SA
ATOM      6  C4  UNL d   1      -2.834   5.994   5.828  0.00  0.00     0.022 A 
ATOM      7  C5  UNL d   1      -2.440   6.000   4.511  0.00  0.00     0.026 A 
ATOM      8  C6  UNL d   1      -3.539   5.851   3.599  0.00  0.00    -0.082 A 
ATOM      9  C7  UNL d   1      -3.563   5.808   2.184  0.00  0.00     0.045 A 
ENDROOT
TORSDOF 0
ENDMDL
