MODEL 1
REMARK minimizedAffinity -1.26595724
REMARK minimizedRMSD -1
REMARK  0 active torsions:
REMARK  status: ('A' for Active; 'I' for Inactive)
ROOT
ATOM      1  C   UNL d   1      -4.323   5.622   1.346  0.00  0.00    -0.002 A 
ATOM      2  C1  UNL d   1      -3.043   6.000   1.726  0.00  0.00     0.010 A 
ATOM      3  C2  UNL d   1      -2.662   5.970   3.069  0.00  0.00     0.041 A 
ATOM      4  C3  UNL d   1      -3.599   5.548   4.033  0.00  0.00    -0.075 A 
ATOM      5  S   UNL d   1      -3.356   5.430   5.736  0.00  0.00     0.015 SA
ATOM      6  C4  UNL d   1      -4.946   4.875   6.000  0.00  0.00     0.022 A 
ATOM      7  C5  UNL d   1      -5.658   4.777   4.828  0.00  0.00     0.026 A 
ATOM      8  C6  UNL d   1      -4.894   5.163   3.675  0.00  0.00    -0.082 A 
ATOM      9  C7  UNL d   1      -5.249   5.205   2.306  0.00  0.00     0.045 A 
ENDROOT
TORSDOF 0
ENDMDL
