MODEL 1
REMARK minimizedAffinity 4.53485966
REMARK minimizedRMSD -1
REMARK  0 active torsions:
REMARK  status: ('A' for Active; 'I' for Inactive)
ROOT
ATOM      1  C   UNL d   1       1.429   0.803  -3.382  0.00  0.00    -0.002 A 
ATOM      2  C1  UNL d   1       1.611   1.590  -2.253  0.00  0.00     0.010 A 
ATOM      3  C2  UNL d   1       1.871   2.956  -2.375  0.00  0.00     0.041 A 
ATOM      4  C3  UNL d   1       1.944   3.524  -3.662  0.00  0.00    -0.075 A 
ATOM      5  S   UNL d   1       2.250   5.175  -4.053  0.00  0.00     0.015 SA
ATOM      6  C4  UNL d   1       2.145   4.875  -5.728  0.00  0.00     0.022 A 
ATOM      7  C5  UNL d   1       1.884   3.553  -5.999  0.00  0.00     0.026 A 
ATOM      8  C6  UNL d   1       1.763   2.753  -4.813  0.00  0.00    -0.082 A 
ATOM      9  C7  UNL d   1       1.502   1.370  -4.657  0.00  0.00     0.045 A 
ENDROOT
TORSDOF 0
ENDMDL
