MODEL 1
REMARK minimizedAffinity 3.18060088
REMARK minimizedRMSD -1
REMARK  0 active torsions:
REMARK  status: ('A' for Active; 'I' for Inactive)
ROOT
ATOM      1  C   UNL d   1      -3.442   5.972   5.219  0.00  0.00    -0.002 A 
ATOM      2  C1  UNL d   1      -2.280   5.956   4.461  0.00  0.00     0.010 A 
ATOM      3  C2  UNL d   1      -2.341   5.932   3.066  0.00  0.00     0.041 A 
ATOM      4  C3  UNL d   1      -3.603   5.926   2.440  0.00  0.00    -0.075 A 
ATOM      5  S   UNL d   1      -3.922   5.899   0.746  0.00  0.00     0.015 SA
ATOM      6  C4  UNL d   1      -5.609   5.909   0.988  0.00  0.00     0.022 A 
ATOM      7  C5  UNL d   1      -5.939   5.932   2.322  0.00  0.00     0.026 A 
ATOM      8  C6  UNL d   1      -4.788   5.943   3.181  0.00  0.00    -0.082 A 
ATOM      9  C7  UNL d   1      -4.692   5.966   4.594  0.00  0.00     0.045 A 
ENDROOT
TORSDOF 0
ENDMDL
