MODEL 1
REMARK minimizedAffinity 13.7985401
REMARK minimizedRMSD -1
REMARK  0 active torsions:
REMARK  status: ('A' for Active; 'I' for Inactive)
ROOT
ATOM      1  C   UNL d   1       5.998   2.890  -3.670  0.00  0.00    -0.002 A 
ATOM      2  C1  UNL d   1       5.661   1.545  -3.734  0.00  0.00     0.010 A 
ATOM      3  C2  UNL d   1       4.328   1.153  -3.863  0.00  0.00     0.041 A 
ATOM      4  C3  UNL d   1       3.329   2.144  -3.931  0.00  0.00    -0.075 A 
ATOM      5  S   UNL d   1       1.630   1.899  -4.091  0.00  0.00     0.015 SA
ATOM      6  C4  UNL d   1       1.312   3.573  -4.080  0.00  0.00     0.022 A 
ATOM      7  C5  UNL d   1       2.462   4.316  -3.957  0.00  0.00     0.026 A 
ATOM      8  C6  UNL d   1       3.644   3.505  -3.870  0.00  0.00    -0.082 A 
ATOM      9  C7  UNL d   1       5.005   3.870  -3.737  0.00  0.00     0.045 A 
ENDROOT
TORSDOF 0
ENDMDL
