MODEL 1
REMARK minimizedAffinity 0.658839822
REMARK minimizedRMSD -1
REMARK  0 active torsions:
REMARK  status: ('A' for Active; 'I' for Inactive)
ROOT
ATOM      1  C   UNL d   1       3.258   5.569  -1.697  0.00  0.00    -0.002 A 
ATOM      2  C1  UNL d   1       2.393   4.780  -0.953  0.00  0.00     0.010 A 
ATOM      3  C2  UNL d   1       2.720   4.403   0.351  0.00  0.00     0.041 A 
ATOM      4  C3  UNL d   1       3.942   4.839   0.901  0.00  0.00    -0.075 A 
ATOM      5  S   UNL d   1       4.551   4.502   2.478  0.00  0.00     0.015 SA
ATOM      6  C4  UNL d   1       5.974   5.399   2.201  0.00  0.00     0.022 A 
ATOM      7  C5  UNL d   1       6.000   5.949   0.941  0.00  0.00     0.026 A 
ATOM      8  C6  UNL d   1       4.829   5.635   0.171  0.00  0.00    -0.082 A 
ATOM      9  C7  UNL d   1       4.469   6.000  -1.149  0.00  0.00     0.045 A 
ENDROOT
TORSDOF 0
ENDMDL
