MODEL 1
REMARK minimizedAffinity 5.04872084
REMARK minimizedRMSD -1
REMARK  0 active torsions:
REMARK  status: ('A' for Active; 'I' for Inactive)
ROOT
ATOM      1  C   UNL d   1      -2.810   5.857   5.845  0.00  0.00    -0.002 A 
ATOM      2  C1  UNL d   1      -4.182   6.000   6.000  0.00  0.00     0.010 A 
ATOM      3  C2  UNL d   1      -5.026   6.000   4.888  0.00  0.00     0.041 A 
ATOM      4  C3  UNL d   1      -4.464   5.851   3.605  0.00  0.00    -0.075 A 
ATOM      5  S   UNL d   1      -5.303   5.820   2.099  0.00  0.00     0.015 SA
ATOM      6  C4  UNL d   1      -3.861   5.617   1.214  0.00  0.00     0.022 A 
ATOM      7  C5  UNL d   1      -2.756   5.571   2.032  0.00  0.00     0.026 A 
ATOM      8  C6  UNL d   1      -3.086   5.705   3.423  0.00  0.00    -0.082 A 
ATOM      9  C7  UNL d   1      -2.256   5.710   4.570  0.00  0.00     0.045 A 
ENDROOT
TORSDOF 0
ENDMDL
