MODEL 1
REMARK minimizedAffinity 3.9462986
REMARK minimizedRMSD -1
REMARK  0 active torsions:
REMARK  status: ('A' for Active; 'I' for Inactive)
ROOT
ATOM      1  C   UNL d   1      -1.409   5.997   4.926  0.00  0.00    -0.002 A 
ATOM      2  C1  UNL d   1      -2.390   5.997   5.908  0.00  0.00     0.010 A 
ATOM      3  C2  UNL d   1      -3.742   5.999   5.560  0.00  0.00     0.041 A 
ATOM      4  C3  UNL d   1      -4.095   5.999   4.196  0.00  0.00    -0.075 A 
ATOM      5  S   UNL d   1      -5.687   6.000   3.535  0.00  0.00     0.015 SA
ATOM      6  C4  UNL d   1      -5.103   6.000   1.934  0.00  0.00     0.022 A 
ATOM      7  C5  UNL d   1      -3.729   5.999   1.887  0.00  0.00     0.026 A 
ATOM      8  C6  UNL d   1      -3.125   5.998   3.190  0.00  0.00    -0.082 A 
ATOM      9  C7  UNL d   1      -1.763   5.997   3.574  0.00  0.00     0.045 A 
ENDROOT
TORSDOF 0
ENDMDL
