MODEL 1
REMARK minimizedAffinity -3.5839467
REMARK minimizedRMSD -1
REMARK  0 active torsions:
REMARK  status: ('A' for Active; 'I' for Inactive)
ROOT
ATOM      1  C1  BNZ d   1       0.296  -1.014  -0.010  0.00  0.00     0.000 A 
ATOM      2  C2  BNZ d   1       1.653  -1.118   0.146  0.00  0.00     0.000 A 
ATOM      3  C3  BNZ d   1       2.412  -0.014   0.420  0.00  0.00     0.000 A 
ATOM      4  C4  BNZ d   1       1.821   1.195   0.497  0.00  0.00     0.000 A 
ATOM      5  C5  BNZ d   1       0.455   1.317   0.332  0.00  0.00     0.000 A 
ATOM      6  C6  BNZ d   1      -0.311   0.199   0.095  0.00  0.00     0.000 A 
ENDROOT
TORSDOF 0
ENDMDL
