MODEL 1
REMARK minimizedAffinity -5.05990219
REMARK minimizedRMSD -1
REMARK  0 active torsions:
REMARK  status: ('A' for Active; 'I' for Inactive)
ROOT
ATOM      1  C1  BNZ d   1       1.015   0.702   0.721  0.00  0.00     0.000 A 
ATOM      2  C2  BNZ d   1       1.985   0.019   1.405  0.00  0.00     0.000 A 
ATOM      3  C3  BNZ d   1       3.142  -0.361   0.785  0.00  0.00     0.000 A 
ATOM      4  C4  BNZ d   1       3.311  -0.094  -0.526  0.00  0.00     0.000 A 
ATOM      5  C5  BNZ d   1       2.338   0.586  -1.232  0.00  0.00     0.000 A 
ATOM      6  C6  BNZ d   1       1.191   1.001  -0.595  0.00  0.00     0.000 A 
ENDROOT
TORSDOF 0
ENDMDL
