MODEL 1
REMARK minimizedAffinity -3.96850014
REMARK minimizedRMSD -1
REMARK  0 active torsions:
REMARK  status: ('A' for Active; 'I' for Inactive)
ROOT
ATOM      1  C1  BNZ d   1      -0.139   1.293  -0.054  0.00  0.00     0.000 A 
ATOM      2  C2  BNZ d   1       1.140   1.781  -0.051  0.00  0.00     0.000 A 
ATOM      3  C3  BNZ d   1       2.185   1.003   0.362  0.00  0.00     0.000 A 
ATOM      4  C4  BNZ d   1       1.945  -0.246   0.809  0.00  0.00     0.000 A 
ATOM      5  C5  BNZ d   1       0.660  -0.750   0.821  0.00  0.00     0.000 A 
ATOM      6  C6  BNZ d   1      -0.385   0.023   0.368  0.00  0.00     0.000 A 
ENDROOT
TORSDOF 0
ENDMDL
