MODEL 1
REMARK minimizedAffinity -4.72906303
REMARK minimizedRMSD -1
REMARK  0 active torsions:
REMARK  status: ('A' for Active; 'I' for Inactive)
ROOT
ATOM      1  C1  BNZ d   1       0.688  -0.530   0.382  0.00  0.00     0.000 A 
ATOM      2  C2  BNZ d   1       1.695   0.377   0.183  0.00  0.00     0.000 A 
ATOM      3  C3  BNZ d   1       2.873   0.276   0.868  0.00  0.00     0.000 A 
ATOM      4  C4  BNZ d   1       3.028  -0.707   1.779  0.00  0.00     0.000 A 
ATOM      5  C5  BNZ d   1       2.018  -1.623   1.998  0.00  0.00     0.000 A 
ATOM      6  C6  BNZ d   1       0.848  -1.541   1.278  0.00  0.00     0.000 A 
ENDROOT
TORSDOF 0
ENDMDL
