MODEL 1
REMARK minimizedAffinity 3.56050873
REMARK minimizedRMSD -1
REMARK  0 active torsions:
REMARK  status: ('A' for Active; 'I' for Inactive)
ROOT
ATOM      1  C1  BNZ d   1       1.043   2.028  -0.331  0.00  0.00     0.000 A 
ATOM      2  C2  BNZ d   1       0.263   1.353   0.571  0.00  0.00     0.000 A 
ATOM      3  C3  BNZ d   1       0.827   0.671   1.612  0.00  0.00     0.000 A 
ATOM      4  C4  BNZ d   1       2.170   0.631   1.728  0.00  0.00     0.000 A 
ATOM      5  C5  BNZ d   1       2.971   1.298   0.822  0.00  0.00     0.000 A 
ATOM      6  C6  BNZ d   1       2.398   2.016  -0.202  0.00  0.00     0.000 A 
ENDROOT
TORSDOF 0
ENDMDL
