MODEL 1
REMARK minimizedAffinity -1.85065269
REMARK minimizedRMSD -1
REMARK  0 active torsions:
REMARK  status: ('A' for Active; 'I' for Inactive)
ROOT
ATOM      1  C1  BNZ d   1      -0.315  -0.683   0.601  0.00  0.00     0.000 A 
ATOM      2  C2  BNZ d   1       0.181   0.524   1.018  0.00  0.00     0.000 A 
ATOM      3  C3  BNZ d   1      -0.364   1.696   0.573  0.00  0.00     0.000 A 
ATOM      4  C4  BNZ d   1      -1.376   1.660  -0.318  0.00  0.00     0.000 A 
ATOM      5  C5  BNZ d   1      -1.881   0.451  -0.755  0.00  0.00     0.000 A 
ATOM      6  C6  BNZ d   1      -1.356  -0.726  -0.274  0.00  0.00     0.000 A 
ENDROOT
TORSDOF 0
ENDMDL
