MODEL 1
REMARK minimizedAffinity -2.8044517
REMARK minimizedRMSD -1
REMARK  0 active torsions:
REMARK  status: ('A' for Active; 'I' for Inactive)
ROOT
ATOM      1  C1  BNZ d   1      -1.785  -0.572  -0.351  0.00  0.00     0.000 A 
ATOM      2  C2  BNZ d   1      -1.148   0.423  -1.044  0.00  0.00     0.000 A 
ATOM      3  C3  BNZ d   1       0.146   0.758  -0.756  0.00  0.00     0.000 A 
ATOM      4  C4  BNZ d   1       0.786   0.127   0.249  0.00  0.00     0.000 A 
ATOM      5  C5  BNZ d   1       0.154  -0.871   0.963  0.00  0.00     0.000 A 
ATOM      6  C6  BNZ d   1      -1.135  -1.233   0.645  0.00  0.00     0.000 A 
ENDROOT
TORSDOF 0
ENDMDL
