MODEL 1
REMARK minimizedAffinity -4.75031948
REMARK minimizedRMSD -1
REMARK  0 active torsions:
REMARK  status: ('A' for Active; 'I' for Inactive)
ROOT
ATOM      1  C1  BNZ d   1       1.846  -1.533   0.961  0.00  0.00     0.000 A 
ATOM      2  C2  BNZ d   1       0.741  -1.143   0.253  0.00  0.00     0.000 A 
ATOM      3  C3  BNZ d   1       0.409   0.178   0.145  0.00  0.00     0.000 A 
ATOM      4  C4  BNZ d   1       1.158   1.104   0.778  0.00  0.00     0.000 A 
ATOM      5  C5  BNZ d   1       2.270   0.726   1.504  0.00  0.00     0.000 A 
ATOM      6  C6  BNZ d   1       2.623  -0.602   1.578  0.00  0.00     0.000 A 
ENDROOT
TORSDOF 0
ENDMDL
