MODEL 1
REMARK minimizedAffinity -3.47271776
REMARK minimizedRMSD -1
REMARK  0 active torsions:
REMARK  status: ('A' for Active; 'I' for Inactive)
ROOT
ATOM      1  C1  BNZ d   1      -1.273   0.406  -2.920  0.00  0.00     0.000 A 
ATOM      2  C2  BNZ d   1      -0.245   0.605  -2.037  0.00  0.00     0.000 A 
ATOM      3  C3  BNZ d   1      -0.422   0.394  -0.698  0.00  0.00     0.000 A 
ATOM      4  C4  BNZ d   1      -1.635   0.024  -0.240  0.00  0.00     0.000 A 
ATOM      5  C5  BNZ d   1      -2.684  -0.171  -1.116  0.00  0.00     0.000 A 
ATOM      6  C6  BNZ d   1      -2.492   0.004  -2.467  0.00  0.00     0.000 A 
ENDROOT
TORSDOF 0
ENDMDL
