MODEL 1
REMARK minimizedAffinity -4.567204
REMARK minimizedRMSD -1
REMARK  0 active torsions:
REMARK  status: ('A' for Active; 'I' for Inactive)
ROOT
ATOM      1  N1  IND d   1       5.399  -1.878   4.868  0.00  0.00    -0.196 N 
ATOM      2  C2  IND d   1       5.207  -2.726   5.924  0.00  0.00     0.054 A 
ATOM      3  C3  IND d   1       5.265  -4.012   5.511  0.00  0.00    -0.031 A 
ATOM      4  C4  IND d   1       5.765  -4.957   3.168  0.00  0.00     0.051 A 
ATOM      5  C5  IND d   1       5.971  -4.572   1.873  0.00  0.00    -0.031 A 
ATOM      6  C6  IND d   1       6.000  -3.243   1.503  0.00  0.00     0.015 A 
ATOM      7  C7  IND d   1       5.835  -2.244   2.421  0.00  0.00    -0.016 A 
ATOM      8  C8  IND d   1       5.618  -2.631   3.736  0.00  0.00    -0.047 A 
ATOM      9  C9  IND d   1       5.546  -3.979   4.110  0.00  0.00    -0.096 A 
ATOM     10  HN1 IND d   1       5.385  -1.019   4.906  0.00  0.00     0.298 HD
ENDROOT
TORSDOF 0
ENDMDL
