MODEL 1
REMARK minimizedAffinity -3.31701255
REMARK minimizedRMSD -1
REMARK  0 active torsions:
REMARK  status: ('A' for Active; 'I' for Inactive)
ROOT
ATOM      1  N1  IND d   1       6.000  -4.826   2.379  0.00  0.00    -0.196 N 
ATOM      2  C2  IND d   1       5.896  -3.790   1.494  0.00  0.00     0.054 A 
ATOM      3  C3  IND d   1       5.758  -2.619   2.154  0.00  0.00    -0.031 A 
ATOM      4  C4  IND d   1       5.777  -2.157   4.687  0.00  0.00     0.051 A 
ATOM      5  C5  IND d   1       5.809  -2.792   5.897  0.00  0.00    -0.031 A 
ATOM      6  C6  IND d   1       5.911  -4.164   5.999  0.00  0.00     0.015 A 
ATOM      7  C7  IND d   1       5.997  -4.956   4.889  0.00  0.00    -0.016 A 
ATOM      8  C8  IND d   1       5.957  -4.316   3.658  0.00  0.00    -0.047 A 
ATOM      9  C9  IND d   1       5.811  -2.927   3.548  0.00  0.00    -0.096 A 
ATOM     10  HN1 IND d   1       6.078  -5.657   2.172  0.00  0.00     0.298 HD
ENDROOT
TORSDOF 0
ENDMDL
