MODEL 1
REMARK minimizedAffinity -4.30224228
REMARK minimizedRMSD -1
REMARK  0 active torsions:
REMARK  status: ('A' for Active; 'I' for Inactive)
ROOT
ATOM      1  N1  IND d   1       4.455  -5.174   4.990  0.00  0.00    -0.196 N 
ATOM      2  C2  IND d   1       4.142  -4.308   5.999  0.00  0.00     0.054 A 
ATOM      3  C3  IND d   1       4.492  -3.046   5.662  0.00  0.00    -0.031 A 
ATOM      4  C4  IND d   1       5.499  -2.160   3.465  0.00  0.00     0.051 A 
ATOM      5  C5  IND d   1       5.995  -2.578   2.262  0.00  0.00    -0.031 A 
ATOM      6  C6  IND d   1       6.000  -3.909   1.898  0.00  0.00     0.015 A 
ATOM      7  C7  IND d   1       5.497  -4.875   2.723  0.00  0.00    -0.016 A 
ATOM      8  C8  IND d   1       5.000  -4.455   3.948  0.00  0.00    -0.047 A 
ATOM      9  C9  IND d   1       5.031  -3.111   4.341  0.00  0.00    -0.096 A 
ATOM     10  HN1 IND d   1       4.333  -6.025   5.003  0.00  0.00     0.298 HD
ENDROOT
TORSDOF 0
ENDMDL
