MODEL 1
REMARK minimizedAffinity -1.25388718
REMARK minimizedRMSD -1
REMARK  0 active torsions:
REMARK  status: ('A' for Active; 'I' for Inactive)
ROOT
ATOM      1  N1  IND d   1       4.877  -4.258   4.977  0.00  0.00    -0.196 N 
ATOM      2  C2  IND d   1       4.999  -5.618   4.916  0.00  0.00     0.054 A 
ATOM      3  C3  IND d   1       5.393  -6.000   3.680  0.00  0.00    -0.031 A 
ATOM      4  C4  IND d   1       5.992  -4.555   1.635  0.00  0.00     0.051 A 
ATOM      5  C5  IND d   1       5.999  -3.261   1.196  0.00  0.00    -0.031 A 
ATOM      6  C6  IND d   1       5.628  -2.211   2.011  0.00  0.00     0.015 A 
ATOM      7  C7  IND d   1       5.245  -2.417   3.307  0.00  0.00    -0.016 A 
ATOM      8  C8  IND d   1       5.229  -3.731   3.754  0.00  0.00    -0.047 A 
ATOM      9  C9  IND d   1       5.564  -4.803   2.918  0.00  0.00    -0.096 A 
ATOM     10  HN1 IND d   1       4.623  -3.808   5.664  0.00  0.00     0.298 HD
ENDROOT
TORSDOF 0
ENDMDL
