MODEL 1
REMARK minimizedAffinity -4.10911036
REMARK minimizedRMSD -1
REMARK  0 active torsions:
REMARK  status: ('A' for Active; 'I' for Inactive)
ROOT
ATOM      1  N1  IND d   1       5.888  -5.798   3.995  0.00  0.00    -0.196 N 
ATOM      2  C2  IND d   1       5.999  -5.686   5.352  0.00  0.00     0.054 A 
ATOM      3  C3  IND d   1       5.994  -4.384   5.719  0.00  0.00    -0.031 A 
ATOM      4  C4  IND d   1       5.710  -2.277   4.267  0.00  0.00     0.051 A 
ATOM      5  C5  IND d   1       5.611  -1.871   2.966  0.00  0.00    -0.031 A 
ATOM      6  C6  IND d   1       5.597  -2.771   1.920  0.00  0.00     0.015 A 
ATOM      7  C7  IND d   1       5.669  -4.118   2.139  0.00  0.00    -0.016 A 
ATOM      8  C8  IND d   1       5.777  -4.534   3.458  0.00  0.00    -0.047 A 
ATOM      9  C9  IND d   1       5.835  -3.623   4.521  0.00  0.00    -0.096 A 
ATOM     10  HN1 IND d   1       5.888  -6.534   3.550  0.00  0.00     0.298 HD
ENDROOT
TORSDOF 0
ENDMDL
