MODEL 1
REMARK minimizedAffinity -4.33499193
REMARK minimizedRMSD -1
REMARK  0 active torsions:
REMARK  status: ('A' for Active; 'I' for Inactive)
ROOT
ATOM      1  N1  IND d   1       5.239  -1.903   4.936  0.00  0.00    -0.196 N 
ATOM      2  C2  IND d   1       5.085  -2.775   5.977  0.00  0.00     0.054 A 
ATOM      3  C3  IND d   1       5.221  -4.050   5.547  0.00  0.00    -0.031 A 
ATOM      4  C4  IND d   1       5.798  -4.931   3.198  0.00  0.00     0.051 A 
ATOM      5  C5  IND d   1       5.995  -4.516   1.911  0.00  0.00    -0.031 A 
ATOM      6  C6  IND d   1       5.952  -3.183   1.559  0.00  0.00     0.015 A 
ATOM      7  C7  IND d   1       5.721  -2.208   2.489  0.00  0.00    -0.016 A 
ATOM      8  C8  IND d   1       5.513  -2.626   3.796  0.00  0.00    -0.047 A 
ATOM      9  C9  IND d   1       5.513  -3.981   4.151  0.00  0.00    -0.096 A 
ATOM     10  HN1 IND d   1       5.176  -1.047   4.985  0.00  0.00     0.298 HD
ENDROOT
TORSDOF 0
ENDMDL
