MODEL 1
REMARK minimizedAffinity -4.13852549
REMARK minimizedRMSD -1
REMARK  0 active torsions:
REMARK  status: ('A' for Active; 'I' for Inactive)
ROOT
ATOM      1  N1  IND d   1       5.668  -1.603   4.805  0.00  0.00    -0.196 N 
ATOM      2  C2  IND d   1       5.573  -2.278   5.990  0.00  0.00     0.054 A 
ATOM      3  C3  IND d   1       5.604  -3.612   5.775  0.00  0.00    -0.031 A 
ATOM      4  C4  IND d   1       5.908  -4.907   3.571  0.00  0.00     0.051 A 
ATOM      5  C5  IND d   1       6.000  -4.727   2.219  0.00  0.00    -0.031 A 
ATOM      6  C6  IND d   1       5.989  -3.470   1.649  0.00  0.00     0.015 A 
ATOM      7  C7  IND d   1       5.896  -2.342   2.414  0.00  0.00    -0.016 A 
ATOM      8  C8  IND d   1       5.795  -2.521   3.786  0.00  0.00    -0.047 A 
ATOM      9  C9  IND d   1       5.763  -3.796   4.367  0.00  0.00    -0.096 A 
ATOM     10  HN1 IND d   1       5.652  -0.748   4.711  0.00  0.00     0.298 HD
ENDROOT
TORSDOF 0
ENDMDL
