MODEL 1
REMARK minimizedAffinity -4.00534105
REMARK minimizedRMSD -1
REMARK  0 active torsions:
REMARK  status: ('A' for Active; 'I' for Inactive)
ROOT
ATOM      1  N1  IND d   1       5.973  -5.230   2.721  0.00  0.00    -0.196 N 
ATOM      2  C2  IND d   1       6.000  -4.482   1.577  0.00  0.00     0.054 A 
ATOM      3  C3  IND d   1       5.947  -3.164   1.875  0.00  0.00    -0.031 A 
ATOM      4  C4  IND d   1       5.914  -2.008   4.175  0.00  0.00     0.051 A 
ATOM      5  C5  IND d   1       5.841  -2.274   5.514  0.00  0.00    -0.031 A 
ATOM      6  C6  IND d   1       5.812  -3.565   6.000  0.00  0.00     0.015 A 
ATOM      7  C7  IND d   1       5.864  -4.643   5.162  0.00  0.00    -0.016 A 
ATOM      8  C8  IND d   1       5.931  -4.377   3.802  0.00  0.00    -0.047 A 
ATOM      9  C9  IND d   1       5.918  -3.069   3.301  0.00  0.00    -0.096 A 
ATOM     10  HN1 IND d   1       5.981  -6.089   2.759  0.00  0.00     0.298 HD
ENDROOT
TORSDOF 0
ENDMDL
