MODEL 1
REMARK minimizedAffinity -2.03674054
REMARK minimizedRMSD -1
REMARK  0 active torsions:
REMARK  status: ('A' for Active; 'I' for Inactive)
ROOT
ATOM      1  N1  IND d   1       5.190  -4.508   5.965  0.00  0.00    -0.196 N 
ATOM      2  C2  IND d   1       5.301  -5.836   5.662  0.00  0.00     0.054 A 
ATOM      3  C3  IND d   1       5.580  -5.997   4.349  0.00  0.00    -0.031 A 
ATOM      4  C4  IND d   1       6.000  -4.218   2.536  0.00  0.00     0.051 A 
ATOM      5  C5  IND d   1       5.973  -2.868   2.325  0.00  0.00    -0.031 A 
ATOM      6  C6  IND d   1       5.680  -1.977   3.337  0.00  0.00     0.015 A 
ATOM      7  C7  IND d   1       5.414  -2.405   4.607  0.00  0.00    -0.016 A 
ATOM      8  C8  IND d   1       5.433  -3.776   4.823  0.00  0.00    -0.047 A 
ATOM      9  C9  IND d   1       5.688  -4.686   3.790  0.00  0.00    -0.096 A 
ATOM     10  HN1 IND d   1       5.000  -4.184   6.738  0.00  0.00     0.298 HD
ENDROOT
TORSDOF 0
ENDMDL
