MODEL 1
REMARK minimizedAffinity -4.34335899
REMARK minimizedRMSD -1
REMARK  0 active torsions:
REMARK  status: ('A' for Active; 'I' for Inactive)
ROOT
ATOM      1  N1  IND d   1       5.882  -5.625   2.679  0.00  0.00    -0.196 N 
ATOM      2  C2  IND d   1       6.000  -4.922   1.512  0.00  0.00     0.054 A 
ATOM      3  C3  IND d   1       5.716  -3.616   1.720  0.00  0.00    -0.031 A 
ATOM      4  C4  IND d   1       5.134  -2.397   3.911  0.00  0.00     0.051 A 
ATOM      5  C5  IND d   1       4.873  -2.624   5.233  0.00  0.00    -0.031 A 
ATOM      6  C6  IND d   1       4.938  -3.888   5.783  0.00  0.00     0.015 A 
ATOM      7  C7  IND d   1       5.280  -4.975   5.030  0.00  0.00    -0.016 A 
ATOM      8  C8  IND d   1       5.540  -4.750   3.686  0.00  0.00    -0.047 A 
ATOM      9  C9  IND d   1       5.433  -3.476   3.113  0.00  0.00    -0.096 A 
ATOM     10  HN1 IND d   1       6.001  -6.472   2.768  0.00  0.00     0.298 HD
ENDROOT
TORSDOF 0
ENDMDL
