MODEL 1
REMARK minimizedAffinity -4.08809614
REMARK minimizedRMSD -1
REMARK  0 active torsions:
REMARK  status: ('A' for Active; 'I' for Inactive)
ROOT
ATOM      1  N1  IND d   1       5.994  -5.139   2.559  0.00  0.00    -0.196 N 
ATOM      2  C2  IND d   1       5.987  -4.236   1.533  0.00  0.00     0.054 A 
ATOM      3  C3  IND d   1       5.699  -2.999   1.997  0.00  0.00    -0.031 A 
ATOM      4  C4  IND d   1       5.304  -2.211   4.416  0.00  0.00     0.051 A 
ATOM      5  C5  IND d   1       5.173  -2.678   5.693  0.00  0.00    -0.031 A 
ATOM      6  C6  IND d   1       5.315  -4.017   5.998  0.00  0.00     0.015 A 
ATOM      7  C7  IND d   1       5.606  -4.940   5.034  0.00  0.00    -0.016 A 
ATOM      8  C8  IND d   1       5.732  -4.470   3.734  0.00  0.00    -0.047 A 
ATOM      9  C9  IND d   1       5.547  -3.119   3.413  0.00  0.00    -0.096 A 
ATOM     10  HN1 IND d   1       6.138  -5.984   2.483  0.00  0.00     0.298 HD
ENDROOT
TORSDOF 0
ENDMDL
