MODEL 1
REMARK minimizedAffinity -3.37736607
REMARK minimizedRMSD -1
REMARK  0 active torsions:
REMARK  status: ('A' for Active; 'I' for Inactive)
ROOT
ATOM      1  N1  IND d   1       5.513  -5.999   3.863  0.00  0.00    -0.196 N 
ATOM      2  C2  IND d   1       5.863  -5.797   2.557  0.00  0.00     0.054 A 
ATOM      3  C3  IND d   1       5.818  -4.479   2.257  0.00  0.00    -0.031 A 
ATOM      4  C4  IND d   1       5.293  -2.471   3.780  0.00  0.00     0.051 A 
ATOM      5  C5  IND d   1       4.880  -2.157   5.045  0.00  0.00    -0.031 A 
ATOM      6  C6  IND d   1       4.655  -3.127   6.000  0.00  0.00     0.015 A 
ATOM      7  C7  IND d   1       4.846  -4.453   5.728  0.00  0.00    -0.016 A 
ATOM      8  C8  IND d   1       5.259  -4.776   4.443  0.00  0.00    -0.047 A 
ATOM      9  C9  IND d   1       5.448  -3.799   3.457  0.00  0.00    -0.096 A 
ATOM     10  HN1 IND d   1       5.460  -6.762   4.256  0.00  0.00     0.298 HD
ENDROOT
TORSDOF 0
ENDMDL
