MODEL 1
REMARK minimizedAffinity -2.34426212
REMARK minimizedRMSD -1
REMARK  0 active torsions:
REMARK  status: ('A' for Active; 'I' for Inactive)
ROOT
ATOM      1  N1  IND d   1       5.971  -1.890   4.672  0.00  0.00    -0.196 N 
ATOM      2  C2  IND d   1       5.935  -2.334   5.965  0.00  0.00     0.054 A 
ATOM      3  C3  IND d   1       5.900  -3.685   5.996  0.00  0.00    -0.031 A 
ATOM      4  C4  IND d   1       5.996  -5.370   4.052  0.00  0.00     0.051 A 
ATOM      5  C5  IND d   1       5.998  -5.441   2.687  0.00  0.00    -0.031 A 
ATOM      6  C6  IND d   1       5.994  -4.308   1.898  0.00  0.00     0.015 A 
ATOM      7  C7  IND d   1       5.999  -3.057   2.448  0.00  0.00    -0.016 A 
ATOM      8  C8  IND d   1       5.989  -2.982   3.833  0.00  0.00    -0.047 A 
ATOM      9  C9  IND d   1       5.951  -4.127   4.639  0.00  0.00    -0.096 A 
ATOM     10  HN1 IND d   1       5.980  -1.066   4.425  0.00  0.00     0.298 HD
ENDROOT
TORSDOF 0
ENDMDL
