MODEL 1
REMARK minimizedAffinity -3.05681539
REMARK minimizedRMSD -1
REMARK  0 active torsions:
REMARK  status: ('A' for Active; 'I' for Inactive)
ROOT
ATOM      1  N1  IND d   1       5.397  -5.994   4.773  0.00  0.00    -0.196 N 
ATOM      2  C2  IND d   1       4.941  -5.560   5.986  0.00  0.00     0.054 A 
ATOM      3  C3  IND d   1       4.792  -4.216   5.979  0.00  0.00    -0.031 A 
ATOM      4  C4  IND d   1       5.138  -2.542   4.055  0.00  0.00     0.051 A 
ATOM      5  C5  IND d   1       5.583  -2.460   2.765  0.00  0.00    -0.031 A 
ATOM      6  C6  IND d   1       5.995  -3.575   2.064  0.00  0.00     0.015 A 
ATOM      7  C7  IND d   1       5.966  -4.820   2.625  0.00  0.00    -0.016 A 
ATOM      8  C8  IND d   1       5.521  -4.906   3.937  0.00  0.00    -0.047 A 
ATOM      9  C9  IND d   1       5.142  -3.773   4.667  0.00  0.00    -0.096 A 
ATOM     10  HN1 IND d   1       5.576  -6.809   4.566  0.00  0.00     0.298 HD
ENDROOT
TORSDOF 0
ENDMDL
