MODEL 1
REMARK minimizedAffinity -3.60822105
REMARK minimizedRMSD -1
REMARK  0 active torsions:
REMARK  status: ('A' for Active; 'I' for Inactive)
ROOT
ATOM      1  N1  IND d   1       5.329  -4.029   5.425  0.00  0.00    -0.196 N 
ATOM      2  C2  IND d   1       5.253  -2.789   5.995  0.00  0.00     0.054 A 
ATOM      3  C3  IND d   1       5.451  -1.830   5.063  0.00  0.00    -0.031 A 
ATOM      4  C4  IND d   1       5.817  -2.067   2.525  0.00  0.00     0.051 A 
ATOM      5  C5  IND d   1       5.999  -3.002   1.546  0.00  0.00    -0.031 A 
ATOM      6  C6  IND d   1       5.964  -4.356   1.815  0.00  0.00     0.015 A 
ATOM      7  C7  IND d   1       5.733  -4.826   3.076  0.00  0.00    -0.016 A 
ATOM      8  C8  IND d   1       5.554  -3.878   4.075  0.00  0.00    -0.047 A 
ATOM      9  C9  IND d   1       5.631  -2.504   3.816  0.00  0.00    -0.096 A 
ATOM     10  HN1 IND d   1       5.249  -4.778   5.841  0.00  0.00     0.298 HD
ENDROOT
TORSDOF 0
ENDMDL
