MODEL 1
REMARK minimizedAffinity -4.56379557
REMARK minimizedRMSD -1
REMARK  0 active torsions:
REMARK  status: ('A' for Active; 'I' for Inactive)
ROOT
ATOM      1  N1  IND d   1       4.774  -6.000   4.401  0.00  0.00    -0.196 N 
ATOM      2  C2  IND d   1       4.548  -5.494   5.650  0.00  0.00     0.054 A 
ATOM      3  C3  IND d   1       4.845  -4.176   5.685  0.00  0.00    -0.031 A 
ATOM      4  C4  IND d   1       5.618  -2.622   3.783  0.00  0.00     0.051 A 
ATOM      5  C5  IND d   1       5.999  -2.634   2.471  0.00  0.00    -0.031 A 
ATOM      6  C6  IND d   1       5.988  -3.790   1.718  0.00  0.00     0.015 A 
ATOM      7  C7  IND d   1       5.583  -4.982   2.250  0.00  0.00    -0.016 A 
ATOM      8  C8  IND d   1       5.203  -4.976   3.584  0.00  0.00    -0.047 A 
ATOM      9  C9  IND d   1       5.252  -3.813   4.365  0.00  0.00    -0.096 A 
ATOM     10  HN1 IND d   1       4.667  -6.819   4.164  0.00  0.00     0.298 HD
ENDROOT
TORSDOF 0
ENDMDL
