MODEL 1
REMARK minimizedAffinity -3.71585488
REMARK minimizedRMSD -1
REMARK  0 active torsions:
REMARK  status: ('A' for Active; 'I' for Inactive)
ROOT
ATOM      1  N1  IND d   1       5.212  -5.764   4.497  0.00  0.00    -0.196 N 
ATOM      2  C2  IND d   1       4.629  -5.614   5.725  0.00  0.00     0.054 A 
ATOM      3  C3  IND d   1       4.442  -4.304   6.000  0.00  0.00    -0.031 A 
ATOM      4  C4  IND d   1       4.924  -2.240   4.538  0.00  0.00     0.051 A 
ATOM      5  C5  IND d   1       5.490  -1.870   3.350  0.00  0.00    -0.031 A 
ATOM      6  C6  IND d   1       6.000  -2.798   2.465  0.00  0.00     0.015 A 
ATOM      7  C7  IND d   1       5.952  -4.137   2.731  0.00  0.00    -0.016 A 
ATOM      8  C8  IND d   1       5.385  -4.516   3.939  0.00  0.00    -0.047 A 
ATOM      9  C9  IND d   1       4.904  -3.577   4.860  0.00  0.00    -0.096 A 
ATOM     10  HN1 IND d   1       5.433  -6.512   4.135  0.00  0.00     0.298 HD
ENDROOT
TORSDOF 0
ENDMDL
