MODEL 1
REMARK minimizedAffinity 6.68987036
REMARK minimizedRMSD -1
REMARK  1 active torsions:
REMARK  status: ('A' for Active; 'I' for Inactive)
REMARK    1  A    between atoms: C1_2  and  C2_3 
ROOT
ATOM      1  C2  UNL d   1       1.103  -0.440   1.509  0.00  0.00    -0.073 A 
ATOM      2  C3  UNL d   1      -0.101   0.272   1.549  0.00  0.00    -0.002 A 
ATOM      3  C4  UNL d   1      -0.675   0.752   0.371  0.00  0.00     0.004 A 
ATOM      4  C5  UNL d   1      -0.057   0.520  -0.857  0.00  0.00    -0.004 A 
ATOM      5  C6  UNL d   1       1.140  -0.200  -0.919  0.00  0.00    -0.075 A 
ATOM      6  C7  UNL d   1       1.819  -0.457  -2.232  0.00  0.00     0.076 C 
ATOM      7  C8  UNL d   1       1.713  -0.677   0.268  0.00  0.00     0.001 A 
ENDROOT
BRANCH   1   8
ATOM      8  C1  UNL d   1       1.724  -0.966   2.777  0.00  0.00     0.053 C 
ATOM      9  C   UNL d   1       3.243  -0.906   2.735  0.00  0.00     0.018 C 
ENDBRANCH   1   8
TORSDOF 1
ENDMDL
