MODEL 1
REMARK minimizedAffinity 10.7648582
REMARK minimizedRMSD -1
REMARK  1 active torsions:
REMARK  status: ('A' for Active; 'I' for Inactive)
REMARK    1  A    between atoms: C1_2  and  C2_3 
ROOT
ATOM      1  C2  UNL d   1       1.114  -3.414  -0.689  0.00  0.00    -0.073 A 
ATOM      2  C3  UNL d   1       1.366  -2.615  -1.811  0.00  0.00    -0.002 A 
ATOM      3  C4  UNL d   1       1.360  -1.224  -1.700  0.00  0.00     0.004 A 
ATOM      4  C5  UNL d   1       1.110  -0.619  -0.469  0.00  0.00    -0.004 A 
ATOM      5  C6  UNL d   1       0.868  -1.400   0.665  0.00  0.00    -0.075 A 
ATOM      6  C7  UNL d   1       0.595  -0.764   1.997  0.00  0.00     0.076 C 
ATOM      7  C8  UNL d   1       0.873  -2.797   0.546  0.00  0.00     0.001 A 
ENDROOT
BRANCH   1   8
ATOM      8  C1  UNL d   1       1.126  -4.917  -0.802  0.00  0.00     0.053 C 
ATOM      9  C   UNL d   1       2.198  -5.546   0.075  0.00  0.00     0.018 C 
ENDBRANCH   1   8
TORSDOF 1
ENDMDL
