MODEL 1
REMARK minimizedAffinity 6.06284475
REMARK minimizedRMSD -1
REMARK  1 active torsions:
REMARK  status: ('A' for Active; 'I' for Inactive)
REMARK    1  A    between atoms: C1_2  and  C2_3 
ROOT
ATOM      1  C2  UNL d   1      -0.039   0.681   1.443  0.00  0.00    -0.073 A 
ATOM      2  C3  UNL d   1       0.383  -0.388   2.243  0.00  0.00    -0.002 A 
ATOM      3  C4  UNL d   1       1.151  -1.417   1.696  0.00  0.00     0.004 A 
ATOM      4  C5  UNL d   1       1.511  -1.385   0.349  0.00  0.00    -0.004 A 
ATOM      5  C6  UNL d   1       1.109  -0.319  -0.463  0.00  0.00    -0.075 A 
ATOM      6  C7  UNL d   1       1.486  -0.271  -1.915  0.00  0.00     0.076 C 
ATOM      7  C8  UNL d   1       0.336   0.709   0.092  0.00  0.00     0.001 A 
ENDROOT
BRANCH   1   8
ATOM      8  C1  UNL d   1      -0.863   1.798   2.030  0.00  0.00     0.053 C 
ATOM      9  C   UNL d   1      -0.130   3.129   1.988  0.00  0.00     0.018 C 
ENDBRANCH   1   8
TORSDOF 1
ENDMDL
