MODEL 1
REMARK minimizedAffinity 7.34007788
REMARK minimizedRMSD -1
REMARK  1 active torsions:
REMARK  status: ('A' for Active; 'I' for Inactive)
REMARK    1  A    between atoms: C1_2  and  C2_3 
ROOT
ATOM      1  C2  UNL d   1      -0.145   3.776  -0.792  0.00  0.00    -0.073 A 
ATOM      2  C3  UNL d   1      -0.368   2.730  -1.694  0.00  0.00    -0.002 A 
ATOM      3  C4  UNL d   1      -0.492   1.418  -1.236  0.00  0.00     0.004 A 
ATOM      4  C5  UNL d   1      -0.401   1.139   0.127  0.00  0.00    -0.004 A 
ATOM      5  C6  UNL d   1      -0.190   2.172   1.046  0.00  0.00    -0.075 A 
ATOM      6  C7  UNL d   1      -0.088   1.888   2.516  0.00  0.00     0.076 C 
ATOM      7  C8  UNL d   1      -0.065   3.487   0.578  0.00  0.00     0.001 A 
ENDROOT
BRANCH   1   8
ATOM      8  C1  UNL d   1      -0.018   5.196  -1.281  0.00  0.00     0.053 C 
ATOM      9  C   UNL d   1       1.366   5.768  -1.014  0.00  0.00     0.018 C 
ENDBRANCH   1   8
TORSDOF 1
ENDMDL
