MODEL 1
REMARK minimizedAffinity 9.46139717
REMARK minimizedRMSD -1
REMARK  1 active torsions:
REMARK  status: ('A' for Active; 'I' for Inactive)
REMARK    1  A    between atoms: C1_2  and  C2_3 
ROOT
ATOM      1  C2  UNL d   1       0.236  -0.045  -2.279  0.00  0.00    -0.073 A 
ATOM      2  C3  UNL d   1      -0.722  -1.033  -2.022  0.00  0.00    -0.002 A 
ATOM      3  C4  UNL d   1      -0.345  -2.248  -1.449  0.00  0.00     0.004 A 
ATOM      4  C5  UNL d   1       0.990  -2.485  -1.121  0.00  0.00    -0.004 A 
ATOM      5  C6  UNL d   1       1.960  -1.505  -1.359  0.00  0.00    -0.075 A 
ATOM      6  C7  UNL d   1       3.400  -1.746  -1.014  0.00  0.00     0.076 C 
ATOM      7  C8  UNL d   1       1.573  -0.289  -1.937  0.00  0.00     0.001 A 
ENDROOT
BRANCH   1   8
ATOM      8  C1  UNL d   1      -0.168   1.272  -2.892  0.00  0.00     0.053 C 
ATOM      9  C   UNL d   1      -0.818   2.198  -1.876  0.00  0.00     0.018 C 
ENDBRANCH   1   8
TORSDOF 1
ENDMDL
