MODEL 1
REMARK minimizedAffinity 3.60371661
REMARK minimizedRMSD -1
REMARK  1 active torsions:
REMARK  status: ('A' for Active; 'I' for Inactive)
REMARK    1  A    between atoms: C1_2  and  C2_3 
ROOT
ATOM      1  C2  UNL d   1       0.057   2.436   1.572  0.00  0.00    -0.073 A 
ATOM      2  C3  UNL d   1      -1.249   2.807   1.912  0.00  0.00    -0.002 A 
ATOM      3  C4  UNL d   1      -2.248   2.843   0.938  0.00  0.00     0.004 A 
ATOM      4  C5  UNL d   1      -1.954   2.502  -0.382  0.00  0.00    -0.004 A 
ATOM      5  C6  UNL d   1      -0.658   2.117  -0.739  0.00  0.00    -0.075 A 
ATOM      6  C7  UNL d   1      -0.325   1.750  -2.155  0.00  0.00     0.076 C 
ATOM      7  C8  UNL d   1       0.340   2.086   0.244  0.00  0.00     0.001 A 
ENDROOT
BRANCH   1   8
ATOM      8  C1  UNL d   1       1.138   2.390   2.621  0.00  0.00     0.053 C 
ATOM      9  C   UNL d   1       2.229   3.416   2.360  0.00  0.00     0.018 C 
ENDBRANCH   1   8
TORSDOF 1
ENDMDL
