MODEL 1
REMARK minimizedAffinity 13.2501354
REMARK minimizedRMSD -1
REMARK  1 active torsions:
REMARK  status: ('A' for Active; 'I' for Inactive)
REMARK    1  A    between atoms: C1_2  and  C2_3 
ROOT
ATOM      1  C2  UNL d   1       0.012   2.144   0.996  0.00  0.00    -0.073 A 
ATOM      2  C3  UNL d   1      -1.321   2.442   1.298  0.00  0.00    -0.002 A 
ATOM      3  C4  UNL d   1      -2.286   2.459   0.289  0.00  0.00     0.004 A 
ATOM      4  C5  UNL d   1      -1.929   2.173  -1.028  0.00  0.00    -0.004 A 
ATOM      5  C6  UNL d   1      -0.603   1.861  -1.348  0.00  0.00    -0.075 A 
ATOM      6  C7  UNL d   1      -0.202   1.553  -2.761  0.00  0.00     0.076 C 
ATOM      7  C8  UNL d   1       0.360   1.849  -0.330  0.00  0.00     0.001 A 
ENDROOT
BRANCH   1   8
ATOM      8  C1  UNL d   1       1.056   2.118   2.083  0.00  0.00     0.053 C 
ATOM      9  C   UNL d   1       2.391   1.594   1.578  0.00  0.00     0.018 C 
ENDBRANCH   1   8
TORSDOF 1
ENDMDL
