MODEL 1
REMARK minimizedAffinity 3.86259127
REMARK minimizedRMSD -1
REMARK  1 active torsions:
REMARK  status: ('A' for Active; 'I' for Inactive)
REMARK    1  A    between atoms: C1_2  and  C2_3 
ROOT
ATOM      1  C2  UNL d   1      -0.265   2.236   1.252  0.00  0.00    -0.073 A 
ATOM      2  C3  UNL d   1      -1.481   2.927   1.313  0.00  0.00    -0.002 A 
ATOM      3  C4  UNL d   1      -2.265   3.074   0.168  0.00  0.00     0.004 A 
ATOM      4  C5  UNL d   1      -1.847   2.528  -1.045  0.00  0.00    -0.004 A 
ATOM      5  C6  UNL d   1      -0.641   1.824  -1.123  0.00  0.00    -0.075 A 
ATOM      6  C7  UNL d   1      -0.176   1.232  -2.421  0.00  0.00     0.076 C 
ATOM      7  C8  UNL d   1       0.142   1.682   0.030  0.00  0.00     0.001 A 
ENDROOT
BRANCH   1   8
ATOM      8  C1  UNL d   1       0.582   2.068   2.487  0.00  0.00     0.053 C 
ATOM      9  C   UNL d   1       0.256   0.783   3.232  0.00  0.00     0.018 C 
ENDBRANCH   1   8
TORSDOF 1
ENDMDL
