MODEL 1
REMARK minimizedAffinity 5.34894514
REMARK minimizedRMSD -1
REMARK  1 active torsions:
REMARK  status: ('A' for Active; 'I' for Inactive)
REMARK    1  A    between atoms: C1_2  and  C2_3 
ROOT
ATOM      1  C2  UNL d   1       1.963  -2.972  -2.264  0.00  0.00    -0.073 A 
ATOM      2  C3  UNL d   1       2.479  -4.072  -1.570  0.00  0.00    -0.002 A 
ATOM      3  C4  UNL d   1       2.668  -5.291  -2.221  0.00  0.00     0.004 A 
ATOM      4  C5  UNL d   1       2.350  -5.422  -3.573  0.00  0.00    -0.004 A 
ATOM      5  C6  UNL d   1       1.844  -4.331  -4.287  0.00  0.00    -0.075 A 
ATOM      6  C7  UNL d   1       1.495  -4.455  -5.741  0.00  0.00     0.076 C 
ATOM      7  C8  UNL d   1       1.655  -3.110  -3.625  0.00  0.00     0.001 A 
ENDROOT
BRANCH   1   8
ATOM      8  C1  UNL d   1       1.764  -1.651  -1.567  0.00  0.00     0.053 C 
ATOM      9  C   UNL d   1       2.881  -1.354  -0.579  0.00  0.00     0.018 C 
ENDBRANCH   1   8
TORSDOF 1
ENDMDL
