MODEL 1
REMARK minimizedAffinity 3.77046227
REMARK minimizedRMSD -1
REMARK  1 active torsions:
REMARK  status: ('A' for Active; 'I' for Inactive)
REMARK    1  A    between atoms: C1_2  and  C2_3 
ROOT
ATOM      1  C2  UNL d   1       1.506   0.459   0.747  0.00  0.00    -0.073 A 
ATOM      2  C3  UNL d   1       0.752   1.635   0.666  0.00  0.00    -0.002 A 
ATOM      3  C4  UNL d   1      -0.007   2.063   1.756  0.00  0.00     0.004 A 
ATOM      4  C5  UNL d   1      -0.015   1.324   2.939  0.00  0.00    -0.004 A 
ATOM      5  C6  UNL d   1       0.742   0.152   3.043  0.00  0.00    -0.075 A 
ATOM      6  C7  UNL d   1       0.742  -0.656   4.308  0.00  0.00     0.076 C 
ATOM      7  C8  UNL d   1       1.499  -0.272   1.943  0.00  0.00     0.001 A 
ENDROOT
BRANCH   1   8
ATOM      8  C1  UNL d   1       2.332  -0.003  -0.426  0.00  0.00     0.053 C 
ATOM      9  C   UNL d   1       2.565  -1.505  -0.402  0.00  0.00     0.018 C 
ENDBRANCH   1   8
TORSDOF 1
ENDMDL
