MODEL 1
REMARK minimizedAffinity -0.686398804
REMARK minimizedRMSD -1
REMARK  3 active torsions:
REMARK  status: ('A' for Active; 'I' for Inactive)
REMARK    1  A    between atoms: C3'_2  and  C2'_3 
REMARK    2  A    between atoms: C2'_3  and  C1'_4 
REMARK    3  A    between atoms: C1'_4  and  C1_5 
ROOT
ATOM      1  C1  N4B d   1      -2.144   2.653   0.372  0.00  0.00    -0.075 A 
ATOM      2  C2  N4B d   1      -0.916   1.977   0.204  0.00  0.00     0.002 A 
ATOM      3  C3  N4B d   1       0.165   2.638  -0.328  0.00  0.00     0.002 A 
ATOM      4  C4  N4B d   1       0.035   3.963  -0.716  0.00  0.00    -0.004 A 
ATOM      5  C5  N4B d   1      -1.148   4.616  -0.527  0.00  0.00     0.002 A 
ATOM      6  C6  N4B d   1      -2.240   3.966   0.010  0.00  0.00     0.002 A 
ENDROOT
BRANCH   1   7
ATOM      7  C1' N4B d   1      -3.377   1.949   0.869  0.00  0.00     0.057 C 
BRANCH   7   8
ATOM      8  C2' N4B d   1      -4.026   1.197  -0.289  0.00  0.00     0.009 C 
BRANCH   8   9
ATOM      9  C3' N4B d   1      -5.136   0.274   0.184  0.00  0.00     0.004 C 
ATOM     10  C4' N4B d   1      -4.704  -1.160   0.264  0.00  0.00     0.003 C 
ENDBRANCH   8   9
ENDBRANCH   7   8
ENDBRANCH   1   7
TORSDOF 3
ENDMDL
