MODEL 1
REMARK minimizedAffinity -0.0731959417
REMARK minimizedRMSD -1
REMARK  3 active torsions:
REMARK  status: ('A' for Active; 'I' for Inactive)
REMARK    1  A    between atoms: C3'_2  and  C2'_3 
REMARK    2  A    between atoms: C2'_3  and  C1'_4 
REMARK    3  A    between atoms: C1'_4  and  C1_5 
ROOT
ATOM      1  C1  N4B d   1      -0.151   1.511  -1.376  0.00  0.00    -0.075 A 
ATOM      2  C2  N4B d   1      -0.932   1.662  -0.209  0.00  0.00     0.002 A 
ATOM      3  C3  N4B d   1      -1.064   2.898   0.373  0.00  0.00     0.002 A 
ATOM      4  C4  N4B d   1      -0.413   3.990  -0.180  0.00  0.00    -0.004 A 
ATOM      5  C5  N4B d   1       0.318   3.841  -1.322  0.00  0.00     0.002 A 
ATOM      6  C6  N4B d   1       0.457   2.605  -1.920  0.00  0.00     0.002 A 
ENDROOT
BRANCH   1   7
ATOM      7  C1' N4B d   1       0.093   0.164  -1.999  0.00  0.00     0.057 C 
BRANCH   7   8
ATOM      8  C2' N4B d   1       1.546  -0.240  -1.766  0.00  0.00     0.009 C 
BRANCH   8   9
ATOM      9  C3' N4B d   1       1.692  -1.175  -0.577  0.00  0.00     0.004 C 
ATOM     10  C4' N4B d   1       3.123  -1.474  -0.245  0.00  0.00     0.003 C 
ENDBRANCH   8   9
ENDBRANCH   7   8
ENDBRANCH   1   7
TORSDOF 3
ENDMDL
