MODEL 1
REMARK minimizedAffinity -3.47646713
REMARK minimizedRMSD -1
REMARK  3 active torsions:
REMARK  status: ('A' for Active; 'I' for Inactive)
REMARK    1  A    between atoms: C3'_2  and  C2'_3 
REMARK    2  A    between atoms: C2'_3  and  C1'_4 
REMARK    3  A    between atoms: C1'_4  and  C1_5 
ROOT
ATOM      1  C1  N4B d   1      -0.324   2.563  -0.967  0.00  0.00    -0.075 A 
ATOM      2  C2  N4B d   1      -0.669   2.144   0.337  0.00  0.00     0.002 A 
ATOM      3  C3  N4B d   1      -1.566   2.875   1.077  0.00  0.00     0.002 A 
ATOM      4  C4  N4B d   1      -2.113   4.033   0.544  0.00  0.00    -0.004 A 
ATOM      5  C5  N4B d   1      -1.794   4.416  -0.725  0.00  0.00     0.002 A 
ATOM      6  C6  N4B d   1      -0.897   3.689  -1.482  0.00  0.00     0.002 A 
ENDROOT
BRANCH   1   7
ATOM      7  C1' N4B d   1       0.716   1.844  -1.782  0.00  0.00     0.057 C 
BRANCH   7   8
ATOM      8  C2' N4B d   1       0.580   0.342  -1.556  0.00  0.00     0.009 C 
BRANCH   8   9
ATOM      9  C3' N4B d   1      -0.140  -0.343  -2.705  0.00  0.00     0.004 C 
ATOM     10  C4' N4B d   1      -1.584  -0.615  -2.407  0.00  0.00     0.003 C 
ENDBRANCH   8   9
ENDBRANCH   7   8
ENDBRANCH   1   7
TORSDOF 3
ENDMDL
