MODEL 1
REMARK minimizedAffinity 1.4092468
REMARK minimizedRMSD -1
REMARK  3 active torsions:
REMARK  status: ('A' for Active; 'I' for Inactive)
REMARK    1  A    between atoms: C3'_2  and  C2'_3 
REMARK    2  A    between atoms: C2'_3  and  C1'_4 
REMARK    3  A    between atoms: C1'_4  and  C1_5 
ROOT
ATOM      1  C1  N4B d   1      -0.200   1.785  -0.508  0.00  0.00    -0.075 A 
ATOM      2  C2  N4B d   1      -0.757   1.678   0.785  0.00  0.00     0.002 A 
ATOM      3  C3  N4B d   1      -0.845   2.787   1.589  0.00  0.00     0.002 A 
ATOM      4  C4  N4B d   1      -0.369   4.006   1.131  0.00  0.00    -0.004 A 
ATOM      5  C5  N4B d   1       0.144   4.107  -0.129  0.00  0.00     0.002 A 
ATOM      6  C6  N4B d   1       0.236   3.001  -0.950  0.00  0.00     0.002 A 
ENDROOT
BRANCH   1   7
ATOM      7  C1' N4B d   1      -0.004   0.583  -1.391  0.00  0.00     0.057 C 
BRANCH   7   8
ATOM      8  C2' N4B d   1      -1.368   0.036  -1.802  0.00  0.00     0.009 C 
BRANCH   8   9
ATOM      9  C3' N4B d   1      -1.244  -1.141  -2.755  0.00  0.00     0.004 C 
ATOM     10  C4' N4B d   1      -0.025  -1.059  -3.624  0.00  0.00     0.003 C 
ENDBRANCH   8   9
ENDBRANCH   7   8
ENDBRANCH   1   7
TORSDOF 3
ENDMDL
