MODEL 1
REMARK minimizedAffinity 0.260707021
REMARK minimizedRMSD -1
REMARK  3 active torsions:
REMARK  status: ('A' for Active; 'I' for Inactive)
REMARK    1  A    between atoms: C3'_2  and  C2'_3 
REMARK    2  A    between atoms: C2'_3  and  C1'_4 
REMARK    3  A    between atoms: C1'_4  and  C1_5 
ROOT
ATOM      1  C1  N4B d   1      -1.065   1.976   1.161  0.00  0.00    -0.075 A 
ATOM      2  C2  N4B d   1      -0.365   1.319   0.125  0.00  0.00     0.002 A 
ATOM      3  C3  N4B d   1       0.187   2.048  -0.899  0.00  0.00     0.002 A 
ATOM      4  C4  N4B d   1       0.037   3.426  -0.919  0.00  0.00    -0.004 A 
ATOM      5  C5  N4B d   1      -0.618   4.055   0.099  0.00  0.00     0.002 A 
ATOM      6  C6  N4B d   1      -1.175   3.336   1.137  0.00  0.00     0.002 A 
ENDROOT
BRANCH   1   7
ATOM      7  C1' N4B d   1      -1.760   1.214   2.257  0.00  0.00     0.057 C 
BRANCH   7   8
ATOM      8  C2' N4B d   1      -0.987  -0.070   2.543  0.00  0.00     0.009 C 
BRANCH   8   9
ATOM      9  C3' N4B d   1      -1.877  -1.150   3.131  0.00  0.00     0.004 C 
ATOM     10  C4' N4B d   1      -1.146  -2.436   3.376  0.00  0.00     0.003 C 
ENDBRANCH   8   9
ENDBRANCH   7   8
ENDBRANCH   1   7
TORSDOF 3
ENDMDL
