MODEL 1
REMARK minimizedAffinity -2.29932594
REMARK minimizedRMSD -1
REMARK  3 active torsions:
REMARK  status: ('A' for Active; 'I' for Inactive)
REMARK    1  A    between atoms: C3'_2  and  C2'_3 
REMARK    2  A    between atoms: C2'_3  and  C1'_4 
REMARK    3  A    between atoms: C1'_4  and  C1_5 
ROOT
ATOM      1  C1  N4B d   1       0.552   2.239  -0.762  0.00  0.00    -0.075 A 
ATOM      2  C2  N4B d   1      -0.253   1.822   0.321  0.00  0.00     0.002 A 
ATOM      3  C3  N4B d   1      -0.748   2.750   1.204  0.00  0.00     0.002 A 
ATOM      4  C4  N4B d   1      -0.437   4.091   1.037  0.00  0.00    -0.004 A 
ATOM      5  C5  N4B d   1       0.320   4.487  -0.026  0.00  0.00     0.002 A 
ATOM      6  C6  N4B d   1       0.821   3.567  -0.924  0.00  0.00     0.002 A 
ENDROOT
BRANCH   1   7
ATOM      7  C1' N4B d   1       1.187   1.253  -1.705  0.00  0.00     0.057 C 
BRANCH   7   8
ATOM      8  C2' N4B d   1       0.732  -0.156  -1.337  0.00  0.00     0.009 C 
BRANCH   8   9
ATOM      9  C3' N4B d   1       0.395  -0.983  -2.566  0.00  0.00     0.004 C 
ATOM     10  C4' N4B d   1      -1.082  -1.120  -2.787  0.00  0.00     0.003 C 
ENDBRANCH   8   9
ENDBRANCH   7   8
ENDBRANCH   1   7
TORSDOF 3
ENDMDL
