MODEL 1
REMARK minimizedAffinity 1.75343049
REMARK minimizedRMSD -1
REMARK  3 active torsions:
REMARK  status: ('A' for Active; 'I' for Inactive)
REMARK    1  A    between atoms: C3'_2  and  C2'_3 
REMARK    2  A    between atoms: C2'_3  and  C1'_4 
REMARK    3  A    between atoms: C1'_4  and  C1_5 
ROOT
ATOM      1  C1  N4B d   1       2.946  -1.151   0.058  0.00  0.00    -0.075 A 
ATOM      2  C2  N4B d   1       4.288  -0.723  -0.045  0.00  0.00     0.002 A 
ATOM      3  C3  N4B d   1       5.294  -1.647  -0.190  0.00  0.00     0.002 A 
ATOM      4  C4  N4B d   1       4.985  -2.999  -0.215  0.00  0.00    -0.004 A 
ATOM      5  C5  N4B d   1       3.684  -3.402  -0.141  0.00  0.00     0.002 A 
ATOM      6  C6  N4B d   1       2.662  -2.484   0.001  0.00  0.00     0.002 A 
ENDROOT
BRANCH   1   7
ATOM      7  C1' N4B d   1       1.821  -0.183   0.303  0.00  0.00     0.057 C 
BRANCH   7   8
ATOM      8  C2' N4B d   1       1.070   0.054  -1.003  0.00  0.00     0.009 C 
BRANCH   8   9
ATOM      9  C3' N4B d   1       0.971   1.531  -1.343  0.00  0.00     0.004 C 
ATOM     10  C4' N4B d   1      -0.048   2.252  -0.512  0.00  0.00     0.003 C 
ENDBRANCH   8   9
ENDBRANCH   7   8
ENDBRANCH   1   7
TORSDOF 3
ENDMDL
