MODEL 1
REMARK minimizedAffinity 4.54024982
REMARK minimizedRMSD -1
REMARK  3 active torsions:
REMARK  status: ('A' for Active; 'I' for Inactive)
REMARK    1  A    between atoms: C3'_2  and  C2'_3 
REMARK    2  A    between atoms: C2'_3  and  C1'_4 
REMARK    3  A    between atoms: C1'_4  and  C1_5 
ROOT
ATOM      1  C1  N4B d   1       0.604   1.368  -1.199  0.00  0.00    -0.075 A 
ATOM      2  C2  N4B d   1      -0.133   1.881  -0.109  0.00  0.00     0.002 A 
ATOM      3  C3  N4B d   1      -0.575   3.181  -0.130  0.00  0.00     0.002 A 
ATOM      4  C4  N4B d   1      -0.276   3.989  -1.217  0.00  0.00    -0.004 A 
ATOM      5  C5  N4B d   1       0.415   3.479  -2.277  0.00  0.00     0.002 A 
ATOM      6  C6  N4B d   1       0.861   2.173  -2.271  0.00  0.00     0.002 A 
ENDROOT
BRANCH   1   7
ATOM      7  C1' N4B d   1       1.182  -0.021  -1.184  0.00  0.00     0.057 C 
BRANCH   7   8
ATOM      8  C2' N4B d   1       1.716  -0.326   0.212  0.00  0.00     0.009 C 
BRANCH   8   9
ATOM      9  C3' N4B d   1       2.712  -1.473   0.201  0.00  0.00     0.004 C 
ATOM     10  C4' N4B d   1       4.131  -1.009   0.067  0.00  0.00     0.003 C 
ENDBRANCH   8   9
ENDBRANCH   7   8
ENDBRANCH   1   7
TORSDOF 3
ENDMDL
