MODEL 1
REMARK minimizedAffinity 6.98121881
REMARK minimizedRMSD -1
REMARK  3 active torsions:
REMARK  status: ('A' for Active; 'I' for Inactive)
REMARK    1  A    between atoms: C3'_2  and  C2'_3 
REMARK    2  A    between atoms: C2'_3  and  C1'_4 
REMARK    3  A    between atoms: C1'_4  and  C1_5 
ROOT
ATOM      1  C1  N4B d   1      -0.909   2.423   0.877  0.00  0.00    -0.075 A 
ATOM      2  C2  N4B d   1      -0.653   1.644  -0.273  0.00  0.00     0.002 A 
ATOM      3  C3  N4B d   1      -0.162   2.239  -1.409  0.00  0.00     0.002 A 
ATOM      4  C4  N4B d   1       0.062   3.607  -1.425  0.00  0.00    -0.004 A 
ATOM      5  C5  N4B d   1      -0.163   4.348  -0.302  0.00  0.00     0.002 A 
ATOM      6  C6  N4B d   1      -0.653   3.763   0.848  0.00  0.00     0.002 A 
ENDROOT
BRANCH   1   7
ATOM      7  C1' N4B d   1      -1.527   1.832   2.115  0.00  0.00     0.057 C 
BRANCH   7   8
ATOM      8  C2' N4B d   1      -1.725   0.333   1.909  0.00  0.00     0.009 C 
BRANCH   8   9
ATOM      9  C3' N4B d   1      -0.898  -0.489   2.882  0.00  0.00     0.004 C 
ATOM     10  C4' N4B d   1      -1.563  -1.776   3.267  0.00  0.00     0.003 C 
ENDBRANCH   8   9
ENDBRANCH   7   8
ENDBRANCH   1   7
TORSDOF 3
ENDMDL
