MODEL 1
REMARK minimizedAffinity -2.89702511
REMARK minimizedRMSD -1
REMARK  0 active torsions:
REMARK  status: ('A' for Active; 'I' for Inactive)
ROOT
ATOM      1  C   UNL d   1      -1.390   1.388   1.775  0.00  0.00     0.023 A 
ATOM      2  C1  UNL d   1      -0.656   0.283   2.207  0.00  0.00     0.003 A 
ATOM      3  C2  UNL d   1       0.063  -0.483   1.287  0.00  0.00     0.048 A 
ATOM      4  C3  UNL d   1       0.043  -0.138  -0.064  0.00  0.00     0.023 A 
ATOM      5  C4  UNL d   1      -0.689   0.966  -0.501  0.00  0.00     0.048 A 
ATOM      6  C5  UNL d   1      -1.407   1.729   0.422  0.00  0.00     0.003 A 
ATOM      7  I   UNL d   1       1.112  -1.277  -1.435  0.00  0.00    -0.146 I 
ENDROOT
TORSDOF 0
ENDMDL
