MODEL 1
REMARK minimizedAffinity -2.32773709
REMARK minimizedRMSD -1
REMARK  0 active torsions:
REMARK  status: ('A' for Active; 'I' for Inactive)
ROOT
ATOM      1  C   UNL d   1      -1.240   1.009   1.363  0.00  0.00     0.023 A 
ATOM      2  C1  UNL d   1      -0.540  -0.088   1.865  0.00  0.00     0.003 A 
ATOM      3  C2  UNL d   1       0.268  -0.849   1.018  0.00  0.00     0.048 A 
ATOM      4  C3  UNL d   1       0.373  -0.507  -0.330  0.00  0.00     0.023 A 
ATOM      5  C4  UNL d   1      -0.326   0.591  -0.836  0.00  0.00     0.048 A 
ATOM      6  C5  UNL d   1      -1.133   1.348   0.014  0.00  0.00     0.003 A 
ATOM      7  I   UNL d   1       1.575  -1.637  -1.592  0.00  0.00    -0.146 I 
ENDROOT
TORSDOF 0
ENDMDL
