MODEL 1
REMARK minimizedAffinity -4.92574167
REMARK minimizedRMSD -1
REMARK  0 active torsions:
REMARK  status: ('A' for Active; 'I' for Inactive)
ROOT
ATOM      1  C   UNL d   1      -1.991   1.711   1.513  0.00  0.00     0.023 A 
ATOM      2  C1  UNL d   1      -1.829   1.993   0.156  0.00  0.00     0.003 A 
ATOM      3  C2  UNL d   1      -0.936   1.244  -0.613  0.00  0.00     0.048 A 
ATOM      4  C3  UNL d   1      -0.208   0.213  -0.019  0.00  0.00     0.023 A 
ATOM      5  C4  UNL d   1      -0.367  -0.073   1.338  0.00  0.00     0.048 A 
ATOM      6  C5  UNL d   1      -1.260   0.679   2.103  0.00  0.00     0.003 A 
ATOM      7  I   UNL d   1       1.121  -0.903  -1.162  0.00  0.00    -0.146 I 
ENDROOT
TORSDOF 0
ENDMDL
