MODEL 1
REMARK minimizedAffinity -2.73067665
REMARK minimizedRMSD -1
REMARK  0 active torsions:
REMARK  status: ('A' for Active; 'I' for Inactive)
ROOT
ATOM      1  C   UNL d   1      -1.864   1.750   1.774  0.00  0.00     0.023 A 
ATOM      2  C1  UNL d   1      -1.548   0.444   2.150  0.00  0.00     0.003 A 
ATOM      3  C2  UNL d   1      -0.805  -0.370   1.293  0.00  0.00     0.048 A 
ATOM      4  C3  UNL d   1      -0.379   0.128   0.062  0.00  0.00     0.023 A 
ATOM      5  C4  UNL d   1      -0.692   1.434  -0.318  0.00  0.00     0.048 A 
ATOM      6  C5  UNL d   1      -1.436   2.244   0.541  0.00  0.00     0.003 A 
ATOM      7  I   UNL d   1       0.727  -1.083  -1.215  0.00  0.00    -0.146 I 
ENDROOT
TORSDOF 0
ENDMDL
