MODEL 1
REMARK minimizedAffinity -2.62497044
REMARK minimizedRMSD -1
REMARK  0 active torsions:
REMARK  status: ('A' for Active; 'I' for Inactive)
ROOT
ATOM      1  C   UNL d   1      -1.239   1.607   1.590  0.00  0.00     0.023 A 
ATOM      2  C1  UNL d   1      -1.273   1.805   0.210  0.00  0.00     0.003 A 
ATOM      3  C2  UNL d   1      -0.650   0.891  -0.643  0.00  0.00     0.048 A 
ATOM      4  C3  UNL d   1       0.004  -0.218  -0.109  0.00  0.00     0.023 A 
ATOM      5  C4  UNL d   1       0.040  -0.420   1.272  0.00  0.00     0.048 A 
ATOM      6  C5  UNL d   1      -0.583   0.496   2.121  0.00  0.00     0.003 A 
ATOM      7  I   UNL d   1       0.932  -1.579  -1.376  0.00  0.00    -0.146 I 
ENDROOT
TORSDOF 0
ENDMDL
