MODEL 1
REMARK minimizedAffinity -4.70276928
REMARK minimizedRMSD -1
REMARK  0 active torsions:
REMARK  status: ('A' for Active; 'I' for Inactive)
ROOT
ATOM      1  C   UNL d   1      -1.918   1.750   1.431  0.00  0.00     0.023 A 
ATOM      2  C1  UNL d   1      -1.474   0.516   1.904  0.00  0.00     0.003 A 
ATOM      3  C2  UNL d   1      -0.546  -0.223   1.166  0.00  0.00     0.048 A 
ATOM      4  C3  UNL d   1      -0.066   0.280  -0.043  0.00  0.00     0.023 A 
ATOM      5  C4  UNL d   1      -0.507   1.515  -0.519  0.00  0.00     0.048 A 
ATOM      6  C5  UNL d   1      -1.436   2.250   0.221  0.00  0.00     0.003 A 
ATOM      7  I   UNL d   1       1.315  -0.817  -1.142  0.00  0.00    -0.146 I 
ENDROOT
TORSDOF 0
ENDMDL
