MODEL 1
REMARK minimizedAffinity -3.1664834
REMARK minimizedRMSD -1
REMARK  0 active torsions:
REMARK  status: ('A' for Active; 'I' for Inactive)
ROOT
ATOM      1  C   UNL d   1      -2.540   1.922   1.707  0.00  0.00     0.023 A 
ATOM      2  C1  UNL d   1      -1.360   1.554   2.354  0.00  0.00     0.003 A 
ATOM      3  C2  UNL d   1      -0.402   0.792   1.682  0.00  0.00     0.048 A 
ATOM      4  C3  UNL d   1      -0.630   0.401   0.363  0.00  0.00     0.023 A 
ATOM      5  C4  UNL d   1      -1.809   0.768  -0.289  0.00  0.00     0.048 A 
ATOM      6  C5  UNL d   1      -2.764   1.529   0.387  0.00  0.00     0.003 A 
ATOM      7  I   UNL d   1       0.794  -0.734  -0.639  0.00  0.00    -0.146 I 
ENDROOT
TORSDOF 0
ENDMDL
