MODEL 1
REMARK minimizedAffinity 0.303711116
REMARK minimizedRMSD -1
REMARK  0 active torsions:
REMARK  status: ('A' for Active; 'I' for Inactive)
ROOT
ATOM      1  C   UNL d   1      -1.359   1.759   1.729  0.00  0.00     0.023 A 
ATOM      2  C1  UNL d   1      -1.285   1.933   0.347  0.00  0.00     0.003 A 
ATOM      3  C2  UNL d   1      -0.570   1.023  -0.435  0.00  0.00     0.048 A 
ATOM      4  C3  UNL d   1       0.068  -0.058   0.172  0.00  0.00     0.023 A 
ATOM      5  C4  UNL d   1      -0.004  -0.236   1.554  0.00  0.00     0.048 A 
ATOM      6  C5  UNL d   1      -0.719   0.676   2.332  0.00  0.00     0.003 A 
ATOM      7  I   UNL d   1       1.132  -1.414  -0.990  0.00  0.00    -0.146 I 
ENDROOT
TORSDOF 0
ENDMDL
