MODEL 1
REMARK minimizedAffinity -1.92059374
REMARK minimizedRMSD -1
REMARK  0 active torsions:
REMARK  status: ('A' for Active; 'I' for Inactive)
ROOT
ATOM      1  C   UNL d   1      -2.423   1.373   1.690  0.00  0.00     0.023 A 
ATOM      2  C1  UNL d   1      -1.096   1.285   2.109  0.00  0.00     0.003 A 
ATOM      3  C2  UNL d   1      -0.063   1.313   1.170  0.00  0.00     0.048 A 
ATOM      4  C3  UNL d   1      -0.364   1.431  -0.186  0.00  0.00     0.023 A 
ATOM      5  C4  UNL d   1      -1.691   1.521  -0.610  0.00  0.00     0.048 A 
ATOM      6  C5  UNL d   1      -2.720   1.492   0.332  0.00  0.00     0.003 A 
ATOM      7  I   UNL d   1       1.172   1.474  -1.586  0.00  0.00    -0.146 I 
ENDROOT
TORSDOF 0
ENDMDL
