MODEL 1
REMARK minimizedAffinity -3.70004773
REMARK minimizedRMSD -1
REMARK  0 active torsions:
REMARK  status: ('A' for Active; 'I' for Inactive)
ROOT
ATOM      1  C   UNL d   1      -1.563   1.915   1.499  0.00  0.00     0.023 A 
ATOM      2  C1  UNL d   1      -1.182   2.232   0.195  0.00  0.00     0.003 A 
ATOM      3  C2  UNL d   1      -0.382   1.350  -0.534  0.00  0.00     0.048 A 
ATOM      4  C3  UNL d   1       0.033   0.152   0.047  0.00  0.00     0.023 A 
ATOM      5  C4  UNL d   1      -0.347  -0.170   1.351  0.00  0.00     0.048 A 
ATOM      6  C5  UNL d   1      -1.146   0.716   2.076  0.00  0.00     0.003 A 
ATOM      7  I   UNL d   1       1.223  -1.164  -1.036  0.00  0.00    -0.146 I 
ENDROOT
TORSDOF 0
ENDMDL
