MODEL 1
REMARK minimizedAffinity -1.64046597
REMARK minimizedRMSD -1
REMARK  0 active torsions:
REMARK  status: ('A' for Active; 'I' for Inactive)
ROOT
ATOM      1  C   UNL d   1      -1.917   1.496   1.805  0.00  0.00     0.023 A 
ATOM      2  C1  UNL d   1      -1.564   0.171   2.062  0.00  0.00     0.003 A 
ATOM      3  C2  UNL d   1      -0.669  -0.490   1.219  0.00  0.00     0.048 A 
ATOM      4  C3  UNL d   1      -0.129   0.179   0.122  0.00  0.00     0.023 A 
ATOM      5  C4  UNL d   1      -0.478   1.505  -0.139  0.00  0.00     0.048 A 
ATOM      6  C5  UNL d   1      -1.374   2.162   0.706  0.00  0.00     0.003 A 
ATOM      7  I   UNL d   1       1.204  -0.804  -1.134  0.00  0.00    -0.146 I 
ENDROOT
TORSDOF 0
ENDMDL
