MODEL 1
REMARK minimizedAffinity -3.77797627
REMARK minimizedRMSD -1
REMARK  0 active torsions:
REMARK  status: ('A' for Active; 'I' for Inactive)
ROOT
ATOM      1  C   UNL d   1      -1.000   0.771   1.702  0.00  0.00     0.023 A 
ATOM      2  C1  UNL d   1      -0.438  -0.451   2.073  0.00  0.00     0.003 A 
ATOM      3  C2  UNL d   1       0.070  -1.312   1.099  0.00  0.00     0.048 A 
ATOM      4  C3  UNL d   1       0.014  -0.945  -0.245  0.00  0.00     0.023 A 
ATOM      5  C4  UNL d   1      -0.546   0.277  -0.621  0.00  0.00     0.048 A 
ATOM      6  C5  UNL d   1      -1.053   1.135   0.357  0.00  0.00     0.003 A 
ATOM      7  I   UNL d   1       0.769  -2.225  -1.698  0.00  0.00    -0.146 I 
ENDROOT
TORSDOF 0
ENDMDL
