MODEL 1
REMARK minimizedAffinity -4.30366707
REMARK minimizedRMSD -1
REMARK  0 active torsions:
REMARK  status: ('A' for Active; 'I' for Inactive)
ROOT
ATOM      1  C   UNL d   1      -1.501   1.597   1.521  0.00  0.00     0.023 A 
ATOM      2  C1  UNL d   1      -0.988   0.458   2.141  0.00  0.00     0.003 A 
ATOM      3  C2  UNL d   1      -0.377  -0.539   1.377  0.00  0.00     0.048 A 
ATOM      4  C3  UNL d   1      -0.283  -0.390  -0.006  0.00  0.00     0.023 A 
ATOM      5  C4  UNL d   1      -0.795   0.748  -0.631  0.00  0.00     0.048 A 
ATOM      6  C5  UNL d   1      -1.405   1.742   0.137  0.00  0.00     0.003 A 
ATOM      7  I   UNL d   1       0.625  -1.873  -1.145  0.00  0.00    -0.146 I 
ENDROOT
TORSDOF 0
ENDMDL
