MODEL 1
REMARK minimizedAffinity -2.53083444
REMARK minimizedRMSD -1
REMARK  0 active torsions:
REMARK  status: ('A' for Active; 'I' for Inactive)
ROOT
ATOM      1  C   UNL d   1      -0.860   1.147   1.316  0.00  0.00     0.023 A 
ATOM      2  C1  UNL d   1      -1.186   1.231  -0.038  0.00  0.00     0.003 A 
ATOM      3  C2  UNL d   1      -0.667   0.301  -0.941  0.00  0.00     0.048 A 
ATOM      4  C3  UNL d   1       0.175  -0.712  -0.483  0.00  0.00     0.023 A 
ATOM      5  C4  UNL d   1       0.503  -0.800   0.871  0.00  0.00     0.048 A 
ATOM      6  C5  UNL d   1      -0.017   0.133   1.769  0.00  0.00     0.003 A 
ATOM      7  I   UNL d   1       0.948  -2.098  -1.825  0.00  0.00    -0.146 I 
ENDROOT
TORSDOF 0
ENDMDL
