MODEL 1
REMARK minimizedAffinity -3.05856323
REMARK minimizedRMSD -1
REMARK  0 active torsions:
REMARK  status: ('A' for Active; 'I' for Inactive)
ROOT
ATOM      1  C   UNL d   1      -2.109   1.938   1.888  0.00  0.00     0.023 A 
ATOM      2  C1  UNL d   1      -2.003   2.130   0.510  0.00  0.00     0.003 A 
ATOM      3  C2  UNL d   1      -1.176   1.299  -0.250  0.00  0.00     0.048 A 
ATOM      4  C3  UNL d   1      -0.460   0.278   0.374  0.00  0.00     0.023 A 
ATOM      5  C4  UNL d   1      -0.564   0.082   1.752  0.00  0.00     0.048 A 
ATOM      6  C5  UNL d   1      -1.391   0.916   2.508  0.00  0.00     0.003 A 
ATOM      7  I   UNL d   1       0.770  -0.959  -0.755  0.00  0.00    -0.146 I 
ENDROOT
TORSDOF 0
ENDMDL
