MODEL 1
REMARK minimizedAffinity 7.04648733
REMARK minimizedRMSD -1
REMARK  0 active torsions:
REMARK  status: ('A' for Active; 'I' for Inactive)
ROOT
ATOM      1  C1  BNZ d   1      -1.420  -3.752  -2.537  0.00  0.00     0.000 A 
ATOM      2  C2  BNZ d   1      -0.683  -4.882  -2.301  0.00  0.00     0.000 A 
ATOM      3  C3  BNZ d   1      -0.850  -6.000  -3.070  0.00  0.00     0.000 A 
ATOM      4  C4  BNZ d   1      -1.779  -6.000  -4.047  0.00  0.00     0.000 A 
ATOM      5  C5  BNZ d   1      -2.536  -4.872  -4.292  0.00  0.00     0.000 A 
ATOM      6  C6  BNZ d   1      -2.339  -3.736  -3.541  0.00  0.00     0.000 A 
ENDROOT
TORSDOF 0
ENDMDL
