MODEL 1
REMARK minimizedAffinity -3.41418099
REMARK minimizedRMSD -1
REMARK  0 active torsions:
REMARK  status: ('A' for Active; 'I' for Inactive)
ROOT
ATOM      1  C1  BNZ d   1       4.071  -3.985  -3.320  0.00  0.00     0.000 A 
ATOM      2  C2  BNZ d   1       4.599  -4.356  -2.112  0.00  0.00     0.000 A 
ATOM      3  C3  BNZ d   1       3.810  -4.445  -1.000  0.00  0.00     0.000 A 
ATOM      4  C4  BNZ d   1       2.503  -4.125  -1.088  0.00  0.00     0.000 A 
ATOM      5  C5  BNZ d   1       1.957  -3.740  -2.296  0.00  0.00     0.000 A 
ATOM      6  C6  BNZ d   1       2.747  -3.689  -3.422  0.00  0.00     0.000 A 
ENDROOT
TORSDOF 0
ENDMDL
