MODEL 1
REMARK minimizedAffinity 1.8402555
REMARK minimizedRMSD -1
REMARK  0 active torsions:
REMARK  status: ('A' for Active; 'I' for Inactive)
ROOT
ATOM      1  C1  BNZ d   1       1.369  -1.461  -1.348  0.00  0.00     0.000 A 
ATOM      2  C2  BNZ d   1       1.020  -1.082  -2.617  0.00  0.00     0.000 A 
ATOM      3  C3  BNZ d   1       1.543   0.050  -3.178  0.00  0.00     0.000 A 
ATOM      4  C4  BNZ d   1       2.382   0.821  -2.457  0.00  0.00     0.000 A 
ATOM      5  C5  BNZ d   1       2.736   0.457  -1.173  0.00  0.00     0.000 A 
ATOM      6  C6  BNZ d   1       2.238  -0.703  -0.625  0.00  0.00     0.000 A 
ENDROOT
TORSDOF 0
ENDMDL
