MODEL 1
REMARK minimizedAffinity 10.2448339
REMARK minimizedRMSD -1
REMARK  0 active torsions:
REMARK  status: ('A' for Active; 'I' for Inactive)
ROOT
ATOM      1  C1  BNZ d   1       1.923  -0.292  -0.235  0.00  0.00     0.000 A 
ATOM      2  C2  BNZ d   1       1.099  -1.194  -0.853  0.00  0.00     0.000 A 
ATOM      3  C3  BNZ d   1       0.842  -1.104  -2.193  0.00  0.00     0.000 A 
ATOM      4  C4  BNZ d   1       1.375  -0.090  -2.903  0.00  0.00     0.000 A 
ATOM      5  C5  BNZ d   1       2.201   0.834  -2.293  0.00  0.00     0.000 A 
ATOM      6  C6  BNZ d   1       2.489   0.717  -0.952  0.00  0.00     0.000 A 
ENDROOT
TORSDOF 0
ENDMDL
