MODEL 1
REMARK minimizedAffinity 3.52600765
REMARK minimizedRMSD -1
REMARK  0 active torsions:
REMARK  status: ('A' for Active; 'I' for Inactive)
ROOT
ATOM      1  C1  BNZ d   1       1.521   0.525  -3.315  0.00  0.00     0.000 A 
ATOM      2  C2  BNZ d   1       1.518   1.895  -3.295  0.00  0.00     0.000 A 
ATOM      3  C3  BNZ d   1       2.200   2.582  -2.329  0.00  0.00     0.000 A 
ATOM      4  C4  BNZ d   1       2.850   1.900  -1.364  0.00  0.00     0.000 A 
ATOM      5  C5  BNZ d   1       2.854   0.519  -1.366  0.00  0.00     0.000 A 
ATOM      6  C6  BNZ d   1       2.199  -0.169  -2.362  0.00  0.00     0.000 A 
ENDROOT
TORSDOF 0
ENDMDL
