MODEL 1
REMARK minimizedAffinity -0.708922386
REMARK minimizedRMSD -1
REMARK  0 active torsions:
REMARK  status: ('A' for Active; 'I' for Inactive)
ROOT
ATOM      1  C1  BNZ d   1       2.440   3.684  -1.495  0.00  0.00     0.000 A 
ATOM      2  C2  BNZ d   1       2.976   2.427  -1.595  0.00  0.00     0.000 A 
ATOM      3  C3  BNZ d   1       2.343   1.350  -1.040  0.00  0.00     0.000 A 
ATOM      4  C4  BNZ d   1       1.197   1.536  -0.354  0.00  0.00     0.000 A 
ATOM      5  C5  BNZ d   1       0.649   2.798  -0.236  0.00  0.00     0.000 A 
ATOM      6  C6  BNZ d   1       1.269   3.874  -0.829  0.00  0.00     0.000 A 
ENDROOT
TORSDOF 0
ENDMDL
