MODEL 1
REMARK minimizedAffinity -2.04779029
REMARK minimizedRMSD -1
REMARK  0 active torsions:
REMARK  status: ('A' for Active; 'I' for Inactive)
ROOT
ATOM      1  C1  BNZ d   1       2.038   0.319  -1.010  0.00  0.00     0.000 A 
ATOM      2  C2  BNZ d   1       1.287   1.203  -0.282  0.00  0.00     0.000 A 
ATOM      3  C3  BNZ d   1       1.158   2.505  -0.679  0.00  0.00     0.000 A 
ATOM      4  C4  BNZ d   1       1.812   2.931  -1.779  0.00  0.00     0.000 A 
ATOM      5  C5  BNZ d   1       2.581   2.054  -2.518  0.00  0.00     0.000 A 
ATOM      6  C6  BNZ d   1       2.677   0.735  -2.137  0.00  0.00     0.000 A 
ENDROOT
TORSDOF 0
ENDMDL
