MODEL 1
REMARK minimizedAffinity 0.571253717
REMARK minimizedRMSD -1
REMARK  0 active torsions:
REMARK  status: ('A' for Active; 'I' for Inactive)
ROOT
ATOM      1  C1  BNZ d   1       2.906  -0.056  -1.712  0.00  0.00     0.000 A 
ATOM      2  C2  BNZ d   1       1.698  -0.387  -2.265  0.00  0.00     0.000 A 
ATOM      3  C3  BNZ d   1       1.019  -1.499  -1.851  0.00  0.00     0.000 A 
ATOM      4  C4  BNZ d   1       1.568  -2.299  -0.915  0.00  0.00     0.000 A 
ATOM      5  C5  BNZ d   1       2.790  -1.984  -0.354  0.00  0.00     0.000 A 
ATOM      6  C6  BNZ d   1       3.452  -0.843  -0.746  0.00  0.00     0.000 A 
ENDROOT
TORSDOF 0
ENDMDL
