MODEL 1
REMARK minimizedAffinity -2.23780704
REMARK minimizedRMSD -1
REMARK  0 active torsions:
REMARK  status: ('A' for Active; 'I' for Inactive)
ROOT
ATOM      1  C1  BNZ d   1       0.980   3.361  -0.101  0.00  0.00     0.000 A 
ATOM      2  C2  BNZ d   1       1.215   2.016  -0.197  0.00  0.00     0.000 A 
ATOM      3  C3  BNZ d   1       1.975   1.509  -1.214  0.00  0.00     0.000 A 
ATOM      4  C4  BNZ d   1       2.465   2.342  -2.154  0.00  0.00     0.000 A 
ATOM      5  C5  BNZ d   1       2.229   3.700  -2.076  0.00  0.00     0.000 A 
ATOM      6  C6  BNZ d   1       1.496   4.211  -1.030  0.00  0.00     0.000 A 
ENDROOT
TORSDOF 0
ENDMDL
