MODEL 1
REMARK minimizedAffinity 4.23646164
REMARK minimizedRMSD -1
REMARK  0 active torsions:
REMARK  status: ('A' for Active; 'I' for Inactive)
ROOT
ATOM      1  C1  BNZ d   1      -4.850  -1.886   3.350  0.00  0.00     0.000 A 
ATOM      2  C2  BNZ d   1      -3.699  -2.626   3.296  0.00  0.00     0.000 A 
ATOM      3  C3  BNZ d   1      -3.683  -3.854   2.695  0.00  0.00     0.000 A 
ATOM      4  C4  BNZ d   1      -4.826  -4.356   2.186  0.00  0.00     0.000 A 
ATOM      5  C5  BNZ d   1      -5.997  -3.627   2.241  0.00  0.00     0.000 A 
ATOM      6  C6  BNZ d   1      -6.000  -2.375   2.812  0.00  0.00     0.000 A 
ENDROOT
TORSDOF 0
ENDMDL
