MODEL 1
REMARK minimizedAffinity -3.80102372
REMARK minimizedRMSD -1
REMARK  0 active torsions:
REMARK  status: ('A' for Active; 'I' for Inactive)
ROOT
ATOM      1  C1  BNZ d   1      -4.174   5.182  -5.718  0.00  0.00     0.000 A 
ATOM      2  C2  BNZ d   1      -4.941   4.053  -5.606  0.00  0.00     0.000 A 
ATOM      3  C3  BNZ d   1      -4.371   2.812  -5.664  0.00  0.00     0.000 A 
ATOM      4  C4  BNZ d   1      -3.044   2.701  -5.875  0.00  0.00     0.000 A 
ATOM      5  C5  BNZ d   1      -2.259   3.830  -6.000  0.00  0.00     0.000 A 
ATOM      6  C6  BNZ d   1      -2.830   5.078  -5.902  0.00  0.00     0.000 A 
ENDROOT
TORSDOF 0
ENDMDL
