MODEL 1
REMARK minimizedAffinity 12.1123724
REMARK minimizedRMSD -1
REMARK  0 active torsions:
REMARK  status: ('A' for Active; 'I' for Inactive)
ROOT
ATOM      1  C1  BNZ d   1       1.139  -1.169  -2.365  0.00  0.00     0.000 A 
ATOM      2  C2  BNZ d   1       1.376   0.143  -2.052  0.00  0.00     0.000 A 
ATOM      3  C3  BNZ d   1       2.119   0.478  -0.954  0.00  0.00     0.000 A 
ATOM      4  C4  BNZ d   1       2.589  -0.497  -0.150  0.00  0.00     0.000 A 
ATOM      5  C5  BNZ d   1       2.351  -1.824  -0.447  0.00  0.00     0.000 A 
ATOM      6  C6  BNZ d   1       1.636  -2.159  -1.574  0.00  0.00     0.000 A 
ENDROOT
TORSDOF 0
ENDMDL
