MODEL 1
REMARK minimizedAffinity 2.71099043
REMARK minimizedRMSD -1
REMARK  0 active torsions:
REMARK  status: ('A' for Active; 'I' for Inactive)
ROOT
ATOM      1  C1  BNZ d   1      -2.281  -4.574  -3.232  0.00  0.00     0.000 A 
ATOM      2  C2  BNZ d   1      -3.017  -4.770  -4.370  0.00  0.00     0.000 A 
ATOM      3  C3  BNZ d   1      -2.842  -3.969  -5.463  0.00  0.00     0.000 A 
ATOM      4  C4  BNZ d   1      -1.961  -2.949  -5.404  0.00  0.00     0.000 A 
ATOM      5  C5  BNZ d   1      -1.218  -2.733  -4.261  0.00  0.00     0.000 A 
ATOM      6  C6  BNZ d   1      -1.369  -3.566  -3.175  0.00  0.00     0.000 A 
ENDROOT
TORSDOF 0
ENDMDL
