MODEL 1
REMARK minimizedAffinity 5.64691782
REMARK minimizedRMSD -1
REMARK  0 active torsions:
REMARK  status: ('A' for Active; 'I' for Inactive)
ROOT
ATOM      1  C1  BNZ d   1       1.967   5.144  -1.851  0.00  0.00     0.000 A 
ATOM      2  C2  BNZ d   1       1.697   4.012  -2.572  0.00  0.00     0.000 A 
ATOM      3  C3  BNZ d   1       1.335   2.852  -1.945  0.00  0.00     0.000 A 
ATOM      4  C4  BNZ d   1       1.282   2.816  -0.598  0.00  0.00     0.000 A 
ATOM      5  C5  BNZ d   1       1.560   3.947   0.143  0.00  0.00     0.000 A 
ATOM      6  C6  BNZ d   1       1.886   5.123  -0.493  0.00  0.00     0.000 A 
ENDROOT
TORSDOF 0
ENDMDL
