MODEL 1
REMARK minimizedAffinity 5.02317953
REMARK minimizedRMSD -1
REMARK  0 active torsions:
REMARK  status: ('A' for Active; 'I' for Inactive)
ROOT
ATOM      1  C1  BNZ d   1       1.121   1.510  -2.741  0.00  0.00     0.000 A 
ATOM      2  C2  BNZ d   1       0.656   2.798  -2.751  0.00  0.00     0.000 A 
ATOM      3  C3  BNZ d   1       1.222   3.753  -1.954  0.00  0.00     0.000 A 
ATOM      4  C4  BNZ d   1       2.224   3.411  -1.118  0.00  0.00     0.000 A 
ATOM      5  C5  BNZ d   1       2.697   2.114  -1.089  0.00  0.00     0.000 A 
ATOM      6  C6  BNZ d   1       2.152   1.165  -1.922  0.00  0.00     0.000 A 
ENDROOT
TORSDOF 0
ENDMDL
