MODEL 1
REMARK minimizedAffinity 3.80806732
REMARK minimizedRMSD -1
REMARK  0 active torsions:
REMARK  status: ('A' for Active; 'I' for Inactive)
ROOT
ATOM      1  C1  BNZ d   1      -1.657  -2.188   4.126  0.00  0.00     0.000 A 
ATOM      2  C2  BNZ d   1      -2.846  -2.766   3.768  0.00  0.00     0.000 A 
ATOM      3  C3  BNZ d   1      -2.896  -3.710   2.781  0.00  0.00     0.000 A 
ATOM      4  C4  BNZ d   1      -1.766  -4.045   2.126  0.00  0.00     0.000 A 
ATOM      5  C5  BNZ d   1      -0.561  -3.465   2.469  0.00  0.00     0.000 A 
ATOM      6  C6  BNZ d   1      -0.508  -2.543   3.489  0.00  0.00     0.000 A 
ENDROOT
TORSDOF 0
ENDMDL
