MODEL 1
REMARK minimizedAffinity 3.25852752
REMARK minimizedRMSD -1
REMARK  0 active torsions:
REMARK  status: ('A' for Active; 'I' for Inactive)
ROOT
ATOM      1  C1  BNZ d   1       1.656   2.300  -1.837  0.00  0.00     0.000 A 
ATOM      2  C2  BNZ d   1       1.721   3.507  -2.482  0.00  0.00     0.000 A 
ATOM      3  C3  BNZ d   1       1.716   4.678  -1.777  0.00  0.00     0.000 A 
ATOM      4  C4  BNZ d   1       1.606   4.643  -0.434  0.00  0.00     0.000 A 
ATOM      5  C5  BNZ d   1       1.531   3.435   0.231  0.00  0.00     0.000 A 
ATOM      6  C6  BNZ d   1       1.576   2.257  -0.479  0.00  0.00     0.000 A 
ENDROOT
TORSDOF 0
ENDMDL
