MODEL 1
REMARK minimizedAffinity 3.69733
REMARK minimizedRMSD -1
REMARK  0 active torsions:
REMARK  status: ('A' for Active; 'I' for Inactive)
ROOT
ATOM      1  C1  BNZ d   1       1.596   4.288  -1.571  0.00  0.00     0.000 A 
ATOM      2  C2  BNZ d   1       2.309   3.125  -1.450  0.00  0.00     0.000 A 
ATOM      3  C3  BNZ d   1       1.970   2.017  -2.175  0.00  0.00     0.000 A 
ATOM      4  C4  BNZ d   1       0.896   2.061  -2.990  0.00  0.00     0.000 A 
ATOM      5  C5  BNZ d   1       0.161   3.223  -3.116  0.00  0.00     0.000 A 
ATOM      6  C6  BNZ d   1       0.529   4.348  -2.413  0.00  0.00     0.000 A 
ENDROOT
TORSDOF 0
ENDMDL
