MODEL 1
REMARK minimizedAffinity 5.0660305
REMARK minimizedRMSD -1
REMARK  0 active torsions:
REMARK  status: ('A' for Active; 'I' for Inactive)
ROOT
ATOM      1  C   UNL d   1       0.001   1.756   0.246  0.00  0.00     0.023 A 
ATOM      2  C1  UNL d   1      -0.353   1.786  -1.103  0.00  0.00     0.003 A 
ATOM      3  C2  UNL d   1      -0.641   3.003  -1.724  0.00  0.00     0.048 A 
ATOM      4  C3  UNL d   1      -0.573   4.187  -0.990  0.00  0.00     0.023 A 
ATOM      5  C4  UNL d   1      -0.218   4.162   0.360  0.00  0.00     0.048 A 
ATOM      6  C5  UNL d   1       0.069   2.943   0.976  0.00  0.00     0.003 A 
ATOM      7  I   UNL d   1      -1.001   6.000  -1.911  0.00  0.00    -0.146 I 
ENDROOT
TORSDOF 0
ENDMDL
