MODEL 1
REMARK minimizedAffinity 4.67375326
REMARK minimizedRMSD -1
REMARK  0 active torsions:
REMARK  status: ('A' for Active; 'I' for Inactive)
ROOT
ATOM      1  C   UNL d   1       4.883  -5.999  -3.378  0.00  0.00     0.023 A 
ATOM      2  C1  UNL d   1       3.808  -5.273  -3.891  0.00  0.00     0.003 A 
ATOM      3  C2  UNL d   1       3.331  -4.152  -3.208  0.00  0.00     0.048 A 
ATOM      4  C3  UNL d   1       3.935  -3.762  -2.013  0.00  0.00     0.023 A 
ATOM      5  C4  UNL d   1       5.011  -4.485  -1.496  0.00  0.00     0.048 A 
ATOM      6  C5  UNL d   1       5.484  -5.606  -2.182  0.00  0.00     0.003 A 
ATOM      7  I   UNL d   1       3.228  -2.093  -0.996  0.00  0.00    -0.146 I 
ENDROOT
TORSDOF 0
ENDMDL
