MODEL 1
REMARK minimizedAffinity 1.25867629
REMARK minimizedRMSD -1
REMARK  0 active torsions:
REMARK  status: ('A' for Active; 'I' for Inactive)
ROOT
ATOM      1  C   UNL d   1       4.910  -3.845  -0.966  0.00  0.00     0.023 A 
ATOM      2  C1  UNL d   1       3.990  -4.096   0.052  0.00  0.00     0.003 A 
ATOM      3  C2  UNL d   1       3.495  -3.044   0.824  0.00  0.00     0.048 A 
ATOM      4  C3  UNL d   1       3.925  -1.741   0.574  0.00  0.00     0.023 A 
ATOM      5  C4  UNL d   1       4.846  -1.484  -0.444  0.00  0.00     0.048 A 
ATOM      6  C5  UNL d   1       5.338  -2.540  -1.213  0.00  0.00     0.003 A 
ATOM      7  I   UNL d   1       3.191  -0.172   1.722  0.00  0.00    -0.146 I 
ENDROOT
TORSDOF 0
ENDMDL
