MODEL 1
REMARK minimizedAffinity -0.834692836
REMARK minimizedRMSD -1
REMARK  0 active torsions:
REMARK  status: ('A' for Active; 'I' for Inactive)
ROOT
ATOM      1  C   UNL d   1       3.661  -2.385  -3.202  0.00  0.00     0.023 A 
ATOM      2  C1  UNL d   1       3.860  -3.744  -3.445  0.00  0.00     0.003 A 
ATOM      3  C2  UNL d   1       4.400  -4.561  -2.450  0.00  0.00     0.048 A 
ATOM      4  C3  UNL d   1       4.738  -4.012  -1.213  0.00  0.00     0.023 A 
ATOM      5  C4  UNL d   1       4.540  -2.653  -0.965  0.00  0.00     0.048 A 
ATOM      6  C5  UNL d   1       4.001  -1.840  -1.964  0.00  0.00     0.003 A 
ATOM      7  I   UNL d   1       5.541  -5.226   0.271  0.00  0.00    -0.146 I 
ENDROOT
TORSDOF 0
ENDMDL
