MODEL 1
REMARK minimizedAffinity 1.84023511
REMARK minimizedRMSD -1
REMARK  0 active torsions:
REMARK  status: ('A' for Active; 'I' for Inactive)
ROOT
ATOM      1  C   UNL d   1       5.344  -2.597  -1.080  0.00  0.00     0.023 A 
ATOM      2  C1  UNL d   1       4.090  -2.277  -0.558  0.00  0.00     0.003 A 
ATOM      3  C2  UNL d   1       3.094  -3.252  -0.484  0.00  0.00     0.048 A 
ATOM      4  C3  UNL d   1       3.358  -4.546  -0.931  0.00  0.00     0.023 A 
ATOM      5  C4  UNL d   1       4.611  -4.871  -1.453  0.00  0.00     0.048 A 
ATOM      6  C5  UNL d   1       5.604  -3.893  -1.527  0.00  0.00     0.003 A 
ATOM      7  I   UNL d   1       1.876  -6.000  -0.821  0.00  0.00    -0.146 I 
ENDROOT
TORSDOF 0
ENDMDL
