MODEL 1
REMARK minimizedAffinity 4.04228306
REMARK minimizedRMSD -1
REMARK  0 active torsions:
REMARK  status: ('A' for Active; 'I' for Inactive)
ROOT
ATOM      1  C   UNL d   1      -3.031   0.248  -1.714  0.00  0.00     0.023 A 
ATOM      2  C1  UNL d   1      -1.960   0.384  -0.831  0.00  0.00     0.003 A 
ATOM      3  C2  UNL d   1      -1.228   1.573  -0.796  0.00  0.00     0.048 A 
ATOM      4  C3  UNL d   1      -1.574   2.622  -1.647  0.00  0.00     0.023 A 
ATOM      5  C4  UNL d   1      -2.645   2.491  -2.532  0.00  0.00     0.048 A 
ATOM      6  C5  UNL d   1      -3.373   1.300  -2.564  0.00  0.00     0.003 A 
ATOM      7  I   UNL d   1      -0.487   4.393  -1.598  0.00  0.00    -0.146 I 
ENDROOT
TORSDOF 0
ENDMDL
