MODEL 1
REMARK minimizedAffinity -0.727822661
REMARK minimizedRMSD -1
REMARK  0 active torsions:
REMARK  status: ('A' for Active; 'I' for Inactive)
ROOT
ATOM      1  C   UNL d   1       5.163  -2.052  -0.389  0.00  0.00     0.023 A 
ATOM      2  C1  UNL d   1       5.728  -3.241  -0.851  0.00  0.00     0.003 A 
ATOM      3  C2  UNL d   1       4.907  -4.316  -1.200  0.00  0.00     0.048 A 
ATOM      4  C3  UNL d   1       3.522  -4.194  -1.085  0.00  0.00     0.023 A 
ATOM      5  C4  UNL d   1       2.953  -3.006  -0.623  0.00  0.00     0.048 A 
ATOM      6  C5  UNL d   1       3.778  -1.935  -0.275  0.00  0.00     0.003 A 
ATOM      7  I   UNL d   1       2.298  -5.792  -1.603  0.00  0.00    -0.146 I 
ENDROOT
TORSDOF 0
ENDMDL
