MODEL 1
REMARK minimizedAffinity -3.34366775
REMARK minimizedRMSD -1
REMARK  0 active torsions:
REMARK  status: ('A' for Active; 'I' for Inactive)
ROOT
ATOM      1  C   UNL d   1       5.099  -2.120  -0.558  0.00  0.00     0.023 A 
ATOM      2  C1  UNL d   1       3.846  -1.845  -0.009  0.00  0.00     0.003 A 
ATOM      3  C2  UNL d   1       2.794  -2.747  -0.180  0.00  0.00     0.048 A 
ATOM      4  C3  UNL d   1       3.002  -3.923  -0.901  0.00  0.00     0.023 A 
ATOM      5  C4  UNL d   1       4.253  -4.203  -1.452  0.00  0.00     0.048 A 
ATOM      6  C5  UNL d   1       5.302  -3.297  -1.279  0.00  0.00     0.003 A 
ATOM      7  I   UNL d   1       1.437  -5.267  -1.157  0.00  0.00    -0.146 I 
ENDROOT
TORSDOF 0
ENDMDL
