MODEL 1
REMARK minimizedAffinity 1.45119393
REMARK minimizedRMSD -1
REMARK  0 active torsions:
REMARK  status: ('A' for Active; 'I' for Inactive)
ROOT
ATOM      1  C   UNL d   1       4.415  -2.435  -0.350  0.00  0.00     0.023 A 
ATOM      2  C1  UNL d   1       5.253  -3.551  -0.327  0.00  0.00     0.003 A 
ATOM      3  C2  UNL d   1       5.232  -4.463  -1.383  0.00  0.00     0.048 A 
ATOM      4  C3  UNL d   1       4.372  -4.254  -2.461  0.00  0.00     0.023 A 
ATOM      5  C4  UNL d   1       3.533  -3.139  -2.489  0.00  0.00     0.048 A 
ATOM      6  C5  UNL d   1       3.556  -2.230  -1.430  0.00  0.00     0.003 A 
ATOM      7  I   UNL d   1       4.339  -5.610  -4.035  0.00  0.00    -0.146 I 
ENDROOT
TORSDOF 0
ENDMDL
