MODEL 1
REMARK minimizedAffinity 0.0925430283
REMARK minimizedRMSD -1
REMARK  0 active torsions:
REMARK  status: ('A' for Active; 'I' for Inactive)
ROOT
ATOM      1  C   UNL d   1      -5.631  -3.093   5.774  0.00  0.00     0.023 A 
ATOM      2  C1  UNL d   1      -5.255  -3.809   4.638  0.00  0.00     0.003 A 
ATOM      3  C2  UNL d   1      -5.247  -3.186   3.388  0.00  0.00     0.048 A 
ATOM      4  C3  UNL d   1      -5.615  -1.845   3.282  0.00  0.00     0.023 A 
ATOM      5  C4  UNL d   1      -5.991  -1.124   4.416  0.00  0.00     0.048 A 
ATOM      6  C5  UNL d   1      -5.999  -1.752   5.663  0.00  0.00     0.003 A 
ATOM      7  I   UNL d   1      -5.603  -0.915   1.423  0.00  0.00    -0.146 I 
ENDROOT
TORSDOF 0
ENDMDL
