MODEL 1
REMARK minimizedAffinity -0.146417171
REMARK minimizedRMSD -1
REMARK  0 active torsions:
REMARK  status: ('A' for Active; 'I' for Inactive)
ROOT
ATOM      1  C   UNL d   1      -0.019   3.385  -1.108  0.00  0.00     0.023 A 
ATOM      2  C1  UNL d   1      -0.506   4.559  -1.682  0.00  0.00     0.003 A 
ATOM      3  C2  UNL d   1      -1.480   5.310  -1.020  0.00  0.00     0.048 A 
ATOM      4  C3  UNL d   1      -1.960   4.882   0.217  0.00  0.00     0.023 A 
ATOM      5  C4  UNL d   1      -1.475   3.708   0.796  0.00  0.00     0.048 A 
ATOM      6  C5  UNL d   1      -0.502   2.960   0.130  0.00  0.00     0.003 A 
ATOM      7  I   UNL d   1      -3.408   5.998   1.205  0.00  0.00    -0.146 I 
ENDROOT
TORSDOF 0
ENDMDL
