MODEL 1
REMARK minimizedAffinity -4.19869852
REMARK minimizedRMSD -1
REMARK  2 active torsions:
REMARK  status: ('A' for Active; 'I' for Inactive)
REMARK    1  A    between atoms: C1_2  and  C2_3 
REMARK    2  A    between atoms: C2_3  and  C3_4 
ROOT
ATOM      1  C3  UNL d   1      -0.810   0.756   0.730  0.00  0.00    -0.075 A 
ATOM      2  C4  UNL d   1      -1.294   0.354   1.983  0.00  0.00     0.002 A 
ATOM      3  C5  UNL d   1      -2.667   0.280   2.222  0.00  0.00     0.002 A 
ATOM      4  C6  UNL d   1      -3.571   0.617   1.217  0.00  0.00    -0.004 A 
ATOM      5  C7  UNL d   1      -3.101   1.034  -0.027  0.00  0.00     0.002 A 
ATOM      6  C8  UNL d   1      -1.728   1.104  -0.270  0.00  0.00     0.002 A 
ENDROOT
BRANCH   1   7
ATOM      7  C2  UNL d   1       0.674   0.810   0.456  0.00  0.00     0.056 C 
BRANCH   7   8
ATOM      8  C1  UNL d   1       1.041   1.510  -0.856  0.00  0.00     0.007 C 
ATOM      9  C   UNL d   1       2.126   0.785  -1.641  0.00  0.00     0.009 C 
ENDBRANCH   7   8
ENDBRANCH   1   7
TORSDOF 2
ENDMDL
