MODEL 1
REMARK minimizedAffinity -3.92244363
REMARK minimizedRMSD -1
REMARK  2 active torsions:
REMARK  status: ('A' for Active; 'I' for Inactive)
REMARK    1  A    between atoms: C1_2  and  C2_3 
REMARK    2  A    between atoms: C2_3  and  C3_4 
ROOT
ATOM      1  C3  UNL d   1      -1.307   0.150   1.213  0.00  0.00    -0.075 A 
ATOM      2  C4  UNL d   1      -2.325  -0.541   0.541  0.00  0.00     0.002 A 
ATOM      3  C5  UNL d   1      -3.645  -0.464   0.985  0.00  0.00     0.002 A 
ATOM      4  C6  UNL d   1      -3.963   0.295   2.109  0.00  0.00    -0.004 A 
ATOM      5  C7  UNL d   1      -2.956   0.973   2.794  0.00  0.00     0.002 A 
ATOM      6  C8  UNL d   1      -1.635   0.901   2.349  0.00  0.00     0.002 A 
ENDROOT
BRANCH   1   7
ATOM      7  C2  UNL d   1       0.120   0.095   0.720  0.00  0.00     0.056 C 
BRANCH   7   8
ATOM      8  C1  UNL d   1       0.699   1.459   0.331  0.00  0.00     0.007 C 
ATOM      9  C   UNL d   1       1.291   1.482  -1.072  0.00  0.00     0.009 C 
ENDBRANCH   7   8
ENDBRANCH   1   7
TORSDOF 2
ENDMDL
