MODEL 1
REMARK minimizedAffinity -3.54026771
REMARK minimizedRMSD -1
REMARK  2 active torsions:
REMARK  status: ('A' for Active; 'I' for Inactive)
REMARK    1  A    between atoms: C1_2  and  C2_3 
REMARK    2  A    between atoms: C2_3  and  C3_4 
ROOT
ATOM      1  C3  UNL d   1      -1.305   0.292   0.887  0.00  0.00    -0.075 A 
ATOM      2  C4  UNL d   1      -2.548   0.538   0.286  0.00  0.00     0.002 A 
ATOM      3  C5  UNL d   1      -3.664   0.840   1.066  0.00  0.00     0.002 A 
ATOM      4  C6  UNL d   1      -3.556   0.889   2.454  0.00  0.00    -0.004 A 
ATOM      5  C7  UNL d   1      -2.329   0.630   3.063  0.00  0.00     0.002 A 
ATOM      6  C8  UNL d   1      -1.209   0.332   2.285  0.00  0.00     0.002 A 
ENDROOT
BRANCH   1   7
ATOM      7  C2  UNL d   1      -0.086  -0.005   0.047  0.00  0.00     0.056 C 
BRANCH   7   8
ATOM      8  C1  UNL d   1       0.729   1.236  -0.332  0.00  0.00     0.007 C 
ATOM      9  C   UNL d   1       1.920   0.923  -1.228  0.00  0.00     0.009 C 
ENDBRANCH   7   8
ENDBRANCH   1   7
TORSDOF 2
ENDMDL
