MODEL 1
REMARK minimizedAffinity -4.54755211
REMARK minimizedRMSD -1
REMARK  2 active torsions:
REMARK  status: ('A' for Active; 'I' for Inactive)
REMARK    1  A    between atoms: C1_2  and  C2_3 
REMARK    2  A    between atoms: C2_3  and  C3_4 
ROOT
ATOM      1  C3  UNL d   1       0.819  -0.003  -0.247  0.00  0.00    -0.075 A 
ATOM      2  C4  UNL d   1       0.819  -1.342  -0.665  0.00  0.00     0.002 A 
ATOM      3  C5  UNL d   1       1.353  -1.697  -1.904  0.00  0.00     0.002 A 
ATOM      4  C6  UNL d   1       1.884  -0.719  -2.744  0.00  0.00    -0.004 A 
ATOM      5  C7  UNL d   1       1.874   0.616  -2.346  0.00  0.00     0.002 A 
ATOM      6  C8  UNL d   1       1.344   0.973  -1.104  0.00  0.00     0.002 A 
ENDROOT
BRANCH   1   7
ATOM      7  C2  UNL d   1       0.270   0.384   1.105  0.00  0.00     0.056 C 
BRANCH   7   8
ATOM      8  C1  UNL d   1      -1.261   0.392   1.177  0.00  0.00     0.007 C 
ATOM      9  C   UNL d   1      -1.801   1.146   2.385  0.00  0.00     0.009 C 
ENDBRANCH   7   8
ENDBRANCH   1   7
TORSDOF 2
ENDMDL
