MODEL 1
REMARK minimizedAffinity -4.17900276
REMARK minimizedRMSD -1
REMARK  2 active torsions:
REMARK  status: ('A' for Active; 'I' for Inactive)
REMARK    1  A    between atoms: C1_2  and  C2_3 
REMARK    2  A    between atoms: C2_3  and  C3_4 
ROOT
ATOM      1  C3  UNL d   1      -0.063   0.397   0.499  0.00  0.00    -0.075 A 
ATOM      2  C4  UNL d   1       0.041   1.794   0.440  0.00  0.00     0.002 A 
ATOM      3  C5  UNL d   1       0.767   2.408  -0.582  0.00  0.00     0.002 A 
ATOM      4  C6  UNL d   1       1.406   1.634  -1.548  0.00  0.00    -0.004 A 
ATOM      5  C7  UNL d   1       1.323   0.244  -1.489  0.00  0.00     0.002 A 
ATOM      6  C8  UNL d   1       0.593  -0.372  -0.471  0.00  0.00     0.002 A 
ENDROOT
BRANCH   1   7
ATOM      7  C2  UNL d   1      -0.871  -0.272   1.585  0.00  0.00     0.056 C 
BRANCH   7   8
ATOM      8  C1  UNL d   1      -2.041   0.572   2.101  0.00  0.00     0.007 C 
ATOM      9  C   UNL d   1      -3.389   0.137   1.541  0.00  0.00     0.009 C 
ENDBRANCH   7   8
ENDBRANCH   1   7
TORSDOF 2
ENDMDL
