MODEL 1
REMARK minimizedAffinity -3.26730967
REMARK minimizedRMSD -1
REMARK  2 active torsions:
REMARK  status: ('A' for Active; 'I' for Inactive)
REMARK    1  A    between atoms: C1_2  and  C2_3 
REMARK    2  A    between atoms: C2_3  and  C3_4 
ROOT
ATOM      1  C3  UNL d   1      -4.655   3.097  -5.983  0.00  0.00    -0.075 A 
ATOM      2  C4  UNL d   1      -5.763   3.957  -5.979  0.00  0.00     0.002 A 
ATOM      3  C5  UNL d   1      -5.586   5.341  -5.992  0.00  0.00     0.002 A 
ATOM      4  C6  UNL d   1      -4.302   5.881  -5.999  0.00  0.00    -0.004 A 
ATOM      5  C7  UNL d   1      -3.194   5.036  -5.986  0.00  0.00     0.002 A 
ATOM      6  C8  UNL d   1      -3.369   3.651  -5.978  0.00  0.00     0.002 A 
ENDROOT
BRANCH   1   7
ATOM      7  C2  UNL d   1      -4.841   1.598  -5.999  0.00  0.00     0.056 C 
BRANCH   7   8
ATOM      8  C1  UNL d   1      -3.728   0.824  -5.283  0.00  0.00     0.007 C 
ATOM      9  C   UNL d   1      -3.731  -0.664  -5.603  0.00  0.00     0.009 C 
ENDBRANCH   7   8
ENDBRANCH   1   7
TORSDOF 2
ENDMDL
