MODEL 1
REMARK minimizedAffinity -4.21709061
REMARK minimizedRMSD -1
REMARK  2 active torsions:
REMARK  status: ('A' for Active; 'I' for Inactive)
REMARK    1  A    between atoms: C1_2  and  C2_3 
REMARK    2  A    between atoms: C2_3  and  C3_4 
ROOT
ATOM      1  C3  UNL d   1      -0.484   0.124   1.008  0.00  0.00    -0.075 A 
ATOM      2  C4  UNL d   1      -0.032   1.300   0.390  0.00  0.00     0.002 A 
ATOM      3  C5  UNL d   1       0.860   1.240  -0.681  0.00  0.00     0.002 A 
ATOM      4  C6  UNL d   1       1.319   0.007  -1.141  0.00  0.00    -0.004 A 
ATOM      5  C7  UNL d   1       0.890  -1.166  -0.524  0.00  0.00     0.002 A 
ATOM      6  C8  UNL d   1      -0.006  -1.109   0.545  0.00  0.00     0.002 A 
ENDROOT
BRANCH   1   7
ATOM      7  C2  UNL d   1      -1.472   0.181   2.148  0.00  0.00     0.056 C 
BRANCH   7   8
ATOM      8  C1  UNL d   1      -2.925  -0.065   1.727  0.00  0.00     0.007 C 
ATOM      9  C   UNL d   1      -3.775   1.198   1.737  0.00  0.00     0.009 C 
ENDBRANCH   7   8
ENDBRANCH   1   7
TORSDOF 2
ENDMDL
