MODEL 1
REMARK minimizedAffinity -3.54650331
REMARK minimizedRMSD -1
REMARK  2 active torsions:
REMARK  status: ('A' for Active; 'I' for Inactive)
REMARK    1  A    between atoms: C1_2  and  C2_3 
REMARK    2  A    between atoms: C2_3  and  C3_4 
ROOT
ATOM      1  C3  UNL d   1      -1.048   0.259   0.794  0.00  0.00    -0.075 A 
ATOM      2  C4  UNL d   1      -1.477  -0.380   1.967  0.00  0.00     0.002 A 
ATOM      3  C5  UNL d   1      -2.811  -0.303   2.368  0.00  0.00     0.002 A 
ATOM      4  C6  UNL d   1      -3.729   0.420   1.610  0.00  0.00    -0.004 A 
ATOM      5  C7  UNL d   1      -3.311   1.072   0.452  0.00  0.00     0.002 A 
ATOM      6  C8  UNL d   1      -1.978   0.993   0.046  0.00  0.00     0.002 A 
ENDROOT
BRANCH   1   7
ATOM      7  C2  UNL d   1       0.388   0.155   0.339  0.00  0.00     0.056 C 
BRANCH   7   8
ATOM      8  C1  UNL d   1       0.720   1.022  -0.880  0.00  0.00     0.007 C 
ATOM      9  C   UNL d   1       2.044   0.654  -1.536  0.00  0.00     0.009 C 
ENDBRANCH   7   8
ENDBRANCH   1   7
TORSDOF 2
ENDMDL
