MODEL 1
REMARK minimizedAffinity -1.47862256
REMARK minimizedRMSD -1
REMARK  2 active torsions:
REMARK  status: ('A' for Active; 'I' for Inactive)
REMARK    1  A    between atoms: C1_2  and  C2_3 
REMARK    2  A    between atoms: C2_3  and  C3_4 
ROOT
ATOM      1  C3  UNL d   1       0.239   0.301   0.367  0.00  0.00    -0.075 A 
ATOM      2  C4  UNL d   1       1.002   1.308  -0.241  0.00  0.00     0.002 A 
ATOM      3  C5  UNL d   1       2.023   0.981  -1.134  0.00  0.00     0.002 A 
ATOM      4  C6  UNL d   1       2.300  -0.353  -1.422  0.00  0.00    -0.004 A 
ATOM      5  C7  UNL d   1       1.559  -1.362  -0.811  0.00  0.00     0.002 A 
ATOM      6  C8  UNL d   1       0.534  -1.038   0.080  0.00  0.00     0.002 A 
ENDROOT
BRANCH   1   7
ATOM      7  C2  UNL d   1      -0.887   0.649   1.312  0.00  0.00     0.056 C 
BRANCH   7   8
ATOM      8  C1  UNL d   1      -2.253   0.105   0.882  0.00  0.00     0.007 C 
ATOM      9  C   UNL d   1      -3.418   0.767   1.605  0.00  0.00     0.009 C 
ENDBRANCH   7   8
ENDBRANCH   1   7
TORSDOF 2
ENDMDL
