MODEL 1
REMARK minimizedAffinity -4.42128086
REMARK minimizedRMSD -1
REMARK  3 active torsions:
REMARK  status: ('A' for Active; 'I' for Inactive)
REMARK    1  A    between atoms: C3'_2  and  C2'_3 
REMARK    2  A    between atoms: C2'_3  and  C1'_4 
REMARK    3  A    between atoms: C1'_4  and  C1_5 
ROOT
ATOM      1  C1  N4B d   1      -0.332   0.535   0.223  0.00  0.00    -0.075 A 
ATOM      2  C2  N4B d   1       0.529   1.522  -0.307  0.00  0.00     0.002 A 
ATOM      3  C3  N4B d   1       0.283   2.850  -0.062  0.00  0.00     0.002 A 
ATOM      4  C4  N4B d   1      -0.822   3.216   0.691  0.00  0.00    -0.004 A 
ATOM      5  C5  N4B d   1      -1.634   2.257   1.221  0.00  0.00     0.002 A 
ATOM      6  C6  N4B d   1      -1.397   0.917   0.987  0.00  0.00     0.002 A 
ENDROOT
BRANCH   1   7
ATOM      7  C1' N4B d   1      -0.153  -0.925  -0.089  0.00  0.00     0.057 C 
BRANCH   7   8
ATOM      8  C2' N4B d   1      -0.386  -1.151  -1.580  0.00  0.00     0.009 C 
BRANCH   8   9
ATOM      9  C3' N4B d   1      -0.939  -2.536  -1.865  0.00  0.00     0.004 C 
ATOM     10  C4' N4B d   1      -0.543  -3.053  -3.216  0.00  0.00     0.003 C 
ENDBRANCH   8   9
ENDBRANCH   7   8
ENDBRANCH   1   7
TORSDOF 3
ENDMDL
