MODEL 1
REMARK minimizedAffinity -3.92578793
REMARK minimizedRMSD -1
REMARK  3 active torsions:
REMARK  status: ('A' for Active; 'I' for Inactive)
REMARK    1  A    between atoms: C3'_2  and  C2'_3 
REMARK    2  A    between atoms: C2'_3  and  C1'_4 
REMARK    3  A    between atoms: C1'_4  and  C1_5 
ROOT
ATOM      1  C1  N4B d   1      -0.009   0.959  -0.220  0.00  0.00    -0.075 A 
ATOM      2  C2  N4B d   1      -0.567   1.523   0.949  0.00  0.00     0.002 A 
ATOM      3  C3  N4B d   1      -0.565   2.885   1.121  0.00  0.00     0.002 A 
ATOM      4  C4  N4B d   1       0.003   3.699   0.152  0.00  0.00    -0.004 A 
ATOM      5  C5  N4B d   1       0.517   3.147  -0.985  0.00  0.00     0.002 A 
ATOM      6  C6  N4B d   1       0.518   1.780  -1.174  0.00  0.00     0.002 A 
ENDROOT
BRANCH   1   7
ATOM      7  C1' N4B d   1       0.089  -0.530  -0.414  0.00  0.00     0.057 C 
BRANCH   7   8
ATOM      8  C2' N4B d   1      -0.753  -0.934  -1.620  0.00  0.00     0.009 C 
BRANCH   8   9
ATOM      9  C3' N4B d   1      -0.111  -2.063  -2.409  0.00  0.00     0.004 C 
ATOM     10  C4' N4B d   1      -1.118  -2.949  -3.079  0.00  0.00     0.003 C 
ENDBRANCH   8   9
ENDBRANCH   7   8
ENDBRANCH   1   7
TORSDOF 3
ENDMDL
