MODEL 1
REMARK minimizedAffinity -5.2910533
REMARK minimizedRMSD -1
REMARK  3 active torsions:
REMARK  status: ('A' for Active; 'I' for Inactive)
REMARK    1  A    between atoms: C3'_2  and  C2'_3 
REMARK    2  A    between atoms: C2'_3  and  C1'_4 
REMARK    3  A    between atoms: C1'_4  and  C1_5 
ROOT
ATOM      1  C1  N4B d   1      -0.720  -0.241  -0.088  0.00  0.00    -0.075 A 
ATOM      2  C2  N4B d   1      -1.735   0.197   0.791  0.00  0.00     0.002 A 
ATOM      3  C3  N4B d   1      -1.854   1.533   1.090  0.00  0.00     0.002 A 
ATOM      4  C4  N4B d   1      -0.963   2.441   0.539  0.00  0.00    -0.004 A 
ATOM      5  C5  N4B d   1      -0.001   2.012  -0.329  0.00  0.00     0.002 A 
ATOM      6  C6  N4B d   1       0.128   0.674  -0.641  0.00  0.00     0.002 A 
ENDROOT
BRANCH   1   7
ATOM      7  C1' N4B d   1      -0.496  -1.700  -0.377  0.00  0.00     0.057 C 
BRANCH   7   8
ATOM      8  C2' N4B d   1       0.267  -1.839  -1.691  0.00  0.00     0.009 C 
BRANCH   8   9
ATOM      9  C3' N4B d   1      -0.165  -3.068  -2.472  0.00  0.00     0.004 C 
ATOM     10  C4' N4B d   1      -1.486  -2.885  -3.158  0.00  0.00     0.003 C 
ENDBRANCH   8   9
ENDBRANCH   7   8
ENDBRANCH   1   7
TORSDOF 3
ENDMDL
