MODEL 1
REMARK minimizedAffinity -3.78531504
REMARK minimizedRMSD -1
REMARK  3 active torsions:
REMARK  status: ('A' for Active; 'I' for Inactive)
REMARK    1  A    between atoms: C3'_2  and  C2'_3 
REMARK    2  A    between atoms: C2'_3  and  C1'_4 
REMARK    3  A    between atoms: C1'_4  and  C1_5 
ROOT
ATOM      1  C1  N4B d   1      -0.376  -0.403  -0.050  0.00  0.00    -0.075 A 
ATOM      2  C2  N4B d   1      -1.657   0.044   0.341  0.00  0.00     0.002 A 
ATOM      3  C3  N4B d   1      -1.887   1.384   0.537  0.00  0.00     0.002 A 
ATOM      4  C4  N4B d   1      -0.850   2.290   0.367  0.00  0.00    -0.004 A 
ATOM      5  C5  N4B d   1       0.378   1.852  -0.035  0.00  0.00     0.002 A 
ATOM      6  C6  N4B d   1       0.622   0.509  -0.240  0.00  0.00     0.002 A 
ENDROOT
BRANCH   1   7
ATOM      7  C1' N4B d   1      -0.055  -1.865  -0.193  0.00  0.00     0.057 C 
BRANCH   7   8
ATOM      8  C2' N4B d   1      -1.328  -2.625  -0.553  0.00  0.00     0.009 C 
BRANCH   8   9
ATOM      9  C3' N4B d   1      -1.405  -2.934  -2.038  0.00  0.00     0.004 C 
ATOM     10  C4' N4B d   1      -0.056  -2.984  -2.692  0.00  0.00     0.003 C 
ENDBRANCH   8   9
ENDBRANCH   7   8
ENDBRANCH   1   7
TORSDOF 3
ENDMDL
