MODEL 1
REMARK minimizedAffinity -4.57516861
REMARK minimizedRMSD -1
REMARK  3 active torsions:
REMARK  status: ('A' for Active; 'I' for Inactive)
REMARK    1  A    between atoms: C3'_2  and  C2'_3 
REMARK    2  A    between atoms: C2'_3  and  C1'_4 
REMARK    3  A    between atoms: C1'_4  and  C1_5 
ROOT
ATOM      1  C1  N4B d   1       0.271  -0.625   0.182  0.00  0.00    -0.075 A 
ATOM      2  C2  N4B d   1      -0.993  -0.068   0.476  0.00  0.00     0.002 A 
ATOM      3  C3  N4B d   1      -1.193   1.285   0.351  0.00  0.00     0.002 A 
ATOM      4  C4  N4B d   1      -0.143   2.100  -0.046  0.00  0.00    -0.004 A 
ATOM      5  C5  N4B d   1       1.068   1.550  -0.352  0.00  0.00     0.002 A 
ATOM      6  C6  N4B d   1       1.282   0.192  -0.235  0.00  0.00     0.002 A 
ENDROOT
BRANCH   1   7
ATOM      7  C1' N4B d   1       0.561  -2.087   0.387  0.00  0.00     0.057 C 
BRANCH   7   8
ATOM      8  C2' N4B d   1      -0.530  -2.913  -0.288  0.00  0.00     0.009 C 
BRANCH   8   9
ATOM      9  C3' N4B d   1      -0.208  -3.198  -1.745  0.00  0.00     0.004 C 
ATOM     10  C4' N4B d   1      -1.406  -3.644  -2.528  0.00  0.00     0.003 C 
ENDBRANCH   8   9
ENDBRANCH   7   8
ENDBRANCH   1   7
TORSDOF 3
ENDMDL
