MODEL 1
REMARK minimizedAffinity -5.08153963
REMARK minimizedRMSD -1
REMARK  2 active torsions:
REMARK  status: ('A' for Active; 'I' for Inactive)
REMARK    1  A    between atoms: C2'_3  and  C1'_4 
REMARK    2  A    between atoms: C1'_4  and  C1_5 
ROOT
ATOM      1  C1  I4B d   1      -0.865  -0.271   1.162  0.00  0.00    -0.075 A 
ATOM      2  C2  I4B d   1      -1.962   0.220   0.500  0.00  0.00     0.003 A 
ATOM      3  C3  I4B d   1      -1.814   0.844  -0.762  0.00  0.00     0.002 A 
ATOM      4  C4  I4B d   1      -0.552   1.001  -1.298  0.00  0.00    -0.004 A 
ATOM      5  C5  I4B d   1       0.558   0.483  -0.636  0.00  0.00     0.002 A 
ATOM      6  C6  I4B d   1       0.399  -0.169   0.596  0.00  0.00     0.003 A 
ENDROOT
BRANCH   1   7
ATOM      7  C1' I4B d   1      -1.054  -0.896   2.508  0.00  0.00     0.060 C 
BRANCH   7   8
ATOM      8  C2' I4B d   1      -1.361   0.211   3.497  0.00  0.00    -0.013 C 
ATOM      9  C4' I4B d   1      -2.104  -0.320   4.695  0.00  0.00     0.013 C 
ATOM     10  C3' I4B d   1      -0.063   0.843   3.901  0.00  0.00     0.013 C 
ENDBRANCH   7   8
ENDBRANCH   1   7
TORSDOF 2
ENDMDL
