MODEL 1
REMARK minimizedAffinity -3.25693655
REMARK minimizedRMSD -1
REMARK  2 active torsions:
REMARK  status: ('A' for Active; 'I' for Inactive)
REMARK    1  A    between atoms: C2'_3  and  C1'_4 
REMARK    2  A    between atoms: C1'_4  and  C1_5 
ROOT
ATOM      1  C1  I4B d   1      -0.186   0.307  -0.805  0.00  0.00    -0.075 A 
ATOM      2  C2  I4B d   1      -1.379   0.254  -0.128  0.00  0.00     0.003 A 
ATOM      3  C3  I4B d   1      -1.394   0.216   1.287  0.00  0.00     0.002 A 
ATOM      4  C4  I4B d   1      -0.201   0.182   1.979  0.00  0.00    -0.004 A 
ATOM      5  C5  I4B d   1       1.007   0.259   1.292  0.00  0.00     0.002 A 
ATOM      6  C6  I4B d   1       1.015   0.334  -0.109  0.00  0.00     0.003 A 
ENDROOT
BRANCH   1   7
ATOM      7  C1' I4B d   1      -0.206   0.312  -2.301  0.00  0.00     0.060 C 
BRANCH   7   8
ATOM      8  C2' I4B d   1       0.590  -0.884  -2.783  0.00  0.00    -0.013 C 
ATOM      9  C4' I4B d   1      -0.304  -1.912  -3.424  0.00  0.00     0.013 C 
ATOM     10  C3' I4B d   1       1.627  -0.391  -3.747  0.00  0.00     0.013 C 
ENDBRANCH   7   8
ENDBRANCH   1   7
TORSDOF 2
ENDMDL
