MODEL 1
REMARK minimizedAffinity -5.07486582
REMARK minimizedRMSD -1
REMARK  2 active torsions:
REMARK  status: ('A' for Active; 'I' for Inactive)
REMARK    1  A    between atoms: C2'_3  and  C1'_4 
REMARK    2  A    between atoms: C1'_4  and  C1_5 
ROOT
ATOM      1  C1  I4B d   1      -0.219   0.128  -0.125  0.00  0.00    -0.075 A 
ATOM      2  C2  I4B d   1      -1.349  -0.448   0.398  0.00  0.00     0.003 A 
ATOM      3  C3  I4B d   1      -1.417  -0.759   1.778  0.00  0.00     0.002 A 
ATOM      4  C4  I4B d   1      -0.321  -0.524   2.582  0.00  0.00    -0.004 A 
ATOM      5  C5  I4B d   1       0.816   0.081   2.055  0.00  0.00     0.002 A 
ATOM      6  C6  I4B d   1       0.863   0.421   0.695  0.00  0.00     0.003 A 
ENDROOT
BRANCH   1   7
ATOM      7  C1' I4B d   1      -0.168   0.412  -1.593  0.00  0.00     0.060 C 
BRANCH   7   8
ATOM      8  C2' I4B d   1       0.806  -0.562  -2.224  0.00  0.00    -0.013 C 
ATOM      9  C4' I4B d   1       0.081  -1.639  -2.987  0.00  0.00     0.013 C 
ATOM     10  C3' I4B d   1       1.722   0.215  -3.122  0.00  0.00     0.013 C 
ENDBRANCH   7   8
ENDBRANCH   1   7
TORSDOF 2
ENDMDL
