MODEL 1
REMARK minimizedAffinity -3.94270968
REMARK minimizedRMSD -1
REMARK  2 active torsions:
REMARK  status: ('A' for Active; 'I' for Inactive)
REMARK    1  A    between atoms: C2'_3  and  C1'_4 
REMARK    2  A    between atoms: C1'_4  and  C1_5 
ROOT
ATOM      1  C1  I4B d   1      -0.384   0.217  -0.320  0.00  0.00    -0.075 A 
ATOM      2  C2  I4B d   1       0.594  -0.134   0.578  0.00  0.00     0.003 A 
ATOM      3  C3  I4B d   1       0.250  -0.485   1.905  0.00  0.00     0.002 A 
ATOM      4  C4  I4B d   1      -1.070  -0.424   2.304  0.00  0.00    -0.004 A 
ATOM      5  C5  I4B d   1      -2.062  -0.091   1.387  0.00  0.00     0.002 A 
ATOM      6  C6  I4B d   1      -1.719   0.220   0.063  0.00  0.00     0.003 A 
ENDROOT
BRANCH   1   7
ATOM      7  C1' I4B d   1       0.018   0.614  -1.705  0.00  0.00     0.060 C 
BRANCH   7   8
ATOM      8  C2' I4B d   1       1.032  -0.395  -2.204  0.00  0.00    -0.013 C 
ATOM      9  C4' I4B d   1       0.370  -1.478  -3.014  0.00  0.00     0.013 C 
ATOM     10  C3' I4B d   1       2.055   0.341  -3.018  0.00  0.00     0.013 C 
ENDBRANCH   7   8
ENDBRANCH   1   7
TORSDOF 2
ENDMDL
