MODEL 1
REMARK minimizedAffinity -3.29199696
REMARK minimizedRMSD -1
REMARK  2 active torsions:
REMARK  status: ('A' for Active; 'I' for Inactive)
REMARK    1  A    between atoms: C2'_3  and  C1'_4 
REMARK    2  A    between atoms: C1'_4  and  C1_5 
ROOT
ATOM      1  C1  I4B d   1       0.003   0.035   0.041  0.00  0.00    -0.075 A 
ATOM      2  C2  I4B d   1       1.069   0.548   0.738  0.00  0.00     0.003 A 
ATOM      3  C3  I4B d   1       1.121   0.431   2.148  0.00  0.00     0.002 A 
ATOM      4  C4  I4B d   1       0.070  -0.158   2.820  0.00  0.00    -0.004 A 
ATOM      5  C5  I4B d   1      -0.998  -0.698   2.110  0.00  0.00     0.002 A 
ATOM      6  C6  I4B d   1      -1.027  -0.612   0.711  0.00  0.00     0.003 A 
ENDROOT
BRANCH   1   7
ATOM      7  C1' I4B d   1      -0.036   0.206  -1.445  0.00  0.00     0.060 C 
BRANCH   7   8
ATOM      8  C2' I4B d   1       1.114  -0.585  -2.036  0.00  0.00    -0.013 C 
ATOM      9  C4' I4B d   1       0.626  -1.850  -2.690  0.00  0.00     0.013 C 
ATOM     10  C3' I4B d   1       1.823   0.296  -3.022  0.00  0.00     0.013 C 
ENDBRANCH   7   8
ENDBRANCH   1   7
TORSDOF 2
ENDMDL
