MODEL 1
REMARK minimizedAffinity -3.6564846
REMARK minimizedRMSD -1
REMARK  2 active torsions:
REMARK  status: ('A' for Active; 'I' for Inactive)
REMARK    1  A    between atoms: C2'_3  and  C1'_4 
REMARK    2  A    between atoms: C1'_4  and  C1_5 
ROOT
ATOM      1  C1  I4B d   1       0.149   0.222  -0.310  0.00  0.00    -0.075 A 
ATOM      2  C2  I4B d   1      -1.000  -0.087   0.374  0.00  0.00     0.003 A 
ATOM      3  C3  I4B d   1      -0.978  -0.217   1.784  0.00  0.00     0.002 A 
ATOM      4  C4  I4B d   1       0.218  -0.079   2.460  0.00  0.00    -0.004 A 
ATOM      5  C5  I4B d   1       1.377   0.257   1.767  0.00  0.00     0.002 A 
ATOM      6  C6  I4B d   1       1.341   0.421   0.375  0.00  0.00     0.003 A 
ENDROOT
BRANCH   1   7
ATOM      7  C1' I4B d   1       0.096   0.319  -1.802  0.00  0.00     0.060 C 
BRANCH   7   8
ATOM      8  C2' I4B d   1       0.884  -0.842  -2.373  0.00  0.00    -0.013 C 
ATOM      9  C4' I4B d   1      -0.020  -1.825  -3.070  0.00  0.00     0.013 C 
ATOM     10  C3' I4B d   1       1.909  -0.287  -3.317  0.00  0.00     0.013 C 
ENDBRANCH   7   8
ENDBRANCH   1   7
TORSDOF 2
ENDMDL
