MODEL 1
REMARK minimizedAffinity -1.14207983
REMARK minimizedRMSD -1
REMARK  2 active torsions:
REMARK  status: ('A' for Active; 'I' for Inactive)
REMARK    1  A    between atoms: C2'_3  and  C1'_4 
REMARK    2  A    between atoms: C1'_4  and  C1_5 
ROOT
ATOM      1  C1  I4B d   1       0.134  -0.056   0.079  0.00  0.00    -0.075 A 
ATOM      2  C2  I4B d   1       1.011   0.037   1.131  0.00  0.00     0.003 A 
ATOM      3  C3  I4B d   1       0.537  -0.035   2.463  0.00  0.00     0.002 A 
ATOM      4  C4  I4B d   1      -0.818  -0.149   2.697  0.00  0.00    -0.004 A 
ATOM      5  C5  I4B d   1      -1.704  -0.267   1.630  0.00  0.00     0.002 A 
ATOM      6  C6  I4B d   1      -1.224  -0.232   0.312  0.00  0.00     0.003 A 
ENDROOT
BRANCH   1   7
ATOM      7  C1' I4B d   1       0.665   0.057  -1.315  0.00  0.00     0.060 C 
BRANCH   7   8
ATOM      8  C2' I4B d   1       0.737  -1.338  -1.901  0.00  0.00    -0.013 C 
ATOM      9  C4' I4B d   1      -0.599  -1.771  -2.445  0.00  0.00     0.013 C 
ATOM     10  C3' I4B d   1       1.783  -1.335  -2.976  0.00  0.00     0.013 C 
ENDBRANCH   7   8
ENDBRANCH   1   7
TORSDOF 2
ENDMDL
