MODEL 1
REMARK minimizedAffinity -3.45663023
REMARK minimizedRMSD -1
REMARK  2 active torsions:
REMARK  status: ('A' for Active; 'I' for Inactive)
REMARK    1  A    between atoms: C2'_3  and  C1'_4 
REMARK    2  A    between atoms: C1'_4  and  C1_5 
ROOT
ATOM      1  C1  I4B d   1      -0.027   0.340  -1.315  0.00  0.00    -0.075 A 
ATOM      2  C2  I4B d   1      -1.372   0.298  -1.042  0.00  0.00     0.003 A 
ATOM      3  C3  I4B d   1      -1.831   0.380   0.295  0.00  0.00     0.002 A 
ATOM      4  C4  I4B d   1      -0.915   0.453   1.324  0.00  0.00    -0.004 A 
ATOM      5  C5  I4B d   1       0.447   0.518   1.044  0.00  0.00     0.002 A 
ATOM      6  C6  I4B d   1       0.894   0.474  -0.284  0.00  0.00     0.003 A 
ENDROOT
BRANCH   1   7
ATOM      7  C1' I4B d   1       0.424   0.217  -2.736  0.00  0.00     0.060 C 
BRANCH   7   8
ATOM      8  C2' I4B d   1       1.113  -1.123  -2.893  0.00  0.00    -0.013 C 
ATOM      9  C4' I4B d   1       0.336  -2.033  -3.806  0.00  0.00     0.013 C 
ATOM     10  C3' I4B d   1       2.494  -0.874  -3.424  0.00  0.00     0.013 C 
ENDBRANCH   7   8
ENDBRANCH   1   7
TORSDOF 2
ENDMDL
