MODEL 1
REMARK minimizedAffinity -4.61998844
REMARK minimizedRMSD -1
REMARK  2 active torsions:
REMARK  status: ('A' for Active; 'I' for Inactive)
REMARK    1  A    between atoms: C2'_3  and  C1'_4 
REMARK    2  A    between atoms: C1'_4  and  C1_5 
ROOT
ATOM      1  C1  I4B d   1       0.015   0.042  -0.839  0.00  0.00    -0.075 A 
ATOM      2  C2  I4B d   1      -1.185  -0.286  -0.260  0.00  0.00     0.003 A 
ATOM      3  C3  I4B d   1      -1.292  -0.396   1.147  0.00  0.00     0.002 A 
ATOM      4  C4  I4B d   1      -0.169  -0.220   1.930  0.00  0.00    -0.004 A 
ATOM      5  C5  I4B d   1       1.042   0.135   1.343  0.00  0.00     0.002 A 
ATOM      6  C6  I4B d   1       1.133   0.279  -0.049  0.00  0.00     0.003 A 
ENDROOT
BRANCH   1   7
ATOM      7  C1' I4B d   1       0.100   0.118  -2.330  0.00  0.00     0.060 C 
BRANCH   7   8
ATOM      8  C2' I4B d   1       0.090  -1.298  -2.871  0.00  0.00    -0.013 C 
ATOM      9  C4' I4B d   1      -0.930  -1.455  -3.968  0.00  0.00     0.013 C 
ATOM     10  C3' I4B d   1       1.470  -1.615  -3.364  0.00  0.00     0.013 C 
ENDBRANCH   7   8
ENDBRANCH   1   7
TORSDOF 2
ENDMDL
