MODEL 1
REMARK minimizedAffinity -1.93578064
REMARK minimizedRMSD -1
REMARK  2 active torsions:
REMARK  status: ('A' for Active; 'I' for Inactive)
REMARK    1  A    between atoms: C2'_3  and  C1'_4 
REMARK    2  A    between atoms: C1'_4  and  C1_5 
ROOT
ATOM      1  C1  I4B d   1       0.346   0.411  -1.304  0.00  0.00    -0.075 A 
ATOM      2  C2  I4B d   1      -0.948   0.399  -0.845  0.00  0.00     0.003 A 
ATOM      3  C3  I4B d   1      -1.214   0.504   0.542  0.00  0.00     0.002 A 
ATOM      4  C4  I4B d   1      -0.162   0.569   1.432  0.00  0.00    -0.004 A 
ATOM      5  C5  I4B d   1       1.149   0.604   0.964  0.00  0.00     0.002 A 
ATOM      6  C6  I4B d   1       1.404   0.537  -0.413  0.00  0.00     0.003 A 
ENDROOT
BRANCH   1   7
ATOM      7  C1' I4B d   1       0.592   0.264  -2.772  0.00  0.00     0.060 C 
BRANCH   7   8
ATOM      8  C2' I4B d   1       0.990  -1.173  -3.037  0.00  0.00    -0.013 C 
ATOM      9  C4' I4B d   1       0.057  -1.825  -4.024  0.00  0.00     0.013 C 
ATOM     10  C3' I4B d   1       2.402  -1.177  -3.543  0.00  0.00     0.013 C 
ENDBRANCH   7   8
ENDBRANCH   1   7
TORSDOF 2
ENDMDL
