MODEL 1
REMARK minimizedAffinity 1.79006958
REMARK minimizedRMSD -1
REMARK  0 active torsions:
REMARK  status: ('A' for Active; 'I' for Inactive)
ROOT
ATOM      1  C1  BNZ d   1       5.631  -4.846   6.000  0.00  0.00     0.000 A 
ATOM      2  C2  BNZ d   1       5.196  -5.515   4.886  0.00  0.00     0.000 A 
ATOM      3  C3  BNZ d   1       4.823  -4.833   3.762  0.00  0.00     0.000 A 
ATOM      4  C4  BNZ d   1       4.846  -3.485   3.766  0.00  0.00     0.000 A 
ATOM      5  C5  BNZ d   1       5.274  -2.796   4.883  0.00  0.00     0.000 A 
ATOM      6  C6  BNZ d   1       5.686  -3.487   6.000  0.00  0.00     0.000 A 
ENDROOT
TORSDOF 0
ENDMDL
