MODEL 1
REMARK minimizedAffinity -1.17515326
REMARK minimizedRMSD -1
REMARK  0 active torsions:
REMARK  status: ('A' for Active; 'I' for Inactive)
ROOT
ATOM      1  C1  BNZ d   1       3.929   3.642  -5.679  0.00  0.00     0.000 A 
ATOM      2  C2  BNZ d   1       3.262   4.823  -5.869  0.00  0.00     0.000 A 
ATOM      3  C3  BNZ d   1       3.946   5.999  -6.000  0.00  0.00     0.000 A 
ATOM      4  C4  BNZ d   1       5.291   5.999  -5.901  0.00  0.00     0.000 A 
ATOM      5  C5  BNZ d   1       5.977   4.818  -5.700  0.00  0.00     0.000 A 
ATOM      6  C6  BNZ d   1       5.288   3.631  -5.608  0.00  0.00     0.000 A 
ENDROOT
TORSDOF 0
ENDMDL
