MODEL 1
REMARK minimizedAffinity 2.46018147
REMARK minimizedRMSD -1
REMARK  0 active torsions:
REMARK  status: ('A' for Active; 'I' for Inactive)
ROOT
ATOM      1  C1  BNZ d   1       5.999   0.255  -2.337  0.00  0.00     0.000 A 
ATOM      2  C2  BNZ d   1       5.998  -0.501  -1.195  0.00  0.00     0.000 A 
ATOM      3  C3  BNZ d   1       5.959   0.090   0.036  0.00  0.00     0.000 A 
ATOM      4  C4  BNZ d   1       5.960   1.436   0.126  0.00  0.00     0.000 A 
ATOM      5  C5  BNZ d   1       5.970   2.212  -1.015  0.00  0.00     0.000 A 
ATOM      6  C6  BNZ d   1       5.971   1.613  -2.254  0.00  0.00     0.000 A 
ENDROOT
TORSDOF 0
ENDMDL
