MODEL 1
REMARK minimizedAffinity 5.40816402
REMARK minimizedRMSD -1
REMARK  0 active torsions:
REMARK  status: ('A' for Active; 'I' for Inactive)
ROOT
ATOM      1  C1  BNZ d   1      -0.080  -0.908  -1.898  0.00  0.00     0.000 A 
ATOM      2  C2  BNZ d   1      -0.644  -1.535  -0.819  0.00  0.00     0.000 A 
ATOM      3  C3  BNZ d   1       0.120  -1.911   0.250  0.00  0.00     0.000 A 
ATOM      4  C4  BNZ d   1       1.451  -1.696   0.223  0.00  0.00     0.000 A 
ATOM      5  C5  BNZ d   1       2.036  -1.073  -0.862  0.00  0.00     0.000 A 
ATOM      6  C6  BNZ d   1       1.258  -0.661  -1.919  0.00  0.00     0.000 A 
ENDROOT
TORSDOF 0
ENDMDL
