MODEL 1
REMARK minimizedAffinity 4.20823383
REMARK minimizedRMSD -1
REMARK  0 active torsions:
REMARK  status: ('A' for Active; 'I' for Inactive)
ROOT
ATOM      1  C1  BNZ d   1       1.234  -0.712   2.708  0.00  0.00     0.000 A 
ATOM      2  C2  BNZ d   1       2.225  -1.155   1.873  0.00  0.00     0.000 A 
ATOM      3  C3  BNZ d   1       1.925  -1.878   0.753  0.00  0.00     0.000 A 
ATOM      4  C4  BNZ d   1       0.639  -2.192   0.491  0.00  0.00     0.000 A 
ATOM      5  C5  BNZ d   1      -0.370  -1.760   1.328  0.00  0.00     0.000 A 
ATOM      6  C6  BNZ d   1      -0.068  -0.999   2.434  0.00  0.00     0.000 A 
ENDROOT
TORSDOF 0
ENDMDL
