MODEL 1
REMARK minimizedAffinity 0.351457179
REMARK minimizedRMSD -1
REMARK  0 active torsions:
REMARK  status: ('A' for Active; 'I' for Inactive)
ROOT
ATOM      1  C   UNL d   1       0.352   1.492   0.336  0.00  0.00     0.023 A 
ATOM      2  C1  UNL d   1       0.722   2.561   1.153  0.00  0.00     0.003 A 
ATOM      3  C2  UNL d   1       0.769   3.855   0.631  0.00  0.00     0.048 A 
ATOM      4  C3  UNL d   1       0.444   4.074  -0.707  0.00  0.00     0.023 A 
ATOM      5  C4  UNL d   1       0.073   3.007  -1.528  0.00  0.00     0.048 A 
ATOM      6  C5  UNL d   1       0.028   1.715  -1.002  0.00  0.00     0.003 A 
ATOM      7  I   UNL d   1       0.513   6.000  -1.485  0.00  0.00    -0.146 I 
ENDROOT
TORSDOF 0
ENDMDL
