MODEL 1
REMARK minimizedAffinity 13.9709511
REMARK minimizedRMSD -1
REMARK  0 active torsions:
REMARK  status: ('A' for Active; 'I' for Inactive)
ROOT
ATOM      1  C   UNL d   1      -0.120  -1.418  -5.839  0.00  0.00     0.023 A 
ATOM      2  C1  UNL d   1       0.410  -2.604  -5.329  0.00  0.00     0.003 A 
ATOM      3  C2  UNL d   1       1.380  -2.562  -4.326  0.00  0.00     0.048 A 
ATOM      4  C3  UNL d   1       1.815  -1.332  -3.835  0.00  0.00     0.023 A 
ATOM      5  C4  UNL d   1       1.288  -0.143  -4.341  0.00  0.00     0.048 A 
ATOM      6  C5  UNL d   1       0.319  -0.189  -5.345  0.00  0.00     0.003 A 
ATOM      7  I   UNL d   1       3.259  -1.268  -2.341  0.00  0.00    -0.146 I 
ENDROOT
TORSDOF 0
ENDMDL
