MODEL 1
REMARK minimizedAffinity -2.19699335
REMARK minimizedRMSD -1
REMARK  0 active torsions:
REMARK  status: ('A' for Active; 'I' for Inactive)
ROOT
ATOM      1  C   UNL d   1       0.933   2.792   1.051  0.00  0.00     0.023 A 
ATOM      2  C1  UNL d   1       1.270   4.142   1.154  0.00  0.00     0.003 A 
ATOM      3  C2  UNL d   1       0.947   5.024   0.121  0.00  0.00     0.048 A 
ATOM      4  C3  UNL d   1       0.286   4.550  -1.011  0.00  0.00     0.023 A 
ATOM      5  C4  UNL d   1      -0.054   3.201  -1.119  0.00  0.00     0.048 A 
ATOM      6  C5  UNL d   1       0.272   2.322  -0.084  0.00  0.00     0.003 A 
ATOM      7  I   UNL d   1      -0.196   5.862  -2.550  0.00  0.00    -0.146 I 
ENDROOT
TORSDOF 0
ENDMDL
