MODEL 1
REMARK minimizedAffinity 1.68674159
REMARK minimizedRMSD -1
REMARK  0 active torsions:
REMARK  status: ('A' for Active; 'I' for Inactive)
ROOT
ATOM      1  C   UNL d   1      -0.132   5.549  -1.327  0.00  0.00     0.023 A 
ATOM      2  C1  UNL d   1       0.972   4.730  -1.565  0.00  0.00     0.003 A 
ATOM      3  C2  UNL d   1       1.064   3.483  -0.944  0.00  0.00     0.048 A 
ATOM      4  C3  UNL d   1       0.048   3.061  -0.086  0.00  0.00     0.023 A 
ATOM      5  C4  UNL d   1      -1.058   3.877   0.154  0.00  0.00     0.048 A 
ATOM      6  C5  UNL d   1      -1.145   5.123  -0.468  0.00  0.00     0.003 A 
ATOM      7  I   UNL d   1       0.183   1.204   0.839  0.00  0.00    -0.146 I 
ENDROOT
TORSDOF 0
ENDMDL
