MODEL 1
REMARK minimizedAffinity 5.9139595
REMARK minimizedRMSD -1
REMARK  0 active torsions:
REMARK  status: ('A' for Active; 'I' for Inactive)
ROOT
ATOM      1  C   UNL d   1       1.203   4.230  -1.673  0.00  0.00     0.023 A 
ATOM      2  C1  UNL d   1       0.408   3.086  -1.753  0.00  0.00     0.003 A 
ATOM      3  C2  UNL d   1       0.300   2.231  -0.654  0.00  0.00     0.048 A 
ATOM      4  C3  UNL d   1       0.989   2.526   0.522  0.00  0.00     0.023 A 
ATOM      5  C4  UNL d   1       1.785   3.670   0.606  0.00  0.00     0.048 A 
ATOM      6  C5  UNL d   1       1.890   4.521  -0.495  0.00  0.00     0.003 A 
ATOM      7  I   UNL d   1       0.830   1.256   2.159  0.00  0.00    -0.146 I 
ENDROOT
TORSDOF 0
ENDMDL
