MODEL 1
REMARK minimizedAffinity 2.58518624
REMARK minimizedRMSD -1
REMARK  1 active torsions:
REMARK  status: ('A' for Active; 'I' for Inactive)
REMARK    1  A    between atoms: C3_4  and  O_7 
ROOT
ATOM      1  C   UNL d   1       3.029   2.076   2.020  0.00  0.00    -0.033 A 
ATOM      2  C1  UNL d   1       2.801   1.898   3.386  0.00  0.00     0.039 A 
ATOM      3  C2  UNL d   1       2.386   0.656   3.870  0.00  0.00    -0.080 A 
ATOM      4  C3  UNL d   1       2.204  -0.399   2.979  0.00  0.00     0.150 A 
ATOM      5  C4  UNL d   1       2.433  -0.229   1.618  0.00  0.00    -0.007 A 
ATOM      6  C5  UNL d   1       2.847   1.012   1.136  0.00  0.00     0.039 A 
ENDROOT
BRANCH   4   7
ATOM      7  O   UNL d   1       1.795  -1.628   3.404  0.00  0.00    -0.526 OA
ATOM      8  H5  UNL d   1       1.648  -1.589   4.364  0.00  0.00     0.418 HD
ENDBRANCH   4   7
TORSDOF 1
ENDMDL
