MODEL 1
REMARK minimizedAffinity 7.88173151
REMARK minimizedRMSD -1
REMARK  1 active torsions:
REMARK  status: ('A' for Active; 'I' for Inactive)
REMARK    1  A    between atoms: C3_4  and  O_7 
ROOT
ATOM      1  C   UNL d   1       4.790   5.980  -0.694  0.00  0.00    -0.033 A 
ATOM      2  C1  UNL d   1       3.582   5.957  -1.392  0.00  0.00     0.039 A 
ATOM      3  C2  UNL d   1       3.580   5.957  -2.789  0.00  0.00    -0.080 A 
ATOM      4  C3  UNL d   1       4.792   5.980  -3.473  0.00  0.00     0.150 A 
ATOM      5  C4  UNL d   1       6.000   5.999  -2.784  0.00  0.00    -0.007 A 
ATOM      6  C5  UNL d   1       6.000   6.000  -1.390  0.00  0.00     0.039 A 
ENDROOT
BRANCH   4   7
ATOM      7  O   UNL d   1       4.841   5.985  -4.836  0.00  0.00    -0.526 OA
ATOM      8  H5  UNL d   1       3.931   5.999  -5.176  0.00  0.00     0.418 HD
ENDBRANCH   4   7
TORSDOF 1
ENDMDL
