MODEL 1
REMARK minimizedAffinity -0.208309218
REMARK minimizedRMSD -1
REMARK  1 active torsions:
REMARK  status: ('A' for Active; 'I' for Inactive)
REMARK    1  A    between atoms: C3_4  and  O_7 
ROOT
ATOM      1  C   UNL d   1       0.168  -3.238  -1.268  0.00  0.00    -0.033 A 
ATOM      2  C1  UNL d   1       1.113  -4.009  -0.589  0.00  0.00     0.039 A 
ATOM      3  C2  UNL d   1       1.325  -3.814   0.777  0.00  0.00    -0.080 A 
ATOM      4  C3  UNL d   1       0.586  -2.845   1.452  0.00  0.00     0.150 A 
ATOM      5  C4  UNL d   1      -0.359  -2.075   0.782  0.00  0.00    -0.007 A 
ATOM      6  C5  UNL d   1      -0.569  -2.272  -0.582  0.00  0.00     0.039 A 
ENDROOT
BRANCH   4   7
ATOM      7  O   UNL d   1       0.762  -2.614   2.784  0.00  0.00    -0.526 OA
ATOM      8  H5  UNL d   1       1.467  -3.200   3.107  0.00  0.00     0.418 HD
ENDBRANCH   4   7
TORSDOF 1
ENDMDL
