MODEL 1
REMARK minimizedAffinity 5.03997231
REMARK minimizedRMSD -1
REMARK  1 active torsions:
REMARK  status: ('A' for Active; 'I' for Inactive)
REMARK    1  A    between atoms: C3_4  and  O_7 
ROOT
ATOM      1  C   UNL d   1      -0.799  -2.762  -1.377  0.00  0.00    -0.033 A 
ATOM      2  C1  UNL d   1      -1.431  -1.913  -0.467  0.00  0.00     0.039 A 
ATOM      3  C2  UNL d   1      -0.873  -1.700   0.795  0.00  0.00    -0.080 A 
ATOM      4  C3  UNL d   1       0.316  -2.340   1.134  0.00  0.00     0.150 A 
ATOM      5  C4  UNL d   1       0.953  -3.185   0.230  0.00  0.00    -0.007 A 
ATOM      6  C5  UNL d   1       0.394  -3.397  -1.029  0.00  0.00     0.039 A 
ENDROOT
BRANCH   4   7
ATOM      7  O   UNL d   1       0.895  -2.167   2.355  0.00  0.00    -0.526 OA
ATOM      8  H5  UNL d   1       0.329  -1.581   2.884  0.00  0.00     0.418 HD
ENDBRANCH   4   7
TORSDOF 1
ENDMDL
