MODEL 1
REMARK minimizedAffinity 0.890126765
REMARK minimizedRMSD -1
REMARK  1 active torsions:
REMARK  status: ('A' for Active; 'I' for Inactive)
REMARK    1  A    between atoms: C3_4  and  O_7 
ROOT
ATOM      1  C   UNL d   1       1.952  -1.440   3.954  0.00  0.00    -0.033 A 
ATOM      2  C1  UNL d   1       1.356  -2.702   3.919  0.00  0.00     0.039 A 
ATOM      3  C2  UNL d   1       0.640  -3.108   2.791  0.00  0.00    -0.080 A 
ATOM      4  C3  UNL d   1       0.528  -2.243   1.706  0.00  0.00     0.150 A 
ATOM      5  C4  UNL d   1       1.122  -0.986   1.732  0.00  0.00    -0.007 A 
ATOM      6  C5  UNL d   1       1.836  -0.582   2.859  0.00  0.00     0.039 A 
ENDROOT
BRANCH   4   7
ATOM      7  O   UNL d   1      -0.166  -2.593   0.585  0.00  0.00    -0.526 OA
ATOM      8  H5  UNL d   1      -0.545  -3.477   0.722  0.00  0.00     0.418 HD
ENDBRANCH   4   7
TORSDOF 1
ENDMDL
