MODEL 1
REMARK minimizedAffinity 6.69964409
REMARK minimizedRMSD -1
REMARK  1 active torsions:
REMARK  status: ('A' for Active; 'I' for Inactive)
REMARK    1  A    between atoms: C3_4  and  O_7 
ROOT
ATOM      1  C   UNL d   1      -2.640   3.098   1.071  0.00  0.00    -0.033 A 
ATOM      2  C1  UNL d   1      -2.582   3.814  -0.126  0.00  0.00     0.039 A 
ATOM      3  C2  UNL d   1      -3.704   4.507  -0.582  0.00  0.00    -0.080 A 
ATOM      4  C3  UNL d   1      -4.877   4.478   0.167  0.00  0.00     0.150 A 
ATOM      5  C4  UNL d   1      -4.941   3.769   1.363  0.00  0.00    -0.007 A 
ATOM      6  C5  UNL d   1      -3.819   3.077   1.816  0.00  0.00     0.039 A 
ENDROOT
BRANCH   4   7
ATOM      7  O   UNL d   1      -6.000   5.135  -0.240  0.00  0.00    -0.526 OA
ATOM      8  H5  UNL d   1      -5.816   5.556  -1.096  0.00  0.00     0.418 HD
ENDBRANCH   4   7
TORSDOF 1
ENDMDL
