MODEL 1
REMARK minimizedAffinity -1.21886826
REMARK minimizedRMSD -1
REMARK  1 active torsions:
REMARK  status: ('A' for Active; 'I' for Inactive)
REMARK    1  A    between atoms: C3_4  and  O_7 
ROOT
ATOM      1  C   UNL d   1      -0.735  -3.006  -2.250  0.00  0.00    -0.033 A 
ATOM      2  C1  UNL d   1       0.321  -3.741  -1.708  0.00  0.00     0.039 A 
ATOM      3  C2  UNL d   1       0.784  -3.457  -0.422  0.00  0.00    -0.080 A 
ATOM      4  C3  UNL d   1       0.183  -2.438   0.311  0.00  0.00     0.150 A 
ATOM      5  C4  UNL d   1      -0.872  -1.704  -0.221  0.00  0.00    -0.007 A 
ATOM      6  C5  UNL d   1      -1.333  -1.988  -1.506  0.00  0.00     0.039 A 
ENDROOT
BRANCH   4   7
ATOM      7  O   UNL d   1       0.604  -2.120   1.568  0.00  0.00    -0.526 OA
ATOM      8  H5  UNL d   1       1.358  -2.691   1.793  0.00  0.00     0.418 HD
ENDBRANCH   4   7
TORSDOF 1
ENDMDL
