MODEL 1
REMARK minimizedAffinity -1.81023908
REMARK minimizedRMSD -1
REMARK  1 active torsions:
REMARK  status: ('A' for Active; 'I' for Inactive)
REMARK    1  A    between atoms: C3_4  and  O_7 
ROOT
ATOM      1  C   UNL d   1       2.945   1.671   2.617  0.00  0.00    -0.033 A 
ATOM      2  C1  UNL d   1       2.711   0.550   3.416  0.00  0.00     0.039 A 
ATOM      3  C2  UNL d   1       1.942  -0.508   2.928  0.00  0.00    -0.080 A 
ATOM      4  C3  UNL d   1       1.414  -0.433   1.642  0.00  0.00     0.150 A 
ATOM      5  C4  UNL d   1       1.646   0.679   0.840  0.00  0.00    -0.007 A 
ATOM      6  C5  UNL d   1       2.413   1.735   1.329  0.00  0.00     0.039 A 
ENDROOT
BRANCH   4   7
ATOM      7  O   UNL d   1       0.653  -1.439   1.124  0.00  0.00    -0.526 OA
ATOM      8  H5  UNL d   1       0.554  -2.129   1.801  0.00  0.00     0.418 HD
ENDBRANCH   4   7
TORSDOF 1
ENDMDL
