MODEL 1
REMARK minimizedAffinity 2.1527679
REMARK minimizedRMSD -1
REMARK  1 active torsions:
REMARK  status: ('A' for Active; 'I' for Inactive)
REMARK    1  A    between atoms: C3_4  and  O_7 
ROOT
ATOM      1  C   UNL d   1       4.431  -2.951  -5.987  0.00  0.00    -0.033 A 
ATOM      2  C1  UNL d   1       3.161  -2.371  -5.971  0.00  0.00     0.039 A 
ATOM      3  C2  UNL d   1       3.026  -0.981  -5.964  0.00  0.00    -0.080 A 
ATOM      4  C3  UNL d   1       4.168  -0.184  -5.974  0.00  0.00     0.150 A 
ATOM      5  C4  UNL d   1       5.436  -0.756  -5.993  0.00  0.00    -0.007 A 
ATOM      6  C5  UNL d   1       5.568  -2.144  -5.999  0.00  0.00     0.039 A 
ENDROOT
BRANCH   4   7
ATOM      7  O   UNL d   1       4.087   1.176  -5.963  0.00  0.00    -0.526 OA
ATOM      8  H5  UNL d   1       3.149   1.429  -5.920  0.00  0.00     0.418 HD
ENDBRANCH   4   7
TORSDOF 1
ENDMDL
