MODEL 1
REMARK minimizedAffinity -3.61445355
REMARK minimizedRMSD -1
REMARK  1 active torsions:
REMARK  status: ('A' for Active; 'I' for Inactive)
REMARK    1  A    between atoms: C3_4  and  O_7 
ROOT
ATOM      1  C   UNL d   1      -1.202  -2.957  -1.048  0.00  0.00    -0.033 A 
ATOM      2  C1  UNL d   1      -1.766  -2.004  -0.198  0.00  0.00     0.039 A 
ATOM      3  C2  UNL d   1      -1.119  -1.655   0.990  0.00  0.00    -0.080 A 
ATOM      4  C3  UNL d   1       0.089  -2.266   1.315  0.00  0.00     0.150 A 
ATOM      5  C4  UNL d   1       0.658  -3.213   0.471  0.00  0.00    -0.007 A 
ATOM      6  C5  UNL d   1       0.011  -3.561  -0.714  0.00  0.00     0.039 A 
ENDROOT
BRANCH   4   7
ATOM      7  O   UNL d   1       0.754  -1.962   2.465  0.00  0.00    -0.526 OA
ATOM      8  H5  UNL d   1       0.228  -1.313   2.963  0.00  0.00     0.418 HD
ENDBRANCH   4   7
TORSDOF 1
ENDMDL
