MODEL 1
REMARK minimizedAffinity 15.7815723
REMARK minimizedRMSD -1
REMARK  0 active torsions:
REMARK  status: ('A' for Active; 'I' for Inactive)
ROOT
ATOM      1  C4' PXY d   1      -5.954   5.999   2.404  0.00  0.00     0.077 C 
ATOM      2  C1' PXY d   1      -4.972   1.567   5.983  0.00  0.00     0.077 C 
ATOM      3  C1  PXY d   1      -5.236   2.735   5.054  0.00  0.00    -0.082 A 
ATOM      4  C2  PXY d   1      -5.230   2.544   3.745  0.00  0.00     0.003 A 
ATOM      5  C3  PXY d   1      -5.435   3.596   2.889  0.00  0.00     0.003 A 
ATOM      6  C4  PXY d   1      -5.702   4.846   3.380  0.00  0.00    -0.082 A 
ATOM      7  C5  PXY d   1      -5.721   5.047   4.715  0.00  0.00     0.003 A 
ATOM      8  C6  PXY d   1      -5.469   3.974   5.566  0.00  0.00     0.003 A 
ENDROOT
TORSDOF 0
ENDMDL
