MODEL 1
REMARK minimizedAffinity 1.60612118
REMARK minimizedRMSD -1
REMARK  0 active torsions:
REMARK  status: ('A' for Active; 'I' for Inactive)
ROOT
ATOM      1  C4' PXY d   1       4.130   0.253  -1.300  0.00  0.00     0.077 C 
ATOM      2  C1' PXY d   1      -0.716  -2.806  -0.541  0.00  0.00     0.077 C 
ATOM      3  C1  PXY d   1       0.562  -2.015  -0.738  0.00  0.00    -0.082 A 
ATOM      4  C2  PXY d   1       0.559  -0.707  -0.538  0.00  0.00     0.003 A 
ATOM      5  C3  PXY d   1       1.698   0.029  -0.742  0.00  0.00     0.003 A 
ATOM      6  C4  PXY d   1       2.865  -0.588  -1.104  0.00  0.00    -0.082 A 
ATOM      7  C5  PXY d   1       2.879  -1.924  -1.299  0.00  0.00     0.003 A 
ATOM      8  C6  PXY d   1       1.703  -2.647  -1.126  0.00  0.00     0.003 A 
ENDROOT
TORSDOF 0
ENDMDL
