MODEL 1
REMARK minimizedAffinity 6.71920061
REMARK minimizedRMSD -1
REMARK  0 active torsions:
REMARK  status: ('A' for Active; 'I' for Inactive)
ROOT
ATOM      1  C4' PXY d   1       0.147  -1.011  -0.127  0.00  0.00     0.077 C 
ATOM      2  C1' PXY d   1      -2.364  -4.882  -3.608  0.00  0.00     0.077 C 
ATOM      3  C1  PXY d   1      -1.712  -3.872  -2.685  0.00  0.00    -0.082 A 
ATOM      4  C2  PXY d   1      -1.285  -2.719  -3.174  0.00  0.00     0.003 A 
ATOM      5  C3  PXY d   1      -0.664  -1.808  -2.359  0.00  0.00     0.003 A 
ATOM      6  C4  PXY d   1      -0.526  -2.057  -1.020  0.00  0.00    -0.082 A 
ATOM      7  C5  PXY d   1      -0.968  -3.226  -0.512  0.00  0.00     0.003 A 
ATOM      8  C6  PXY d   1      -1.559  -4.156  -1.363  0.00  0.00     0.003 A 
ENDROOT
TORSDOF 0
ENDMDL
