MODEL 1
REMARK minimizedAffinity 3.7626977
REMARK minimizedRMSD -1
REMARK  0 active torsions:
REMARK  status: ('A' for Active; 'I' for Inactive)
ROOT
ATOM      1  C4' PXY d   1      -5.810   3.283   0.571  0.00  0.00     0.077 C 
ATOM      2  C1' PXY d   1      -6.000   5.950   5.696  0.00  0.00     0.077 C 
ATOM      3  C1  PXY d   1      -5.955   5.261   4.346  0.00  0.00    -0.082 A 
ATOM      4  C2  PXY d   1      -5.949   3.939   4.286  0.00  0.00     0.003 A 
ATOM      5  C3  PXY d   1      -5.876   3.300   3.075  0.00  0.00     0.003 A 
ATOM      6  C4  PXY d   1      -5.864   4.021   1.911  0.00  0.00    -0.082 A 
ATOM      7  C5  PXY d   1      -5.881   5.370   1.963  0.00  0.00     0.003 A 
ATOM      8  C6  PXY d   1      -5.913   6.000   3.204  0.00  0.00     0.003 A 
ENDROOT
TORSDOF 0
ENDMDL
