MODEL 1
REMARK minimizedAffinity -2.42098927
REMARK minimizedRMSD -1
REMARK  0 active torsions:
REMARK  status: ('A' for Active; 'I' for Inactive)
ROOT
ATOM      1  C4' PXY d   1       1.004  -0.530   3.357  0.00  0.00     0.077 C 
ATOM      2  C1' PXY d   1       0.028  -5.999   4.955  0.00  0.00     0.077 C 
ATOM      3  C1  PXY d   1       0.293  -4.569   4.527  0.00  0.00    -0.082 A 
ATOM      4  C2  PXY d   1       0.069  -3.579   5.377  0.00  0.00     0.003 A 
ATOM      5  C3  PXY d   1       0.272  -2.278   4.995  0.00  0.00     0.003 A 
ATOM      6  C4  PXY d   1       0.760  -1.990   3.749  0.00  0.00    -0.082 A 
ATOM      7  C5  PXY d   1       1.001  -2.994   2.880  0.00  0.00     0.003 A 
ATOM      8  C6  PXY d   1       0.749  -4.305   3.272  0.00  0.00     0.003 A 
ENDROOT
TORSDOF 0
ENDMDL
