MODEL 1
REMARK minimizedAffinity 4.75167131
REMARK minimizedRMSD -1
REMARK  1 active torsions:
REMARK  status: ('A' for Active; 'I' for Inactive)
REMARK    1  A    between atoms: C3_4  and  O_7 
ROOT
ATOM      1  C   UNL d   1       3.602   2.037   0.426  0.00  0.00    -0.033 A 
ATOM      2  C1  UNL d   1       4.550   1.181  -0.141  0.00  0.00     0.039 A 
ATOM      3  C2  UNL d   1       4.251  -0.170  -0.325  0.00  0.00    -0.080 A 
ATOM      4  C3  UNL d   1       3.003  -0.652   0.059  0.00  0.00     0.150 A 
ATOM      5  C4  UNL d   1       2.053   0.195   0.621  0.00  0.00    -0.007 A 
ATOM      6  C5  UNL d   1       2.354   1.544   0.805  0.00  0.00     0.039 A 
ENDROOT
BRANCH   4   7
ATOM      7  O   UNL d   1       2.667  -1.964  -0.097  0.00  0.00    -0.526 OA
ATOM      8  H5  UNL d   1       3.431  -2.435  -0.470  0.00  0.00     0.418 HD
ENDBRANCH   4   7
TORSDOF 1
ENDMDL
