MODEL 1
REMARK minimizedAffinity 9.88092995
REMARK minimizedRMSD -1
REMARK  1 active torsions:
REMARK  status: ('A' for Active; 'I' for Inactive)
REMARK    1  A    between atoms: C3_4  and  O_7 
ROOT
ATOM      1  C   UNL d   1      -6.000   5.999   4.471  0.00  0.00    -0.033 A 
ATOM      2  C1  UNL d   1      -5.999   4.884   5.311  0.00  0.00     0.039 A 
ATOM      3  C2  UNL d   1      -5.763   3.612   4.786  0.00  0.00    -0.080 A 
ATOM      4  C3  UNL d   1      -5.528   3.469   3.421  0.00  0.00     0.150 A 
ATOM      5  C4  UNL d   1      -5.524   4.576   2.579  0.00  0.00    -0.007 A 
ATOM      6  C5  UNL d   1      -5.761   5.846   3.105  0.00  0.00     0.039 A 
ENDROOT
BRANCH   4   7
ATOM      7  O   UNL d   1      -5.298   2.248   2.862  0.00  0.00    -0.526 OA
ATOM      8  H5  UNL d   1      -5.360   1.573   3.559  0.00  0.00     0.418 HD
ENDBRANCH   4   7
TORSDOF 1
ENDMDL
