MODEL 1
REMARK minimizedAffinity 7.12105036
REMARK minimizedRMSD -1
REMARK  1 active torsions:
REMARK  status: ('A' for Active; 'I' for Inactive)
REMARK    1  A    between atoms: C3_4  and  O_7 
ROOT
ATOM      1  C   UNL d   1       4.141   2.271   0.404  0.00  0.00    -0.033 A 
ATOM      2  C1  UNL d   1       2.853   1.885   0.782  0.00  0.00     0.039 A 
ATOM      3  C2  UNL d   1       2.413   0.583   0.539  0.00  0.00    -0.080 A 
ATOM      4  C3  UNL d   1       3.269  -0.323  -0.082  0.00  0.00     0.150 A 
ATOM      5  C4  UNL d   1       4.554   0.054  -0.458  0.00  0.00    -0.007 A 
ATOM      6  C5  UNL d   1       4.992   1.355  -0.215  0.00  0.00     0.039 A 
ENDROOT
BRANCH   4   7
ATOM      7  O   UNL d   1       2.882  -1.604  -0.345  0.00  0.00    -0.526 OA
ATOM      8  H5  UNL d   1       1.961  -1.712  -0.056  0.00  0.00     0.418 HD
ENDBRANCH   4   7
TORSDOF 1
ENDMDL
