MODEL 1
REMARK minimizedAffinity -1.82247412
REMARK minimizedRMSD -1
REMARK  1 active torsions:
REMARK  status: ('A' for Active; 'I' for Inactive)
REMARK    1  A    between atoms: C3_4  and  O_7 
ROOT
ATOM      1  C   UNL d   1      -5.159   5.992   4.101  0.00  0.00    -0.033 A 
ATOM      2  C1  UNL d   1      -4.728   5.757   5.408  0.00  0.00     0.039 A 
ATOM      3  C2  UNL d   1      -4.933   4.509   5.999  0.00  0.00    -0.080 A 
ATOM      4  C3  UNL d   1      -5.569   3.505   5.274  0.00  0.00     0.150 A 
ATOM      5  C4  UNL d   1      -5.998   3.731   3.970  0.00  0.00    -0.007 A 
ATOM      6  C5  UNL d   1      -5.793   4.978   3.381  0.00  0.00     0.039 A 
ENDROOT
BRANCH   4   7
ATOM      7  O   UNL d   1      -5.796   2.273   5.810  0.00  0.00    -0.526 OA
ATOM      8  H5  UNL d   1      -5.472   2.272   6.727  0.00  0.00     0.418 HD
ENDBRANCH   4   7
TORSDOF 1
ENDMDL
