MODEL 1
REMARK minimizedAffinity 3.51879883
REMARK minimizedRMSD -1
REMARK  1 active torsions:
REMARK  status: ('A' for Active; 'I' for Inactive)
REMARK    1  A    between atoms: C3_4  and  O_7 
ROOT
ATOM      1  C   UNL d   1       3.153  -2.745  -1.357  0.00  0.00    -0.033 A 
ATOM      2  C1  UNL d   1       3.943  -1.969  -2.208  0.00  0.00     0.039 A 
ATOM      3  C2  UNL d   1       4.235  -0.644  -1.876  0.00  0.00    -0.080 A 
ATOM      4  C3  UNL d   1       3.734  -0.109  -0.693  0.00  0.00     0.150 A 
ATOM      5  C4  UNL d   1       2.950  -0.878   0.161  0.00  0.00    -0.007 A 
ATOM      6  C5  UNL d   1       2.658  -2.200  -0.172  0.00  0.00     0.039 A 
ENDROOT
BRANCH   4   7
ATOM      7  O   UNL d   1       3.989   1.180  -0.330  0.00  0.00    -0.526 OA
ATOM      8  H5  UNL d   1       4.519   1.598  -1.029  0.00  0.00     0.418 HD
ENDBRANCH   4   7
TORSDOF 1
ENDMDL
