MODEL 1
REMARK minimizedAffinity -1.44371367
REMARK minimizedRMSD -1
REMARK  1 active torsions:
REMARK  status: ('A' for Active; 'I' for Inactive)
REMARK    1  A    between atoms: C3_4  and  O_7 
ROOT
ATOM      1  C   UNL d   1       4.632   4.325   5.997  0.00  0.00    -0.033 A 
ATOM      2  C1  UNL d   1       4.121   3.749   4.832  0.00  0.00     0.039 A 
ATOM      3  C2  UNL d   1       4.428   4.300   3.586  0.00  0.00    -0.080 A 
ATOM      4  C3  UNL d   1       5.247   5.424   3.519  0.00  0.00     0.150 A 
ATOM      5  C4  UNL d   1       5.763   6.000   4.675  0.00  0.00    -0.007 A 
ATOM      6  C5  UNL d   1       5.454   5.449   5.918  0.00  0.00     0.039 A 
ENDROOT
BRANCH   4   7
ATOM      7  O   UNL d   1       5.571   5.999   2.326  0.00  0.00    -0.526 OA
ATOM      8  H5  UNL d   1       5.120   5.512   1.617  0.00  0.00     0.418 HD
ENDBRANCH   4   7
TORSDOF 1
ENDMDL
