MODEL 1
REMARK minimizedAffinity 0.872502208
REMARK minimizedRMSD -1
REMARK  1 active torsions:
REMARK  status: ('A' for Active; 'I' for Inactive)
REMARK    1  A    between atoms: C3_4  and  O_7 
ROOT
ATOM      1  C   UNL d   1       2.134  -1.617  -0.461  0.00  0.00    -0.033 A 
ATOM      2  C1  UNL d   1       1.192  -1.059  -1.328  0.00  0.00     0.039 A 
ATOM      3  C2  UNL d   1       0.027  -1.761  -1.641  0.00  0.00    -0.080 A 
ATOM      4  C3  UNL d   1      -0.186  -3.018  -1.082  0.00  0.00     0.150 A 
ATOM      5  C4  UNL d   1       0.746  -3.578  -0.214  0.00  0.00    -0.007 A 
ATOM      6  C5  UNL d   1       1.910  -2.876   0.097  0.00  0.00     0.039 A 
ENDROOT
BRANCH   4   7
ATOM      7  O   UNL d   1      -1.306  -3.742  -1.362  0.00  0.00    -0.526 OA
ATOM      8  H5  UNL d   1      -1.845  -3.242  -1.997  0.00  0.00     0.418 HD
ENDBRANCH   4   7
TORSDOF 1
ENDMDL
