MODEL 1
REMARK minimizedAffinity 9.69982433
REMARK minimizedRMSD -1
REMARK  1 active torsions:
REMARK  status: ('A' for Active; 'I' for Inactive)
REMARK    1  A    between atoms: C3_4  and  O_7 
ROOT
ATOM      1  C   UNL d   1       1.893   1.198  -0.377  0.00  0.00    -0.033 A 
ATOM      2  C1  UNL d   1       2.355  -0.070  -0.735  0.00  0.00     0.039 A 
ATOM      3  C2  UNL d   1       2.883  -0.922   0.237  0.00  0.00    -0.080 A 
ATOM      4  C3  UNL d   1       2.942  -0.495   1.561  0.00  0.00     0.150 A 
ATOM      5  C4  UNL d   1       2.480   0.765   1.925  0.00  0.00    -0.007 A 
ATOM      6  C5  UNL d   1       1.954   1.615   0.953  0.00  0.00     0.039 A 
ENDROOT
BRANCH   4   7
ATOM      7  O   UNL d   1       3.453  -1.290   2.544  0.00  0.00    -0.526 OA
ATOM      8  H5  UNL d   1       3.760  -2.119   2.140  0.00  0.00     0.418 HD
ENDBRANCH   4   7
TORSDOF 1
ENDMDL
