MODEL 1
REMARK minimizedAffinity 15.072094
REMARK minimizedRMSD -1
REMARK  1 active torsions:
REMARK  status: ('A' for Active; 'I' for Inactive)
REMARK    1  A    between atoms: C3_4  and  O_7 
ROOT
ATOM      1  C   UNL d   1       2.475   2.451   2.690  0.00  0.00    -0.033 A 
ATOM      2  C1  UNL d   1       1.814   2.504   3.919  0.00  0.00     0.039 A 
ATOM      3  C2  UNL d   1       0.891   1.514   4.261  0.00  0.00    -0.080 A 
ATOM      4  C3  UNL d   1       0.639   0.477   3.367  0.00  0.00     0.150 A 
ATOM      5  C4  UNL d   1       1.296   0.415   2.143  0.00  0.00    -0.007 A 
ATOM      6  C5  UNL d   1       2.217   1.405   1.802  0.00  0.00     0.039 A 
ENDROOT
BRANCH   4   7
ATOM      7  O   UNL d   1      -0.257  -0.510   3.655  0.00  0.00    -0.526 OA
ATOM      8  H5  UNL d   1      -0.654  -0.321   4.521  0.00  0.00     0.418 HD
ENDBRANCH   4   7
TORSDOF 1
ENDMDL
