MODEL 1
REMARK minimizedAffinity -0.497876376
REMARK minimizedRMSD -1
REMARK  1 active torsions:
REMARK  status: ('A' for Active; 'I' for Inactive)
REMARK    1  A    between atoms: C3_4  and  O_7 
ROOT
ATOM      1  C   UNL d   1      -1.536   4.703  -5.920  0.00  0.00    -0.033 A 
ATOM      2  C1  UNL d   1      -2.443   5.747  -5.730  0.00  0.00     0.039 A 
ATOM      3  C2  UNL d   1      -3.808   5.477  -5.619  0.00  0.00    -0.080 A 
ATOM      4  C3  UNL d   1      -4.252   4.160  -5.698  0.00  0.00     0.150 A 
ATOM      5  C4  UNL d   1      -3.354   3.114  -5.884  0.00  0.00    -0.007 A 
ATOM      6  C5  UNL d   1      -1.991   3.386  -5.995  0.00  0.00     0.039 A 
ENDROOT
BRANCH   4   7
ATOM      7  O   UNL d   1      -5.576   3.847  -5.600  0.00  0.00    -0.526 OA
ATOM      8  H5  UNL d   1      -6.080   4.672  -5.503  0.00  0.00     0.418 HD
ENDBRANCH   4   7
TORSDOF 1
ENDMDL
