MODEL 1
REMARK minimizedAffinity -0.0443260334
REMARK minimizedRMSD -1
REMARK  1 active torsions:
REMARK  status: ('A' for Active; 'I' for Inactive)
REMARK    1  A    between atoms: C3_4  and  O_7 
ROOT
ATOM      1  C   UNL d   1       1.918   2.933  -5.971  0.00  0.00    -0.033 A 
ATOM      2  C1  UNL d   1       2.350   4.260  -5.997  0.00  0.00     0.039 A 
ATOM      3  C2  UNL d   1       1.418   5.300  -5.997  0.00  0.00    -0.080 A 
ATOM      4  C3  UNL d   1       0.059   5.000  -5.969  0.00  0.00     0.150 A 
ATOM      5  C4  UNL d   1      -0.379   3.680  -5.939  0.00  0.00    -0.007 A 
ATOM      6  C5  UNL d   1       0.553   2.643  -5.940  0.00  0.00     0.039 A 
ENDROOT
BRANCH   4   7
ATOM      7  O   UNL d   1      -0.887   5.981  -5.972  0.00  0.00    -0.526 OA
ATOM      8  H5  UNL d   1      -0.439   6.841  -6.023  0.00  0.00     0.418 HD
ENDBRANCH   4   7
TORSDOF 1
ENDMDL
