MODEL 1
REMARK minimizedAffinity -2.32066131
REMARK minimizedRMSD -1
REMARK  1 active torsions:
REMARK  status: ('A' for Active; 'I' for Inactive)
REMARK    1  A    between atoms: C3_4  and  O_7 
ROOT
ATOM      1  C   UNL d   1       0.862   3.458  -5.983  0.00  0.00    -0.033 A 
ATOM      2  C1  UNL d   1       0.696   2.072  -5.984  0.00  0.00     0.039 A 
ATOM      3  C2  UNL d   1      -0.587   1.520  -5.990  0.00  0.00    -0.080 A 
ATOM      4  C3  UNL d   1      -1.694   2.365  -5.997  0.00  0.00     0.150 A 
ATOM      5  C4  UNL d   1      -1.536   3.747  -6.000  0.00  0.00    -0.007 A 
ATOM      6  C5  UNL d   1      -0.254   4.296  -5.992  0.00  0.00     0.039 A 
ENDROOT
BRANCH   4   7
ATOM      7  O   UNL d   1      -2.965   1.873  -5.998  0.00  0.00    -0.526 OA
ATOM      8  H5  UNL d   1      -2.920   0.903  -5.966  0.00  0.00     0.418 HD
ENDBRANCH   4   7
TORSDOF 1
ENDMDL
