MODEL 1
REMARK minimizedAffinity -2.3214829
REMARK minimizedRMSD -1
REMARK  1 active torsions:
REMARK  status: ('A' for Active; 'I' for Inactive)
REMARK    1  A    between atoms: C3_4  and  O_7 
ROOT
ATOM      1  C   UNL d   1       0.056   4.170  -5.995  0.00  0.00    -0.033 A 
ATOM      2  C1  UNL d   1      -0.817   5.260  -5.994  0.00  0.00     0.039 A 
ATOM      3  C2  UNL d   1      -2.198   5.051  -5.994  0.00  0.00    -0.080 A 
ATOM      4  C3  UNL d   1      -2.692   3.749  -5.994  0.00  0.00     0.150 A 
ATOM      5  C4  UNL d   1      -1.828   2.659  -5.991  0.00  0.00    -0.007 A 
ATOM      6  C5  UNL d   1      -0.449   2.870  -5.992  0.00  0.00     0.039 A 
ENDROOT
BRANCH   4   7
ATOM      7  O   UNL d   1      -4.031   3.495  -5.999  0.00  0.00    -0.526 OA
ATOM      8  H5  UNL d   1      -4.505   4.343  -6.030  0.00  0.00     0.418 HD
ENDBRANCH   4   7
TORSDOF 1
ENDMDL
