MODEL 1
REMARK minimizedAffinity -2.03180528
REMARK minimizedRMSD -1
REMARK  1 active torsions:
REMARK  status: ('A' for Active; 'I' for Inactive)
REMARK    1  A    between atoms: C3_4  and  O_7 
ROOT
ATOM      1  C   UNL d   1      -3.810   4.077  -6.000  0.00  0.00    -0.033 A 
ATOM      2  C1  UNL d   1      -2.699   3.232  -6.000  0.00  0.00     0.039 A 
ATOM      3  C2  UNL d   1      -1.410   3.769  -5.997  0.00  0.00    -0.080 A 
ATOM      4  C3  UNL d   1      -1.246   5.151  -5.992  0.00  0.00     0.150 A 
ATOM      5  C4  UNL d   1      -2.348   6.000  -5.988  0.00  0.00    -0.007 A 
ATOM      6  C5  UNL d   1      -3.635   5.462  -5.992  0.00  0.00     0.039 A 
ENDROOT
BRANCH   4   7
ATOM      7  O   UNL d   1      -0.008   5.722  -5.994  0.00  0.00    -0.526 OA
ATOM      8  H5  UNL d   1       0.657   5.014  -6.026  0.00  0.00     0.418 HD
ENDBRANCH   4   7
TORSDOF 1
ENDMDL
