MODEL 1
REMARK minimizedAffinity -1.91478968
REMARK minimizedRMSD -1
REMARK  1 active torsions:
REMARK  status: ('A' for Active; 'I' for Inactive)
REMARK    1  A    between atoms: C3_4  and  O_7 
ROOT
ATOM      1  C   UNL d   1      -0.139   4.504  -5.268  0.00  0.00    -0.033 A 
ATOM      2  C1  UNL d   1      -0.379   3.338  -4.539  0.00  0.00     0.039 A 
ATOM      3  C2  UNL d   1      -1.651   2.762  -4.537  0.00  0.00    -0.080 A 
ATOM      4  C3  UNL d   1      -2.673   3.361  -5.268  0.00  0.00     0.150 A 
ATOM      5  C4  UNL d   1      -2.440   4.521  -6.000  0.00  0.00    -0.007 A 
ATOM      6  C5  UNL d   1      -1.170   5.095  -6.000  0.00  0.00     0.039 A 
ENDROOT
BRANCH   4   7
ATOM      7  O   UNL d   1      -3.932   2.839  -5.293  0.00  0.00    -0.526 OA
ATOM      8  H5  UNL d   1      -3.951   2.055  -4.719  0.00  0.00     0.418 HD
ENDBRANCH   4   7
TORSDOF 1
ENDMDL
