MODEL 1
REMARK minimizedAffinity -2.23522663
REMARK minimizedRMSD -1
REMARK  1 active torsions:
REMARK  status: ('A' for Active; 'I' for Inactive)
REMARK    1  A    between atoms: C3_4  and  O_7 
ROOT
ATOM      1  C   UNL d   1       0.378   3.648  -5.999  0.00  0.00    -0.033 A 
ATOM      2  C1  UNL d   1      -0.864   3.009  -6.000  0.00  0.00     0.039 A 
ATOM      3  C2  UNL d   1      -2.039   3.762  -5.998  0.00  0.00    -0.080 A 
ATOM      4  C3  UNL d   1      -1.960   5.152  -5.996  0.00  0.00     0.150 A 
ATOM      5  C4  UNL d   1      -0.727   5.796  -5.998  0.00  0.00    -0.007 A 
ATOM      6  C5  UNL d   1       0.446   5.042  -6.000  0.00  0.00     0.039 A 
ENDROOT
BRANCH   4   7
ATOM      7  O   UNL d   1      -3.079   5.930  -5.989  0.00  0.00    -0.526 OA
ATOM      8  H5  UNL d   1      -3.858   5.349  -5.958  0.00  0.00     0.418 HD
ENDBRANCH   4   7
TORSDOF 1
ENDMDL
