MODEL 1
REMARK minimizedAffinity -1.43122029
REMARK minimizedRMSD -1
REMARK  1 active torsions:
REMARK  status: ('A' for Active; 'I' for Inactive)
REMARK    1  A    between atoms: C3_4  and  O_7 
ROOT
ATOM      1  C   UNL d   1       0.719   4.488  -5.994  0.00  0.00    -0.033 A 
ATOM      2  C1  UNL d   1      -0.082   5.632  -5.984  0.00  0.00     0.039 A 
ATOM      3  C2  UNL d   1      -1.473   5.513  -5.984  0.00  0.00    -0.080 A 
ATOM      4  C3  UNL d   1      -2.050   4.246  -5.993  0.00  0.00     0.150 A 
ATOM      5  C4  UNL d   1      -1.258   3.102  -5.999  0.00  0.00    -0.007 A 
ATOM      6  C5  UNL d   1       0.131   3.223  -6.000  0.00  0.00     0.039 A 
ENDROOT
BRANCH   4   7
ATOM      7  O   UNL d   1      -3.403   4.079  -5.998  0.00  0.00    -0.526 OA
ATOM      8  H5  UNL d   1      -3.821   4.956  -6.022  0.00  0.00     0.418 HD
ENDBRANCH   4   7
TORSDOF 1
ENDMDL
