MODEL 1
REMARK minimizedAffinity -3.11231351
REMARK minimizedRMSD -1
REMARK  1 active torsions:
REMARK  status: ('A' for Active; 'I' for Inactive)
REMARK    1  A    between atoms: C3_4  and  O_7 
ROOT
ATOM      1  C   UNL d   1       2.371   4.995  -5.973  0.00  0.00    -0.033 A 
ATOM      2  C1  UNL d   1       1.184   5.730  -5.952  0.00  0.00     0.039 A 
ATOM      3  C2  UNL d   1      -0.048   5.072  -5.957  0.00  0.00    -0.080 A 
ATOM      4  C3  UNL d   1      -0.078   3.680  -5.982  0.00  0.00     0.150 A 
ATOM      5  C4  UNL d   1       1.100   2.941  -6.000  0.00  0.00    -0.007 A 
ATOM      6  C5  UNL d   1       2.329   3.601  -5.996  0.00  0.00     0.039 A 
ENDROOT
BRANCH   4   7
ATOM      7  O   UNL d   1      -1.256   2.993  -5.993  0.00  0.00    -0.526 OA
ATOM      8  H5  UNL d   1      -1.986   3.634  -6.008  0.00  0.00     0.418 HD
ENDBRANCH   4   7
TORSDOF 1
ENDMDL
