MODEL 1
REMARK minimizedAffinity -0.786703944
REMARK minimizedRMSD -1
REMARK  1 active torsions:
REMARK  status: ('A' for Active; 'I' for Inactive)
REMARK    1  A    between atoms: C3_4  and  O_7 
ROOT
ATOM      1  C   UNL d   1      -4.231   4.803  -5.997  0.00  0.00    -0.033 A 
ATOM      2  C1  UNL d   1      -3.337   5.876  -6.000  0.00  0.00     0.039 A 
ATOM      3  C2  UNL d   1      -1.961   5.641  -6.000  0.00  0.00    -0.080 A 
ATOM      4  C3  UNL d   1      -1.492   4.330  -5.997  0.00  0.00     0.150 A 
ATOM      5  C4  UNL d   1      -2.376   3.257  -5.997  0.00  0.00    -0.007 A 
ATOM      6  C5  UNL d   1      -3.750   3.494  -5.997  0.00  0.00     0.039 A 
ENDROOT
BRANCH   4   7
ATOM      7  O   UNL d   1      -0.157   4.051  -5.992  0.00  0.00    -0.526 OA
ATOM      8  H5  UNL d   1       0.332   4.890  -5.963  0.00  0.00     0.418 HD
ENDBRANCH   4   7
TORSDOF 1
ENDMDL
