MODEL 1
REMARK minimizedAffinity -2.79660201
REMARK minimizedRMSD -1
REMARK  1 active torsions:
REMARK  status: ('A' for Active; 'I' for Inactive)
REMARK    1  A    between atoms: C3_4  and  O_7 
ROOT
ATOM      1  C   UNL d   1      -0.410   4.503  -5.997  0.00  0.00    -0.033 A 
ATOM      2  C1  UNL d   1      -1.373   5.515  -5.996  0.00  0.00     0.039 A 
ATOM      3  C2  UNL d   1      -2.731   5.189  -5.996  0.00  0.00    -0.080 A 
ATOM      4  C3  UNL d   1      -3.112   3.850  -5.995  0.00  0.00     0.150 A 
ATOM      5  C4  UNL d   1      -2.158   2.837  -5.992  0.00  0.00    -0.007 A 
ATOM      6  C5  UNL d   1      -0.803   3.165  -5.994  0.00  0.00     0.039 A 
ENDROOT
BRANCH   4   7
ATOM      7  O   UNL d   1      -4.425   3.483  -6.000  0.00  0.00    -0.526 OA
ATOM      8  H5  UNL d   1      -4.969   4.288  -6.031  0.00  0.00     0.418 HD
ENDBRANCH   4   7
TORSDOF 1
ENDMDL
