MODEL 1
REMARK minimizedAffinity -3.52864718
REMARK minimizedRMSD -1
REMARK  1 active torsions:
REMARK  status: ('A' for Active; 'I' for Inactive)
REMARK    1  A    between atoms: C3_4  and  O_7 
ROOT
ATOM      1  C   UNL d   1      -0.732   3.627  -6.000  0.00  0.00    -0.033 A 
ATOM      2  C1  UNL d   1      -1.957   2.958  -5.963  0.00  0.00     0.039 A 
ATOM      3  C2  UNL d   1      -3.149   3.683  -5.904  0.00  0.00    -0.080 A 
ATOM      4  C3  UNL d   1      -3.102   5.074  -5.885  0.00  0.00     0.150 A 
ATOM      5  C4  UNL d   1      -1.886   5.747  -5.926  0.00  0.00    -0.007 A 
ATOM      6  C5  UNL d   1      -0.696   5.022  -5.983  0.00  0.00     0.039 A 
ENDROOT
BRANCH   4   7
ATOM      7  O   UNL d   1      -4.239   5.824  -5.824  0.00  0.00    -0.526 OA
ATOM      8  H5  UNL d   1      -5.001   5.224  -5.772  0.00  0.00     0.418 HD
ENDBRANCH   4   7
TORSDOF 1
ENDMDL
