MODEL 1
REMARK minimizedAffinity 0.0260288361
REMARK minimizedRMSD -1
REMARK  1 active torsions:
REMARK  status: ('A' for Active; 'I' for Inactive)
REMARK    1  A    between atoms: C3_4  and  O_7 
ROOT
ATOM      1  C   UNL d   1       0.439   4.963  -5.994  0.00  0.00    -0.033 A 
ATOM      2  C1  UNL d   1       0.432   3.567  -5.999  0.00  0.00     0.039 A 
ATOM      3  C2  UNL d   1      -0.780   2.873  -5.999  0.00  0.00    -0.080 A 
ATOM      4  C3  UNL d   1      -1.975   3.586  -5.994  0.00  0.00     0.150 A 
ATOM      5  C4  UNL d   1      -1.975   4.977  -5.993  0.00  0.00    -0.007 A 
ATOM      6  C5  UNL d   1      -0.764   5.668  -5.993  0.00  0.00     0.039 A 
ENDROOT
BRANCH   4   7
ATOM      7  O   UNL d   1      -3.183   2.953  -5.988  0.00  0.00    -0.526 OA
ATOM      8  H5  UNL d   1      -3.027   1.995  -5.961  0.00  0.00     0.418 HD
ENDBRANCH   4   7
TORSDOF 1
ENDMDL
