MODEL 1
REMARK minimizedAffinity -1.80429125
REMARK minimizedRMSD -1
REMARK  0 active torsions:
REMARK  status: ('A' for Active; 'I' for Inactive)
ROOT
ATOM      1  C4' PXY d   1      -5.528  -4.801  -6.000  0.00  0.00     0.077 C 
ATOM      2  C1' PXY d   1      -5.999   0.127  -3.015  0.00  0.00     0.077 C 
ATOM      3  C1  PXY d   1      -5.879  -1.159  -3.808  0.00  0.00    -0.082 A 
ATOM      4  C2  PXY d   1      -5.998  -2.323  -3.190  0.00  0.00     0.003 A 
ATOM      5  C3  PXY d   1      -5.860  -3.496  -3.887  0.00  0.00     0.003 A 
ATOM      6  C4  PXY d   1      -5.651  -3.477  -5.240  0.00  0.00    -0.082 A 
ATOM      7  C5  PXY d   1      -5.539  -2.294  -5.880  0.00  0.00     0.003 A 
ATOM      8  C6  PXY d   1      -5.641  -1.115  -5.147  0.00  0.00     0.003 A 
ENDROOT
TORSDOF 0
ENDMDL
