MODEL 1
REMARK minimizedAffinity 2.58019042
REMARK minimizedRMSD -1
REMARK  0 active torsions:
REMARK  status: ('A' for Active; 'I' for Inactive)
ROOT
ATOM      1  C4' PXY d   1      -1.436  -5.999  -4.699  0.00  0.00     0.077 C 
ATOM      2  C1' PXY d   1      -6.000  -2.456  -4.871  0.00  0.00     0.077 C 
ATOM      3  C1  PXY d   1      -4.806  -3.390  -4.838  0.00  0.00    -0.082 A 
ATOM      4  C2  PXY d   1      -4.320  -3.790  -3.674  0.00  0.00     0.003 A 
ATOM      5  C3  PXY d   1      -3.221  -4.608  -3.625  0.00  0.00     0.003 A 
ATOM      6  C4  PXY d   1      -2.646  -5.065  -4.780  0.00  0.00    -0.082 A 
ATOM      7  C5  PXY d   1      -3.142  -4.670  -5.972  0.00  0.00     0.003 A 
ATOM      8  C6  PXY d   1      -4.233  -3.806  -6.000  0.00  0.00     0.003 A 
ENDROOT
TORSDOF 0
ENDMDL
