MODEL 1
REMARK minimizedAffinity -3.19475842
REMARK minimizedRMSD -1
REMARK  0 active torsions:
REMARK  status: ('A' for Active; 'I' for Inactive)
ROOT
ATOM      1  C4' PXY d   1      -5.297  -1.350  -5.998  0.00  0.00     0.077 C 
ATOM      2  C1' PXY d   1      -4.267  -5.936  -2.633  0.00  0.00     0.077 C 
ATOM      3  C1  PXY d   1      -4.526  -4.735  -3.522  0.00  0.00    -0.082 A 
ATOM      4  C2  PXY d   1      -5.377  -3.801  -3.128  0.00  0.00     0.003 A 
ATOM      5  C3  PXY d   1      -5.647  -2.725  -3.933  0.00  0.00     0.003 A 
ATOM      6  C4  PXY d   1      -4.998  -2.575  -5.130  0.00  0.00    -0.082 A 
ATOM      7  C5  PXY d   1      -4.120  -3.517  -5.533  0.00  0.00     0.003 A 
ATOM      8  C6  PXY d   1      -3.891  -4.623  -4.720  0.00  0.00     0.003 A 
ENDROOT
TORSDOF 0
ENDMDL
