MODEL 1
REMARK minimizedAffinity -1.16673613
REMARK minimizedRMSD -1
REMARK  0 active torsions:
REMARK  status: ('A' for Active; 'I' for Inactive)
ROOT
ATOM      1  C4' PXY d   1      -5.406  -3.928  -5.986  0.00  0.00     0.077 C 
ATOM      2  C1' PXY d   1      -0.258  -5.821  -4.161  0.00  0.00     0.077 C 
ATOM      3  C1  PXY d   1      -1.609  -5.318  -4.628  0.00  0.00    -0.082 A 
ATOM      4  C2  PXY d   1      -2.280  -5.999  -5.543  0.00  0.00     0.003 A 
ATOM      5  C3  PXY d   1      -3.489  -5.542  -6.000  0.00  0.00     0.003 A 
ATOM      6  C4  PXY d   1      -4.042  -4.403  -5.477  0.00  0.00    -0.082 A 
ATOM      7  C5  PXY d   1      -3.368  -3.708  -4.536  0.00  0.00     0.003 A 
ATOM      8  C6  PXY d   1      -2.124  -4.167  -4.115  0.00  0.00     0.003 A 
ENDROOT
TORSDOF 0
ENDMDL
