MODEL 1
REMARK minimizedAffinity -3.65663481
REMARK minimizedRMSD -1
REMARK  0 active torsions:
REMARK  status: ('A' for Active; 'I' for Inactive)
ROOT
ATOM      1  C4' PXY d   1      -2.119  -5.999  -6.000  0.00  0.00     0.077 C 
ATOM      2  C1' PXY d   1      -6.000  -2.456  -3.593  0.00  0.00     0.077 C 
ATOM      3  C1  PXY d   1      -4.992  -3.392  -4.229  0.00  0.00    -0.082 A 
ATOM      4  C2  PXY d   1      -3.777  -3.493  -3.714  0.00  0.00     0.003 A 
ATOM      5  C3  PXY d   1      -2.843  -4.311  -4.296  0.00  0.00     0.003 A 
ATOM      6  C4  PXY d   1      -3.172  -5.074  -5.385  0.00  0.00    -0.082 A 
ATOM      7  C5  PXY d   1      -4.412  -4.984  -5.910  0.00  0.00     0.003 A 
ATOM      8  C6  PXY d   1      -5.333  -4.117  -5.329  0.00  0.00     0.003 A 
ENDROOT
TORSDOF 0
ENDMDL
