MODEL 1
REMARK minimizedAffinity -3.43623257
REMARK minimizedRMSD -1
REMARK  0 active torsions:
REMARK  status: ('A' for Active; 'I' for Inactive)
ROOT
ATOM      1  C4' PXY d   1      -5.921  -2.985  -4.882  0.00  0.00     0.077 C 
ATOM      2  C1' PXY d   1      -0.978  -5.981  -4.994  0.00  0.00     0.077 C 
ATOM      3  C1  PXY d   1      -2.275  -5.196  -4.952  0.00  0.00    -0.082 A 
ATOM      4  C2  PXY d   1      -3.083  -5.210  -5.999  0.00  0.00     0.003 A 
ATOM      5  C3  PXY d   1      -4.243  -4.480  -5.990  0.00  0.00     0.003 A 
ATOM      6  C4  PXY d   1      -4.606  -3.771  -4.877  0.00  0.00    -0.082 A 
ATOM      7  C5  PXY d   1      -3.793  -3.760  -3.800  0.00  0.00     0.003 A 
ATOM      8  C6  PXY d   1      -2.599  -4.475  -3.845  0.00  0.00     0.003 A 
ENDROOT
TORSDOF 0
ENDMDL
