MODEL 1
REMARK minimizedAffinity -0.899523973
REMARK minimizedRMSD -1
REMARK  0 active torsions:
REMARK  status: ('A' for Active; 'I' for Inactive)
ROOT
ATOM      1  C4' PXY d   1      -4.951  -2.025  -4.896  0.00  0.00     0.077 C 
ATOM      2  C1' PXY d   1      -0.753  -6.000  -4.900  0.00  0.00     0.077 C 
ATOM      3  C1  PXY d   1      -1.859  -4.963  -4.889  0.00  0.00    -0.082 A 
ATOM      4  C2  PXY d   1      -2.153  -4.307  -6.000  0.00  0.00     0.003 A 
ATOM      5  C3  PXY d   1      -3.129  -3.344  -6.000  0.00  0.00     0.003 A 
ATOM      6  C4  PXY d   1      -3.848  -3.087  -4.863  0.00  0.00    -0.082 A 
ATOM      7  C5  PXY d   1      -3.562  -3.759  -3.728  0.00  0.00     0.003 A 
ATOM      8  C6  PXY d   1      -2.539  -4.704  -3.739  0.00  0.00     0.003 A 
ENDROOT
TORSDOF 0
ENDMDL
