MODEL 1
REMARK minimizedAffinity 0.393794537
REMARK minimizedRMSD -1
REMARK  0 active torsions:
REMARK  status: ('A' for Active; 'I' for Inactive)
ROOT
ATOM      1  C4' PXY d   1      -0.643  -5.352  -3.566  0.00  0.00     0.077 C 
ATOM      2  C1' PXY d   1      -5.891  -4.889  -5.946  0.00  0.00     0.077 C 
ATOM      3  C1  PXY d   1      -4.520  -5.014  -5.311  0.00  0.00    -0.082 A 
ATOM      4  C2  PXY d   1      -3.488  -4.388  -5.854  0.00  0.00     0.003 A 
ATOM      5  C3  PXY d   1      -2.236  -4.516  -5.310  0.00  0.00     0.003 A 
ATOM      6  C4  PXY d   1      -2.047  -5.248  -4.169  0.00  0.00    -0.082 A 
ATOM      7  C5  PXY d   1      -3.097  -5.880  -3.603  0.00  0.00     0.003 A 
ATOM      8  C6  PXY d   1      -4.352  -5.772  -4.193  0.00  0.00     0.003 A 
ENDROOT
TORSDOF 0
ENDMDL
