MODEL 1
REMARK minimizedAffinity -0.644645333
REMARK minimizedRMSD -1
REMARK  0 active torsions:
REMARK  status: ('A' for Active; 'I' for Inactive)
ROOT
ATOM      1  C4' PXY d   1      -4.999  -1.688  -4.798  0.00  0.00     0.077 C 
ATOM      2  C1' PXY d   1      -1.149  -6.000  -4.864  0.00  0.00     0.077 C 
ATOM      3  C1  PXY d   1      -2.157  -4.867  -4.859  0.00  0.00    -0.082 A 
ATOM      4  C2  PXY d   1      -2.384  -4.199  -3.741  0.00  0.00     0.003 A 
ATOM      5  C3  PXY d   1      -3.316  -3.193  -3.711  0.00  0.00     0.003 A 
ATOM      6  C4  PXY d   1      -3.983  -2.833  -4.851  0.00  0.00    -0.082 A 
ATOM      7  C5  PXY d   1      -3.749  -3.503  -5.999  0.00  0.00     0.003 A 
ATOM      8  C6  PXY d   1      -2.829  -4.548  -5.998  0.00  0.00     0.003 A 
ENDROOT
TORSDOF 0
ENDMDL
