MODEL 1
REMARK minimizedAffinity -1.7538532
REMARK minimizedRMSD -1
REMARK  0 active torsions:
REMARK  status: ('A' for Active; 'I' for Inactive)
ROOT
ATOM      1  C4' PXY d   1      -2.249  -5.947  -5.954  0.00  0.00     0.077 C 
ATOM      2  C1' PXY d   1      -5.984  -2.314  -3.452  0.00  0.00     0.077 C 
ATOM      3  C1  PXY d   1      -5.014  -3.272  -4.114  0.00  0.00    -0.082 A 
ATOM      4  C2  PXY d   1      -3.855  -3.536  -3.533  0.00  0.00     0.003 A 
ATOM      5  C3  PXY d   1      -2.953  -4.376  -4.134  0.00  0.00     0.003 A 
ATOM      6  C4  PXY d   1      -3.263  -4.993  -5.317  0.00  0.00    -0.082 A 
ATOM      7  C5  PXY d   1      -4.447  -4.737  -5.911  0.00  0.00     0.003 A 
ATOM      8  C6  PXY d   1      -5.332  -3.850  -5.305  0.00  0.00     0.003 A 
ENDROOT
TORSDOF 0
ENDMDL
