MODEL 1
REMARK minimizedAffinity -4.01044416
REMARK minimizedRMSD -1
REMARK  0 active torsions:
REMARK  status: ('A' for Active; 'I' for Inactive)
ROOT
ATOM      1  C4' PXY d   1      -1.129  -5.983  -5.013  0.00  0.00     0.077 C 
ATOM      2  C1' PXY d   1      -6.000  -2.873  -5.164  0.00  0.00     0.077 C 
ATOM      3  C1  PXY d   1      -4.720  -3.685  -5.137  0.00  0.00    -0.082 A 
ATOM      4  C2  PXY d   1      -4.590  -4.672  -4.265  0.00  0.00     0.003 A 
ATOM      5  C3  PXY d   1      -3.427  -5.396  -4.205  0.00  0.00     0.003 A 
ATOM      6  C4  PXY d   1      -2.407  -5.142  -5.083  0.00  0.00    -0.082 A 
ATOM      7  C5  PXY d   1      -2.537  -4.144  -5.983  0.00  0.00     0.003 A 
ATOM      8  C6  PXY d   1      -3.709  -3.394  -5.999  0.00  0.00     0.003 A 
ENDROOT
TORSDOF 0
ENDMDL
