MODEL 1
REMARK minimizedAffinity -2.16388822
REMARK minimizedRMSD -1
REMARK  0 active torsions:
REMARK  status: ('A' for Active; 'I' for Inactive)
ROOT
ATOM      1  C4' PXY d   1      -5.990  -3.154  -4.614  0.00  0.00     0.077 C 
ATOM      2  C1' PXY d   1      -1.153  -5.999  -6.000  0.00  0.00     0.077 C 
ATOM      3  C1  PXY d   1      -2.428  -5.263  -5.639  0.00  0.00    -0.082 A 
ATOM      4  C2  PXY d   1      -2.470  -3.944  -5.726  0.00  0.00     0.003 A 
ATOM      5  C3  PXY d   1      -3.605  -3.261  -5.373  0.00  0.00     0.003 A 
ATOM      6  C4  PXY d   1      -4.727  -3.939  -4.977  0.00  0.00    -0.082 A 
ATOM      7  C5  PXY d   1      -4.696  -5.286  -4.895  0.00  0.00     0.003 A 
ATOM      8  C6  PXY d   1      -3.521  -5.958  -5.219  0.00  0.00     0.003 A 
ENDROOT
TORSDOF 0
ENDMDL
