MODEL 1
REMARK minimizedAffinity -2.13071823
REMARK minimizedRMSD -1
REMARK  0 active torsions:
REMARK  status: ('A' for Active; 'I' for Inactive)
ROOT
ATOM      1  C4' PXY d   1      -6.000  -2.985  -4.881  0.00  0.00     0.077 C 
ATOM      2  C1' PXY d   1      -1.158  -5.999  -5.818  0.00  0.00     0.077 C 
ATOM      3  C1  PXY d   1      -2.421  -5.198  -5.573  0.00  0.00    -0.082 A 
ATOM      4  C2  PXY d   1      -3.460  -5.776  -4.994  0.00  0.00     0.003 A 
ATOM      5  C3  PXY d   1      -4.621  -5.075  -4.793  0.00  0.00     0.003 A 
ATOM      6  C4  PXY d   1      -4.701  -3.753  -5.140  0.00  0.00    -0.082 A 
ATOM      7  C5  PXY d   1      -3.641  -3.153  -5.721  0.00  0.00     0.003 A 
ATOM      8  C6  PXY d   1      -2.485  -3.893  -5.954  0.00  0.00     0.003 A 
ENDROOT
TORSDOF 0
ENDMDL
