MODEL 1
REMARK minimizedAffinity -1.72895312
REMARK minimizedRMSD -1
REMARK  0 active torsions:
REMARK  status: ('A' for Active; 'I' for Inactive)
ROOT
ATOM      1  C4' PXY d   1      -2.077  -6.000  -6.000  0.00  0.00     0.077 C 
ATOM      2  C1' PXY d   1      -6.000  -2.292  -3.933  0.00  0.00     0.077 C 
ATOM      3  C1  PXY d   1      -4.962  -3.257  -4.470  0.00  0.00    -0.082 A 
ATOM      4  C2  PXY d   1      -5.251  -4.014  -5.516  0.00  0.00     0.003 A 
ATOM      5  C3  PXY d   1      -4.335  -4.915  -5.994  0.00  0.00     0.003 A 
ATOM      6  C4  PXY d   1      -3.091  -5.005  -5.430  0.00  0.00    -0.082 A 
ATOM      7  C5  PXY d   1      -2.784  -4.228  -4.369  0.00  0.00     0.003 A 
ATOM      8  C6  PXY d   1      -3.742  -3.349  -3.872  0.00  0.00     0.003 A 
ENDROOT
TORSDOF 0
ENDMDL
