MODEL 1
REMARK minimizedAffinity -3.57425499
REMARK minimizedRMSD -1
REMARK  0 active torsions:
REMARK  status: ('A' for Active; 'I' for Inactive)
ROOT
ATOM      1  C4' PXY d   1      -1.125  -5.246  -5.623  0.00  0.00     0.077 C 
ATOM      2  C1' PXY d   1      -5.983  -2.298  -4.563  0.00  0.00     0.077 C 
ATOM      3  C1  PXY d   1      -4.710  -3.076  -4.829  0.00  0.00    -0.082 A 
ATOM      4  C2  PXY d   1      -3.844  -2.628  -5.724  0.00  0.00     0.003 A 
ATOM      5  C3  PXY d   1      -2.703  -3.337  -6.000  0.00  0.00     0.003 A 
ATOM      6  C4  PXY d   1      -2.419  -4.488  -5.315  0.00  0.00    -0.082 A 
ATOM      7  C5  PXY d   1      -3.292  -4.946  -4.393  0.00  0.00     0.003 A 
ATOM      8  C6  PXY d   1      -4.465  -4.234  -4.157  0.00  0.00     0.003 A 
ENDROOT
TORSDOF 0
ENDMDL
