MODEL 1
REMARK minimizedAffinity 1.21602237
REMARK minimizedRMSD -1
REMARK  0 active torsions:
REMARK  status: ('A' for Active; 'I' for Inactive)
ROOT
ATOM      1  C4' PXY d   1      -6.000  -0.558  -3.231  0.00  0.00     0.077 C 
ATOM      2  C1' PXY d   1      -4.938  -5.522  -5.996  0.00  0.00     0.077 C 
ATOM      3  C1  PXY d   1      -5.213  -4.213  -5.281  0.00  0.00    -0.082 A 
ATOM      4  C2  PXY d   1      -5.178  -4.170  -3.959  0.00  0.00     0.003 A 
ATOM      5  C3  PXY d   1      -5.455  -3.002  -3.296  0.00  0.00     0.003 A 
ATOM      6  C4  PXY d   1      -5.720  -1.855  -3.995  0.00  0.00    -0.082 A 
ATOM      7  C5  PXY d   1      -5.747  -1.888  -5.344  0.00  0.00     0.003 A 
ATOM      8  C6  PXY d   1      -5.503  -3.093  -5.997  0.00  0.00     0.003 A 
ENDROOT
TORSDOF 0
ENDMDL
