MODEL 1
REMARK minimizedAffinity 7.60244417
REMARK minimizedRMSD -1
REMARK  0 active torsions:
REMARK  status: ('A' for Active; 'I' for Inactive)
ROOT
ATOM      1  C4' PXY d   1       3.975   1.725  -3.158  0.00  0.00     0.077 C 
ATOM      2  C1' PXY d   1      -1.653   2.293  -4.348  0.00  0.00     0.077 C 
ATOM      3  C1  PXY d   1      -0.180   2.137  -4.026  0.00  0.00    -0.082 A 
ATOM      4  C2  PXY d   1       0.688   3.022  -4.488  0.00  0.00     0.003 A 
ATOM      5  C3  PXY d   1       2.027   2.879  -4.232  0.00  0.00     0.003 A 
ATOM      6  C4  PXY d   1       2.477   1.848  -3.451  0.00  0.00    -0.082 A 
ATOM      7  C5  PXY d   1       1.597   0.947  -2.967  0.00  0.00     0.003 A 
ATOM      8  C6  PXY d   1       0.246   1.087  -3.272  0.00  0.00     0.003 A 
ENDROOT
TORSDOF 0
ENDMDL
