MODEL 1
REMARK minimizedAffinity -2.77462101
REMARK minimizedRMSD -1
REMARK  0 active torsions:
REMARK  status: ('A' for Active; 'I' for Inactive)
ROOT
ATOM      1  C4' PXY d   1      -5.998  -3.434  -4.964  0.00  0.00     0.077 C 
ATOM      2  C1' PXY d   1      -0.866  -6.000  -5.671  0.00  0.00     0.077 C 
ATOM      3  C1  PXY d   1      -2.217  -5.333  -5.496  0.00  0.00    -0.082 A 
ATOM      4  C2  PXY d   1      -2.299  -4.183  -4.847  0.00  0.00     0.003 A 
ATOM      5  C3  PXY d   1      -3.516  -3.583  -4.652  0.00  0.00     0.003 A 
ATOM      6  C4  PXY d   1      -4.654  -4.138  -5.173  0.00  0.00    -0.082 A 
ATOM      7  C5  PXY d   1      -4.577  -5.306  -5.846  0.00  0.00     0.003 A 
ATOM      8  C6  PXY d   1      -3.337  -5.920  -5.997  0.00  0.00     0.003 A 
ENDROOT
TORSDOF 0
ENDMDL
