MODEL 1
REMARK minimizedAffinity 4.83246803
REMARK minimizedRMSD -1
REMARK  0 active torsions:
REMARK  status: ('A' for Active; 'I' for Inactive)
ROOT
ATOM      1  C4' PXY d   1       2.462   1.375   0.874  0.00  0.00     0.077 C 
ATOM      2  C1' PXY d   1      -1.866  -2.451   1.076  0.00  0.00     0.077 C 
ATOM      3  C1  PXY d   1      -0.738  -1.441   1.014  0.00  0.00    -0.082 A 
ATOM      4  C2  PXY d   1       0.488  -1.807   1.354  0.00  0.00     0.003 A 
ATOM      5  C3  PXY d   1       1.514  -0.898   1.334  0.00  0.00     0.003 A 
ATOM      6  C4  PXY d   1       1.294   0.386   0.912  0.00  0.00    -0.082 A 
ATOM      7  C5  PXY d   1       0.049   0.764   0.553  0.00  0.00     0.003 A 
ATOM      8  C6  PXY d   1      -0.987  -0.163   0.620  0.00  0.00     0.003 A 
ENDROOT
TORSDOF 0
ENDMDL
