MODEL 1
REMARK minimizedAffinity 0.457823157
REMARK minimizedRMSD -1
REMARK  0 active torsions:
REMARK  status: ('A' for Active; 'I' for Inactive)
ROOT
ATOM      1  C4' PXY d   1      -5.997  -1.909  -4.839  0.00  0.00     0.077 C 
ATOM      2  C1' PXY d   1      -1.907  -5.993  -4.888  0.00  0.00     0.077 C 
ATOM      3  C1  PXY d   1      -2.983  -4.925  -4.863  0.00  0.00    -0.082 A 
ATOM      4  C2  PXY d   1      -3.515  -4.506  -5.999  0.00  0.00     0.003 A 
ATOM      5  C3  PXY d   1      -4.466  -3.519  -5.997  0.00  0.00     0.003 A 
ATOM      6  C4  PXY d   1      -4.915  -2.991  -4.816  0.00  0.00    -0.082 A 
ATOM      7  C5  PXY d   1      -4.384  -3.421  -3.652  0.00  0.00     0.003 A 
ATOM      8  C6  PXY d   1      -3.391  -4.395  -3.678  0.00  0.00     0.003 A 
ENDROOT
TORSDOF 0
ENDMDL
