MODEL 1
REMARK minimizedAffinity 1.61574149
REMARK minimizedRMSD -1
REMARK  3 active torsions:
REMARK  status: ('A' for Active; 'I' for Inactive)
REMARK    1  A    between atoms: C3'_2  and  C2'_3 
REMARK    2  A    between atoms: C2'_3  and  C1'_4 
REMARK    3  A    between atoms: C1'_4  and  C1_5 
ROOT
ATOM      1  C1  N4B d   1       3.777   0.927  -0.330  0.00  0.00    -0.075 A 
ATOM      2  C2  N4B d   1       3.809   2.304  -0.020  0.00  0.00     0.002 A 
ATOM      3  C3  N4B d   1       4.912   3.055  -0.342  0.00  0.00     0.002 A 
ATOM      4  C4  N4B d   1       5.999   2.450  -0.955  0.00  0.00    -0.004 A 
ATOM      5  C5  N4B d   1       5.950   1.124  -1.274  0.00  0.00     0.002 A 
ATOM      6  C6  N4B d   1       4.846   0.358  -0.960  0.00  0.00     0.002 A 
ENDROOT
BRANCH   1   7
ATOM      7  C1' N4B d   1       2.628   0.047   0.079  0.00  0.00     0.057 C 
BRANCH   7   8
ATOM      8  C2' N4B d   1       1.535   0.909   0.704  0.00  0.00     0.009 C 
BRANCH   8   9
ATOM      9  C3' N4B d   1       1.222   0.484   2.129  0.00  0.00     0.004 C 
ATOM     10  C4' N4B d   1       1.295   1.622   3.103  0.00  0.00     0.003 C 
ENDBRANCH   8   9
ENDBRANCH   7   8
ENDBRANCH   1   7
TORSDOF 3
ENDMDL
