MODEL 1
REMARK minimizedAffinity 0.260097146
REMARK minimizedRMSD -1
REMARK  3 active torsions:
REMARK  status: ('A' for Active; 'I' for Inactive)
REMARK    1  A    between atoms: C3'_2  and  C2'_3 
REMARK    2  A    between atoms: C2'_3  and  C1'_4 
REMARK    3  A    between atoms: C1'_4  and  C1_5 
ROOT
ATOM      1  C1  N4B d   1       2.081   0.131   0.954  0.00  0.00    -0.075 A 
ATOM      2  C2  N4B d   1       1.709  -1.207   1.210  0.00  0.00     0.002 A 
ATOM      3  C3  N4B d   1       0.977  -1.514   2.331  0.00  0.00     0.002 A 
ATOM      4  C4  N4B d   1       0.623  -0.506   3.216  0.00  0.00    -0.004 A 
ATOM      5  C5  N4B d   1       0.964   0.787   2.948  0.00  0.00     0.002 A 
ATOM      6  C6  N4B d   1       1.696   1.110   1.823  0.00  0.00     0.002 A 
ENDROOT
BRANCH   1   7
ATOM      7  C1' N4B d   1       2.954   0.503  -0.213  0.00  0.00     0.057 C 
BRANCH   7   8
ATOM      8  C2' N4B d   1       3.694   1.798   0.108  0.00  0.00     0.009 C 
BRANCH   8   9
ATOM      9  C3' N4B d   1       4.619   2.219  -1.021  0.00  0.00     0.004 C 
ATOM     10  C4' N4B d   1       4.648   1.229  -2.148  0.00  0.00     0.003 C 
ENDBRANCH   8   9
ENDBRANCH   7   8
ENDBRANCH   1   7
TORSDOF 3
ENDMDL
