MODEL 1
REMARK minimizedAffinity 8.46537971
REMARK minimizedRMSD -1
REMARK  3 active torsions:
REMARK  status: ('A' for Active; 'I' for Inactive)
REMARK    1  A    between atoms: C3'_2  and  C2'_3 
REMARK    2  A    between atoms: C2'_3  and  C1'_4 
REMARK    3  A    between atoms: C1'_4  and  C1_5 
ROOT
ATOM      1  C1  N4B d   1       1.392   1.181   0.946  0.00  0.00    -0.075 A 
ATOM      2  C2  N4B d   1       0.923   0.217   1.865  0.00  0.00     0.002 A 
ATOM      3  C3  N4B d   1       0.581   0.594   3.141  0.00  0.00     0.002 A 
ATOM      4  C4  N4B d   1       0.717   1.920   3.523  0.00  0.00    -0.004 A 
ATOM      5  C5  N4B d   1       1.146   2.849   2.622  0.00  0.00     0.002 A 
ATOM      6  C6  N4B d   1       1.489   2.485   1.335  0.00  0.00     0.002 A 
ENDROOT
BRANCH   1   7
ATOM      7  C1' N4B d   1       1.859   0.802  -0.433  0.00  0.00     0.057 C 
BRANCH   7   8
ATOM      8  C2' N4B d   1       3.367   0.571  -0.405  0.00  0.00     0.009 C 
BRANCH   8   9
ATOM      9  C3' N4B d   1       4.132   1.735  -1.010  0.00  0.00     0.004 C 
ATOM     10  C4' N4B d   1       5.469   1.949  -0.367  0.00  0.00     0.003 C 
ENDBRANCH   8   9
ENDBRANCH   7   8
ENDBRANCH   1   7
TORSDOF 3
ENDMDL
