MODEL 1
REMARK minimizedAffinity 7.7846384
REMARK minimizedRMSD -1
REMARK  0 active torsions:
REMARK  status: ('A' for Active; 'I' for Inactive)
ROOT
ATOM      1  C   UNL d   1      -4.888  -2.515  -0.438  0.00  0.00     0.124 A 
ATOM      2  C1  UNL d   1      -4.321  -3.753  -0.710  0.00  0.00     0.062 A 
ATOM      3  C2  UNL d   1      -4.315  -4.749   0.262  0.00  0.00     0.162 A 
ATOM      4  C3  UNL d   1      -4.880  -4.513   1.515  0.00  0.00    -0.034 A 
ATOM      5  C4  UNL d   1      -5.448  -3.266   1.782  0.00  0.00     0.162 A 
ATOM      6  C5  UNL d   1      -5.451  -2.273   0.807  0.00  0.00     0.062 A 
ATOM      7  F   UNL d   1      -6.000  -1.078   1.072  0.00  0.00    -0.097 F 
ATOM      8  F1  UNL d   1      -6.000  -3.005   2.976  0.00  0.00    -0.096 F 
ATOM      9  I   UNL d   1      -4.874  -6.000   2.971  0.00  0.00    -0.060 I 
ATOM     10  F2  UNL d   1      -3.760  -5.935  -0.029  0.00  0.00    -0.096 F 
ATOM     11  F3  UNL d   1      -3.776  -3.989  -1.912  0.00  0.00    -0.097 F 
ATOM     12  F4  UNL d   1      -4.891  -1.558  -1.375  0.00  0.00    -0.092 F 
ENDROOT
TORSDOF 0
ENDMDL
