MODEL 1
REMARK minimizedAffinity 8.25413418
REMARK minimizedRMSD -1
REMARK  0 active torsions:
REMARK  status: ('A' for Active; 'I' for Inactive)
ROOT
ATOM      1  C   UNL d   1      -1.347   1.034   1.050  0.00  0.00     0.124 A 
ATOM      2  C1  UNL d   1      -1.838  -0.156   0.531  0.00  0.00     0.062 A 
ATOM      3  C2  UNL d   1      -3.116  -0.592   0.868  0.00  0.00     0.162 A 
ATOM      4  C3  UNL d   1      -3.914   0.163   1.727  0.00  0.00    -0.034 A 
ATOM      5  C4  UNL d   1      -3.413   1.359   2.246  0.00  0.00     0.162 A 
ATOM      6  C5  UNL d   1      -2.134   1.790   1.906  0.00  0.00     0.062 A 
ATOM      7  F   UNL d   1      -1.662   2.940   2.408  0.00  0.00    -0.097 F 
ATOM      8  F1  UNL d   1      -4.153   2.110   3.075  0.00  0.00    -0.096 F 
ATOM      9  I   UNL d   1      -5.825  -0.485   2.233  0.00  0.00    -0.060 I 
ATOM     10  F2  UNL d   1      -3.564  -1.746   0.352  0.00  0.00    -0.096 F 
ATOM     11  F3  UNL d   1      -1.078  -0.889  -0.296  0.00  0.00    -0.097 F 
ATOM     12  F4  UNL d   1      -0.116   1.451   0.725  0.00  0.00    -0.092 F 
ENDROOT
TORSDOF 0
ENDMDL
