MODEL 1
REMARK minimizedAffinity 17.7599506
REMARK minimizedRMSD -1
REMARK  0 active torsions:
REMARK  status: ('A' for Active; 'I' for Inactive)
ROOT
ATOM      1  C   UNL d   1      -0.191   2.331   3.096  0.00  0.00     0.124 A 
ATOM      2  C1  UNL d   1      -1.374   2.779   2.525  0.00  0.00     0.062 A 
ATOM      3  C2  UNL d   1      -2.302   1.868   2.029  0.00  0.00     0.162 A 
ATOM      4  C3  UNL d   1      -2.051   0.498   2.102  0.00  0.00    -0.034 A 
ATOM      5  C4  UNL d   1      -0.859   0.054   2.677  0.00  0.00     0.162 A 
ATOM      6  C5  UNL d   1       0.065   0.969   3.171  0.00  0.00     0.062 A 
ATOM      7  F   UNL d   1       1.208   0.534   3.723  0.00  0.00    -0.097 F 
ATOM      8  F1  UNL d   1      -0.586  -1.256   2.764  0.00  0.00    -0.096 F 
ATOM      9  I   UNL d   1      -3.436  -0.868   1.362  0.00  0.00    -0.060 I 
ATOM     10  F2  UNL d   1      -3.436   2.330   1.483  0.00  0.00    -0.096 F 
ATOM     11  F3  UNL d   1      -1.624   4.095   2.450  0.00  0.00    -0.097 F 
ATOM     12  F4  UNL d   1       0.700   3.210   3.571  0.00  0.00    -0.092 F 
ENDROOT
TORSDOF 0
ENDMDL
