MODEL 1
REMARK minimizedAffinity 27.6917725
REMARK minimizedRMSD -1
REMARK  0 active torsions:
REMARK  status: ('A' for Active; 'I' for Inactive)
ROOT
ATOM      1  C   UNL d   1       2.202  -0.318  -3.324  0.00  0.00     0.124 A 
ATOM      2  C1  UNL d   1       2.905  -0.256  -4.519  0.00  0.00     0.062 A 
ATOM      3  C2  UNL d   1       3.643   0.880  -4.838  0.00  0.00     0.162 A 
ATOM      4  C3  UNL d   1       3.682   1.964  -3.961  0.00  0.00    -0.034 A 
ATOM      5  C4  UNL d   1       2.971   1.894  -2.762  0.00  0.00     0.162 A 
ATOM      6  C5  UNL d   1       2.235   0.757  -2.447  0.00  0.00     0.062 A 
ATOM      7  F   UNL d   1       1.555   0.698  -1.292  0.00  0.00    -0.097 F 
ATOM      8  F1  UNL d   1       2.987   2.918  -1.895  0.00  0.00    -0.096 F 
ATOM      9  I   UNL d   1       4.784   3.664  -4.435  0.00  0.00    -0.060 I 
ATOM     10  F2  UNL d   1       4.314   0.912  -6.000  0.00  0.00    -0.096 F 
ATOM     11  F3  UNL d   1       2.874  -1.293  -5.368  0.00  0.00    -0.097 F 
ATOM     12  F4  UNL d   1       1.492  -1.412  -3.020  0.00  0.00    -0.092 F 
ENDROOT
TORSDOF 0
ENDMDL
