MODEL 1
REMARK minimizedAffinity 23.0688953
REMARK minimizedRMSD -1
REMARK  0 active torsions:
REMARK  status: ('A' for Active; 'I' for Inactive)
ROOT
ATOM      1  C   UNL d   1      -2.966  -3.491   0.530  0.00  0.00     0.124 A 
ATOM      2  C1  UNL d   1      -4.104  -2.700   0.599  0.00  0.00     0.062 A 
ATOM      3  C2  UNL d   1      -4.002  -1.355   0.941  0.00  0.00     0.162 A 
ATOM      4  C3  UNL d   1      -2.756  -0.791   1.216  0.00  0.00    -0.034 A 
ATOM      5  C4  UNL d   1      -1.616  -1.594   1.146  0.00  0.00     0.162 A 
ATOM      6  C5  UNL d   1      -1.723  -2.938   0.804  0.00  0.00     0.062 A 
ATOM      7  F   UNL d   1      -0.623  -3.701   0.738  0.00  0.00    -0.097 F 
ATOM      8  F1  UNL d   1      -0.402  -1.084   1.405  0.00  0.00    -0.096 F 
ATOM      9  I   UNL d   1      -2.599   1.220   1.728  0.00  0.00    -0.060 I 
ATOM     10  F2  UNL d   1      -5.119  -0.614   0.999  0.00  0.00    -0.096 F 
ATOM     11  F3  UNL d   1      -5.306  -3.233   0.336  0.00  0.00    -0.097 F 
ATOM     12  F4  UNL d   1      -3.068  -4.786   0.202  0.00  0.00    -0.092 F 
ENDROOT
TORSDOF 0
ENDMDL
