MODEL 1
REMARK minimizedAffinity 28.1384697
REMARK minimizedRMSD -1
REMARK  0 active torsions:
REMARK  status: ('A' for Active; 'I' for Inactive)
ROOT
ATOM      1  C   UNL d   1      -1.636  -3.103  -5.614  0.00  0.00     0.124 A 
ATOM      2  C1  UNL d   1      -1.441  -1.788  -5.215  0.00  0.00     0.062 A 
ATOM      3  C2  UNL d   1      -2.524  -1.010  -4.815  0.00  0.00     0.162 A 
ATOM      4  C3  UNL d   1      -3.812  -1.546  -4.812  0.00  0.00    -0.034 A 
ATOM      5  C4  UNL d   1      -4.000  -2.869  -5.216  0.00  0.00     0.162 A 
ATOM      6  C5  UNL d   1      -2.914  -3.642  -5.614  0.00  0.00     0.062 A 
ATOM      7  F   UNL d   1      -3.104  -4.913  -6.000  0.00  0.00    -0.097 F 
ATOM      8  F1  UNL d   1      -5.225  -3.416  -5.224  0.00  0.00    -0.096 F 
ATOM      9  I   UNL d   1      -5.434  -0.387  -4.215  0.00  0.00    -0.060 I 
ATOM     10  F2  UNL d   1      -2.307   0.257  -4.434  0.00  0.00    -0.096 F 
ATOM     11  F3  UNL d   1      -0.207  -1.264  -5.214  0.00  0.00    -0.097 F 
ATOM     12  F4  UNL d   1      -0.592  -3.848  -5.999  0.00  0.00    -0.092 F 
ENDROOT
TORSDOF 0
ENDMDL
