MODEL 1
REMARK minimizedAffinity 23.5653934
REMARK minimizedRMSD -1
REMARK  0 active torsions:
REMARK  status: ('A' for Active; 'I' for Inactive)
ROOT
ATOM      1  C   UNL d   1       2.401  -0.206  -3.335  0.00  0.00     0.124 A 
ATOM      2  C1  UNL d   1       3.433   0.659  -2.999  0.00  0.00     0.062 A 
ATOM      3  C2  UNL d   1       3.582   1.866  -3.675  0.00  0.00     0.162 A 
ATOM      4  C3  UNL d   1       2.696   2.217  -4.693  0.00  0.00    -0.034 A 
ATOM      5  C4  UNL d   1       1.660   1.342  -5.026  0.00  0.00     0.162 A 
ATOM      6  C5  UNL d   1       1.515   0.136  -4.347  0.00  0.00     0.062 A 
ATOM      7  F   UNL d   1       0.517  -0.698  -4.673  0.00  0.00    -0.097 F 
ATOM      8  F1  UNL d   1       0.790   1.648  -5.999  0.00  0.00    -0.096 F 
ATOM      9  I   UNL d   1       2.915   4.022  -5.706  0.00  0.00    -0.060 I 
ATOM     10  F2  UNL d   1       4.589   2.683  -3.330  0.00  0.00    -0.096 F 
ATOM     11  F3  UNL d   1       4.290   0.330  -2.022  0.00  0.00    -0.097 F 
ATOM     12  F4  UNL d   1       2.260  -1.368  -2.684  0.00  0.00    -0.092 F 
ENDROOT
TORSDOF 0
ENDMDL
