MODEL 1
REMARK minimizedAffinity 21.5459251
REMARK minimizedRMSD -1
REMARK  0 active torsions:
REMARK  status: ('A' for Active; 'I' for Inactive)
ROOT
ATOM      1  C   UNL d   1      -1.002   3.027   2.624  0.00  0.00     0.124 A 
ATOM      2  C1  UNL d   1      -2.221   3.646   2.383  0.00  0.00     0.062 A 
ATOM      3  C2  UNL d   1      -3.295   2.910   1.891  0.00  0.00     0.162 A 
ATOM      4  C3  UNL d   1      -3.156   1.545   1.637  0.00  0.00    -0.034 A 
ATOM      5  C4  UNL d   1      -1.926   0.930   1.881  0.00  0.00     0.162 A 
ATOM      6  C5  UNL d   1      -0.856   1.670   2.372  0.00  0.00     0.062 A 
ATOM      7  F   UNL d   1       0.321   1.070   2.604  0.00  0.00    -0.097 F 
ATOM      8  F1  UNL d   1      -1.758  -0.380   1.648  0.00  0.00    -0.096 F 
ATOM      9  I   UNL d   1      -4.759   0.441   0.902  0.00  0.00    -0.060 I 
ATOM     10  F2  UNL d   1      -4.461   3.534   1.668  0.00  0.00    -0.096 F 
ATOM     11  F3  UNL d   1      -2.365   4.957   2.624  0.00  0.00    -0.097 F 
ATOM     12  F4  UNL d   1       0.030   3.738   3.096  0.00  0.00    -0.092 F 
ENDROOT
TORSDOF 0
ENDMDL
