MODEL 1
REMARK minimizedAffinity 26.5555325
REMARK minimizedRMSD -1
REMARK  0 active torsions:
REMARK  status: ('A' for Active; 'I' for Inactive)
ROOT
ATOM      1  C   UNL d   1       1.810   0.373  -3.121  0.00  0.00     0.124 A 
ATOM      2  C1  UNL d   1       1.856   1.576  -2.430  0.00  0.00     0.062 A 
ATOM      3  C2  UNL d   1       2.582   2.649  -2.938  0.00  0.00     0.162 A 
ATOM      4  C3  UNL d   1       3.268   2.524  -4.146  0.00  0.00    -0.034 A 
ATOM      5  C4  UNL d   1       3.218   1.311  -4.836  0.00  0.00     0.162 A 
ATOM      6  C5  UNL d   1       2.491   0.242  -4.323  0.00  0.00     0.062 A 
ATOM      7  F   UNL d   1       2.449  -0.919  -4.993  0.00  0.00    -0.097 F 
ATOM      8  F1  UNL d   1       3.866   1.158  -6.000  0.00  0.00    -0.096 F 
ATOM      9  I   UNL d   1       4.355   4.127  -4.910  0.00  0.00    -0.060 I 
ATOM     10  F2  UNL d   1       2.608   3.799  -2.249  0.00  0.00    -0.096 F 
ATOM     11  F3  UNL d   1       1.199   1.704  -1.268  0.00  0.00    -0.097 F 
ATOM     12  F4  UNL d   1       1.112  -0.658  -2.629  0.00  0.00    -0.092 F 
ENDROOT
TORSDOF 0
ENDMDL
