MODEL 1
REMARK minimizedAffinity 23.2795944
REMARK minimizedRMSD -1
REMARK  0 active torsions:
REMARK  status: ('A' for Active; 'I' for Inactive)
ROOT
ATOM      1  C   UNL d   1      -3.329   3.543   1.646  0.00  0.00     0.124 A 
ATOM      2  C1  UNL d   1      -2.946   2.332   1.087  0.00  0.00     0.062 A 
ATOM      3  C2  UNL d   1      -1.727   1.756   1.430  0.00  0.00     0.162 A 
ATOM      4  C3  UNL d   1      -0.880   2.390   2.340  0.00  0.00    -0.034 A 
ATOM      5  C4  UNL d   1      -1.272   3.609   2.898  0.00  0.00     0.162 A 
ATOM      6  C5  UNL d   1      -2.492   4.180   2.551  0.00  0.00     0.062 A 
ATOM      7  F   UNL d   1      -2.860   5.350   3.092  0.00  0.00    -0.097 F 
ATOM      8  F1  UNL d   1      -0.482   4.246   3.775  0.00  0.00    -0.096 F 
ATOM      9  I   UNL d   1       0.944   1.533   2.857  0.00  0.00    -0.060 I 
ATOM     10  F2  UNL d   1      -1.382   0.585   0.874  0.00  0.00    -0.096 F 
ATOM     11  F3  UNL d   1      -3.753   1.714   0.211  0.00  0.00    -0.097 F 
ATOM     12  F4  UNL d   1      -4.502   4.095   1.313  0.00  0.00    -0.092 F 
ENDROOT
TORSDOF 0
ENDMDL
