MODEL 1
REMARK minimizedAffinity 18.9113712
REMARK minimizedRMSD -1
REMARK  0 active torsions:
REMARK  status: ('A' for Active; 'I' for Inactive)
ROOT
ATOM      1  C   UNL d   1      -1.162  -1.868  -5.527  0.00  0.00     0.124 A 
ATOM      2  C1  UNL d   1      -2.088  -0.865  -5.276  0.00  0.00     0.062 A 
ATOM      3  C2  UNL d   1      -3.448  -1.158  -5.254  0.00  0.00     0.162 A 
ATOM      4  C3  UNL d   1      -3.892  -2.460  -5.484  0.00  0.00    -0.034 A 
ATOM      5  C4  UNL d   1      -2.955  -3.464  -5.737  0.00  0.00     0.162 A 
ATOM      6  C5  UNL d   1      -1.596  -3.166  -5.757  0.00  0.00     0.062 A 
ATOM      7  F   UNL d   1      -0.703  -4.137  -6.000  0.00  0.00    -0.097 F 
ATOM      8  F1  UNL d   1      -3.346  -4.727  -5.962  0.00  0.00    -0.096 F 
ATOM      9  I   UNL d   1      -5.925  -2.902  -5.453  0.00  0.00    -0.060 I 
ATOM     10  F2  UNL d   1      -4.320  -0.169  -5.009  0.00  0.00    -0.096 F 
ATOM     11  F3  UNL d   1      -1.671   0.390  -5.054  0.00  0.00    -0.097 F 
ATOM     12  F4  UNL d   1       0.147  -1.584  -5.548  0.00  0.00    -0.092 F 
ENDROOT
TORSDOF 0
ENDMDL
