MODEL 1
REMARK minimizedAffinity 12.4714165
REMARK minimizedRMSD -1
REMARK  0 active torsions:
REMARK  status: ('A' for Active; 'I' for Inactive)
ROOT
ATOM      1  C   UNL d   1      -2.065   0.233   1.257  0.00  0.00     0.124 A 
ATOM      2  C1  UNL d   1      -1.523   1.444   1.665  0.00  0.00     0.062 A 
ATOM      3  C2  UNL d   1      -2.347   2.444   2.172  0.00  0.00     0.162 A 
ATOM      4  C3  UNL d   1      -3.723   2.238   2.275  0.00  0.00    -0.034 A 
ATOM      5  C4  UNL d   1      -4.261   1.018   1.862  0.00  0.00     0.162 A 
ATOM      6  C5  UNL d   1      -3.433   0.021   1.356  0.00  0.00     0.062 A 
ATOM      7  F   UNL d   1      -3.959  -1.148   0.962  0.00  0.00    -0.097 F 
ATOM      8  F1  UNL d   1      -5.579   0.786   1.947  0.00  0.00    -0.096 F 
ATOM      9  I   UNL d   1      -4.959   3.731   3.033  0.00  0.00    -0.060 I 
ATOM     10  F2  UNL d   1      -1.796   3.604   2.559  0.00  0.00    -0.096 F 
ATOM     11  F3  UNL d   1      -0.202   1.651   1.570  0.00  0.00    -0.097 F 
ATOM     12  F4  UNL d   1      -1.270  -0.728   0.769  0.00  0.00    -0.092 F 
ENDROOT
TORSDOF 0
ENDMDL
