MODEL 1
REMARK minimizedAffinity 29.9675579
REMARK minimizedRMSD -1
REMARK  0 active torsions:
REMARK  status: ('A' for Active; 'I' for Inactive)
ROOT
ATOM      1  C   UNL d   1       3.390   4.717  -3.675  0.00  0.00     0.124 A 
ATOM      2  C1  UNL d   1       3.416   3.979  -4.851  0.00  0.00     0.062 A 
ATOM      3  C2  UNL d   1       3.018   2.646  -4.849  0.00  0.00     0.162 A 
ATOM      4  C3  UNL d   1       2.589   2.041  -3.667  0.00  0.00    -0.034 A 
ATOM      5  C4  UNL d   1       2.566   2.789  -2.489  0.00  0.00     0.162 A 
ATOM      6  C5  UNL d   1       2.966   4.122  -2.496  0.00  0.00     0.062 A 
ATOM      7  F   UNL d   1       2.940   4.833  -1.359  0.00  0.00    -0.097 F 
ATOM      8  F1  UNL d   1       2.160   2.239  -1.335  0.00  0.00    -0.096 F 
ATOM      9  I   UNL d   1       1.992   0.047  -3.660  0.00  0.00    -0.060 I 
ATOM     10  F2  UNL d   1       3.053   1.957  -5.999  0.00  0.00    -0.096 F 
ATOM     11  F3  UNL d   1       3.827   4.552  -5.991  0.00  0.00    -0.097 F 
ATOM     12  F4  UNL d   1       3.775   6.000  -3.680  0.00  0.00    -0.092 F 
ENDROOT
TORSDOF 0
ENDMDL
