MODEL 1
REMARK minimizedAffinity 14.518137
REMARK minimizedRMSD -1
REMARK  0 active torsions:
REMARK  status: ('A' for Active; 'I' for Inactive)
ROOT
ATOM      1  C   UNL d   1       1.453   1.115   3.001  0.00  0.00     0.124 A 
ATOM      2  C1  UNL d   1       2.297   0.017   3.094  0.00  0.00     0.062 A 
ATOM      3  C2  UNL d   1       3.595   0.088   2.597  0.00  0.00     0.162 A 
ATOM      4  C3  UNL d   1       4.058   1.262   2.005  0.00  0.00    -0.034 A 
ATOM      5  C4  UNL d   1       3.203   2.362   1.914  0.00  0.00     0.162 A 
ATOM      6  C5  UNL d   1       1.907   2.286   2.412  0.00  0.00     0.062 A 
ATOM      7  F   UNL d   1       1.093   3.348   2.321  0.00  0.00    -0.097 F 
ATOM      8  F1  UNL d   1       3.617   3.507   1.350  0.00  0.00    -0.096 F 
ATOM      9  I   UNL d   1       5.999   1.373   1.261  0.00  0.00    -0.060 I 
ATOM     10  F2  UNL d   1       4.389  -0.989   2.700  0.00  0.00    -0.096 F 
ATOM     11  F3  UNL d   1       1.860  -1.117   3.662  0.00  0.00    -0.097 F 
ATOM     12  F4  UNL d   1       0.204   1.043   3.479  0.00  0.00    -0.092 F 
ENDROOT
TORSDOF 0
ENDMDL
