MODEL 1
REMARK minimizedAffinity 20.2716961
REMARK minimizedRMSD -1
REMARK  0 active torsions:
REMARK  status: ('A' for Active; 'I' for Inactive)
ROOT
ATOM      1  C   UNL d   1       4.431   3.659  -3.145  0.00  0.00     0.124 A 
ATOM      2  C1  UNL d   1       3.236   3.525  -2.452  0.00  0.00     0.062 A 
ATOM      3  C2  UNL d   1       2.070   4.097  -2.952  0.00  0.00     0.162 A 
ATOM      4  C3  UNL d   1       2.092   4.808  -4.152  0.00  0.00    -0.034 A 
ATOM      5  C4  UNL d   1       3.298   4.939  -4.843  0.00  0.00     0.162 A 
ATOM      6  C5  UNL d   1       4.461   4.365  -4.340  0.00  0.00     0.062 A 
ATOM      7  F   UNL d   1       5.615   4.495  -5.011  0.00  0.00    -0.097 F 
ATOM      8  F1  UNL d   1       3.355   5.615  -6.000  0.00  0.00    -0.096 F 
ATOM      9  I   UNL d   1       0.350   5.665  -4.902  0.00  0.00    -0.060 I 
ATOM     10  F2  UNL d   1       0.929   3.953  -2.261  0.00  0.00    -0.096 F 
ATOM     11  F3  UNL d   1       3.205   2.844  -1.298  0.00  0.00    -0.097 F 
ATOM     12  F4  UNL d   1       5.552   3.108  -2.662  0.00  0.00    -0.092 F 
ENDROOT
TORSDOF 0
ENDMDL
