MODEL 1
REMARK minimizedAffinity 6.33798361
REMARK minimizedRMSD -1
REMARK  0 active torsions:
REMARK  status: ('A' for Active; 'I' for Inactive)
ROOT
ATOM      1  C   UNL d   1      -0.900   2.865   3.863  0.00  0.00     0.124 A 
ATOM      2  C1  UNL d   1      -0.916   1.486   3.709  0.00  0.00     0.062 A 
ATOM      3  C2  UNL d   1      -1.909   0.724   4.317  0.00  0.00     0.162 A 
ATOM      4  C3  UNL d   1      -2.897   1.341   5.085  0.00  0.00    -0.034 A 
ATOM      5  C4  UNL d   1      -2.874   2.729   5.236  0.00  0.00     0.162 A 
ATOM      6  C5  UNL d   1      -1.879   3.485   4.626  0.00  0.00     0.062 A 
ATOM      7  F   UNL d   1      -1.866   4.818   4.776  0.00  0.00    -0.097 F 
ATOM      8  F1  UNL d   1      -3.809   3.354   5.968  0.00  0.00    -0.096 F 
ATOM      9  I   UNL d   1      -4.385   0.206   5.997  0.00  0.00    -0.060 I 
ATOM     10  F2  UNL d   1      -1.900  -0.607   4.151  0.00  0.00    -0.096 F 
ATOM     11  F3  UNL d   1       0.030   0.884   2.972  0.00  0.00    -0.097 F 
ATOM     12  F4  UNL d   1       0.058   3.595   3.277  0.00  0.00    -0.092 F 
ENDROOT
TORSDOF 0
ENDMDL
