MODEL 1
REMARK minimizedAffinity -1.08725345
REMARK minimizedRMSD -1
REMARK  0 active torsions:
REMARK  status: ('A' for Active; 'I' for Inactive)
ROOT
ATOM      1  N1  IND d   1      -0.515  -0.708   2.483  0.00  0.00    -0.196 N 
ATOM      2  C2  IND d   1       0.711  -0.559   3.070  0.00  0.00     0.054 A 
ATOM      3  C3  IND d   1       1.614  -0.117   2.167  0.00  0.00    -0.031 A 
ATOM      4  C4  IND d   1       1.279   0.526  -0.303  0.00  0.00     0.051 A 
ATOM      5  C5  IND d   1       0.342   0.524  -1.298  0.00  0.00    -0.031 A 
ATOM      6  C6  IND d   1      -0.955   0.107  -1.079  0.00  0.00     0.015 A 
ATOM      7  C7  IND d   1      -1.368  -0.317   0.152  0.00  0.00    -0.016 A 
ATOM      8  C8  IND d   1      -0.418  -0.324   1.164  0.00  0.00    -0.047 A 
ATOM      9  C9  IND d   1       0.910   0.059   0.937  0.00  0.00    -0.096 A 
ATOM     10  HN1 IND d   1      -1.226  -0.994   2.872  0.00  0.00     0.298 HD
ENDROOT
TORSDOF 0
ENDMDL
