MODEL 1
REMARK minimizedAffinity -4.61292124
REMARK minimizedRMSD -1
REMARK  0 active torsions:
REMARK  status: ('A' for Active; 'I' for Inactive)
ROOT
ATOM      1  N1  IND d   1       0.324   0.195  -1.032  0.00  0.00    -0.196 N 
ATOM      2  C2  IND d   1      -1.042   0.141  -1.018  0.00  0.00     0.054 A 
ATOM      3  C3  IND d   1      -1.485  -0.263   0.193  0.00  0.00    -0.031 A 
ATOM      4  C4  IND d   1      -0.150  -0.793   2.330  0.00  0.00     0.051 A 
ATOM      5  C5  IND d   1       1.128  -0.920   2.798  0.00  0.00    -0.031 A 
ATOM      6  C6  IND d   1       2.225  -0.675   1.998  0.00  0.00     0.015 A 
ATOM      7  C7  IND d   1       2.085  -0.280   0.698  0.00  0.00    -0.016 A 
ATOM      8  C8  IND d   1       0.789  -0.157   0.217  0.00  0.00    -0.047 A 
ATOM      9  C9  IND d   1      -0.328  -0.445   1.011  0.00  0.00    -0.096 A 
ATOM     10  HN1 IND d   1       0.812   0.411  -1.706  0.00  0.00     0.298 HD
ENDROOT
TORSDOF 0
ENDMDL
