MODEL 1
REMARK minimizedAffinity -1.9798789
REMARK minimizedRMSD -1
REMARK  0 active torsions:
REMARK  status: ('A' for Active; 'I' for Inactive)
ROOT
ATOM      1  N1  IND d   1       0.726  -0.620  -1.099  0.00  0.00    -0.196 N 
ATOM      2  C2  IND d   1      -0.319   0.259  -1.029  0.00  0.00     0.054 A 
ATOM      3  C3  IND d   1      -0.901   0.201   0.190  0.00  0.00    -0.031 A 
ATOM      4  C4  IND d   1      -0.241  -1.188   2.254  0.00  0.00     0.051 A 
ATOM      5  C5  IND d   1       0.625  -2.164   2.664  0.00  0.00    -0.031 A 
ATOM      6  C6  IND d   1       1.589  -2.683   1.825  0.00  0.00     0.015 A 
ATOM      7  C7  IND d   1       1.732  -2.236   0.542  0.00  0.00    -0.016 A 
ATOM      8  C8  IND d   1       0.851  -1.250   0.119  0.00  0.00    -0.047 A 
ATOM      9  C9  IND d   1      -0.157  -0.750   0.953  0.00  0.00    -0.096 A 
ATOM     10  HN1 IND d   1       1.222  -0.756  -1.788  0.00  0.00     0.298 HD
ENDROOT
TORSDOF 0
ENDMDL
