MODEL 1
REMARK minimizedAffinity -6.45240164
REMARK minimizedRMSD -1
REMARK  0 active torsions:
REMARK  status: ('A' for Active; 'I' for Inactive)
ROOT
ATOM      1  N1  IND d   1       1.390  -1.500  -1.105  0.00  0.00    -0.196 N 
ATOM      2  C2  IND d   1       0.326  -1.006  -1.807  0.00  0.00     0.054 A 
ATOM      3  C3  IND d   1      -0.550  -0.404  -0.972  0.00  0.00    -0.031 A 
ATOM      4  C4  IND d   1      -0.389  -0.023   1.570  0.00  0.00     0.051 A 
ATOM      5  C5  IND d   1       0.381  -0.326   2.657  0.00  0.00    -0.031 A 
ATOM      6  C6  IND d   1       1.552  -1.047   2.544  0.00  0.00     0.015 A 
ATOM      7  C7  IND d   1       2.004  -1.485   1.331  0.00  0.00    -0.016 A 
ATOM      8  C8  IND d   1       1.221  -1.186   0.225  0.00  0.00    -0.047 A 
ATOM      9  C9  IND d   1       0.010  -0.491   0.340  0.00  0.00    -0.096 A 
ATOM     10  HN1 IND d   1       2.053  -1.933  -1.439  0.00  0.00     0.298 HD
ENDROOT
TORSDOF 0
ENDMDL
