MODEL 1
REMARK minimizedAffinity -4.47402954
REMARK minimizedRMSD -1
REMARK  0 active torsions:
REMARK  status: ('A' for Active; 'I' for Inactive)
ROOT
ATOM      1  N1  IND d   1       1.029   0.830  -1.051  0.00  0.00    -0.196 N 
ATOM      2  C2  IND d   1       0.432  -0.285  -0.532  0.00  0.00     0.054 A 
ATOM      3  C3  IND d   1      -0.887  -0.294  -0.830  0.00  0.00    -0.031 A 
ATOM      4  C4  IND d   1      -2.255   1.367  -2.244  0.00  0.00     0.051 A 
ATOM      5  C5  IND d   1      -2.155   2.562  -2.899  0.00  0.00    -0.031 A 
ATOM      6  C6  IND d   1      -0.963   3.254  -2.975  0.00  0.00     0.015 A 
ATOM      7  C7  IND d   1       0.180   2.768  -2.406  0.00  0.00    -0.016 A 
ATOM      8  C8  IND d   1       0.080   1.558  -1.735  0.00  0.00    -0.047 A 
ATOM      9  C9  IND d   1      -1.135   0.872  -1.618  0.00  0.00    -0.096 A 
ATOM     10  HN1 IND d   1       1.858   1.041  -0.965  0.00  0.00     0.298 HD
ENDROOT
TORSDOF 0
ENDMDL
