MODEL 1
REMARK minimizedAffinity -5.25905466
REMARK minimizedRMSD -1
REMARK  0 active torsions:
REMARK  status: ('A' for Active; 'I' for Inactive)
ROOT
ATOM      1  N1  IND d   1      -1.488   0.027  -0.328  0.00  0.00    -0.196 N 
ATOM      2  C2  IND d   1      -0.746  -0.117  -1.466  0.00  0.00     0.054 A 
ATOM      3  C3  IND d   1       0.563  -0.262  -1.159  0.00  0.00    -0.031 A 
ATOM      4  C4  IND d   1       1.696  -0.393   1.149  0.00  0.00     0.051 A 
ATOM      5  C5  IND d   1       1.435  -0.275   2.485  0.00  0.00    -0.031 A 
ATOM      6  C6  IND d   1       0.160  -0.049   2.962  0.00  0.00     0.015 A 
ATOM      7  C7  IND d   1      -0.908   0.057   2.117  0.00  0.00    -0.016 A 
ATOM      8  C8  IND d   1      -0.646  -0.055   0.759  0.00  0.00    -0.047 A 
ATOM      9  C9  IND d   1       0.652  -0.242   0.267  0.00  0.00    -0.096 A 
ATOM     10  HN1 IND d   1      -2.339   0.149  -0.296  0.00  0.00     0.298 HD
ENDROOT
TORSDOF 0
ENDMDL
