MODEL 1
REMARK minimizedAffinity -3.00990462
REMARK minimizedRMSD -1
REMARK  0 active torsions:
REMARK  status: ('A' for Active; 'I' for Inactive)
ROOT
ATOM      1  N1  IND d   1       0.270  -0.380  -0.807  0.00  0.00    -0.196 N 
ATOM      2  C2  IND d   1      -0.908   0.186  -0.407  0.00  0.00     0.054 A 
ATOM      3  C3  IND d   1      -1.047   0.087   0.934  0.00  0.00    -0.031 A 
ATOM      4  C4  IND d   1       0.583  -0.874   2.680  0.00  0.00     0.051 A 
ATOM      5  C5  IND d   1       1.773  -1.537   2.793  0.00  0.00    -0.031 A 
ATOM      6  C6  IND d   1       2.540  -1.852   1.690  0.00  0.00     0.015 A 
ATOM      7  C7  IND d   1       2.149  -1.504   0.428  0.00  0.00    -0.016 A 
ATOM      8  C8  IND d   1       0.937  -0.837   0.309  0.00  0.00    -0.047 A 
ATOM      9  C9  IND d   1       0.135  -0.553   1.421  0.00  0.00    -0.096 A 
ATOM     10  HN1 IND d   1       0.548  -0.440  -1.618  0.00  0.00     0.298 HD
ENDROOT
TORSDOF 0
ENDMDL
