MODEL 1
REMARK minimizedAffinity -1.66870153
REMARK minimizedRMSD -1
REMARK  0 active torsions:
REMARK  status: ('A' for Active; 'I' for Inactive)
ROOT
ATOM      1  N1  IND d   1       0.221   0.286  -1.016  0.00  0.00    -0.196 N 
ATOM      2  C2  IND d   1      -1.143   0.205  -0.989  0.00  0.00     0.054 A 
ATOM      3  C3  IND d   1      -1.562  -0.287   0.199  0.00  0.00    -0.031 A 
ATOM      4  C4  IND d   1      -0.188  -0.930   2.279  0.00  0.00     0.051 A 
ATOM      5  C5  IND d   1       1.098  -1.062   2.721  0.00  0.00    -0.031 A 
ATOM      6  C6  IND d   1       2.180  -0.743   1.926  0.00  0.00     0.015 A 
ATOM      7  C7  IND d   1       2.014  -0.266   0.656  0.00  0.00    -0.016 A 
ATOM      8  C8  IND d   1       0.709  -0.137   0.201  0.00  0.00    -0.047 A 
ATOM      9  C9  IND d   1      -0.391  -0.500   0.989  0.00  0.00    -0.096 A 
ATOM     10  HN1 IND d   1       0.695   0.556  -1.681  0.00  0.00     0.298 HD
ENDROOT
TORSDOF 0
ENDMDL
