MODEL 1
REMARK minimizedAffinity -2.37010455
REMARK minimizedRMSD -1
REMARK  0 active torsions:
REMARK  status: ('A' for Active; 'I' for Inactive)
ROOT
ATOM      1  N1  IND d   1       0.178  -0.415   2.689  0.00  0.00    -0.196 N 
ATOM      2  C2  IND d   1       1.521  -0.175   2.778  0.00  0.00     0.054 A 
ATOM      3  C3  IND d   1       2.035   0.084   1.554  0.00  0.00    -0.031 A 
ATOM      4  C4  IND d   1       0.837   0.267  -0.717  0.00  0.00     0.051 A 
ATOM      5  C5  IND d   1      -0.383   0.094  -1.308  0.00  0.00    -0.031 A 
ATOM      6  C6  IND d   1      -1.502  -0.261  -0.582  0.00  0.00     0.015 A 
ATOM      7  C7  IND d   1      -1.444  -0.447   0.770  0.00  0.00    -0.016 A 
ATOM      8  C8  IND d   1      -0.205  -0.280   1.373  0.00  0.00    -0.047 A 
ATOM      9  C9  IND d   1       0.942   0.039   0.635  0.00  0.00    -0.096 A 
ATOM     10  HN1 IND d   1      -0.340  -0.616   3.345  0.00  0.00     0.298 HD
ENDROOT
TORSDOF 0
ENDMDL
