MODEL 1
REMARK minimizedAffinity -2.20479774
REMARK minimizedRMSD -1
REMARK  0 active torsions:
REMARK  status: ('A' for Active; 'I' for Inactive)
ROOT
ATOM      1  N1  IND d   1       0.458  -0.367  -1.027  0.00  0.00    -0.196 N 
ATOM      2  C2  IND d   1      -0.752   0.220  -0.783  0.00  0.00     0.054 A 
ATOM      3  C3  IND d   1      -1.097   0.066   0.515  0.00  0.00    -0.031 A 
ATOM      4  C4  IND d   1       0.222  -1.027   2.438  0.00  0.00     0.051 A 
ATOM      5  C5  IND d   1       1.362  -1.733   2.696  0.00  0.00    -0.031 A 
ATOM      6  C6  IND d   1       2.280  -2.024   1.708  0.00  0.00     0.015 A 
ATOM      7  C7  IND d   1       2.095  -1.608   0.420  0.00  0.00    -0.016 A 
ATOM      8  C8  IND d   1       0.935  -0.896   0.152  0.00  0.00    -0.047 A 
ATOM      9  C9  IND d   1      -0.021  -0.634   1.143  0.00  0.00    -0.096 A 
ATOM     10  HN1 IND d   1       0.855  -0.400  -1.790  0.00  0.00     0.298 HD
ENDROOT
TORSDOF 0
ENDMDL
