MODEL 1
REMARK minimizedAffinity -2.24296808
REMARK minimizedRMSD -1
REMARK  0 active torsions:
REMARK  status: ('A' for Active; 'I' for Inactive)
ROOT
ATOM      1  N1  IND d   1      -1.609  -1.238  -0.058  0.00  0.00    -0.196 N 
ATOM      2  C2  IND d   1      -1.147  -0.702  -1.227  0.00  0.00     0.054 A 
ATOM      3  C3  IND d   1       0.052  -0.109  -1.032  0.00  0.00    -0.031 A 
ATOM      4  C4  IND d   1       1.487   0.014   1.102  0.00  0.00     0.051 A 
ATOM      5  C5  IND d   1       1.468  -0.299   2.433  0.00  0.00    -0.031 A 
ATOM      6  C6  IND d   1       0.402  -0.956   3.012  0.00  0.00     0.015 A 
ATOM      7  C7  IND d   1      -0.685  -1.337   2.277  0.00  0.00    -0.016 A 
ATOM      8  C8  IND d   1      -0.672  -1.015   0.927  0.00  0.00    -0.047 A 
ATOM      9  C9  IND d   1       0.388  -0.310   0.342  0.00  0.00    -0.096 A 
ATOM     10  HN1 IND d   1      -2.359  -1.645   0.046  0.00  0.00     0.298 HD
ENDROOT
TORSDOF 0
ENDMDL
