MODEL 1
REMARK minimizedAffinity 0.330287039
REMARK minimizedRMSD -1
REMARK  1 active torsions:
REMARK  status: ('A' for Active; 'I' for Inactive)
REMARK    1  A    between atoms: C3_4  and  O_7 
ROOT
ATOM      1  C   UNL d   1       0.419  -3.556   2.737  0.00  0.00    -0.033 A 
ATOM      2  C1  UNL d   1      -0.465  -2.503   2.982  0.00  0.00     0.039 A 
ATOM      3  C2  UNL d   1      -0.426  -1.357   2.186  0.00  0.00    -0.080 A 
ATOM      4  C3  UNL d   1       0.500  -1.276   1.150  0.00  0.00     0.150 A 
ATOM      5  C4  UNL d   1       1.381  -2.322   0.898  0.00  0.00    -0.007 A 
ATOM      6  C5  UNL d   1       1.341  -3.465   1.694  0.00  0.00     0.039 A 
ENDROOT
BRANCH   4   7
ATOM      7  O   UNL d   1       0.579  -0.175   0.349  0.00  0.00    -0.526 OA
ATOM      8  H5  UNL d   1      -0.071   0.478   0.659  0.00  0.00     0.418 HD
ENDBRANCH   4   7
TORSDOF 1
ENDMDL
