MODEL 1
REMARK minimizedAffinity 0.747078598
REMARK minimizedRMSD -1
REMARK  1 active torsions:
REMARK  status: ('A' for Active; 'I' for Inactive)
REMARK    1  A    between atoms: C3_4  and  O_7 
ROOT
ATOM      1  C   UNL d   1       3.701   5.996   4.798  0.00  0.00    -0.033 A 
ATOM      2  C1  UNL d   1       3.137   5.999   3.520  0.00  0.00     0.039 A 
ATOM      3  C2  UNL d   1       1.750   5.999   3.367  0.00  0.00    -0.080 A 
ATOM      4  C3  UNL d   1       0.937   5.997   4.498  0.00  0.00     0.150 A 
ATOM      5  C4  UNL d   1       1.492   5.998   5.773  0.00  0.00    -0.007 A 
ATOM      6  C5  UNL d   1       2.878   5.997   5.924  0.00  0.00     0.039 A 
ENDROOT
BRANCH   4   7
ATOM      7  O   UNL d   1      -0.422   5.992   4.398  0.00  0.00    -0.526 OA
ATOM      8  H5  UNL d   1      -0.662   5.963   3.457  0.00  0.00     0.418 HD
ENDBRANCH   4   7
TORSDOF 1
ENDMDL
