MODEL 1
REMARK minimizedAffinity -0.626937091
REMARK minimizedRMSD -1
REMARK  1 active torsions:
REMARK  status: ('A' for Active; 'I' for Inactive)
REMARK    1  A    between atoms: C3_4  and  O_7 
ROOT
ATOM      1  C   UNL d   1      -4.827   1.212  -4.824  0.00  0.00    -0.033 A 
ATOM      2  C1  UNL d   1      -3.554   0.952  -4.312  0.00  0.00     0.039 A 
ATOM      3  C2  UNL d   1      -3.359  -0.116  -3.433  0.00  0.00    -0.080 A 
ATOM      4  C3  UNL d   1      -4.442  -0.914  -3.076  0.00  0.00     0.150 A 
ATOM      5  C4  UNL d   1      -5.711  -0.663  -3.586  0.00  0.00    -0.007 A 
ATOM      6  C5  UNL d   1      -5.905   0.403  -4.463  0.00  0.00     0.039 A 
ENDROOT
BRANCH   4   7
ATOM      7  O   UNL d   1      -4.301  -1.964  -2.218  0.00  0.00    -0.526 OA
ATOM      8  H5  UNL d   1      -3.375  -1.999  -1.924  0.00  0.00     0.418 HD
ENDBRANCH   4   7
TORSDOF 1
ENDMDL
