MODEL 1
REMARK minimizedAffinity 5.35614634
REMARK minimizedRMSD -1
REMARK  1 active torsions:
REMARK  status: ('A' for Active; 'I' for Inactive)
REMARK    1  A    between atoms: C3_4  and  O_7 
ROOT
ATOM      1  C   UNL d   1       2.514  -2.561  -0.032  0.00  0.00    -0.033 A 
ATOM      2  C1  UNL d   1       1.839  -1.357  -0.240  0.00  0.00     0.039 A 
ATOM      3  C2  UNL d   1       1.039  -0.819   0.770  0.00  0.00    -0.080 A 
ATOM      4  C3  UNL d   1       0.922  -1.494   1.982  0.00  0.00     0.150 A 
ATOM      5  C4  UNL d   1       1.595  -2.692   2.198  0.00  0.00    -0.007 A 
ATOM      6  C5  UNL d   1       2.393  -3.228   1.188  0.00  0.00     0.039 A 
ENDROOT
BRANCH   4   7
ATOM      7  O   UNL d   1       0.149  -1.011   2.995  0.00  0.00    -0.526 OA
ATOM      8  H5  UNL d   1      -0.277  -0.192   2.693  0.00  0.00     0.418 HD
ENDBRANCH   4   7
TORSDOF 1
ENDMDL
