MODEL 1
REMARK minimizedAffinity -0.417555153
REMARK minimizedRMSD -1
REMARK  1 active torsions:
REMARK  status: ('A' for Active; 'I' for Inactive)
REMARK    1  A    between atoms: C3_4  and  O_7 
ROOT
ATOM      1  C   UNL d   1       0.216  -3.471   2.763  0.00  0.00    -0.033 A 
ATOM      2  C1  UNL d   1      -0.825  -2.749   3.348  0.00  0.00     0.039 A 
ATOM      3  C2  UNL d   1      -1.202  -1.512   2.821  0.00  0.00    -0.080 A 
ATOM      4  C3  UNL d   1      -0.532  -1.011   1.709  0.00  0.00     0.150 A 
ATOM      5  C4  UNL d   1       0.504  -1.727   1.118  0.00  0.00    -0.007 A 
ATOM      6  C5  UNL d   1       0.880  -2.961   1.647  0.00  0.00     0.039 A 
ENDROOT
BRANCH   4   7
ATOM      7  O   UNL d   1      -0.861   0.193   1.161  0.00  0.00    -0.526 OA
ATOM      8  H5  UNL d   1      -1.575   0.587   1.691  0.00  0.00     0.418 HD
ENDBRANCH   4   7
TORSDOF 1
ENDMDL
