MODEL 1
REMARK minimizedAffinity 1.9594841
REMARK minimizedRMSD -1
REMARK  1 active torsions:
REMARK  status: ('A' for Active; 'I' for Inactive)
REMARK    1  A    between atoms: C3_4  and  O_7 
ROOT
ATOM      1  C   UNL d   1      -0.216  -0.333  -1.370  0.00  0.00    -0.033 A 
ATOM      2  C1  UNL d   1      -1.532  -0.186  -0.929  0.00  0.00     0.039 A 
ATOM      3  C2  UNL d   1      -1.836  -0.327   0.427  0.00  0.00    -0.080 A 
ATOM      4  C3  UNL d   1      -0.815  -0.614   1.329  0.00  0.00     0.150 A 
ATOM      5  C4  UNL d   1       0.499  -0.757   0.897  0.00  0.00    -0.007 A 
ATOM      6  C5  UNL d   1       0.800  -0.617  -0.457  0.00  0.00     0.039 A 
ENDROOT
BRANCH   4   7
ATOM      7  O   UNL d   1      -1.063  -0.765   2.661  0.00  0.00    -0.526 OA
ATOM      8  H5  UNL d   1      -2.018  -0.667   2.809  0.00  0.00     0.418 HD
ENDBRANCH   4   7
TORSDOF 1
ENDMDL
