MODEL 1
REMARK minimizedAffinity -0.380203754
REMARK minimizedRMSD -1
REMARK  1 active torsions:
REMARK  status: ('A' for Active; 'I' for Inactive)
REMARK    1  A    between atoms: C3_4  and  O_7 
ROOT
ATOM      1  C   UNL d   1       1.475   5.999   5.451  0.00  0.00    -0.033 A 
ATOM      2  C1  UNL d   1       0.801   5.993   4.228  0.00  0.00     0.039 A 
ATOM      3  C2  UNL d   1       1.521   5.992   3.032  0.00  0.00    -0.080 A 
ATOM      4  C3  UNL d   1       2.912   5.996   3.072  0.00  0.00     0.150 A 
ATOM      5  C4  UNL d   1       3.590   5.998   4.287  0.00  0.00    -0.007 A 
ATOM      6  C5  UNL d   1       2.870   6.000   5.480  0.00  0.00     0.039 A 
ENDROOT
BRANCH   4   7
ATOM      7  O   UNL d   1       3.658   6.000   1.931  0.00  0.00    -0.526 OA
ATOM      8  H5  UNL d   1       3.055   6.027   1.169  0.00  0.00     0.418 HD
ENDBRANCH   4   7
TORSDOF 1
ENDMDL
