MODEL 1
REMARK minimizedAffinity 0.718006253
REMARK minimizedRMSD -1
REMARK  1 active torsions:
REMARK  status: ('A' for Active; 'I' for Inactive)
REMARK    1  A    between atoms: C3_4  and  O_7 
ROOT
ATOM      1  C   UNL d   1      -1.959  -0.371   2.587  0.00  0.00    -0.033 A 
ATOM      2  C1  UNL d   1      -1.975   0.106   1.275  0.00  0.00     0.039 A 
ATOM      3  C2  UNL d   1      -0.933  -0.213   0.402  0.00  0.00    -0.080 A 
ATOM      4  C3  UNL d   1       0.117  -1.009   0.853  0.00  0.00     0.150 A 
ATOM      5  C4  UNL d   1       0.137  -1.490   2.158  0.00  0.00    -0.007 A 
ATOM      6  C5  UNL d   1      -0.904  -1.170   3.029  0.00  0.00     0.039 A 
ENDROOT
BRANCH   4   7
ATOM      7  O   UNL d   1       1.159  -1.343   0.040  0.00  0.00    -0.526 OA
ATOM      8  H5  UNL d   1       1.024  -0.916  -0.823  0.00  0.00     0.418 HD
ENDBRANCH   4   7
TORSDOF 1
ENDMDL
