MODEL 1
REMARK minimizedAffinity -3.73813128
REMARK minimizedRMSD -1
REMARK  1 active torsions:
REMARK  status: ('A' for Active; 'I' for Inactive)
REMARK    1  A    between atoms: C3_4  and  O_7 
ROOT
ATOM      1  C   UNL d   1       0.626  -2.711   3.071  0.00  0.00    -0.033 A 
ATOM      2  C1  UNL d   1       0.009  -1.493   2.776  0.00  0.00     0.039 A 
ATOM      3  C2  UNL d   1       0.247  -0.867   1.551  0.00  0.00    -0.080 A 
ATOM      4  C3  UNL d   1       1.100  -1.469   0.630  0.00  0.00     0.150 A 
ATOM      5  C4  UNL d   1       1.715  -2.684   0.916  0.00  0.00    -0.007 A 
ATOM      6  C5  UNL d   1       1.477  -3.307   2.140  0.00  0.00     0.039 A 
ENDROOT
BRANCH   4   7
ATOM      7  O   UNL d   1       1.366  -0.893  -0.577  0.00  0.00    -0.526 OA
ATOM      8  H5  UNL d   1       0.896  -0.045  -0.623  0.00  0.00     0.418 HD
ENDBRANCH   4   7
TORSDOF 1
ENDMDL
