MODEL 1
REMARK minimizedAffinity 7.94472551
REMARK minimizedRMSD -1
REMARK  2 active torsions:
REMARK  status: ('A' for Active; 'I' for Inactive)
REMARK    1  A    between atoms: C2'_3  and  C1'_4 
REMARK    2  A    between atoms: C1'_4  and  C1_5 
ROOT
ATOM      1  C1  I4B d   1       1.194  -0.964   0.090  0.00  0.00    -0.075 A 
ATOM      2  C2  I4B d   1       1.012   0.346   0.456  0.00  0.00     0.003 A 
ATOM      3  C3  I4B d   1      -0.294   0.879   0.573  0.00  0.00     0.002 A 
ATOM      4  C4  I4B d   1      -1.381   0.087   0.267  0.00  0.00    -0.004 A 
ATOM      5  C5  I4B d   1      -1.197  -1.248  -0.082  0.00  0.00     0.002 A 
ATOM      6  C6  I4B d   1       0.098  -1.781  -0.160  0.00  0.00     0.003 A 
ENDROOT
BRANCH   1   7
ATOM      7  C1' I4B d   1       2.588  -1.486  -0.055  0.00  0.00     0.060 C 
BRANCH   7   8
ATOM      8  C2' I4B d   1       3.226  -0.790  -1.241  0.00  0.00    -0.013 C 
ATOM      9  C4' I4B d   1       4.553  -0.183  -0.868  0.00  0.00     0.013 C 
ATOM     10  C3' I4B d   1       3.381  -1.797  -2.340  0.00  0.00     0.013 C 
ENDBRANCH   7   8
ENDBRANCH   1   7
TORSDOF 2
ENDMDL
