MODEL 1
REMARK minimizedAffinity -0.331004351
REMARK minimizedRMSD -1
REMARK  2 active torsions:
REMARK  status: ('A' for Active; 'I' for Inactive)
REMARK    1  A    between atoms: C2'_3  and  C1'_4 
REMARK    2  A    between atoms: C1'_4  and  C1_5 
ROOT
ATOM      1  C1  I4B d   1       2.049   2.038   0.615  0.00  0.00    -0.075 A 
ATOM      2  C2  I4B d   1       2.046   0.739   0.170  0.00  0.00     0.003 A 
ATOM      3  C3  I4B d   1       3.141   0.239  -0.575  0.00  0.00     0.002 A 
ATOM      4  C4  I4B d   1       4.188   1.080  -0.894  0.00  0.00    -0.004 A 
ATOM      5  C5  I4B d   1       4.199   2.390  -0.423  0.00  0.00     0.002 A 
ATOM      6  C6  I4B d   1       3.129   2.869   0.347  0.00  0.00     0.003 A 
ENDROOT
BRANCH   1   7
ATOM      7  C1' I4B d   1       0.861   2.543   1.371  0.00  0.00     0.060 C 
BRANCH   7   8
ATOM      8  C2' I4B d   1       1.258   2.681   2.826  0.00  0.00    -0.013 C 
ATOM      9  C4' I4B d   1       1.068   1.384   3.568  0.00  0.00     0.013 C 
ATOM     10  C3' I4B d   1       2.689   3.128   2.876  0.00  0.00     0.013 C 
ENDBRANCH   7   8
ENDBRANCH   1   7
TORSDOF 2
ENDMDL
