MODEL 1
REMARK minimizedAffinity 4.92206335
REMARK minimizedRMSD -1
REMARK  2 active torsions:
REMARK  status: ('A' for Active; 'I' for Inactive)
REMARK    1  A    between atoms: C2'_3  and  C1'_4 
REMARK    2  A    between atoms: C1'_4  and  C1_5 
ROOT
ATOM      1  C1  I4B d   1       3.531   1.008  -0.657  0.00  0.00    -0.075 A 
ATOM      2  C2  I4B d   1       3.305   2.126   0.107  0.00  0.00     0.003 A 
ATOM      3  C3  I4B d   1       4.288   3.142   0.192  0.00  0.00     0.002 A 
ATOM      4  C4  I4B d   1       5.494   2.977  -0.457  0.00  0.00    -0.004 A 
ATOM      5  C5  I4B d   1       5.713   1.853  -1.249  0.00  0.00     0.002 A 
ATOM      6  C6  I4B d   1       4.721   0.868  -1.360  0.00  0.00     0.003 A 
ENDROOT
BRANCH   1   7
ATOM      7  C1' I4B d   1       2.485  -0.060  -0.698  0.00  0.00     0.060 C 
BRANCH   7   8
ATOM      8  C2' I4B d   1       3.185  -1.402  -0.624  0.00  0.00    -0.013 C 
ATOM      9  C4' I4B d   1       2.534  -2.302   0.393  0.00  0.00     0.013 C 
ATOM     10  C3' I4B d   1       3.153  -2.017  -1.991  0.00  0.00     0.013 C 
ENDBRANCH   7   8
ENDBRANCH   1   7
TORSDOF 2
ENDMDL
