MODEL 1
REMARK minimizedAffinity 3.13075018
REMARK minimizedRMSD -1
REMARK  2 active torsions:
REMARK  status: ('A' for Active; 'I' for Inactive)
REMARK    1  A    between atoms: C2'_3  and  C1'_4 
REMARK    2  A    between atoms: C1'_4  and  C1_5 
ROOT
ATOM      1  C1  I4B d   1       2.486   2.514   2.332  0.00  0.00    -0.075 A 
ATOM      2  C2  I4B d   1       1.935   1.967   3.463  0.00  0.00     0.003 A 
ATOM      3  C3  I4B d   1       0.670   1.334   3.405  0.00  0.00     0.002 A 
ATOM      4  C4  I4B d   1      -0.027   1.315   2.214  0.00  0.00    -0.004 A 
ATOM      5  C5  I4B d   1       0.544   1.850   1.063  0.00  0.00     0.002 A 
ATOM      6  C6  I4B d   1       1.814   2.442   1.119  0.00  0.00     0.003 A 
ENDROOT
BRANCH   1   7
ATOM      7  C1' I4B d   1       3.810   3.204   2.436  0.00  0.00     0.060 C 
BRANCH   7   8
ATOM      8  C2' I4B d   1       3.978   3.678   3.865  0.00  0.00    -0.013 C 
ATOM      9  C4' I4B d   1       5.293   3.222   4.440  0.00  0.00     0.013 C 
ATOM     10  C3' I4B d   1       3.873   5.174   3.872  0.00  0.00     0.013 C 
ENDBRANCH   7   8
ENDBRANCH   1   7
TORSDOF 2
ENDMDL
