MODEL 1
REMARK minimizedAffinity 9.61130524
REMARK minimizedRMSD -1
REMARK  2 active torsions:
REMARK  status: ('A' for Active; 'I' for Inactive)
REMARK    1  A    between atoms: C2'_3  and  C1'_4 
REMARK    2  A    between atoms: C1'_4  and  C1_5 
ROOT
ATOM      1  C1  I4B d   1      -0.567  -1.699  -1.370  0.00  0.00    -0.075 A 
ATOM      2  C2  I4B d   1      -1.343  -0.576  -1.516  0.00  0.00     0.003 A 
ATOM      3  C3  I4B d   1      -0.924   0.657  -0.959  0.00  0.00     0.002 A 
ATOM      4  C4  I4B d   1       0.244   0.710  -0.227  0.00  0.00    -0.004 A 
ATOM      5  C5  I4B d   1       1.041  -0.425  -0.100  0.00  0.00     0.002 A 
ATOM      6  C6  I4B d   1       0.639  -1.634  -0.685  0.00  0.00     0.003 A 
ENDROOT
BRANCH   1   7
ATOM      7  C1' I4B d   1      -1.056  -2.991  -1.943  0.00  0.00     0.060 C 
BRANCH   7   8
ATOM      8  C2' I4B d   1      -1.449  -2.744  -3.385  0.00  0.00    -0.013 C 
ATOM      9  C4' I4B d   1      -0.244  -2.425  -4.231  0.00  0.00     0.013 C 
ATOM     10  C3' I4B d   1      -2.155  -3.967  -3.889  0.00  0.00     0.013 C 
ENDBRANCH   7   8
ENDBRANCH   1   7
TORSDOF 2
ENDMDL
