MODEL 1
REMARK minimizedAffinity 2.50910544
REMARK minimizedRMSD -1
REMARK  2 active torsions:
REMARK  status: ('A' for Active; 'I' for Inactive)
REMARK    1  A    between atoms: C2'_3  and  C1'_4 
REMARK    2  A    between atoms: C1'_4  and  C1_5 
ROOT
ATOM      1  C1  I4B d   1       1.522  -1.196  -0.434  0.00  0.00    -0.075 A 
ATOM      2  C2  I4B d   1       2.650  -1.818  -0.907  0.00  0.00     0.003 A 
ATOM      3  C3  I4B d   1       3.801  -1.059  -1.229  0.00  0.00     0.002 A 
ATOM      4  C4  I4B d   1       3.763   0.315  -1.112  0.00  0.00    -0.004 A 
ATOM      5  C5  I4B d   1       2.626   0.942  -0.611  0.00  0.00     0.002 A 
ATOM      6  C6  I4B d   1       1.502   0.181  -0.258  0.00  0.00     0.003 A 
ENDROOT
BRANCH   1   7
ATOM      7  C1' I4B d   1       0.313  -2.025  -0.135  0.00  0.00     0.060 C 
BRANCH   7   8
ATOM      8  C2' I4B d   1      -0.735  -1.719  -1.186  0.00  0.00    -0.013 C 
ATOM      9  C4' I4B d   1      -1.280  -2.983  -1.797  0.00  0.00     0.013 C 
ATOM     10  C3' I4B d   1      -1.823  -0.919  -0.534  0.00  0.00     0.013 C 
ENDBRANCH   7   8
ENDBRANCH   1   7
TORSDOF 2
ENDMDL
