MODEL 1
REMARK minimizedAffinity -2.04909301
REMARK minimizedRMSD -1
REMARK  2 active torsions:
REMARK  status: ('A' for Active; 'I' for Inactive)
REMARK    1  A    between atoms: C2'_3  and  C1'_4 
REMARK    2  A    between atoms: C1'_4  and  C1_5 
ROOT
ATOM      1  C1  I4B d   1       1.660  -0.981  -0.522  0.00  0.00    -0.075 A 
ATOM      2  C2  I4B d   1       1.670   0.348  -0.177  0.00  0.00     0.003 A 
ATOM      3  C3  I4B d   1       0.486   1.118  -0.271  0.00  0.00     0.002 A 
ATOM      4  C4  I4B d   1      -0.666   0.536  -0.760  0.00  0.00    -0.004 A 
ATOM      5  C5  I4B d   1      -0.680  -0.816  -1.088  0.00  0.00     0.002 A 
ATOM      6  C6  I4B d   1       0.487  -1.583  -0.957  0.00  0.00     0.003 A 
ENDROOT
BRANCH   1   7
ATOM      7  C1' I4B d   1       2.937  -1.756  -0.442  0.00  0.00     0.060 C 
BRANCH   7   8
ATOM      8  C2' I4B d   1       3.916  -1.145  -1.423  0.00  0.00    -0.013 C 
ATOM      9  C4' I4B d   1       3.555  -1.493  -2.843  0.00  0.00     0.013 C 
ATOM     10  C3' I4B d   1       3.916   0.340  -1.213  0.00  0.00     0.013 C 
ENDBRANCH   7   8
ENDBRANCH   1   7
TORSDOF 2
ENDMDL
