MODEL 1
REMARK minimizedAffinity 6.83231068
REMARK minimizedRMSD -1
REMARK  2 active torsions:
REMARK  status: ('A' for Active; 'I' for Inactive)
REMARK    1  A    between atoms: C1_2  and  C2_3 
REMARK    2  A    between atoms: C2_3  and  C3_4 
ROOT
ATOM      1  C3  UNL d   1      -0.839   2.466   0.985  0.00  0.00    -0.075 A 
ATOM      2  C4  UNL d   1      -0.922   3.866   0.986  0.00  0.00     0.002 A 
ATOM      3  C5  UNL d   1      -0.842   4.582  -0.209  0.00  0.00     0.002 A 
ATOM      4  C6  UNL d   1      -0.668   3.909  -1.417  0.00  0.00    -0.004 A 
ATOM      5  C7  UNL d   1      -0.568   2.519  -1.428  0.00  0.00     0.002 A 
ATOM      6  C8  UNL d   1      -0.652   1.801  -0.234  0.00  0.00     0.002 A 
ENDROOT
BRANCH   1   7
ATOM      7  C2  UNL d   1      -0.954   1.685   2.272  0.00  0.00     0.056 C 
BRANCH   7   8
ATOM      8  C1  UNL d   1       0.387   1.427   2.967  0.00  0.00     0.007 C 
ATOM      9  C   UNL d   1       0.427   0.105   3.723  0.00  0.00     0.009 C 
ENDBRANCH   7   8
ENDBRANCH   1   7
TORSDOF 2
ENDMDL
