MODEL 1
REMARK minimizedAffinity 9.82368755
REMARK minimizedRMSD -1
REMARK  2 active torsions:
REMARK  status: ('A' for Active; 'I' for Inactive)
REMARK    1  A    between atoms: C1_2  and  C2_3 
REMARK    2  A    between atoms: C2_3  and  C3_4 
ROOT
ATOM      1  C3  UNL d   1      -2.328  -0.972  -1.637  0.00  0.00    -0.075 A 
ATOM      2  C4  UNL d   1      -2.496   0.404  -1.852  0.00  0.00     0.002 A 
ATOM      3  C5  UNL d   1      -3.463   1.118  -1.142  0.00  0.00     0.002 A 
ATOM      4  C6  UNL d   1      -4.278   0.466  -0.220  0.00  0.00    -0.004 A 
ATOM      5  C7  UNL d   1      -4.130  -0.904  -0.011  0.00  0.00     0.002 A 
ATOM      6  C8  UNL d   1      -3.161  -1.620  -0.716  0.00  0.00     0.002 A 
ENDROOT
BRANCH   1   7
ATOM      7  C2  UNL d   1      -1.264  -1.744  -2.380  0.00  0.00     0.056 C 
BRANCH   7   8
ATOM      8  C1  UNL d   1      -1.445  -1.750  -3.902  0.00  0.00     0.007 C 
ATOM      9  C   UNL d   1      -0.824  -2.966  -4.576  0.00  0.00     0.009 C 
ENDBRANCH   7   8
ENDBRANCH   1   7
TORSDOF 2
ENDMDL
