MODEL 1
REMARK minimizedAffinity 3.39617801
REMARK minimizedRMSD -1
REMARK  2 active torsions:
REMARK  status: ('A' for Active; 'I' for Inactive)
REMARK    1  A    between atoms: C1_2  and  C2_3 
REMARK    2  A    between atoms: C2_3  and  C3_4 
ROOT
ATOM      1  C3  UNL d   1      -3.436  -0.042  -0.744  0.00  0.00    -0.075 A 
ATOM      2  C4  UNL d   1      -4.546   0.667  -1.227  0.00  0.00     0.002 A 
ATOM      3  C5  UNL d   1      -5.561   1.072  -0.360  0.00  0.00     0.002 A 
ATOM      4  C6  UNL d   1      -5.485   0.765   0.997  0.00  0.00    -0.004 A 
ATOM      5  C7  UNL d   1      -4.396   0.047   1.485  0.00  0.00     0.002 A 
ATOM      6  C8  UNL d   1      -3.376  -0.356   0.621  0.00  0.00     0.002 A 
ENDROOT
BRANCH   1   7
ATOM      7  C2  UNL d   1      -2.320  -0.457  -1.672  0.00  0.00     0.056 C 
BRANCH   7   8
ATOM      8  C1  UNL d   1      -0.957   0.147  -1.319  0.00  0.00     0.007 C 
ATOM      9  C   UNL d   1      -0.986   1.665  -1.202  0.00  0.00     0.009 C 
ENDBRANCH   7   8
ENDBRANCH   1   7
TORSDOF 2
ENDMDL
