MODEL 1
REMARK minimizedAffinity -3.6065886
REMARK minimizedRMSD -1
REMARK  0 active torsions:
REMARK  status: ('A' for Active; 'I' for Inactive)
ROOT
ATOM      1  C1  BNZ d   1      -0.136   0.549  -0.044  0.00  0.00     0.000 A 
ATOM      2  C2  BNZ d   1       1.160   0.437   0.381  0.00  0.00     0.000 A 
ATOM      3  C3  BNZ d   1       1.801  -0.770   0.363  0.00  0.00     0.000 A 
ATOM      4  C4  BNZ d   1       1.134  -1.869  -0.042  0.00  0.00     0.000 A 
ATOM      5  C5  BNZ d   1      -0.177  -1.774  -0.466  0.00  0.00     0.000 A 
ATOM      6  C6  BNZ d   1      -0.807  -0.551  -0.483  0.00  0.00     0.000 A 
ENDROOT
TORSDOF 0
ENDMDL
