MODEL 1
REMARK minimizedAffinity -3.99141359
REMARK minimizedRMSD -1
REMARK  0 active torsions:
REMARK  status: ('A' for Active; 'I' for Inactive)
ROOT
ATOM      1  C1  BNZ d   1      -2.243   1.151  -0.980  0.00  0.00     0.000 A 
ATOM      2  C2  BNZ d   1      -1.058   0.564  -1.338  0.00  0.00     0.000 A 
ATOM      3  C3  BNZ d   1      -0.245  -0.002  -0.397  0.00  0.00     0.000 A 
ATOM      4  C4  BNZ d   1      -0.596   0.055   0.904  0.00  0.00     0.000 A 
ATOM      5  C5  BNZ d   1      -1.783   0.651   1.282  0.00  0.00     0.000 A 
ATOM      6  C6  BNZ d   1      -2.618   1.185   0.328  0.00  0.00     0.000 A 
ENDROOT
TORSDOF 0
ENDMDL
