MODEL 1
REMARK minimizedAffinity -3.03150797
REMARK minimizedRMSD -1
REMARK  0 active torsions:
REMARK  status: ('A' for Active; 'I' for Inactive)
ROOT
ATOM      1  C1  BNZ d   1       1.602  -0.334   0.611  0.00  0.00     0.000 A 
ATOM      2  C2  BNZ d   1       0.742   0.705   0.373  0.00  0.00     0.000 A 
ATOM      3  C3  BNZ d   1      -0.454   0.494  -0.254  0.00  0.00     0.000 A 
ATOM      4  C4  BNZ d   1      -0.771  -0.747  -0.678  0.00  0.00     0.000 A 
ATOM      5  C5  BNZ d   1       0.090  -1.803  -0.453  0.00  0.00     0.000 A 
ATOM      6  C6  BNZ d   1       1.275  -1.593   0.213  0.00  0.00     0.000 A 
ENDROOT
TORSDOF 0
ENDMDL
