MODEL 1
REMARK minimizedAffinity -3.84124494
REMARK minimizedRMSD -1
REMARK  0 active torsions:
REMARK  status: ('A' for Active; 'I' for Inactive)
ROOT
ATOM      1  C1  BNZ d   1       0.857   0.553   0.717  0.00  0.00     0.000 A 
ATOM      2  C2  BNZ d   1       1.383  -0.692   0.495  0.00  0.00     0.000 A 
ATOM      3  C3  BNZ d   1       0.857  -1.513  -0.463  0.00  0.00     0.000 A 
ATOM      4  C4  BNZ d   1      -0.218  -1.105  -1.169  0.00  0.00     0.000 A 
ATOM      5  C5  BNZ d   1      -0.765   0.143  -0.950  0.00  0.00     0.000 A 
ATOM      6  C6  BNZ d   1      -0.209   0.983  -0.012  0.00  0.00     0.000 A 
ENDROOT
TORSDOF 0
ENDMDL
