MODEL 1
REMARK minimizedAffinity -4.03102446
REMARK minimizedRMSD -1
REMARK  0 active torsions:
REMARK  status: ('A' for Active; 'I' for Inactive)
ROOT
ATOM      1  C1  BNZ d   1       3.480  -0.797   0.329  0.00  0.00     0.000 A 
ATOM      2  C2  BNZ d   1       2.450  -1.530   0.856  0.00  0.00     0.000 A 
ATOM      3  C3  BNZ d   1       1.202  -0.987   0.991  0.00  0.00     0.000 A 
ATOM      4  C4  BNZ d   1       0.996   0.298   0.638  0.00  0.00     0.000 A 
ATOM      5  C5  BNZ d   1       2.027   1.053   0.114  0.00  0.00     0.000 A 
ATOM      6  C6  BNZ d   1       3.271   0.491  -0.057  0.00  0.00     0.000 A 
ENDROOT
TORSDOF 0
ENDMDL
