MODEL 1
REMARK minimizedAffinity -3.82445383
REMARK minimizedRMSD -1
REMARK  0 active torsions:
REMARK  status: ('A' for Active; 'I' for Inactive)
ROOT
ATOM      1  C1  BNZ d   1      -0.045   1.722  -0.457  0.00  0.00     0.000 A 
ATOM      2  C2  BNZ d   1      -1.269   1.143  -0.250  0.00  0.00     0.000 A 
ATOM      3  C3  BNZ d   1      -1.367  -0.125   0.251  0.00  0.00     0.000 A 
ATOM      4  C4  BNZ d   1      -0.244  -0.826   0.507  0.00  0.00     0.000 A 
ATOM      5  C5  BNZ d   1       0.997  -0.259   0.295  0.00  0.00     0.000 A 
ATOM      6  C6  BNZ d   1       1.092   1.032  -0.173  0.00  0.00     0.000 A 
ENDROOT
TORSDOF 0
ENDMDL
