MODEL 1
REMARK minimizedAffinity -4.99105024
REMARK minimizedRMSD -1
REMARK  0 active torsions:
REMARK  status: ('A' for Active; 'I' for Inactive)
ROOT
ATOM      1  C1  BNZ d   1       2.570  -1.110   0.652  0.00  0.00     0.000 A 
ATOM      2  C2  BNZ d   1       1.708  -1.971   0.025  0.00  0.00     0.000 A 
ATOM      3  C3  BNZ d   1       0.446  -1.572  -0.315  0.00  0.00     0.000 A 
ATOM      4  C4  BNZ d   1       0.034  -0.328   0.007  0.00  0.00     0.000 A 
ATOM      5  C5  BNZ d   1       0.888   0.547   0.646  0.00  0.00     0.000 A 
ATOM      6  C6  BNZ d   1       2.171   0.155   0.952  0.00  0.00     0.000 A 
ENDROOT
TORSDOF 0
ENDMDL
