MODEL 1
REMARK minimizedAffinity -3.16481209
REMARK minimizedRMSD -1
REMARK  0 active torsions:
REMARK  status: ('A' for Active; 'I' for Inactive)
ROOT
ATOM      1  C1  BNZ d   1       0.580   2.029  -0.006  0.00  0.00     0.000 A 
ATOM      2  C2  BNZ d   1       1.806   1.521   0.333  0.00  0.00     0.000 A 
ATOM      3  C3  BNZ d   1       1.995   0.173   0.456  0.00  0.00     0.000 A 
ATOM      4  C4  BNZ d   1       0.950  -0.662   0.280  0.00  0.00     0.000 A 
ATOM      5  C5  BNZ d   1      -0.294  -0.164  -0.052  0.00  0.00     0.000 A 
ATOM      6  C6  BNZ d   1      -0.471   1.191  -0.214  0.00  0.00     0.000 A 
ENDROOT
TORSDOF 0
ENDMDL
