MODEL 1
REMARK minimizedAffinity -3.07235622
REMARK minimizedRMSD -1
REMARK  0 active torsions:
REMARK  status: ('A' for Active; 'I' for Inactive)
ROOT
ATOM      1  C1  BNZ d   1       0.264  -1.916  -0.401  0.00  0.00     0.000 A 
ATOM      2  C2  BNZ d   1      -0.496  -0.784  -0.274  0.00  0.00     0.000 A 
ATOM      3  C3  BNZ d   1       0.081   0.415   0.039  0.00  0.00     0.000 A 
ATOM      4  C4  BNZ d   1       1.409   0.473   0.265  0.00  0.00     0.000 A 
ATOM      5  C5  BNZ d   1       2.188  -0.661   0.151  0.00  0.00     0.000 A 
ATOM      6  C6  BNZ d   1       1.609  -1.859  -0.203  0.00  0.00     0.000 A 
ENDROOT
TORSDOF 0
ENDMDL
