MODEL 1
REMARK minimizedAffinity 3.79548669
REMARK minimizedRMSD -1
REMARK  1 active torsions:
REMARK  status: ('A' for Active; 'I' for Inactive)
REMARK    1  A    between atoms: N_2  and  C1_3 
ROOT
ATOM      1  C1  UNL d   1       0.310  -3.552  -0.782  0.00  0.00     0.143 A 
ATOM      2  C2  UNL d   1       1.460  -3.730  -0.006  0.00  0.00    -0.057 A 
ATOM      3  C3  UNL d   1       2.437  -2.730   0.085  0.00  0.00     0.033 A 
ATOM      4  C4  UNL d   1       2.293  -1.543  -0.625  0.00  0.00    -0.042 A 
ATOM      5  C5  UNL d   1       1.170  -1.354  -1.423  0.00  0.00     0.033 A 
ATOM      6  C6  UNL d   1       0.195  -2.353  -1.504  0.00  0.00    -0.057 A 
ENDROOT
BRANCH   1   7
ATOM      7  N   UNL d   1      -0.649  -4.546  -0.991  0.00  0.00    -0.732 N 
ATOM      8  C   UNL d   1      -1.206  -4.768  -2.308  0.00  0.00     0.284 C 
ATOM      9  H3  UNL d   1      -0.441  -5.400  -0.478  0.00  0.00     0.395 HD
ENDBRANCH   1   7
TORSDOF 1
ENDMDL
