MODEL 1
REMARK minimizedAffinity 1.48865736
REMARK minimizedRMSD -1
REMARK  1 active torsions:
REMARK  status: ('A' for Active; 'I' for Inactive)
REMARK    1  A    between atoms: N_2  and  C1_3 
ROOT
ATOM      1  C1  UNL d   1      -1.237   2.000   1.413  0.00  0.00     0.143 A 
ATOM      2  C2  UNL d   1      -0.178   1.532   0.627  0.00  0.00    -0.057 A 
ATOM      3  C3  UNL d   1       0.775   2.410   0.097  0.00  0.00     0.033 A 
ATOM      4  C4  UNL d   1       0.669   3.779   0.319  0.00  0.00    -0.042 A 
ATOM      5  C5  UNL d   1      -0.389   4.269   1.076  0.00  0.00     0.033 A 
ATOM      6  C6  UNL d   1      -1.334   3.387   1.609  0.00  0.00    -0.057 A 
ENDROOT
BRANCH   1   7
ATOM      7  N   UNL d   1      -2.272   1.190   1.886  0.00  0.00    -0.732 N 
ATOM      8  C   UNL d   1      -3.582   1.235   1.274  0.00  0.00     0.284 C 
ATOM      9  H3  UNL d   1      -1.954   0.252   2.120  0.00  0.00     0.395 HD
ENDBRANCH   1   7
TORSDOF 1
ENDMDL
