MODEL 1
REMARK minimizedAffinity 2.38277721
REMARK minimizedRMSD -1
REMARK  1 active torsions:
REMARK  status: ('A' for Active; 'I' for Inactive)
REMARK    1  A    between atoms: N_2  and  C1_3 
ROOT
ATOM      1  C1  UNL d   1      -0.067   1.853   1.094  0.00  0.00     0.143 A 
ATOM      2  C2  UNL d   1      -1.434   2.142   1.021  0.00  0.00    -0.057 A 
ATOM      3  C3  UNL d   1      -2.277   1.949   2.122  0.00  0.00     0.033 A 
ATOM      4  C4  UNL d   1      -1.771   1.433   3.311  0.00  0.00    -0.042 A 
ATOM      5  C5  UNL d   1      -0.421   1.115   3.398  0.00  0.00     0.033 A 
ATOM      6  C6  UNL d   1       0.417   1.317   2.298  0.00  0.00    -0.057 A 
ENDROOT
BRANCH   1   7
ATOM      7  N   UNL d   1       0.803   1.930   0.005  0.00  0.00    -0.732 N 
ATOM      8  C   UNL d   1       1.958   1.062  -0.080  0.00  0.00     0.284 C 
ATOM      9  H3  UNL d   1       0.312   2.055  -0.878  0.00  0.00     0.395 HD
ENDBRANCH   1   7
TORSDOF 1
ENDMDL
