MODEL 1
REMARK minimizedAffinity 2.12081885
REMARK minimizedRMSD -1
REMARK  1 active torsions:
REMARK  status: ('A' for Active; 'I' for Inactive)
REMARK    1  A    between atoms: N_2  and  C1_3 
ROOT
ATOM      1  C1  UNL d   1       2.142   2.340   1.153  0.00  0.00     0.143 A 
ATOM      2  C2  UNL d   1       3.371   2.928   1.470  0.00  0.00    -0.057 A 
ATOM      3  C3  UNL d   1       3.949   2.766   2.734  0.00  0.00     0.033 A 
ATOM      4  C4  UNL d   1       3.292   2.032   3.717  0.00  0.00    -0.042 A 
ATOM      5  C5  UNL d   1       2.058   1.459   3.432  0.00  0.00     0.033 A 
ATOM      6  C6  UNL d   1       1.489   1.620   2.165  0.00  0.00    -0.057 A 
ENDROOT
BRANCH   1   7
ATOM      7  N   UNL d   1       1.469   2.547  -0.054  0.00  0.00    -0.732 N 
ATOM      8  C   UNL d   1       0.212   3.264  -0.083  0.00  0.00     0.284 C 
ATOM      9  H3  UNL d   1       2.100   2.784  -0.816  0.00  0.00     0.395 HD
ENDBRANCH   1   7
TORSDOF 1
ENDMDL
