MODEL 1
REMARK minimizedAffinity 5.55068731
REMARK minimizedRMSD -1
REMARK  1 active torsions:
REMARK  status: ('A' for Active; 'I' for Inactive)
REMARK    1  A    between atoms: N_2  and  C1_3 
ROOT
ATOM      1  C1  UNL d   1       0.197   2.498   1.283  0.00  0.00     0.143 A 
ATOM      2  C2  UNL d   1      -0.990   3.175   0.981  0.00  0.00    -0.057 A 
ATOM      3  C3  UNL d   1      -2.051   3.223   1.892  0.00  0.00     0.033 A 
ATOM      4  C4  UNL d   1      -1.956   2.566   3.115  0.00  0.00    -0.042 A 
ATOM      5  C5  UNL d   1      -0.796   1.866   3.427  0.00  0.00     0.033 A 
ATOM      6  C6  UNL d   1       0.263   1.828   2.515  0.00  0.00    -0.057 A 
ENDROOT
BRANCH   1   7
ATOM      7  N   UNL d   1       1.249   2.332   0.380  0.00  0.00    -0.732 N 
ATOM      8  C   UNL d   1       2.004   1.097   0.347  0.00  0.00     0.284 C 
ATOM      9  H3  UNL d   1       1.037   2.715  -0.538  0.00  0.00     0.395 HD
ENDBRANCH   1   7
TORSDOF 1
ENDMDL
