MODEL 1
REMARK minimizedAffinity 3.63463211
REMARK minimizedRMSD -1
REMARK  1 active torsions:
REMARK  status: ('A' for Active; 'I' for Inactive)
REMARK    1  A    between atoms: N_2  and  C1_3 
ROOT
ATOM      1  C1  UNL d   1       1.553   0.499   0.289  0.00  0.00     0.143 A 
ATOM      2  C2  UNL d   1       0.628   1.369  -0.299  0.00  0.00    -0.057 A 
ATOM      3  C3  UNL d   1      -0.420   1.924   0.445  0.00  0.00     0.033 A 
ATOM      4  C4  UNL d   1      -0.579   1.596   1.787  0.00  0.00    -0.042 A 
ATOM      5  C5  UNL d   1       0.314   0.714   2.386  0.00  0.00     0.033 A 
ATOM      6  C6  UNL d   1       1.362   0.168   1.639  0.00  0.00    -0.057 A 
ENDROOT
BRANCH   1   7
ATOM      7  N   UNL d   1       2.558  -0.162  -0.421  0.00  0.00    -0.732 N 
ATOM      8  C   UNL d   1       2.523  -1.600  -0.580  0.00  0.00     0.284 C 
ATOM      9  H3  UNL d   1       2.838   0.342  -1.259  0.00  0.00     0.395 HD
ENDBRANCH   1   7
TORSDOF 1
ENDMDL
