MODEL 1
REMARK minimizedAffinity 4.56152153
REMARK minimizedRMSD -1
REMARK  2 active torsions:
REMARK  status: ('A' for Active; 'I' for Inactive)
REMARK    1  A    between atoms: C1_2  and  C2_3 
REMARK    2  A    between atoms: C2_3  and  C3_4 
ROOT
ATOM      1  C3  UNL d   1      -2.291   0.239  -3.457  0.00  0.00    -0.075 A 
ATOM      2  C4  UNL d   1      -3.546  -0.254  -3.071  0.00  0.00     0.002 A 
ATOM      3  C5  UNL d   1      -4.695   0.102  -3.779  0.00  0.00     0.002 A 
ATOM      4  C6  UNL d   1      -4.605   0.960  -4.872  0.00  0.00    -0.004 A 
ATOM      5  C7  UNL d   1      -3.366   1.468  -5.254  0.00  0.00     0.002 A 
ATOM      6  C8  UNL d   1      -2.214   1.111  -4.551  0.00  0.00     0.002 A 
ENDROOT
BRANCH   1   7
ATOM      7  C2  UNL d   1      -1.040  -0.166  -2.714  0.00  0.00     0.056 C 
BRANCH   7   8
ATOM      8  C1  UNL d   1      -0.629   0.811  -1.608  0.00  0.00     0.007 C 
ATOM      9  C   UNL d   1       0.501   0.286  -0.732  0.00  0.00     0.009 C 
ENDBRANCH   7   8
ENDBRANCH   1   7
TORSDOF 2
ENDMDL
