MODEL 1
REMARK minimizedAffinity 4.47514725
REMARK minimizedRMSD -1
REMARK  2 active torsions:
REMARK  status: ('A' for Active; 'I' for Inactive)
REMARK    1  A    between atoms: C1_2  and  C2_3 
REMARK    2  A    between atoms: C2_3  and  C3_4 
ROOT
ATOM      1  C3  UNL d   1      -2.224   0.515  -3.248  0.00  0.00    -0.075 A 
ATOM      2  C4  UNL d   1      -3.098  -0.463  -2.752  0.00  0.00     0.002 A 
ATOM      3  C5  UNL d   1      -4.264  -0.789  -3.446  0.00  0.00     0.002 A 
ATOM      4  C6  UNL d   1      -4.576  -0.135  -4.636  0.00  0.00    -0.004 A 
ATOM      5  C7  UNL d   1      -3.723   0.850  -5.129  0.00  0.00     0.002 A 
ATOM      6  C8  UNL d   1      -2.553   1.175  -4.439  0.00  0.00     0.002 A 
ENDROOT
BRANCH   1   7
ATOM      7  C2  UNL d   1      -0.946   0.851  -2.517  0.00  0.00     0.056 C 
BRANCH   7   8
ATOM      8  C1  UNL d   1      -1.057   0.756  -0.991  0.00  0.00     0.007 C 
ATOM      9  C   UNL d   1       0.208   1.203  -0.269  0.00  0.00     0.009 C 
ENDBRANCH   7   8
ENDBRANCH   1   7
TORSDOF 2
ENDMDL
