MODEL 1
REMARK minimizedAffinity 13.0855255
REMARK minimizedRMSD -1
REMARK  2 active torsions:
REMARK  status: ('A' for Active; 'I' for Inactive)
REMARK    1  A    between atoms: C1_2  and  C2_3 
REMARK    2  A    between atoms: C2_3  and  C3_4 
ROOT
ATOM      1  C3  UNL d   1       1.708   0.253  -0.089  0.00  0.00    -0.075 A 
ATOM      2  C4  UNL d   1       0.725   0.905  -0.848  0.00  0.00     0.002 A 
ATOM      3  C5  UNL d   1      -0.343   1.547  -0.221  0.00  0.00     0.002 A 
ATOM      4  C6  UNL d   1      -0.448   1.537   1.168  0.00  0.00    -0.004 A 
ATOM      5  C7  UNL d   1       0.514   0.878   1.931  0.00  0.00     0.002 A 
ATOM      6  C8  UNL d   1       1.586   0.239   1.307  0.00  0.00     0.002 A 
ENDROOT
BRANCH   1   7
ATOM      7  C2  UNL d   1       2.883  -0.419  -0.759  0.00  0.00     0.056 C 
BRANCH   7   8
ATOM      8  C1  UNL d   1       4.247   0.115  -0.310  0.00  0.00     0.007 C 
ATOM      9  C   UNL d   1       4.766   1.248  -1.185  0.00  0.00     0.009 C 
ENDBRANCH   7   8
ENDBRANCH   1   7
TORSDOF 2
ENDMDL
