MODEL 1
REMARK minimizedAffinity 8.4918623
REMARK minimizedRMSD -1
REMARK  2 active torsions:
REMARK  status: ('A' for Active; 'I' for Inactive)
REMARK    1  A    between atoms: C1_2  and  C2_3 
REMARK    2  A    between atoms: C2_3  and  C3_4 
ROOT
ATOM      1  C3  UNL d   1       4.644   1.047  -1.264  0.00  0.00    -0.075 A 
ATOM      2  C4  UNL d   1       5.180   0.758  -0.000  0.00  0.00     0.002 A 
ATOM      3  C5  UNL d   1       4.697  -0.318   0.744  0.00  0.00     0.002 A 
ATOM      4  C6  UNL d   1       3.668  -1.111   0.241  0.00  0.00    -0.004 A 
ATOM      5  C7  UNL d   1       3.117  -0.823  -1.005  0.00  0.00     0.002 A 
ATOM      6  C8  UNL d   1       3.601   0.251  -1.755  0.00  0.00     0.002 A 
ENDROOT
BRANCH   1   7
ATOM      7  C2  UNL d   1       5.183   2.193  -2.087  0.00  0.00     0.056 C 
BRANCH   7   8
ATOM      8  C1  UNL d   1       4.862   3.578  -1.514  0.00  0.00     0.007 C 
ATOM      9  C   UNL d   1       5.906   4.629  -1.865  0.00  0.00     0.009 C 
ENDBRANCH   7   8
ENDBRANCH   1   7
TORSDOF 2
ENDMDL
