MODEL 1
REMARK minimizedAffinity 4.36744642
REMARK minimizedRMSD -1
REMARK  2 active torsions:
REMARK  status: ('A' for Active; 'I' for Inactive)
REMARK    1  A    between atoms: C1_2  and  C2_3 
REMARK    2  A    between atoms: C2_3  and  C3_4 
ROOT
ATOM      1  C3  UNL d   1       3.878  -1.040  -0.532  0.00  0.00    -0.075 A 
ATOM      2  C4  UNL d   1       3.460   0.157  -1.132  0.00  0.00     0.002 A 
ATOM      3  C5  UNL d   1       4.310   1.263  -1.173  0.00  0.00     0.002 A 
ATOM      4  C6  UNL d   1       5.581   1.190  -0.606  0.00  0.00    -0.004 A 
ATOM      5  C7  UNL d   1       5.999   0.011   0.007  0.00  0.00     0.002 A 
ATOM      6  C8  UNL d   1       5.153  -1.098   0.046  0.00  0.00     0.002 A 
ENDROOT
BRANCH   1   7
ATOM      7  C2  UNL d   1       2.974  -2.250  -0.511  0.00  0.00     0.056 C 
BRANCH   7   8
ATOM      8  C1  UNL d   1       2.655  -2.814  -1.899  0.00  0.00     0.007 C 
ATOM      9  C   UNL d   1       1.536  -3.847  -1.885  0.00  0.00     0.009 C 
ENDBRANCH   7   8
ENDBRANCH   1   7
TORSDOF 2
ENDMDL
