MODEL 1
REMARK minimizedAffinity 15.3857079
REMARK minimizedRMSD -1
REMARK  2 active torsions:
REMARK  status: ('A' for Active; 'I' for Inactive)
REMARK    1  A    between atoms: C1_2  and  C2_3 
REMARK    2  A    between atoms: C2_3  and  C3_4 
ROOT
ATOM      1  C3  UNL d   1       4.852   1.680  -1.029  0.00  0.00    -0.075 A 
ATOM      2  C4  UNL d   1       3.749   1.117  -1.688  0.00  0.00     0.002 A 
ATOM      3  C5  UNL d   1       3.039   0.065  -1.110  0.00  0.00     0.002 A 
ATOM      4  C6  UNL d   1       3.426  -0.444   0.128  0.00  0.00    -0.004 A 
ATOM      5  C7  UNL d   1       4.530   0.096   0.784  0.00  0.00     0.002 A 
ATOM      6  C8  UNL d   1       5.240   1.152   0.210  0.00  0.00     0.002 A 
ENDROOT
BRANCH   1   7
ATOM      7  C2  UNL d   1       5.607   2.838  -1.635  0.00  0.00     0.056 C 
BRANCH   7   8
ATOM      8  C1  UNL d   1       5.054   4.214  -1.249  0.00  0.00     0.007 C 
ATOM      9  C   UNL d   1       5.999   5.359  -1.591  0.00  0.00     0.009 C 
ENDBRANCH   7   8
ENDBRANCH   1   7
TORSDOF 2
ENDMDL
