MODEL 1
REMARK minimizedAffinity 9.86915302
REMARK minimizedRMSD -1
REMARK  2 active torsions:
REMARK  status: ('A' for Active; 'I' for Inactive)
REMARK    1  A    between atoms: C1_2  and  C2_3 
REMARK    2  A    between atoms: C2_3  and  C3_4 
ROOT
ATOM      1  C3  UNL d   1      -0.182   1.042   1.788  0.00  0.00    -0.075 A 
ATOM      2  C4  UNL d   1       0.202   2.318   1.348  0.00  0.00     0.002 A 
ATOM      3  C5  UNL d   1      -0.759   3.289   1.068  0.00  0.00     0.002 A 
ATOM      4  C6  UNL d   1      -2.113   2.995   1.212  0.00  0.00    -0.004 A 
ATOM      5  C7  UNL d   1      -2.506   1.726   1.631  0.00  0.00     0.002 A 
ATOM      6  C8  UNL d   1      -1.547   0.754   1.917  0.00  0.00     0.002 A 
ENDROOT
BRANCH   1   7
ATOM      7  C2  UNL d   1       0.855  -0.004   2.122  0.00  0.00     0.056 C 
BRANCH   7   8
ATOM      8  C1  UNL d   1       0.628  -0.699   3.468  0.00  0.00     0.007 C 
ATOM      9  C   UNL d   1       1.030  -2.168   3.461  0.00  0.00     0.009 C 
ENDBRANCH   7   8
ENDBRANCH   1   7
TORSDOF 2
ENDMDL
