MODEL 1
REMARK minimizedAffinity -1.26998365
REMARK minimizedRMSD -1
REMARK  0 active torsions:
REMARK  status: ('A' for Active; 'I' for Inactive)
ROOT
ATOM      1  C   UNL d   1      -2.787   0.200  -6.000  0.00  0.00     0.172 C 
ATOM      2  N   UNL d   1      -3.218   1.578  -5.992  0.00  0.00    -0.070 N 
ATOM      3  C1  UNL d   1      -4.518   2.008  -6.000  0.00  0.00    -0.004 A 
ATOM      4  C2  UNL d   1      -4.507   3.386  -5.988  0.00  0.00    -0.047 A 
ATOM      5  C3  UNL d   1      -3.154   3.799  -5.973  0.00  0.00    -0.047 A 
ATOM      6  C4  UNL d   1      -2.377   2.660  -5.976  0.00  0.00    -0.004 A 
ENDROOT
TORSDOF 0
ENDMDL
