MODEL 1
REMARK minimizedAffinity -2.7602098
REMARK minimizedRMSD -1
REMARK  0 active torsions:
REMARK  status: ('A' for Active; 'I' for Inactive)
ROOT
ATOM      1  C   UNL d   1       0.434   0.110   0.018  0.00  0.00     0.172 C 
ATOM      2  N   UNL d   1       0.342  -0.439  -1.315  0.00  0.00    -0.070 N 
ATOM      3  C1  UNL d   1      -0.723  -1.135  -1.821  0.00  0.00    -0.004 A 
ATOM      4  C2  UNL d   1      -0.422  -1.484  -3.119  0.00  0.00    -0.047 A 
ATOM      5  C3  UNL d   1       0.870  -0.981  -3.404  0.00  0.00    -0.047 A 
ATOM      6  C4  UNL d   1       1.320  -0.339  -2.269  0.00  0.00    -0.004 A 
ENDROOT
TORSDOF 0
ENDMDL
