MODEL 1
REMARK minimizedAffinity -3.24170732
REMARK minimizedRMSD -1
REMARK  0 active torsions:
REMARK  status: ('A' for Active; 'I' for Inactive)
ROOT
ATOM      1  C   UNL d   1       1.125   0.737   0.511  0.00  0.00     0.172 C 
ATOM      2  N   UNL d   1       0.793   0.019  -0.697  0.00  0.00    -0.070 N 
ATOM      3  C1  UNL d   1      -0.302  -0.784  -0.874  0.00  0.00    -0.004 A 
ATOM      4  C2  UNL d   1      -0.257  -1.282  -2.159  0.00  0.00    -0.047 A 
ATOM      5  C3  UNL d   1       0.906  -0.761  -2.774  0.00  0.00    -0.047 A 
ATOM      6  C4  UNL d   1       1.538   0.040  -1.847  0.00  0.00    -0.004 A 
ENDROOT
TORSDOF 0
ENDMDL
