MODEL 1
REMARK minimizedAffinity 2.29702473
REMARK minimizedRMSD -1
REMARK  0 active torsions:
REMARK  status: ('A' for Active; 'I' for Inactive)
ROOT
ATOM      1  C   UNL d   1      -3.470   1.557   1.387  0.00  0.00     0.172 C 
ATOM      2  N   UNL d   1      -4.154   0.286   1.329  0.00  0.00    -0.070 N 
ATOM      3  C1  UNL d   1      -3.696  -0.892   1.856  0.00  0.00    -0.004 A 
ATOM      4  C2  UNL d   1      -4.635  -1.865   1.592  0.00  0.00    -0.047 A 
ATOM      5  C3  UNL d   1      -5.693  -1.252   0.880  0.00  0.00    -0.047 A 
ATOM      6  C4  UNL d   1      -5.370   0.081   0.732  0.00  0.00    -0.004 A 
ENDROOT
TORSDOF 0
ENDMDL
