MODEL 1
REMARK minimizedAffinity -0.976906538
REMARK minimizedRMSD -1
REMARK  0 active torsions:
REMARK  status: ('A' for Active; 'I' for Inactive)
ROOT
ATOM      1  C   UNL d   1      -1.694  -5.999  -5.626  0.00  0.00     0.172 C 
ATOM      2  N   UNL d   1      -2.777  -5.052  -5.752  0.00  0.00    -0.070 N 
ATOM      3  C1  UNL d   1      -2.652  -3.689  -5.726  0.00  0.00    -0.004 A 
ATOM      4  C2  UNL d   1      -3.911  -3.147  -5.877  0.00  0.00    -0.047 A 
ATOM      5  C3  UNL d   1      -4.823  -4.223  -5.996  0.00  0.00    -0.047 A 
ATOM      6  C4  UNL d   1      -4.094  -5.390  -5.915  0.00  0.00    -0.004 A 
ENDROOT
TORSDOF 0
ENDMDL
