MODEL 1
REMARK minimizedAffinity -1.10933876
REMARK minimizedRMSD -1
REMARK  0 active torsions:
REMARK  status: ('A' for Active; 'I' for Inactive)
ROOT
ATOM      1  C   UNL d   1      -0.145  -1.774   0.629  0.00  0.00     0.172 C 
ATOM      2  N   UNL d   1       0.523  -0.769  -0.165  0.00  0.00    -0.070 N 
ATOM      3  C1  UNL d   1       0.575   0.569   0.121  0.00  0.00    -0.004 A 
ATOM      4  C2  UNL d   1       1.302   1.185  -0.874  0.00  0.00    -0.047 A 
ATOM      5  C3  UNL d   1       1.700   0.183  -1.790  0.00  0.00    -0.047 A 
ATOM      6  C4  UNL d   1       1.204  -1.017  -1.327  0.00  0.00    -0.004 A 
ENDROOT
TORSDOF 0
ENDMDL
