MODEL 1
REMARK minimizedAffinity 2.50072479
REMARK minimizedRMSD -1
REMARK  0 active torsions:
REMARK  status: ('A' for Active; 'I' for Inactive)
ROOT
ATOM      1  C   UNL d   1      -1.336   2.267  -5.627  0.00  0.00     0.172 C 
ATOM      2  N   UNL d   1      -2.777   2.290  -5.718  0.00  0.00    -0.070 N 
ATOM      3  C1  UNL d   1      -3.570   3.392  -5.541  0.00  0.00    -0.004 A 
ATOM      4  C2  UNL d   1      -4.881   3.001  -5.711  0.00  0.00    -0.047 A 
ATOM      5  C3  UNL d   1      -4.875   1.615  -5.999  0.00  0.00    -0.047 A 
ATOM      6  C4  UNL d   1      -3.559   1.201  -5.997  0.00  0.00    -0.004 A 
ENDROOT
TORSDOF 0
ENDMDL
