MODEL 1
REMARK minimizedAffinity -1.47541237
REMARK minimizedRMSD -1
REMARK  0 active torsions:
REMARK  status: ('A' for Active; 'I' for Inactive)
ROOT
ATOM      1  C   UNL d   1      -5.248   4.032  -5.720  0.00  0.00     0.172 C 
ATOM      2  N   UNL d   1      -4.429   2.842  -5.740  0.00  0.00    -0.070 N 
ATOM      3  C1  UNL d   1      -4.868   1.566  -5.507  0.00  0.00    -0.004 A 
ATOM      4  C2  UNL d   1      -3.786   0.720  -5.618  0.00  0.00    -0.047 A 
ATOM      5  C3  UNL d   1      -2.657   1.515  -5.928  0.00  0.00    -0.047 A 
ATOM      6  C4  UNL d   1      -3.084   2.825  -5.998  0.00  0.00    -0.004 A 
ENDROOT
TORSDOF 0
ENDMDL
