MODEL 1
REMARK minimizedAffinity -1.21014214
REMARK minimizedRMSD -1
REMARK  0 active torsions:
REMARK  status: ('A' for Active; 'I' for Inactive)
ROOT
ATOM      1  C   UNL d   1       1.258   1.349   0.806  0.00  0.00     0.172 C 
ATOM      2  N   UNL d   1       1.046   0.416  -0.276  0.00  0.00    -0.070 N 
ATOM      3  C1  UNL d   1       1.865   0.252  -1.361  0.00  0.00    -0.004 A 
ATOM      4  C2  UNL d   1       1.318  -0.729  -2.158  0.00  0.00    -0.047 A 
ATOM      5  C3  UNL d   1       0.128  -1.169  -1.532  0.00  0.00    -0.047 A 
ATOM      6  C4  UNL d   1      -0.016  -0.444  -0.368  0.00  0.00    -0.004 A 
ENDROOT
TORSDOF 0
ENDMDL
