MODEL 1
REMARK minimizedAffinity -0.282440722
REMARK minimizedRMSD -1
REMARK  0 active torsions:
REMARK  status: ('A' for Active; 'I' for Inactive)
ROOT
ATOM      1  C   UNL d   1      -3.312   2.423  -5.987  0.00  0.00     0.172 C 
ATOM      2  N   UNL d   1      -3.361   0.980  -5.990  0.00  0.00    -0.070 N 
ATOM      3  C1  UNL d   1      -4.500   0.220  -5.996  0.00  0.00    -0.004 A 
ATOM      4  C2  UNL d   1      -4.123  -1.106  -5.997  0.00  0.00    -0.047 A 
ATOM      5  C3  UNL d   1      -2.708  -1.144  -5.990  0.00  0.00    -0.047 A 
ATOM      6  C4  UNL d   1      -2.263   0.161  -5.985  0.00  0.00    -0.004 A 
ENDROOT
TORSDOF 0
ENDMDL
