MODEL 1
REMARK minimizedAffinity -2.57724071
REMARK minimizedRMSD -1
REMARK  0 active torsions:
REMARK  status: ('A' for Active; 'I' for Inactive)
ROOT
ATOM      1  C   UNL d   1      -3.757   0.808  -6.000  0.00  0.00     0.172 C 
ATOM      2  N   UNL d   1      -3.477   2.216  -5.845  0.00  0.00    -0.070 N 
ATOM      3  C1  UNL d   1      -4.414   3.211  -5.755  0.00  0.00    -0.004 A 
ATOM      4  C2  UNL d   1      -3.746   4.409  -5.615  0.00  0.00    -0.047 A 
ATOM      5  C3  UNL d   1      -2.360   4.124  -5.623  0.00  0.00    -0.047 A 
ATOM      6  C4  UNL d   1      -2.222   2.759  -5.766  0.00  0.00    -0.004 A 
ENDROOT
TORSDOF 0
ENDMDL
