MODEL 1
REMARK minimizedAffinity -1.87221014
REMARK minimizedRMSD -1
REMARK  0 active torsions:
REMARK  status: ('A' for Active; 'I' for Inactive)
ROOT
ATOM      1  C   UNL d   1      -2.709  -5.999  -5.617  0.00  0.00     0.172 C 
ATOM      2  N   UNL d   1      -3.650  -4.904  -5.609  0.00  0.00    -0.070 N 
ATOM      3  C1  UNL d   1      -3.377  -3.621  -5.216  0.00  0.00    -0.004 A 
ATOM      4  C2  UNL d   1      -4.532  -2.882  -5.357  0.00  0.00    -0.047 A 
ATOM      5  C3  UNL d   1      -5.533  -3.751  -5.851  0.00  0.00    -0.047 A 
ATOM      6  C4  UNL d   1      -4.960  -4.997  -5.997  0.00  0.00    -0.004 A 
ENDROOT
TORSDOF 0
ENDMDL
