MODEL 1
REMARK minimizedAffinity -2.5508635
REMARK minimizedRMSD -1
REMARK  0 active torsions:
REMARK  status: ('A' for Active; 'I' for Inactive)
ROOT
ATOM      1  C   UNL d   1      -4.881   2.655  -5.922  0.00  0.00     0.172 C 
ATOM      2  N   UNL d   1      -3.932   3.743  -5.941  0.00  0.00    -0.070 N 
ATOM      3  C1  UNL d   1      -4.246   5.075  -6.000  0.00  0.00    -0.004 A 
ATOM      4  C2  UNL d   1      -3.066   5.787  -5.997  0.00  0.00    -0.047 A 
ATOM      5  C3  UNL d   1      -2.007   4.851  -5.936  0.00  0.00    -0.047 A 
ATOM      6  C4  UNL d   1      -2.571   3.594  -5.902  0.00  0.00    -0.004 A 
ENDROOT
TORSDOF 0
ENDMDL
