MODEL 1
REMARK minimizedAffinity -0.932547271
REMARK minimizedRMSD -1
REMARK  0 active torsions:
REMARK  status: ('A' for Active; 'I' for Inactive)
ROOT
ATOM      1  C   UNL d   1      -2.758   1.414  -5.978  0.00  0.00     0.172 C 
ATOM      2  N   UNL d   1      -3.563   2.614  -5.986  0.00  0.00    -0.070 N 
ATOM      3  C1  UNL d   1      -4.931   2.657  -5.994  0.00  0.00    -0.004 A 
ATOM      4  C2  UNL d   1      -5.312   3.982  -6.000  0.00  0.00    -0.047 A 
ATOM      5  C3  UNL d   1      -4.131   4.761  -5.996  0.00  0.00    -0.047 A 
ATOM      6  C4  UNL d   1      -3.063   3.889  -5.988  0.00  0.00    -0.004 A 
ENDROOT
TORSDOF 0
ENDMDL
