MODEL 1
REMARK minimizedAffinity -2.17754769
REMARK minimizedRMSD -1
REMARK  0 active torsions:
REMARK  status: ('A' for Active; 'I' for Inactive)
ROOT
ATOM      1  C   UNL d   1       2.038  -2.605  -1.921  0.00  0.00     0.172 C 
ATOM      2  N   UNL d   1       1.424  -1.346  -1.569  0.00  0.00    -0.070 N 
ATOM      3  C1  UNL d   1       1.251  -0.279  -2.411  0.00  0.00    -0.004 A 
ATOM      4  C2  UNL d   1       0.630   0.724  -1.699  0.00  0.00    -0.047 A 
ATOM      5  C3  UNL d   1       0.423   0.244  -0.384  0.00  0.00    -0.047 A 
ATOM      6  C4  UNL d   1       0.924  -1.039  -0.331  0.00  0.00    -0.004 A 
ENDROOT
TORSDOF 0
ENDMDL
