MODEL 1
REMARK minimizedAffinity 1.83765709
REMARK minimizedRMSD -1
REMARK  1 active torsions:
REMARK  status: ('A' for Active; 'I' for Inactive)
REMARK    1  A    between atoms: C1_2  and  C2_3 
ROOT
ATOM      1  C2  UNL d   1      -2.537   1.885   0.166  0.00  0.00    -0.077 A 
ATOM      2  C3  UNL d   1      -2.238   0.731   0.905  0.00  0.00     0.002 A 
ATOM      3  C4  UNL d   1      -3.263  -0.037   1.461  0.00  0.00     0.002 A 
ATOM      4  C5  UNL d   1      -4.592   0.338   1.281  0.00  0.00    -0.004 A 
ATOM      5  C6  UNL d   1      -4.900   1.484   0.549  0.00  0.00     0.002 A 
ATOM      6  C7  UNL d   1      -3.877   2.254  -0.006  0.00  0.00     0.002 A 
ENDROOT
BRANCH   1   7
ATOM      7  C1  UNL d   1      -1.435   2.687  -0.476  0.00  0.00     0.055 C 
ATOM      8  C   UNL d   1      -0.068   2.266   0.044  0.00  0.00     0.019 C 
ENDBRANCH   1   7
TORSDOF 1
ENDMDL
