MODEL 1
REMARK minimizedAffinity 8.21490383
REMARK minimizedRMSD -1
REMARK  1 active torsions:
REMARK  status: ('A' for Active; 'I' for Inactive)
REMARK    1  A    between atoms: C1_2  and  C2_3 
ROOT
ATOM      1  C2  UNL d   1      -1.368   2.200  -0.029  0.00  0.00    -0.077 A 
ATOM      2  C3  UNL d   1      -1.760   1.003   0.587  0.00  0.00     0.002 A 
ATOM      3  C4  UNL d   1      -3.098   0.603   0.566  0.00  0.00     0.002 A 
ATOM      4  C5  UNL d   1      -4.053   1.391  -0.073  0.00  0.00    -0.004 A 
ATOM      5  C6  UNL d   1      -3.673   2.583  -0.688  0.00  0.00     0.002 A 
ATOM      6  C7  UNL d   1      -2.337   2.986  -0.667  0.00  0.00     0.002 A 
ENDROOT
BRANCH   1   7
ATOM      7  C1  UNL d   1       0.081   2.608  -0.050  0.00  0.00     0.055 C 
ATOM      8  C   UNL d   1       0.976   1.503   0.492  0.00  0.00     0.019 C 
ENDBRANCH   1   7
TORSDOF 1
ENDMDL
