MODEL 1
REMARK minimizedAffinity -2.24183464
REMARK minimizedRMSD -1
REMARK  1 active torsions:
REMARK  status: ('A' for Active; 'I' for Inactive)
REMARK    1  A    between atoms: C1_2  and  C2_3 
ROOT
ATOM      1  C2  UNL d   1      -0.617   1.234   0.820  0.00  0.00    -0.077 A 
ATOM      2  C3  UNL d   1      -1.505   0.150   0.800  0.00  0.00     0.002 A 
ATOM      3  C4  UNL d   1      -2.750   0.269   0.178  0.00  0.00     0.002 A 
ATOM      4  C5  UNL d   1      -3.115   1.468  -0.430  0.00  0.00    -0.004 A 
ATOM      5  C6  UNL d   1      -2.240   2.553  -0.412  0.00  0.00     0.002 A 
ATOM      6  C7  UNL d   1      -0.996   2.436   0.209  0.00  0.00     0.002 A 
ENDROOT
BRANCH   1   7
ATOM      7  C1  UNL d   1       0.746   1.093   1.447  0.00  0.00     0.055 C 
ATOM      8  C   UNL d   1       1.839   1.043   0.389  0.00  0.00     0.019 C 
ENDBRANCH   1   7
TORSDOF 1
ENDMDL
