MODEL 1
REMARK minimizedAffinity -2.31933331
REMARK minimizedRMSD -1
REMARK  1 active torsions:
REMARK  status: ('A' for Active; 'I' for Inactive)
REMARK    1  A    between atoms: C1_2  and  C2_3 
ROOT
ATOM      1  C2  UNL d   1      -1.669   1.762   0.045  0.00  0.00    -0.077 A 
ATOM      2  C3  UNL d   1      -2.172   0.611   0.669  0.00  0.00     0.002 A 
ATOM      3  C4  UNL d   1      -1.310  -0.271   1.323  0.00  0.00     0.002 A 
ATOM      4  C5  UNL d   1       0.058  -0.010   1.363  0.00  0.00    -0.004 A 
ATOM      5  C6  UNL d   1       0.568   1.131   0.745  0.00  0.00     0.002 A 
ATOM      6  C7  UNL d   1      -0.292   2.013   0.089  0.00  0.00     0.002 A 
ENDROOT
BRANCH   1   7
ATOM      7  C1  UNL d   1      -2.603   2.740  -0.618  0.00  0.00     0.055 C 
ATOM      8  C   UNL d   1      -4.038   2.540  -0.152  0.00  0.00     0.019 C 
ENDBRANCH   1   7
TORSDOF 1
ENDMDL
