MODEL 1
REMARK minimizedAffinity 3.92369747
REMARK minimizedRMSD -1
REMARK  1 active torsions:
REMARK  status: ('A' for Active; 'I' for Inactive)
REMARK    1  A    between atoms: C1_2  and  C2_3 
ROOT
ATOM      1  C2  UNL d   1      -0.995  -4.617  -2.487  0.00  0.00    -0.077 A 
ATOM      2  C3  UNL d   1      -1.267  -5.099  -1.199  0.00  0.00     0.002 A 
ATOM      3  C4  UNL d   1      -2.112  -4.390  -0.343  0.00  0.00     0.002 A 
ATOM      4  C5  UNL d   1      -2.696  -3.198  -0.768  0.00  0.00    -0.004 A 
ATOM      5  C6  UNL d   1      -2.430  -2.710  -2.047  0.00  0.00     0.002 A 
ATOM      6  C7  UNL d   1      -1.584  -3.417  -2.903  0.00  0.00     0.002 A 
ENDROOT
BRANCH   1   7
ATOM      7  C1  UNL d   1      -0.123  -5.406  -3.428  0.00  0.00     0.055 C 
ATOM      8  C   UNL d   1       1.353  -5.202  -3.118  0.00  0.00     0.019 C 
ENDBRANCH   1   7
TORSDOF 1
ENDMDL
