MODEL 1
REMARK minimizedAffinity 6.7512145
REMARK minimizedRMSD -1
REMARK  1 active torsions:
REMARK  status: ('A' for Active; 'I' for Inactive)
REMARK    1  A    between atoms: C1_2  and  C2_3 
ROOT
ATOM      1  C2  UNL d   1       1.734   0.908   0.267  0.00  0.00    -0.077 A 
ATOM      2  C3  UNL d   1       2.352  -0.156   0.940  0.00  0.00     0.002 A 
ATOM      3  C4  UNL d   1       3.399  -0.858   0.341  0.00  0.00     0.002 A 
ATOM      4  C5  UNL d   1       3.840  -0.503  -0.932  0.00  0.00    -0.004 A 
ATOM      5  C6  UNL d   1       3.231   0.553  -1.610  0.00  0.00     0.002 A 
ATOM      6  C7  UNL d   1       2.184   1.255  -1.013  0.00  0.00     0.002 A 
ENDROOT
BRANCH   1   7
ATOM      7  C1  UNL d   1       0.638   1.698   0.932  0.00  0.00     0.055 C 
ATOM      8  C   UNL d   1      -0.621   1.727   0.076  0.00  0.00     0.019 C 
ENDBRANCH   1   7
TORSDOF 1
ENDMDL
