MODEL 1
REMARK minimizedAffinity -3.77346945
REMARK minimizedRMSD -1
REMARK  1 active torsions:
REMARK  status: ('A' for Active; 'I' for Inactive)
REMARK    1  A    between atoms: C1_2  and  C2_3 
ROOT
ATOM      1  C2  UNL d   1      -0.463   1.097   0.871  0.00  0.00    -0.077 A 
ATOM      2  C3  UNL d   1      -0.864   2.225   0.142  0.00  0.00     0.002 A 
ATOM      3  C4  UNL d   1      -2.201   2.389  -0.226  0.00  0.00     0.002 A 
ATOM      4  C5  UNL d   1      -3.147   1.433   0.135  0.00  0.00    -0.004 A 
ATOM      5  C6  UNL d   1      -2.758   0.306   0.858  0.00  0.00     0.002 A 
ATOM      6  C7  UNL d   1      -1.422   0.139   1.226  0.00  0.00     0.002 A 
ENDROOT
BRANCH   1   7
ATOM      7  C1  UNL d   1       0.969   0.941   1.312  0.00  0.00     0.055 C 
ATOM      8  C   UNL d   1       1.927   1.067   0.135  0.00  0.00     0.019 C 
ENDBRANCH   1   7
TORSDOF 1
ENDMDL
