MODEL 1
REMARK minimizedAffinity -1.08257437
REMARK minimizedRMSD -1
REMARK  1 active torsions:
REMARK  status: ('A' for Active; 'I' for Inactive)
REMARK    1  A    between atoms: C1_2  and  C2_3 
ROOT
ATOM      1  C2  UNL d   1      -0.948   0.946   0.840  0.00  0.00    -0.077 A 
ATOM      2  C3  UNL d   1      -0.960   2.314   0.533  0.00  0.00     0.002 A 
ATOM      3  C4  UNL d   1      -2.144   2.939   0.136  0.00  0.00     0.002 A 
ATOM      4  C5  UNL d   1      -3.325   2.204   0.046  0.00  0.00    -0.004 A 
ATOM      5  C6  UNL d   1      -3.323   0.843   0.348  0.00  0.00     0.002 A 
ATOM      6  C7  UNL d   1      -2.140   0.217   0.744  0.00  0.00     0.002 A 
ENDROOT
BRANCH   1   7
ATOM      7  C1  UNL d   1       0.317   0.282   1.317  0.00  0.00     0.055 C 
ATOM      8  C   UNL d   1       1.512   0.693   0.468  0.00  0.00     0.019 C 
ENDBRANCH   1   7
TORSDOF 1
ENDMDL
