MODEL 1
REMARK minimizedAffinity 0.704711914
REMARK minimizedRMSD -1
REMARK  1 active torsions:
REMARK  status: ('A' for Active; 'I' for Inactive)
REMARK    1  A    between atoms: C1_2  and  C2_3 
ROOT
ATOM      1  C2  UNL d   1       1.987   1.128   0.108  0.00  0.00    -0.077 A 
ATOM      2  C3  UNL d   1       0.621   1.276   0.383  0.00  0.00     0.002 A 
ATOM      3  C4  UNL d   1       0.200   1.948   1.532  0.00  0.00     0.002 A 
ATOM      4  C5  UNL d   1       1.139   2.479   2.414  0.00  0.00    -0.004 A 
ATOM      5  C6  UNL d   1       2.501   2.335   2.151  0.00  0.00     0.002 A 
ATOM      6  C7  UNL d   1       2.923   1.663   1.003  0.00  0.00     0.002 A 
ENDROOT
BRANCH   1   7
ATOM      7  C1  UNL d   1       2.443   0.447  -1.156  0.00  0.00     0.055 C 
ATOM      8  C   UNL d   1       1.805   1.078  -2.385  0.00  0.00     0.019 C 
ENDBRANCH   1   7
TORSDOF 1
ENDMDL
