MODEL 1
REMARK minimizedAffinity 4.8706584
REMARK minimizedRMSD -1
REMARK  1 active torsions:
REMARK  status: ('A' for Active; 'I' for Inactive)
REMARK    1  A    between atoms: C1_2  and  C2_3 
ROOT
ATOM      1  C2  UNL d   1      -2.981   0.210   1.554  0.00  0.00    -0.077 A 
ATOM      2  C3  UNL d   1      -2.052   1.077   0.962  0.00  0.00     0.002 A 
ATOM      3  C4  UNL d   1      -2.478   2.076   0.083  0.00  0.00     0.002 A 
ATOM      4  C5  UNL d   1      -3.833   2.218  -0.207  0.00  0.00    -0.004 A 
ATOM      5  C6  UNL d   1      -4.764   1.360   0.375  0.00  0.00     0.002 A 
ATOM      6  C7  UNL d   1      -4.340   0.361   1.253  0.00  0.00     0.002 A 
ENDROOT
BRANCH   1   7
ATOM      7  C1  UNL d   1      -2.528  -0.835   2.540  0.00  0.00     0.055 C 
ATOM      8  C   UNL d   1      -3.095  -0.570   3.927  0.00  0.00     0.019 C 
ENDBRANCH   1   7
TORSDOF 1
ENDMDL
