MODEL 1
REMARK minimizedAffinity -0.201250061
REMARK minimizedRMSD -1
REMARK  1 active torsions:
REMARK  status: ('A' for Active; 'I' for Inactive)
REMARK    1  A    between atoms: C1_2  and  C2_3 
ROOT
ATOM      1  C2  UNL d   1       0.445   1.621   0.592  0.00  0.00    -0.077 A 
ATOM      2  C3  UNL d   1      -0.706   1.864   1.354  0.00  0.00     0.002 A 
ATOM      3  C4  UNL d   1      -0.598   2.251   2.692  0.00  0.00     0.002 A 
ATOM      4  C5  UNL d   1       0.657   2.401   3.276  0.00  0.00    -0.004 A 
ATOM      5  C6  UNL d   1       1.808   2.160   2.527  0.00  0.00     0.002 A 
ATOM      6  C7  UNL d   1       1.702   1.772   1.190  0.00  0.00     0.002 A 
ENDROOT
BRANCH   1   7
ATOM      7  C1  UNL d   1       0.332   1.252  -0.864  0.00  0.00     0.055 C 
ATOM      8  C   UNL d   1       1.638   1.505  -1.603  0.00  0.00     0.019 C 
ENDBRANCH   1   7
TORSDOF 1
ENDMDL
