MODEL 1
REMARK minimizedAffinity -1.1396699
REMARK minimizedRMSD -1
REMARK  1 active torsions:
REMARK  status: ('A' for Active; 'I' for Inactive)
REMARK    1  A    between atoms: C1_2  and  C2_3 
ROOT
ATOM      1  C2  UNL d   1      -0.335   0.880   0.644  0.00  0.00    -0.077 A 
ATOM      2  C3  UNL d   1       0.089  -0.344   1.181  0.00  0.00     0.002 A 
ATOM      3  C4  UNL d   1       1.241  -0.967   0.696  0.00  0.00     0.002 A 
ATOM      4  C5  UNL d   1       1.979  -0.371  -0.325  0.00  0.00    -0.004 A 
ATOM      5  C6  UNL d   1       1.564   0.845  -0.866  0.00  0.00     0.002 A 
ATOM      6  C7  UNL d   1       0.413   1.468  -0.383  0.00  0.00     0.002 A 
ENDROOT
BRANCH   1   7
ATOM      7  C1  UNL d   1      -1.550   1.577   1.200  0.00  0.00     0.055 C 
ATOM      8  C   UNL d   1      -1.157   2.742   2.097  0.00  0.00     0.019 C 
ENDBRANCH   1   7
TORSDOF 1
ENDMDL
