MODEL 1
REMARK minimizedAffinity 3.24598122
REMARK minimizedRMSD -1
REMARK  1 active torsions:
REMARK  status: ('A' for Active; 'I' for Inactive)
REMARK    1  A    between atoms: C3_4  and  O_7 
ROOT
ATOM      1  C   UNL d   1      -2.065  -0.499  -0.310  0.00  0.00    -0.033 A 
ATOM      2  C1  UNL d   1      -1.672   0.326   0.746  0.00  0.00     0.039 A 
ATOM      3  C2  UNL d   1      -0.342   0.332   1.171  0.00  0.00    -0.080 A 
ATOM      4  C3  UNL d   1       0.583  -0.489   0.533  0.00  0.00     0.150 A 
ATOM      5  C4  UNL d   1       0.199  -1.311  -0.521  0.00  0.00    -0.007 A 
ATOM      6  C5  UNL d   1      -1.129  -1.317  -0.944  0.00  0.00     0.039 A 
ENDROOT
BRANCH   4   7
ATOM      7  O   UNL d   1       1.891  -0.521   0.917  0.00  0.00    -0.526 OA
ATOM      8  H5  UNL d   1       2.004   0.076   1.675  0.00  0.00     0.418 HD
ENDBRANCH   4   7
TORSDOF 1
ENDMDL
