MODEL 1
REMARK minimizedAffinity 2.23430347
REMARK minimizedRMSD -1
REMARK  1 active torsions:
REMARK  status: ('A' for Active; 'I' for Inactive)
REMARK    1  A    between atoms: C3_4  and  O_7 
ROOT
ATOM      1  C   UNL d   1      -0.474   6.000  -0.756  0.00  0.00    -0.033 A 
ATOM      2  C1  UNL d   1      -1.866   6.000  -0.646  0.00  0.00     0.039 A 
ATOM      3  C2  UNL d   1      -2.468   5.994   0.614  0.00  0.00    -0.080 A 
ATOM      4  C3  UNL d   1      -1.669   5.989   1.754  0.00  0.00     0.150 A 
ATOM      5  C4  UNL d   1      -0.282   5.993   1.652  0.00  0.00    -0.007 A 
ATOM      6  C5  UNL d   1       0.318   5.998   0.393  0.00  0.00     0.039 A 
ENDROOT
BRANCH   4   7
ATOM      7  O   UNL d   1      -2.211   5.978   3.004  0.00  0.00    -0.526 OA
ATOM      8  H5  UNL d   1      -3.179   5.947   2.920  0.00  0.00     0.418 HD
ENDBRANCH   4   7
TORSDOF 1
ENDMDL
