MODEL 1
REMARK minimizedAffinity -0.604120195
REMARK minimizedRMSD -1
REMARK  1 active torsions:
REMARK  status: ('A' for Active; 'I' for Inactive)
REMARK    1  A    between atoms: C3_4  and  O_7 
ROOT
ATOM      1  C   UNL d   1       1.649   0.117   0.870  0.00  0.00    -0.033 A 
ATOM      2  C1  UNL d   1       1.086  -0.915   0.117  0.00  0.00     0.039 A 
ATOM      3  C2  UNL d   1      -0.301  -1.007  -0.018  0.00  0.00    -0.080 A 
ATOM      4  C3  UNL d   1      -1.112  -0.061   0.603  0.00  0.00     0.150 A 
ATOM      5  C4  UNL d   1      -0.558   0.972   1.352  0.00  0.00    -0.007 A 
ATOM      6  C5  UNL d   1       0.827   1.061   1.487  0.00  0.00     0.039 A 
ENDROOT
BRANCH   4   7
ATOM      7  O   UNL d   1      -2.471  -0.112   0.504  0.00  0.00    -0.526 OA
ATOM      8  H5  UNL d   1      -2.712  -0.894  -0.020  0.00  0.00     0.418 HD
ENDBRANCH   4   7
TORSDOF 1
ENDMDL
