MODEL 1
REMARK minimizedAffinity -3.04028368
REMARK minimizedRMSD -1
REMARK  1 active torsions:
REMARK  status: ('A' for Active; 'I' for Inactive)
REMARK    1  A    between atoms: C3_4  and  O_7 
ROOT
ATOM      1  C   UNL d   1       0.571  -0.508   1.358  0.00  0.00    -0.033 A 
ATOM      2  C1  UNL d   1       0.576  -1.162   0.125  0.00  0.00     0.039 A 
ATOM      3  C2  UNL d   1      -0.611  -1.302  -0.598  0.00  0.00    -0.080 A 
ATOM      4  C3  UNL d   1      -1.793  -0.783  -0.076  0.00  0.00     0.150 A 
ATOM      5  C4  UNL d   1      -1.804  -0.127   1.150  0.00  0.00    -0.007 A 
ATOM      6  C5  UNL d   1      -0.618   0.011   1.870  0.00  0.00     0.039 A 
ENDROOT
BRANCH   4   7
ATOM      7  O   UNL d   1      -2.977  -0.899  -0.742  0.00  0.00    -0.526 OA
ATOM      8  H5  UNL d   1      -2.822  -1.401  -1.560  0.00  0.00     0.418 HD
ENDBRANCH   4   7
TORSDOF 1
ENDMDL
