MODEL 1
REMARK minimizedAffinity -2.42683315
REMARK minimizedRMSD -1
REMARK  0 active torsions:
REMARK  status: ('A' for Active; 'I' for Inactive)
ROOT
ATOM      1  C   UNL d   1      -1.083   0.027   0.487  0.00  0.00     0.023 A 
ATOM      2  C1  UNL d   1      -1.255   1.286  -0.087  0.00  0.00     0.003 A 
ATOM      3  C2  UNL d   1      -0.581   1.616  -1.265  0.00  0.00     0.048 A 
ATOM      4  C3  UNL d   1       0.262   0.681  -1.864  0.00  0.00     0.023 A 
ATOM      5  C4  UNL d   1       0.436  -0.581  -1.293  0.00  0.00     0.048 A 
ATOM      6  C5  UNL d   1      -0.238  -0.906  -0.115  0.00  0.00     0.003 A 
ATOM      7  I   UNL d   1       1.265   1.168  -3.618  0.00  0.00    -0.146 I 
ENDROOT
TORSDOF 0
ENDMDL
