MODEL 1
REMARK minimizedAffinity -3.37760234
REMARK minimizedRMSD -1
REMARK  0 active torsions:
REMARK  status: ('A' for Active; 'I' for Inactive)
ROOT
ATOM      1  C   UNL d   1       0.352   0.353   0.274  0.00  0.00     0.023 A 
ATOM      2  C1  UNL d   1      -0.969   0.495   0.699  0.00  0.00     0.003 A 
ATOM      3  C2  UNL d   1      -1.913  -0.485   0.386  0.00  0.00     0.048 A 
ATOM      4  C3  UNL d   1      -1.530  -1.606  -0.350  0.00  0.00     0.023 A 
ATOM      5  C4  UNL d   1      -0.209  -1.753  -0.776  0.00  0.00     0.048 A 
ATOM      6  C5  UNL d   1       0.732  -0.770  -0.463  0.00  0.00     0.003 A 
ATOM      7  I   UNL d   1      -2.934  -3.066  -0.815  0.00  0.00    -0.146 I 
ENDROOT
TORSDOF 0
ENDMDL
