MODEL 1
REMARK minimizedAffinity 0.268367529
REMARK minimizedRMSD -1
REMARK  0 active torsions:
REMARK  status: ('A' for Active; 'I' for Inactive)
ROOT
ATOM      1  C   UNL d   1      -3.415  -3.265  -0.747  0.00  0.00     0.023 A 
ATOM      2  C1  UNL d   1      -2.221  -3.411  -1.455  0.00  0.00     0.003 A 
ATOM      3  C2  UNL d   1      -1.242  -2.419  -1.386  0.00  0.00     0.048 A 
ATOM      4  C3  UNL d   1      -1.461  -1.283  -0.607  0.00  0.00     0.023 A 
ATOM      5  C4  UNL d   1      -2.653  -1.133   0.104  0.00  0.00     0.048 A 
ATOM      6  C5  UNL d   1      -3.630  -2.128   0.031  0.00  0.00     0.003 A 
ATOM      7  I   UNL d   1      -0.004   0.195  -0.503  0.00  0.00    -0.146 I 
ENDROOT
TORSDOF 0
ENDMDL
