MODEL 1
REMARK minimizedAffinity 3.07323265
REMARK minimizedRMSD -1
REMARK  0 active torsions:
REMARK  status: ('A' for Active; 'I' for Inactive)
ROOT
ATOM      1  C   UNL d   1       0.891   0.493   1.852  0.00  0.00     0.023 A 
ATOM      2  C1  UNL d   1       0.317   1.644   1.311  0.00  0.00     0.003 A 
ATOM      3  C2  UNL d   1       0.184   1.775  -0.073  0.00  0.00     0.048 A 
ATOM      4  C3  UNL d   1       0.625   0.751  -0.910  0.00  0.00     0.023 A 
ATOM      5  C4  UNL d   1       1.198  -0.403  -0.374  0.00  0.00     0.048 A 
ATOM      6  C5  UNL d   1       1.331  -0.529   1.010  0.00  0.00     0.003 A 
ATOM      7  I   UNL d   1       0.426   0.944  -2.970  0.00  0.00    -0.146 I 
ENDROOT
TORSDOF 0
ENDMDL
