MODEL 1
REMARK minimizedAffinity 3.36357737
REMARK minimizedRMSD -1
REMARK  0 active torsions:
REMARK  status: ('A' for Active; 'I' for Inactive)
ROOT
ATOM      1  C   UNL d   1      -2.074   0.341   0.946  0.00  0.00     0.023 A 
ATOM      2  C1  UNL d   1      -1.784   0.440   2.307  0.00  0.00     0.003 A 
ATOM      3  C2  UNL d   1      -0.467   0.310   2.753  0.00  0.00     0.048 A 
ATOM      4  C3  UNL d   1       0.555   0.082   1.832  0.00  0.00     0.023 A 
ATOM      5  C4  UNL d   1       0.270  -0.017   0.470  0.00  0.00     0.048 A 
ATOM      6  C5  UNL d   1      -1.048   0.113   0.029  0.00  0.00     0.003 A 
ATOM      7  I   UNL d   1       2.516  -0.111   2.494  0.00  0.00    -0.146 I 
ENDROOT
TORSDOF 0
ENDMDL
