MODEL 1
REMARK minimizedAffinity -1.48078454
REMARK minimizedRMSD -1
REMARK  0 active torsions:
REMARK  status: ('A' for Active; 'I' for Inactive)
ROOT
ATOM      1  C   UNL d   1       0.435   1.286   2.113  0.00  0.00     0.023 A 
ATOM      2  C1  UNL d   1       1.094   0.513   1.157  0.00  0.00     0.003 A 
ATOM      3  C2  UNL d   1       0.376  -0.395   0.376  0.00  0.00     0.048 A 
ATOM      4  C3  UNL d   1      -1.000  -0.526   0.557  0.00  0.00     0.023 A 
ATOM      5  C4  UNL d   1      -1.664   0.245   1.512  0.00  0.00     0.048 A 
ATOM      6  C5  UNL d   1      -0.942   1.152   2.291  0.00  0.00     0.003 A 
ATOM      7  I   UNL d   1      -2.070  -1.878  -0.604  0.00  0.00    -0.146 I 
ENDROOT
TORSDOF 0
ENDMDL
