MODEL 1
REMARK minimizedAffinity -2.7522366
REMARK minimizedRMSD -1
REMARK  0 active torsions:
REMARK  status: ('A' for Active; 'I' for Inactive)
ROOT
ATOM      1  C   UNL d   1       1.509   1.035   1.392  0.00  0.00     0.023 A 
ATOM      2  C1  UNL d   1       1.894  -0.293   1.206  0.00  0.00     0.003 A 
ATOM      3  C2  UNL d   1       1.147  -1.127   0.370  0.00  0.00     0.048 A 
ATOM      4  C3  UNL d   1       0.018  -0.625  -0.276  0.00  0.00     0.023 A 
ATOM      5  C4  UNL d   1      -0.370   0.703  -0.093  0.00  0.00     0.048 A 
ATOM      6  C5  UNL d   1       0.379   1.532   0.744  0.00  0.00     0.003 A 
ATOM      7  I   UNL d   1      -1.094  -1.864  -1.521  0.00  0.00    -0.146 I 
ENDROOT
TORSDOF 0
ENDMDL
