MODEL 1
REMARK minimizedAffinity 8.86741543
REMARK minimizedRMSD -1
REMARK  0 active torsions:
REMARK  status: ('A' for Active; 'I' for Inactive)
ROOT
ATOM      1  C   UNL d   1       3.578  -0.707  -1.383  0.00  0.00     0.020 A 
ATOM      2  C1  UNL d   1       2.910   0.477  -1.691  0.00  0.00     0.020 A 
ATOM      3  C2  UNL d   1       1.786   0.856  -0.955  0.00  0.00     0.034 A 
ATOM      4  C3  UNL d   1       1.326   0.050   0.092  0.00  0.00     0.017 A 
ATOM      5  C4  UNL d   1       1.997  -1.138   0.401  0.00  0.00     0.017 A 
ATOM      6  C5  UNL d   1       3.122  -1.513  -0.339  0.00  0.00     0.034 A 
ATOM      7 Cl   UNL d   1       1.488  -2.185   1.679  0.00  0.00    -0.070 Cl
ATOM      8 Cl1  UNL d   1      -0.071   0.581   0.960  0.00  0.00    -0.070 Cl
ENDROOT
TORSDOF 0
ENDMDL
