MODEL 1
REMARK minimizedAffinity 3.25705814
REMARK minimizedRMSD -1
REMARK  0 active torsions:
REMARK  status: ('A' for Active; 'I' for Inactive)
ROOT
ATOM      1  C   UNL d   1      -1.656   1.136   3.282  0.00  0.00     0.020 A 
ATOM      2  C1  UNL d   1      -1.197   2.438   3.091  0.00  0.00     0.020 A 
ATOM      3  C2  UNL d   1      -1.198   2.999   1.812  0.00  0.00     0.034 A 
ATOM      4  C3  UNL d   1      -1.659   2.256   0.719  0.00  0.00     0.017 A 
ATOM      5  C4  UNL d   1      -2.120   0.949   0.911  0.00  0.00     0.017 A 
ATOM      6  C5  UNL d   1      -2.116   0.393   2.194  0.00  0.00     0.034 A 
ATOM      7 Cl   UNL d   1      -2.704  -0.029  -0.389  0.00  0.00    -0.070 Cl
ATOM      8 Cl1  UNL d   1      -1.633   3.012  -0.835  0.00  0.00    -0.070 Cl
ENDROOT
TORSDOF 0
ENDMDL
