MODEL 1
REMARK minimizedAffinity -3.97848153
REMARK minimizedRMSD -1
REMARK  0 active torsions:
REMARK  status: ('A' for Active; 'I' for Inactive)
ROOT
ATOM      1  C   UNL d   1      -2.404   2.227   0.750  0.00  0.00     0.020 A 
ATOM      2  C1  UNL d   1      -2.446   0.845   0.570  0.00  0.00     0.020 A 
ATOM      3  C2  UNL d   1      -1.262   0.104   0.580  0.00  0.00     0.034 A 
ATOM      4  C3  UNL d   1      -0.033   0.744   0.773  0.00  0.00     0.017 A 
ATOM      5  C4  UNL d   1       0.008   2.131   0.954  0.00  0.00     0.017 A 
ATOM      6  C5  UNL d   1      -1.180   2.868   0.942  0.00  0.00     0.034 A 
ATOM      7 Cl   UNL d   1       1.487   2.991   1.197  0.00  0.00    -0.070 Cl
ATOM      8 Cl1  UNL d   1       1.391  -0.235   0.775  0.00  0.00    -0.070 Cl
ENDROOT
TORSDOF 0
ENDMDL
