MODEL 1
REMARK minimizedAffinity 8.09845924
REMARK minimizedRMSD -1
REMARK  0 active torsions:
REMARK  status: ('A' for Active; 'I' for Inactive)
ROOT
ATOM      1  C   UNL d   1      -0.734   0.097   1.169  0.00  0.00     0.020 A 
ATOM      2  C1  UNL d   1      -0.980   1.012   0.146  0.00  0.00     0.020 A 
ATOM      3  C2  UNL d   1      -2.278   1.472  -0.082  0.00  0.00     0.034 A 
ATOM      4  C3  UNL d   1      -3.336   1.019   0.714  0.00  0.00     0.017 A 
ATOM      5  C4  UNL d   1      -3.089   0.100   1.741  0.00  0.00     0.017 A 
ATOM      6  C5  UNL d   1      -1.787  -0.358   1.965  0.00  0.00     0.034 A 
ATOM      7 Cl   UNL d   1      -4.342  -0.505   2.765  0.00  0.00    -0.070 Cl
ATOM      8 Cl1  UNL d   1      -4.916   1.631   0.376  0.00  0.00    -0.070 Cl
ENDROOT
TORSDOF 0
ENDMDL
