MODEL 1
REMARK minimizedAffinity 3.74134445
REMARK minimizedRMSD -1
REMARK  0 active torsions:
REMARK  status: ('A' for Active; 'I' for Inactive)
ROOT
ATOM      1  C   UNL d   1       3.642   1.454  -4.443  0.00  0.00     0.020 A 
ATOM      2  C1  UNL d   1       3.357   2.280  -5.530  0.00  0.00     0.020 A 
ATOM      3  C2  UNL d   1       2.045   2.394  -5.995  0.00  0.00     0.034 A 
ATOM      4  C3  UNL d   1       1.013   1.681  -5.373  0.00  0.00     0.017 A 
ATOM      5  C4  UNL d   1       1.301   0.852  -4.282  0.00  0.00     0.017 A 
ATOM      6  C5  UNL d   1       2.616   0.742  -3.821  0.00  0.00     0.034 A 
ATOM      7 Cl   UNL d   1       0.081  -0.058  -3.462  0.00  0.00    -0.070 Cl
ATOM      8 Cl1  UNL d   1      -0.586   1.869  -6.000  0.00  0.00    -0.070 Cl
ENDROOT
TORSDOF 0
ENDMDL
