MODEL 1
REMARK minimizedAffinity 9.19970989
REMARK minimizedRMSD -1
REMARK  0 active torsions:
REMARK  status: ('A' for Active; 'I' for Inactive)
ROOT
ATOM      1  C   UNL d   1       5.252   5.842   4.574  0.00  0.00     0.020 A 
ATOM      2  C1  UNL d   1       4.693   5.942   5.848  0.00  0.00     0.020 A 
ATOM      3  C2  UNL d   1       3.306   5.990   6.000  0.00  0.00     0.034 A 
ATOM      4  C3  UNL d   1       2.472   5.937   4.877  0.00  0.00     0.017 A 
ATOM      5  C4  UNL d   1       3.034   5.836   3.599  0.00  0.00     0.017 A 
ATOM      6  C5  UNL d   1       4.424   5.789   3.452  0.00  0.00     0.034 A 
ATOM      7 Cl   UNL d   1       2.071   5.766   2.165  0.00  0.00    -0.070 Cl
ATOM      8 Cl1  UNL d   1       0.766   6.000   5.139  0.00  0.00    -0.070 Cl
ENDROOT
TORSDOF 0
ENDMDL
