MODEL 1
REMARK minimizedAffinity 12.3094521
REMARK minimizedRMSD -1
REMARK  0 active torsions:
REMARK  status: ('A' for Active; 'I' for Inactive)
ROOT
ATOM      1  C   UNL d   1      -4.442   1.906  -5.999  0.00  0.00     0.020 A 
ATOM      2  C1  UNL d   1      -4.922   3.215  -5.999  0.00  0.00     0.020 A 
ATOM      3  C2  UNL d   1      -4.026   4.287  -6.000  0.00  0.00     0.034 A 
ATOM      4  C3  UNL d   1      -2.646   4.050  -5.999  0.00  0.00     0.017 A 
ATOM      5  C4  UNL d   1      -2.166   2.736  -5.998  0.00  0.00     0.017 A 
ATOM      6  C5  UNL d   1      -3.068   1.667  -5.998  0.00  0.00     0.034 A 
ATOM      7 Cl   UNL d   1      -0.478   2.365  -5.998  0.00  0.00    -0.070 Cl
ATOM      8 Cl1  UNL d   1      -1.596   5.423  -6.000  0.00  0.00    -0.070 Cl
ENDROOT
TORSDOF 0
ENDMDL
