MODEL 1
REMARK minimizedAffinity -3.66339326
REMARK minimizedRMSD -1
REMARK  0 active torsions:
REMARK  status: ('A' for Active; 'I' for Inactive)
ROOT
ATOM      1  C   UNL d   1       1.617   3.559   0.144  0.00  0.00     0.020 A 
ATOM      2  C1  UNL d   1       2.146   2.350  -0.307  0.00  0.00     0.020 A 
ATOM      3  C2  UNL d   1       1.375   1.187  -0.251  0.00  0.00     0.034 A 
ATOM      4  C3  UNL d   1       0.071   1.230   0.258  0.00  0.00     0.017 A 
ATOM      5  C4  UNL d   1      -0.458   2.444   0.710  0.00  0.00     0.017 A 
ATOM      6  C5  UNL d   1       0.318   3.606   0.652  0.00  0.00     0.034 A 
ATOM      7 Cl   UNL d   1      -2.058   2.576   1.350  0.00  0.00    -0.070 Cl
ATOM      8 Cl1  UNL d   1      -0.825  -0.246   0.297  0.00  0.00    -0.070 Cl
ENDROOT
TORSDOF 0
ENDMDL
