MODEL 1
REMARK minimizedAffinity -3.90573096
REMARK minimizedRMSD -1
REMARK  0 active torsions:
REMARK  status: ('A' for Active; 'I' for Inactive)
ROOT
ATOM      1  C   UNL d   1       0.919   4.275   0.083  0.00  0.00     0.020 A 
ATOM      2  C1  UNL d   1      -0.244   3.646  -0.357  0.00  0.00     0.020 A 
ATOM      3  C2  UNL d   1      -0.325   2.251  -0.363  0.00  0.00     0.034 A 
ATOM      4  C3  UNL d   1       0.760   1.482   0.072  0.00  0.00     0.017 A 
ATOM      5  C4  UNL d   1       1.928   2.115   0.514  0.00  0.00     0.017 A 
ATOM      6  C5  UNL d   1       2.003   3.511   0.517  0.00  0.00     0.034 A 
ATOM      7 Cl   UNL d   1       3.309   1.233   1.065  0.00  0.00    -0.070 Cl
ATOM      8 Cl1  UNL d   1       0.591  -0.237   0.039  0.00  0.00    -0.070 Cl
ENDROOT
TORSDOF 0
ENDMDL
