MODEL 1
REMARK minimizedAffinity -4.02223206
REMARK minimizedRMSD -1
REMARK  0 active torsions:
REMARK  status: ('A' for Active; 'I' for Inactive)
ROOT
ATOM      1  C   UNL d   1      -2.476  -4.292  -0.398  0.00  0.00     0.020 A 
ATOM      2  C1  UNL d   1      -2.062  -4.860  -1.602  0.00  0.00     0.020 A 
ATOM      3  C2  UNL d   1      -0.971  -4.322  -2.289  0.00  0.00     0.034 A 
ATOM      4  C3  UNL d   1      -0.291  -3.213  -1.773  0.00  0.00     0.017 A 
ATOM      5  C4  UNL d   1      -0.708  -2.644  -0.564  0.00  0.00     0.017 A 
ATOM      6  C5  UNL d   1      -1.800  -3.186   0.120  0.00  0.00     0.034 A 
ATOM      7 Cl   UNL d   1       0.081  -1.274   0.136  0.00  0.00    -0.070 Cl
ATOM      8 Cl1  UNL d   1       1.049  -2.601  -2.675  0.00  0.00    -0.070 Cl
ENDROOT
TORSDOF 0
ENDMDL
