MODEL 1
REMARK minimizedAffinity -4.47780085
REMARK minimizedRMSD -1
REMARK  0 active torsions:
REMARK  status: ('A' for Active; 'I' for Inactive)
ROOT
ATOM      1  C   UNL d   1      -0.800   2.218   0.596  0.00  0.00     0.020 A 
ATOM      2  C1  UNL d   1       0.481   2.647   0.942  0.00  0.00     0.020 A 
ATOM      3  C2  UNL d   1       1.527   1.726   1.023  0.00  0.00     0.034 A 
ATOM      4  C3  UNL d   1       1.295   0.372   0.759  0.00  0.00     0.017 A 
ATOM      5  C4  UNL d   1       0.009  -0.058   0.412  0.00  0.00     0.017 A 
ATOM      6  C5  UNL d   1      -1.035   0.869   0.332  0.00  0.00     0.034 A 
ATOM      7 Cl   UNL d   1      -0.355  -1.713   0.072  0.00  0.00    -0.070 Cl
ATOM      8 Cl1  UNL d   1       2.636  -0.712   0.879  0.00  0.00    -0.070 Cl
ENDROOT
TORSDOF 0
ENDMDL
