MODEL 1
REMARK minimizedAffinity -3.56137133
REMARK minimizedRMSD -1
REMARK  0 active torsions:
REMARK  status: ('A' for Active; 'I' for Inactive)
ROOT
ATOM      1  C   UNL d   1      -2.027  -1.275  -1.313  0.00  0.00     0.020 A 
ATOM      2  C1  UNL d   1      -0.878  -2.008  -1.018  0.00  0.00     0.020 A 
ATOM      3  C2  UNL d   1       0.220  -1.378  -0.429  0.00  0.00     0.034 A 
ATOM      4  C3  UNL d   1       0.172  -0.010  -0.133  0.00  0.00     0.017 A 
ATOM      5  C4  UNL d   1      -0.982   0.725  -0.430  0.00  0.00     0.017 A 
ATOM      6  C5  UNL d   1      -2.078   0.089  -1.020  0.00  0.00     0.034 A 
ATOM      7 Cl   UNL d   1      -1.115   2.415  -0.095  0.00  0.00    -0.070 Cl
ATOM      8 Cl1  UNL d   1       1.566   0.704   0.595  0.00  0.00    -0.070 Cl
ENDROOT
TORSDOF 0
ENDMDL
