MODEL 1
REMARK minimizedAffinity 8.28040791
REMARK minimizedRMSD -1
REMARK  0 active torsions:
REMARK  status: ('A' for Active; 'I' for Inactive)
ROOT
ATOM      1  C   UNL d   1      -1.034   2.143   1.872  0.00  0.00     0.020 A 
ATOM      2  C1  UNL d   1      -1.269   0.966   1.162  0.00  0.00     0.020 A 
ATOM      3  C2  UNL d   1      -0.195   0.178   0.743  0.00  0.00     0.034 A 
ATOM      4  C3  UNL d   1       1.118   0.565   1.033  0.00  0.00     0.017 A 
ATOM      5  C4  UNL d   1       1.352   1.747   1.746  0.00  0.00     0.017 A 
ATOM      6  C5  UNL d   1       0.273   2.532   2.163  0.00  0.00     0.034 A 
ATOM      7 Cl   UNL d   1       2.945   2.290   2.141  0.00  0.00    -0.070 Cl
ATOM      8 Cl1  UNL d   1       2.398  -0.458   0.484  0.00  0.00    -0.070 Cl
ENDROOT
TORSDOF 0
ENDMDL
