MODEL 1
REMARK minimizedAffinity -3.02324748
REMARK minimizedRMSD -1
REMARK  0 active torsions:
REMARK  status: ('A' for Active; 'I' for Inactive)
ROOT
ATOM      1  C   UNL d   1      -1.188  -0.308   0.795  0.00  0.00     0.020 A 
ATOM      2  C1  UNL d   1      -0.167  -0.084  -0.128  0.00  0.00     0.020 A 
ATOM      3  C2  UNL d   1       0.561   1.107  -0.088  0.00  0.00     0.034 A 
ATOM      4  C3  UNL d   1       0.269   2.078   0.877  0.00  0.00     0.017 A 
ATOM      5  C4  UNL d   1      -0.756   1.852   1.803  0.00  0.00     0.017 A 
ATOM      6  C5  UNL d   1      -1.482   0.657   1.758  0.00  0.00     0.034 A 
ATOM      7 Cl   UNL d   1      -1.174   3.003   3.023  0.00  0.00    -0.070 Cl
ATOM      8 Cl1  UNL d   1       1.210   3.527   0.869  0.00  0.00    -0.070 Cl
ENDROOT
TORSDOF 0
ENDMDL
