MODEL 1
REMARK minimizedAffinity -3.89361048
REMARK minimizedRMSD -1
REMARK  0 active torsions:
REMARK  status: ('A' for Active; 'I' for Inactive)
ROOT
ATOM      1  C   UNL d   1      -1.094  -3.723  -1.821  0.00  0.00     0.020 A 
ATOM      2  C1  UNL d   1       0.123  -3.456  -2.447  0.00  0.00     0.020 A 
ATOM      3  C2  UNL d   1       0.784  -2.251  -2.203  0.00  0.00     0.034 A 
ATOM      4  C3  UNL d   1       0.229  -1.307  -1.331  0.00  0.00     0.017 A 
ATOM      5  C4  UNL d   1      -0.992  -1.576  -0.703  0.00  0.00     0.017 A 
ATOM      6  C5  UNL d   1      -1.650  -2.785  -0.951  0.00  0.00     0.034 A 
ATOM      7 Cl   UNL d   1      -1.739  -0.461   0.386  0.00  0.00    -0.070 Cl
ATOM      8 Cl1  UNL d   1       1.102   0.162  -1.075  0.00  0.00    -0.070 Cl
ENDROOT
TORSDOF 0
ENDMDL
