MODEL 1
REMARK minimizedAffinity 0.259108424
REMARK minimizedRMSD -1
REMARK  0 active torsions:
REMARK  status: ('A' for Active; 'I' for Inactive)
ROOT
ATOM      1  C   UNL d   1      -1.033  -3.627  -2.069  0.00  0.00     0.020 A 
ATOM      2  C1  UNL d   1       0.210  -3.332  -2.627  0.00  0.00     0.020 A 
ATOM      3  C2  UNL d   1       0.943  -2.239  -2.159  0.00  0.00     0.034 A 
ATOM      4  C3  UNL d   1       0.434  -1.438  -1.131  0.00  0.00     0.017 A 
ATOM      5  C4  UNL d   1      -0.814  -1.735  -0.572  0.00  0.00     0.017 A 
ATOM      6  C5  UNL d   1      -1.544  -2.831  -1.044  0.00  0.00     0.034 A 
ATOM      7 Cl   UNL d   1      -1.508  -0.793   0.700  0.00  0.00    -0.070 Cl
ATOM      8 Cl1  UNL d   1       1.395  -0.103  -0.602  0.00  0.00    -0.070 Cl
ENDROOT
TORSDOF 0
ENDMDL
