MODEL 1
REMARK minimizedAffinity 0.145215586
REMARK minimizedRMSD -1
REMARK  0 active torsions:
REMARK  status: ('A' for Active; 'I' for Inactive)
ROOT
ATOM      1  C   UNL d   1       2.218   4.213  -0.818  0.00  0.00     0.020 A 
ATOM      2  C1  UNL d   1       2.472   3.058  -1.557  0.00  0.00     0.020 A 
ATOM      3  C2  UNL d   1       2.252   1.802  -0.987  0.00  0.00     0.034 A 
ATOM      4  C3  UNL d   1       1.779   1.698   0.326  0.00  0.00     0.017 A 
ATOM      5  C4  UNL d   1       1.525   2.858   1.067  0.00  0.00     0.017 A 
ATOM      6  C5  UNL d   1       1.746   4.113   0.491  0.00  0.00     0.034 A 
ATOM      7 Cl   UNL d   1       0.939   2.810   2.693  0.00  0.00    -0.070 Cl
ATOM      8 Cl1  UNL d   1       1.530   0.113   0.967  0.00  0.00    -0.070 Cl
ENDROOT
TORSDOF 0
ENDMDL
