MODEL 1
REMARK minimizedAffinity -3.12896848
REMARK minimizedRMSD -1
REMARK  1 active torsions:
REMARK  status: ('A' for Active; 'I' for Inactive)
REMARK    1  A    between atoms: C3_4  and  O_7 
ROOT
ATOM      1  C   UNL d   1       2.309   6.000   4.186  0.00  0.00    -0.033 A 
ATOM      2  C1  UNL d   1       3.416   5.790   3.361  0.00  0.00     0.039 A 
ATOM      3  C2  UNL d   1       4.540   5.123   3.855  0.00  0.00    -0.080 A 
ATOM      4  C3  UNL d   1       4.543   4.672   5.171  0.00  0.00     0.150 A 
ATOM      5  C4  UNL d   1       3.441   4.874   5.997  0.00  0.00    -0.007 A 
ATOM      6  C5  UNL d   1       2.321   5.540   5.503  0.00  0.00     0.039 A 
ENDROOT
BRANCH   4   7
ATOM      7  O   UNL d   1       5.618   4.021   5.699  0.00  0.00    -0.526 OA
ATOM      8  H5  UNL d   1       6.314   3.979   5.023  0.00  0.00     0.418 HD
ENDBRANCH   4   7
TORSDOF 1
ENDMDL
