MODEL 1
REMARK minimizedAffinity 7.74832869
REMARK minimizedRMSD -1
REMARK  1 active torsions:
REMARK  status: ('A' for Active; 'I' for Inactive)
REMARK    1  A    between atoms: C3_4  and  O_7 
ROOT
ATOM      1  C   UNL d   1      -3.290   0.241  -0.976  0.00  0.00    -0.033 A 
ATOM      2  C1  UNL d   1      -4.608   0.159  -0.524  0.00  0.00     0.039 A 
ATOM      3  C2  UNL d   1      -4.973   0.760   0.683  0.00  0.00    -0.080 A 
ATOM      4  C3  UNL d   1      -4.011   1.439   1.426  0.00  0.00     0.150 A 
ATOM      5  C4  UNL d   1      -2.697   1.528   0.979  0.00  0.00    -0.007 A 
ATOM      6  C5  UNL d   1      -2.334   0.927  -0.225  0.00  0.00     0.039 A 
ENDROOT
BRANCH   4   7
ATOM      7  O   UNL d   1      -4.318   2.037   2.612  0.00  0.00    -0.526 OA
ATOM      8  H5  UNL d   1      -5.255   1.869   2.808  0.00  0.00     0.418 HD
ENDBRANCH   4   7
TORSDOF 1
ENDMDL
