MODEL 1
REMARK minimizedAffinity 10.6718302
REMARK minimizedRMSD -1
REMARK  1 active torsions:
REMARK  status: ('A' for Active; 'I' for Inactive)
REMARK    1  A    between atoms: C3_4  and  O_7 
ROOT
ATOM      1  C   UNL d   1       2.967   0.357  -0.601  0.00  0.00    -0.033 A 
ATOM      2  C1  UNL d   1       2.838  -0.929  -1.130  0.00  0.00     0.039 A 
ATOM      3  C2  UNL d   1       3.294  -2.033  -0.406  0.00  0.00    -0.080 A 
ATOM      4  C3  UNL d   1       3.876  -1.837   0.844  0.00  0.00     0.150 A 
ATOM      5  C4  UNL d   1       4.004  -0.559   1.378  0.00  0.00    -0.007 A 
ATOM      6  C5  UNL d   1       3.549   0.542   0.653  0.00  0.00     0.039 A 
ENDROOT
BRANCH   4   7
ATOM      7  O   UNL d   1       4.340  -2.882   1.586  0.00  0.00    -0.526 OA
ATOM      8  H5  UNL d   1       4.211  -3.701   1.078  0.00  0.00     0.418 HD
ENDBRANCH   4   7
TORSDOF 1
ENDMDL
