MODEL 1
REMARK minimizedAffinity 0.851196945
REMARK minimizedRMSD -1
REMARK  1 active torsions:
REMARK  status: ('A' for Active; 'I' for Inactive)
REMARK    1  A    between atoms: C3_4  and  O_7 
ROOT
ATOM      1  C   UNL d   1      -4.730   1.525   0.981  0.00  0.00    -0.033 A 
ATOM      2  C1  UNL d   1      -3.538   1.123   1.587  0.00  0.00     0.039 A 
ATOM      3  C2  UNL d   1      -2.356   1.076   0.844  0.00  0.00    -0.080 A 
ATOM      4  C3  UNL d   1      -2.380   1.433  -0.501  0.00  0.00     0.150 A 
ATOM      5  C4  UNL d   1      -3.564   1.837  -1.110  0.00  0.00    -0.007 A 
ATOM      6  C5  UNL d   1      -4.743   1.883  -0.367  0.00  0.00     0.039 A 
ENDROOT
BRANCH   4   7
ATOM      7  O   UNL d   1      -1.254   1.398  -1.268  0.00  0.00    -0.526 OA
ATOM      8  H5  UNL d   1      -0.520   1.072  -0.721  0.00  0.00     0.418 HD
ENDBRANCH   4   7
TORSDOF 1
ENDMDL
