MODEL 1
REMARK minimizedAffinity 6.58706093
REMARK minimizedRMSD -1
REMARK  1 active torsions:
REMARK  status: ('A' for Active; 'I' for Inactive)
REMARK    1  A    between atoms: C3_4  and  O_7 
ROOT
ATOM      1  C   UNL d   1       2.859  -2.430  -0.701  0.00  0.00    -0.033 A 
ATOM      2  C1  UNL d   1       3.439  -1.495   0.158  0.00  0.00     0.039 A 
ATOM      3  C2  UNL d   1       3.976  -0.312  -0.353  0.00  0.00    -0.080 A 
ATOM      4  C3  UNL d   1       3.926  -0.076  -1.724  0.00  0.00     0.150 A 
ATOM      5  C4  UNL d   1       3.346  -1.000  -2.586  0.00  0.00    -0.007 A 
ATOM      6  C5  UNL d   1       2.811  -2.182  -2.073  0.00  0.00     0.039 A 
ENDROOT
BRANCH   4   7
ATOM      7  O   UNL d   1       4.441   1.062  -2.270  0.00  0.00    -0.526 OA
ATOM      8  H5  UNL d   1       4.835   1.594  -1.559  0.00  0.00     0.418 HD
ENDBRANCH   4   7
TORSDOF 1
ENDMDL
