MODEL 1
REMARK minimizedAffinity 0.285484463
REMARK minimizedRMSD -1
REMARK  1 active torsions:
REMARK  status: ('A' for Active; 'I' for Inactive)
REMARK    1  A    between atoms: C3_4  and  O_7 
ROOT
ATOM      1  C   UNL d   1       2.627   1.873   4.517  0.00  0.00    -0.033 A 
ATOM      2  C1  UNL d   1       2.767   2.718   3.415  0.00  0.00     0.039 A 
ATOM      3  C2  UNL d   1       3.020   4.078   3.603  0.00  0.00    -0.080 A 
ATOM      4  C3  UNL d   1       3.132   4.579   4.897  0.00  0.00     0.150 A 
ATOM      5  C4  UNL d   1       2.999   3.742   6.000  0.00  0.00    -0.007 A 
ATOM      6  C5  UNL d   1       2.745   2.385   5.810  0.00  0.00     0.039 A 
ENDROOT
BRANCH   4   7
ATOM      7  O   UNL d   1       3.374   5.901   5.131  0.00  0.00    -0.526 OA
ATOM      8  H5  UNL d   1       3.414   6.362   4.277  0.00  0.00     0.418 HD
ENDBRANCH   4   7
TORSDOF 1
ENDMDL
