MODEL 1
REMARK minimizedAffinity 3.88285279
REMARK minimizedRMSD -1
REMARK  1 active torsions:
REMARK  status: ('A' for Active; 'I' for Inactive)
REMARK    1  A    between atoms: C3_4  and  O_7 
ROOT
ATOM      1  C   UNL d   1      -4.328  -0.657  -3.151  0.00  0.00    -0.033 A 
ATOM      2  C1  UNL d   1      -2.981  -0.341  -3.340  0.00  0.00     0.039 A 
ATOM      3  C2  UNL d   1      -2.614   0.631  -4.273  0.00  0.00    -0.080 A 
ATOM      4  C3  UNL d   1      -3.602   1.279  -5.009  0.00  0.00     0.150 A 
ATOM      5  C4  UNL d   1      -4.946   0.972  -4.824  0.00  0.00    -0.007 A 
ATOM      6  C5  UNL d   1      -5.311   0.000  -3.892  0.00  0.00     0.039 A 
ENDROOT
BRANCH   4   7
ATOM      7  O   UNL d   1      -3.293   2.231  -5.934  0.00  0.00    -0.526 OA
ATOM      8  H5  UNL d   1      -2.326   2.318  -5.975  0.00  0.00     0.418 HD
ENDBRANCH   4   7
TORSDOF 1
ENDMDL
