MODEL 1
REMARK minimizedAffinity 4.28196287
REMARK minimizedRMSD -1
REMARK  1 active torsions:
REMARK  status: ('A' for Active; 'I' for Inactive)
REMARK    1  A    between atoms: C3_4  and  O_7 
ROOT
ATOM      1  C   UNL d   1      -5.206   0.877   0.894  0.00  0.00    -0.033 A 
ATOM      2  C1  UNL d   1      -4.258   1.572   1.648  0.00  0.00     0.039 A 
ATOM      3  C2  UNL d   1      -2.926   1.613   1.231  0.00  0.00    -0.080 A 
ATOM      4  C3  UNL d   1      -2.556   0.956   0.061  0.00  0.00     0.150 A 
ATOM      5  C4  UNL d   1      -3.496   0.265  -0.697  0.00  0.00    -0.007 A 
ATOM      6  C5  UNL d   1      -4.825   0.225  -0.279  0.00  0.00     0.039 A 
ENDROOT
BRANCH   4   7
ATOM      7  O   UNL d   1      -1.267   0.963  -0.383  0.00  0.00    -0.526 OA
ATOM      8  H5  UNL d   1      -0.724   1.455   0.256  0.00  0.00     0.418 HD
ENDBRANCH   4   7
TORSDOF 1
ENDMDL
