MODEL 1
REMARK minimizedAffinity -3.84339476
REMARK minimizedRMSD -1
REMARK  1 active torsions:
REMARK  status: ('A' for Active; 'I' for Inactive)
REMARK    1  A    between atoms: C3_4  and  O_7 
ROOT
ATOM      1  C   UNL d   1       3.368   2.705   5.515  0.00  0.00    -0.033 A 
ATOM      2  C1  UNL d   1       3.745   2.549   4.180  0.00  0.00     0.039 A 
ATOM      3  C2  UNL d   1       3.746   3.648   3.320  0.00  0.00    -0.080 A 
ATOM      4  C3  UNL d   1       3.370   4.897   3.807  0.00  0.00     0.150 A 
ATOM      5  C4  UNL d   1       2.997   5.061   5.137  0.00  0.00    -0.007 A 
ATOM      6  C5  UNL d   1       2.995   3.961   5.994  0.00  0.00     0.039 A 
ENDROOT
BRANCH   4   7
ATOM      7  O   UNL d   1       3.351   5.999   3.004  0.00  0.00    -0.526 OA
ATOM      8  H5  UNL d   1       3.605   5.729   2.106  0.00  0.00     0.418 HD
ENDBRANCH   4   7
TORSDOF 1
ENDMDL
