MODEL 1
REMARK minimizedAffinity -1.20595384
REMARK minimizedRMSD -1
REMARK  1 active torsions:
REMARK  status: ('A' for Active; 'I' for Inactive)
REMARK    1  A    between atoms: C3_4  and  O_7 
ROOT
ATOM      1  C   UNL d   1      -0.961   2.794   2.935  0.00  0.00    -0.033 A 
ATOM      2  C1  UNL d   1      -1.764   2.350   1.883  0.00  0.00     0.039 A 
ATOM      3  C2  UNL d   1      -3.152   2.318   2.026  0.00  0.00    -0.080 A 
ATOM      4  C3  UNL d   1      -3.725   2.734   3.226  0.00  0.00     0.150 A 
ATOM      5  C4  UNL d   1      -2.931   3.181   4.277  0.00  0.00    -0.007 A 
ATOM      6  C5  UNL d   1      -1.545   3.211   4.132  0.00  0.00     0.039 A 
ENDROOT
BRANCH   4   7
ATOM      7  O   UNL d   1      -5.075   2.717   3.414  0.00  0.00    -0.526 OA
ATOM      8  H5  UNL d   1      -5.493   2.357   2.614  0.00  0.00     0.418 HD
ENDBRANCH   4   7
TORSDOF 1
ENDMDL
