MODEL 1
REMARK minimizedAffinity 13.5982313
REMARK minimizedRMSD -1
REMARK  0 active torsions:
REMARK  status: ('A' for Active; 'I' for Inactive)
ROOT
ATOM      1  C4' PXY d   1       3.442   5.996   2.666  0.00  0.00     0.077 C 
ATOM      2  C1' PXY d   1       6.000   0.992   1.316  0.00  0.00     0.077 C 
ATOM      3  C1  PXY d   1       5.328   2.307   1.657  0.00  0.00    -0.082 A 
ATOM      4  C2  PXY d   1       5.540   2.862   2.839  0.00  0.00     0.003 A 
ATOM      5  C3  PXY d   1       4.915   4.035   3.176  0.00  0.00     0.003 A 
ATOM      6  C4  PXY d   1       4.107   4.674   2.274  0.00  0.00    -0.082 A 
ATOM      7  C5  PXY d   1       3.894   4.119   1.062  0.00  0.00     0.003 A 
ATOM      8  C6  PXY d   1       4.505   2.907   0.755  0.00  0.00     0.003 A 
ENDROOT
TORSDOF 0
ENDMDL
