MODEL 1
REMARK minimizedAffinity 8.04949379
REMARK minimizedRMSD -1
REMARK  0 active torsions:
REMARK  status: ('A' for Active; 'I' for Inactive)
ROOT
ATOM      1  C4' PXY d   1      -3.805   1.378   1.024  0.00  0.00     0.077 C 
ATOM      2  C1' PXY d   1       1.267  -0.291   3.238  0.00  0.00     0.077 C 
ATOM      3  C1  PXY d   1      -0.065   0.154   2.668  0.00  0.00    -0.082 A 
ATOM      4  C2  PXY d   1      -0.702  -0.625   1.809  0.00  0.00     0.003 A 
ATOM      5  C3  PXY d   1      -1.892  -0.224   1.259  0.00  0.00     0.003 A 
ATOM      6  C4  PXY d   1      -2.462   0.964   1.632  0.00  0.00    -0.082 A 
ATOM      7  C5  PXY d   1      -1.823   1.760   2.516  0.00  0.00     0.003 A 
ATOM      8  C6  PXY d   1      -0.596   1.353   3.031  0.00  0.00     0.003 A 
ENDROOT
TORSDOF 0
ENDMDL
