MODEL 1
REMARK minimizedAffinity 8.79491997
REMARK minimizedRMSD -1
REMARK  0 active torsions:
REMARK  status: ('A' for Active; 'I' for Inactive)
ROOT
ATOM      1  C4' PXY d   1      -0.150  -0.628  -3.782  0.00  0.00     0.077 C 
ATOM      2  C1' PXY d   1      -2.285  -5.999  -3.701  0.00  0.00     0.077 C 
ATOM      3  C1  PXY d   1      -1.731  -4.588  -3.710  0.00  0.00    -0.082 A 
ATOM      4  C2  PXY d   1      -1.429  -4.012  -4.863  0.00  0.00     0.003 A 
ATOM      5  C3  PXY d   1      -0.897  -2.748  -4.888  0.00  0.00     0.003 A 
ATOM      6  C4  PXY d   1      -0.721  -2.048  -3.725  0.00  0.00    -0.082 A 
ATOM      7  C5  PXY d   1      -1.036  -2.625  -2.546  0.00  0.00     0.003 A 
ATOM      8  C6  PXY d   1      -1.537  -3.924  -2.539  0.00  0.00     0.003 A 
ENDROOT
TORSDOF 0
ENDMDL
