MODEL 1
REMARK minimizedAffinity 10.043498
REMARK minimizedRMSD -1
REMARK  0 active torsions:
REMARK  status: ('A' for Active; 'I' for Inactive)
ROOT
ATOM      1  C4' PXY d   1       3.661   0.158  -4.824  0.00  0.00     0.077 C 
ATOM      2  C1' PXY d   1      -1.586  -2.266  -4.738  0.00  0.00     0.077 C 
ATOM      3  C1  PXY d   1      -0.205  -1.642  -4.760  0.00  0.00    -0.082 A 
ATOM      4  C2  PXY d   1      -0.050  -0.382  -4.388  0.00  0.00     0.003 A 
ATOM      5  C3  PXY d   1       1.187   0.208  -4.432  0.00  0.00     0.003 A 
ATOM      6  C4  PXY d   1       2.286  -0.516  -4.809  0.00  0.00    -0.082 A 
ATOM      7  C5  PXY d   1       2.139  -1.805  -5.180  0.00  0.00     0.003 A 
ATOM      8  C6  PXY d   1       0.868  -2.373  -5.168  0.00  0.00     0.003 A 
ENDROOT
TORSDOF 0
ENDMDL
