MODEL 1
REMARK minimizedAffinity 8.71829796
REMARK minimizedRMSD -1
REMARK  0 active torsions:
REMARK  status: ('A' for Active; 'I' for Inactive)
ROOT
ATOM      1  C4' PXY d   1       0.700   0.176  -4.486  0.00  0.00     0.077 C 
ATOM      2  C1' PXY d   1      -1.982  -4.807  -5.664  0.00  0.00     0.077 C 
ATOM      3  C1  PXY d   1      -1.290  -3.495  -5.351  0.00  0.00    -0.082 A 
ATOM      4  C2  PXY d   1      -0.184  -3.168  -5.999  0.00  0.00     0.003 A 
ATOM      5  C3  PXY d   1       0.473  -2.000  -5.706  0.00  0.00     0.003 A 
ATOM      6  C4  PXY d   1      -0.037  -1.134  -4.776  0.00  0.00    -0.082 A 
ATOM      7  C5  PXY d   1      -1.171  -1.455  -4.118  0.00  0.00     0.003 A 
ATOM      8  C6  PXY d   1      -1.800  -2.664  -4.401  0.00  0.00     0.003 A 
ENDROOT
TORSDOF 0
ENDMDL
