MODEL 1
REMARK minimizedAffinity 11.128685
REMARK minimizedRMSD -1
REMARK  0 active torsions:
REMARK  status: ('A' for Active; 'I' for Inactive)
ROOT
ATOM      1  C4' PXY d   1      -2.098  -5.244  -4.901  0.00  0.00     0.077 C 
ATOM      2  C1' PXY d   1       0.133   0.086  -4.736  0.00  0.00     0.077 C 
ATOM      3  C1  PXY d   1      -0.454  -1.311  -4.792  0.00  0.00    -0.082 A 
ATOM      4  C2  PXY d   1      -1.024  -1.825  -3.715  0.00  0.00     0.003 A 
ATOM      5  C3  PXY d   1      -1.530  -3.099  -3.739  0.00  0.00     0.003 A 
ATOM      6  C4  PXY d   1      -1.501  -3.834  -4.893  0.00  0.00    -0.082 A 
ATOM      7  C5  PXY d   1      -0.931  -3.313  -6.000  0.00  0.00     0.003 A 
ATOM      8  C6  PXY d   1      -0.385  -2.034  -5.943  0.00  0.00     0.003 A 
ENDROOT
TORSDOF 0
ENDMDL
