MODEL 1
REMARK minimizedAffinity 10.0812063
REMARK minimizedRMSD -1
REMARK  0 active torsions:
REMARK  status: ('A' for Active; 'I' for Inactive)
ROOT
ATOM      1  C4' PXY d   1       2.547  -2.449   2.615  0.00  0.00     0.077 C 
ATOM      2  C1' PXY d   1      -1.161  -5.313   6.000  0.00  0.00     0.077 C 
ATOM      3  C1  PXY d   1      -0.198  -4.560   5.103  0.00  0.00    -0.082 A 
ATOM      4  C2  PXY d   1       1.102  -4.781   5.208  0.00  0.00     0.003 A 
ATOM      5  C3  PXY d   1       1.989  -4.085   4.428  0.00  0.00     0.003 A 
ATOM      6  C4  PXY d   1       1.538  -3.193   3.493  0.00  0.00    -0.082 A 
ATOM      7  C5  PXY d   1       0.212  -2.970   3.372  0.00  0.00     0.003 A 
ATOM      8  C6  PXY d   1      -0.670  -3.656   4.202  0.00  0.00     0.003 A 
ENDROOT
TORSDOF 0
ENDMDL
