MODEL 1
REMARK minimizedAffinity 14.9186058
REMARK minimizedRMSD -1
REMARK  0 active torsions:
REMARK  status: ('A' for Active; 'I' for Inactive)
ROOT
ATOM      1  C4' PXY d   1       4.711  -1.326  -2.362  0.00  0.00     0.077 C 
ATOM      2  C1' PXY d   1      -0.648  -0.602  -4.403  0.00  0.00     0.077 C 
ATOM      3  C1  PXY d   1       0.762  -0.785  -3.877  0.00  0.00    -0.082 A 
ATOM      4  C2  PXY d   1       1.050  -1.837  -3.129  0.00  0.00     0.003 A 
ATOM      5  C3  PXY d   1       2.312  -2.001  -2.619  0.00  0.00     0.003 A 
ATOM      6  C4  PXY d   1       3.303  -1.106  -2.922  0.00  0.00    -0.082 A 
ATOM      7  C5  PXY d   1       3.020  -0.035  -3.693  0.00  0.00     0.003 A 
ATOM      8  C6  PXY d   1       1.722   0.135  -4.167  0.00  0.00     0.003 A 
ENDROOT
TORSDOF 0
ENDMDL
