MODEL 1
REMARK minimizedAffinity 15.1465797
REMARK minimizedRMSD -1
REMARK  0 active torsions:
REMARK  status: ('A' for Active; 'I' for Inactive)
ROOT
ATOM      1  C4' PXY d   1      -6.000   5.833   0.005  0.00  0.00     0.077 C 
ATOM      2  C1' PXY d   1      -5.949   0.433  -2.055  0.00  0.00     0.077 C 
ATOM      3  C1  PXY d   1      -5.957   1.853  -1.526  0.00  0.00    -0.082 A 
ATOM      4  C2  PXY d   1      -5.940   2.065  -0.220  0.00  0.00     0.003 A 
ATOM      5  C3  PXY d   1      -5.980   3.343   0.276  0.00  0.00     0.003 A 
ATOM      6  C4  PXY d   1      -5.983   4.416  -0.574  0.00  0.00    -0.082 A 
ATOM      7  C5  PXY d   1      -5.989   4.209  -1.908  0.00  0.00     0.003 A 
ATOM      8  C6  PXY d   1      -5.991   2.903  -2.391  0.00  0.00     0.003 A 
ENDROOT
TORSDOF 0
ENDMDL
