MODEL 1
REMARK minimizedAffinity -3.19018197
REMARK minimizedRMSD -1
REMARK  0 active torsions:
REMARK  status: ('A' for Active; 'I' for Inactive)
ROOT
ATOM      1  C   UNL d   1      -1.870   1.822   2.401  0.00  0.00     0.023 A 
ATOM      2  C1  UNL d   1      -1.849   0.428   2.457  0.00  0.00     0.003 A 
ATOM      3  C2  UNL d   1      -1.074  -0.297   1.549  0.00  0.00     0.048 A 
ATOM      4  C3  UNL d   1      -0.321   0.378   0.589  0.00  0.00     0.023 A 
ATOM      5  C4  UNL d   1      -0.338   1.773   0.530  0.00  0.00     0.048 A 
ATOM      6  C5  UNL d   1      -1.115   2.493   1.439  0.00  0.00     0.003 A 
ATOM      7  I   UNL d   1       0.833  -0.699  -0.763  0.00  0.00    -0.146 I 
ENDROOT
TORSDOF 0
ENDMDL
