MODEL 1
REMARK minimizedAffinity -4.78042412
REMARK minimizedRMSD -1
REMARK  0 active torsions:
REMARK  status: ('A' for Active; 'I' for Inactive)
ROOT
ATOM      1  C   UNL d   1      -2.015   3.681   0.629  0.00  0.00     0.023 A 
ATOM      2  C1  UNL d   1      -1.016   3.781  -0.340  0.00  0.00     0.003 A 
ATOM      3  C2  UNL d   1      -0.210   2.679  -0.630  0.00  0.00     0.048 A 
ATOM      4  C3  UNL d   1      -0.409   1.478   0.051  0.00  0.00     0.023 A 
ATOM      5  C4  UNL d   1      -1.408   1.373   1.020  0.00  0.00     0.048 A 
ATOM      6  C5  UNL d   1      -2.211   2.478   1.308  0.00  0.00     0.003 A 
ATOM      7  I   UNL d   1       0.790  -0.164  -0.380  0.00  0.00    -0.146 I 
ENDROOT
TORSDOF 0
ENDMDL
