MODEL 1
REMARK minimizedAffinity -3.59874535
REMARK minimizedRMSD -1
REMARK  0 active torsions:
REMARK  status: ('A' for Active; 'I' for Inactive)
ROOT
ATOM      1  C   UNL d   1      -1.870   1.709   1.967  0.00  0.00     0.023 A 
ATOM      2  C1  UNL d   1      -1.881   2.031   0.610  0.00  0.00     0.003 A 
ATOM      3  C2  UNL d   1      -1.149   1.264  -0.298  0.00  0.00     0.048 A 
ATOM      4  C3  UNL d   1      -0.408   0.174   0.158  0.00  0.00     0.023 A 
ATOM      5  C4  UNL d   1      -0.394  -0.153   1.515  0.00  0.00     0.048 A 
ATOM      6  C5  UNL d   1      -1.127   0.619   2.419  0.00  0.00     0.003 A 
ATOM      7  I   UNL d   1       0.684  -0.970  -1.190  0.00  0.00    -0.146 I 
ENDROOT
TORSDOF 0
ENDMDL
