MODEL 1
REMARK minimizedAffinity -1.90210545
REMARK minimizedRMSD -1
REMARK  0 active torsions:
REMARK  status: ('A' for Active; 'I' for Inactive)
ROOT
ATOM      1  C   UNL d   1       1.683  -0.644  -1.089  0.00  0.00     0.023 A 
ATOM      2  C1  UNL d   1       1.216  -1.235   0.085  0.00  0.00     0.003 A 
ATOM      3  C2  UNL d   1       0.227  -0.602   0.841  0.00  0.00     0.048 A 
ATOM      4  C3  UNL d   1      -0.291   0.621   0.416  0.00  0.00     0.023 A 
ATOM      5  C4  UNL d   1       0.173   1.216  -0.758  0.00  0.00     0.048 A 
ATOM      6  C5  UNL d   1       1.163   0.580  -1.510  0.00  0.00     0.003 A 
ATOM      7  I   UNL d   1      -1.764   1.565   1.540  0.00  0.00    -0.146 I 
ENDROOT
TORSDOF 0
ENDMDL
