MODEL 1
REMARK minimizedAffinity -2.72079802
REMARK minimizedRMSD -1
REMARK  0 active torsions:
REMARK  status: ('A' for Active; 'I' for Inactive)
ROOT
ATOM      1  C   UNL d   1      -1.366   2.418   1.516  0.00  0.00     0.023 A 
ATOM      2  C1  UNL d   1      -0.690   2.605   0.310  0.00  0.00     0.003 A 
ATOM      3  C2  UNL d   1      -0.162   1.508  -0.373  0.00  0.00     0.048 A 
ATOM      4  C3  UNL d   1      -0.313   0.226   0.155  0.00  0.00     0.023 A 
ATOM      5  C4  UNL d   1      -0.989   0.034   1.361  0.00  0.00     0.048 A 
ATOM      6  C5  UNL d   1      -1.515   1.134   2.041  0.00  0.00     0.003 A 
ATOM      7  I   UNL d   1       0.473  -1.409  -0.860  0.00  0.00    -0.146 I 
ENDROOT
TORSDOF 0
ENDMDL
