MODEL 1
REMARK minimizedAffinity -4.52542973
REMARK minimizedRMSD -1
REMARK  0 active torsions:
REMARK  status: ('A' for Active; 'I' for Inactive)
ROOT
ATOM      1  C   UNL d   1      -1.483   3.415   0.742  0.00  0.00     0.023 A 
ATOM      2  C1  UNL d   1      -0.730   3.378  -0.432  0.00  0.00     0.003 A 
ATOM      3  C2  UNL d   1      -0.099   2.195  -0.821  0.00  0.00     0.048 A 
ATOM      4  C3  UNL d   1      -0.226   1.052  -0.033  0.00  0.00     0.023 A 
ATOM      5  C4  UNL d   1      -0.979   1.083   1.142  0.00  0.00     0.048 A 
ATOM      6  C5  UNL d   1      -1.607   2.269   1.528  0.00  0.00     0.003 A 
ATOM      7  I   UNL d   1       0.713  -0.711  -0.610  0.00  0.00    -0.146 I 
ENDROOT
TORSDOF 0
ENDMDL
