MODEL 1
REMARK minimizedAffinity -4.44833565
REMARK minimizedRMSD -1
REMARK  0 active torsions:
REMARK  status: ('A' for Active; 'I' for Inactive)
ROOT
ATOM      1  C   UNL d   1      -1.667   2.899   1.185  0.00  0.00     0.023 A 
ATOM      2  C1  UNL d   1      -0.906   3.125   0.038  0.00  0.00     0.003 A 
ATOM      3  C2  UNL d   1      -0.109   2.105  -0.486  0.00  0.00     0.048 A 
ATOM      4  C3  UNL d   1      -0.080   0.860   0.142  0.00  0.00     0.023 A 
ATOM      5  C4  UNL d   1      -0.840   0.629   1.290  0.00  0.00     0.048 A 
ATOM      6  C5  UNL d   1      -1.634   1.652   1.810  0.00  0.00     0.003 A 
ATOM      7  I   UNL d   1       1.105  -0.661  -0.635  0.00  0.00    -0.146 I 
ENDROOT
TORSDOF 0
ENDMDL
