MODEL 1
REMARK minimizedAffinity -4.82817507
REMARK minimizedRMSD -1
REMARK  0 active torsions:
REMARK  status: ('A' for Active; 'I' for Inactive)
ROOT
ATOM      1  C   UNL d   1      -1.708   3.700  -0.201  0.00  0.00     0.023 A 
ATOM      2  C1  UNL d   1      -0.747   3.347  -1.149  0.00  0.00     0.003 A 
ATOM      3  C2  UNL d   1      -0.196   2.064  -1.143  0.00  0.00     0.048 A 
ATOM      4  C3  UNL d   1      -0.610   1.138  -0.186  0.00  0.00     0.023 A 
ATOM      5  C4  UNL d   1      -1.572   1.486   0.764  0.00  0.00     0.048 A 
ATOM      6  C5  UNL d   1      -2.120   2.770   0.754  0.00  0.00     0.003 A 
ATOM      7  I   UNL d   1       0.209  -0.772  -0.175  0.00  0.00    -0.146 I 
ENDROOT
TORSDOF 0
ENDMDL
