MODEL 1
REMARK minimizedAffinity -3.21400261
REMARK minimizedRMSD -1
REMARK  0 active torsions:
REMARK  status: ('A' for Active; 'I' for Inactive)
ROOT
ATOM      1  C   UNL d   1      -1.290   1.340   1.991  0.00  0.00     0.023 A 
ATOM      2  C1  UNL d   1      -0.222   0.474   2.222  0.00  0.00     0.003 A 
ATOM      3  C2  UNL d   1       0.270  -0.323   1.186  0.00  0.00     0.048 A 
ATOM      4  C3  UNL d   1      -0.311  -0.248  -0.079  0.00  0.00     0.023 A 
ATOM      5  C4  UNL d   1      -1.380   0.619  -0.316  0.00  0.00     0.048 A 
ATOM      6  C5  UNL d   1      -1.869   1.413   0.724  0.00  0.00     0.003 A 
ATOM      7  I   UNL d   1       0.419  -1.432  -1.623  0.00  0.00    -0.146 I 
ENDROOT
TORSDOF 0
ENDMDL
