MODEL 1
REMARK minimizedAffinity -3.01865387
REMARK minimizedRMSD -1
REMARK  0 active torsions:
REMARK  status: ('A' for Active; 'I' for Inactive)
ROOT
ATOM      1  C   UNL d   1       0.595  -2.954  -2.911  0.00  0.00     0.023 A 
ATOM      2  C1  UNL d   1       1.407  -3.114  -1.787  0.00  0.00     0.003 A 
ATOM      3  C2  UNL d   1       1.201  -2.320  -0.658  0.00  0.00     0.048 A 
ATOM      4  C3  UNL d   1       0.182  -1.368  -0.657  0.00  0.00     0.023 A 
ATOM      5  C4  UNL d   1      -0.633  -1.205  -1.779  0.00  0.00     0.048 A 
ATOM      6  C5  UNL d   1      -0.423  -2.001  -2.907  0.00  0.00     0.003 A 
ATOM      7  I   UNL d   1      -0.126  -0.185   1.023  0.00  0.00    -0.146 I 
ENDROOT
TORSDOF 0
ENDMDL
