MODEL 1
REMARK minimizedAffinity -1.97630751
REMARK minimizedRMSD -1
REMARK  0 active torsions:
REMARK  status: ('A' for Active; 'I' for Inactive)
ROOT
ATOM      1  C   UNL d   1      -1.254   1.143   1.596  0.00  0.00     0.023 A 
ATOM      2  C1  UNL d   1      -1.028   1.545   0.279  0.00  0.00     0.003 A 
ATOM      3  C2  UNL d   1      -0.366   0.695  -0.608  0.00  0.00     0.048 A 
ATOM      4  C3  UNL d   1       0.068  -0.557  -0.173  0.00  0.00     0.023 A 
ATOM      5  C4  UNL d   1      -0.157  -0.964   1.143  0.00  0.00     0.048 A 
ATOM      6  C5  UNL d   1      -0.819  -0.110   2.027  0.00  0.00     0.003 A 
ATOM      7  I   UNL d   1       1.054  -1.825  -1.492  0.00  0.00    -0.146 I 
ENDROOT
TORSDOF 0
ENDMDL
