MODEL 1
REMARK minimizedAffinity -4.25019121
REMARK minimizedRMSD -1
REMARK  0 active torsions:
REMARK  status: ('A' for Active; 'I' for Inactive)
ROOT
ATOM      1  C   UNL d   1      -1.740   3.236   0.813  0.00  0.00     0.023 A 
ATOM      2  C1  UNL d   1      -1.922   1.962   1.351  0.00  0.00     0.003 A 
ATOM      3  C2  UNL d   1      -1.151   0.892   0.892  0.00  0.00     0.048 A 
ATOM      4  C3  UNL d   1      -0.198   1.104  -0.104  0.00  0.00     0.023 A 
ATOM      5  C4  UNL d   1      -0.012   2.377  -0.645  0.00  0.00     0.048 A 
ATOM      6  C5  UNL d   1      -0.786   3.443  -0.184  0.00  0.00     0.003 A 
ATOM      7  I   UNL d   1       0.951  -0.487  -0.788  0.00  0.00    -0.146 I 
ENDROOT
TORSDOF 0
ENDMDL
