MODEL 1
REMARK minimizedAffinity -4.47800636
REMARK minimizedRMSD -1
REMARK  0 active torsions:
REMARK  status: ('A' for Active; 'I' for Inactive)
ROOT
ATOM      1  C   UNL d   1      -1.584   2.964   0.705  0.00  0.00     0.023 A 
ATOM      2  C1  UNL d   1      -1.930   1.841   1.457  0.00  0.00     0.003 A 
ATOM      3  C2  UNL d   1      -1.369   0.598   1.155  0.00  0.00     0.048 A 
ATOM      4  C3  UNL d   1      -0.463   0.485   0.101  0.00  0.00     0.023 A 
ATOM      5  C4  UNL d   1      -0.114   1.606  -0.653  0.00  0.00     0.048 A 
ATOM      6  C5  UNL d   1      -0.678   2.847  -0.349  0.00  0.00     0.003 A 
ATOM      7  I   UNL d   1       0.372  -1.364  -0.349  0.00  0.00    -0.146 I 
ENDROOT
TORSDOF 0
ENDMDL
