MODEL 1
REMARK minimizedAffinity -5.01668978
REMARK minimizedRMSD -1
REMARK  0 active torsions:
REMARK  status: ('A' for Active; 'I' for Inactive)
ROOT
ATOM      1  C4' PXY d   1       3.892   0.461  -0.973  0.00  0.00     0.077 C 
ATOM      2  C1' PXY d   1      -0.885  -1.044   1.914  0.00  0.00     0.077 C 
ATOM      3  C1  PXY d   1       0.375  -0.655   1.166  0.00  0.00    -0.082 A 
ATOM      4  C2  PXY d   1       0.344   0.356   0.313  0.00  0.00     0.003 A 
ATOM      5  C3  PXY d   1       1.466   0.701  -0.395  0.00  0.00     0.003 A 
ATOM      6  C4  PXY d   1       2.647   0.039  -0.189  0.00  0.00    -0.082 A 
ATOM      7  C5  PXY d   1       2.689  -0.987   0.687  0.00  0.00     0.003 A 
ATOM      8  C6  PXY d   1       1.529  -1.348   1.366  0.00  0.00     0.003 A 
ENDROOT
TORSDOF 0
ENDMDL
