MODEL 1
REMARK minimizedAffinity -6.32538843
REMARK minimizedRMSD -1
REMARK  0 active torsions:
REMARK  status: ('A' for Active; 'I' for Inactive)
ROOT
ATOM      1  C4' PXY d   1      -0.782  -0.891   1.711  0.00  0.00     0.077 C 
ATOM      2  C1' PXY d   1       4.216  -0.064  -1.073  0.00  0.00     0.077 C 
ATOM      3  C1  PXY d   1       2.901  -0.269  -0.348  0.00  0.00    -0.082 A 
ATOM      4  C2  PXY d   1       2.856  -1.060   0.713  0.00  0.00     0.003 A 
ATOM      5  C3  PXY d   1       1.668  -1.282   1.362  0.00  0.00     0.003 A 
ATOM      6  C4  PXY d   1       0.526  -0.647   0.953  0.00  0.00    -0.082 A 
ATOM      7  C5  PXY d   1       0.567   0.169  -0.122  0.00  0.00     0.003 A 
ATOM      8  C6  PXY d   1       1.773   0.349  -0.791  0.00  0.00     0.003 A 
ENDROOT
TORSDOF 0
ENDMDL
