MODEL 1
REMARK minimizedAffinity -5.93162632
REMARK minimizedRMSD -1
REMARK  0 active torsions:
REMARK  status: ('A' for Active; 'I' for Inactive)
ROOT
ATOM      1  C4' PXY d   1      -0.049   2.501  -0.799  0.00  0.00     0.077 C 
ATOM      2  C1' PXY d   1       1.802  -2.469   1.500  0.00  0.00     0.077 C 
ATOM      3  C1  PXY d   1       1.304  -1.170   0.897  0.00  0.00    -0.082 A 
ATOM      4  C2  PXY d   1       2.146  -0.391   0.238  0.00  0.00     0.003 A 
ATOM      5  C3  PXY d   1       1.720   0.803  -0.286  0.00  0.00     0.003 A 
ATOM      6  C4  PXY d   1       0.407   1.176  -0.181  0.00  0.00    -0.082 A 
ATOM      7  C5  PXY d   1      -0.460   0.381   0.481  0.00  0.00     0.003 A 
ATOM      8  C6  PXY d   1       0.001  -0.806   1.041  0.00  0.00     0.003 A 
ENDROOT
TORSDOF 0
ENDMDL
