MODEL 1
REMARK minimizedAffinity -4.90746737
REMARK minimizedRMSD -1
REMARK  0 active torsions:
REMARK  status: ('A' for Active; 'I' for Inactive)
ROOT
ATOM      1  C4' PXY d   1       4.339  -0.345  -0.770  0.00  0.00     0.077 C 
ATOM      2  C1' PXY d   1      -0.986  -0.429   1.480  0.00  0.00     0.077 C 
ATOM      3  C1  PXY d   1       0.414  -0.417   0.897  0.00  0.00    -0.082 A 
ATOM      4  C2  PXY d   1       0.901   0.703   0.389  0.00  0.00     0.003 A 
ATOM      5  C3  PXY d   1       2.153   0.724  -0.170  0.00  0.00     0.003 A 
ATOM      6  C4  PXY d   1       2.934  -0.401  -0.162  0.00  0.00    -0.082 A 
ATOM      7  C5  PXY d   1       2.448  -1.545   0.364  0.00  0.00     0.003 A 
ATOM      8  C6  PXY d   1       1.159  -1.556   0.890  0.00  0.00     0.003 A 
ENDROOT
TORSDOF 0
ENDMDL
