MODEL 1
REMARK minimizedAffinity -3.04895115
REMARK minimizedRMSD -1
REMARK  0 active torsions:
REMARK  status: ('A' for Active; 'I' for Inactive)
ROOT
ATOM      1  C4' PXY d   1      -1.078   2.095  -1.773  0.00  0.00     0.077 C 
ATOM      2  C1' PXY d   1       2.042  -1.717   1.251  0.00  0.00     0.077 C 
ATOM      3  C1  PXY d   1       1.213  -0.724   0.461  0.00  0.00    -0.082 A 
ATOM      4  C2  PXY d   1       1.772  -0.044  -0.527  0.00  0.00     0.003 A 
ATOM      5  C3  PXY d   1       1.045   0.881  -1.230  0.00  0.00     0.003 A 
ATOM      6  C4  PXY d   1      -0.282   1.075  -0.955  0.00  0.00    -0.082 A 
ATOM      7  C5  PXY d   1      -0.862   0.378   0.045  0.00  0.00     0.003 A 
ATOM      8  C6  PXY d   1      -0.097  -0.527   0.774  0.00  0.00     0.003 A 
ENDROOT
TORSDOF 0
ENDMDL
