MODEL 1
REMARK minimizedAffinity -4.28145218
REMARK minimizedRMSD -1
REMARK  0 active torsions:
REMARK  status: ('A' for Active; 'I' for Inactive)
ROOT
ATOM      1  C4' PXY d   1       1.774  -1.739   0.615  0.00  0.00     0.077 C 
ATOM      2  C1' PXY d   1      -0.952   2.756  -1.789  0.00  0.00     0.077 C 
ATOM      3  C1  PXY d   1      -0.228   1.578  -1.167  0.00  0.00    -0.082 A 
ATOM      4  C2  PXY d   1      -0.903   0.708  -0.435  0.00  0.00     0.003 A 
ATOM      5  C3  PXY d   1      -0.258  -0.346   0.161  0.00  0.00     0.003 A 
ATOM      6  C4  PXY d   1       1.083  -0.539  -0.039  0.00  0.00    -0.082 A 
ATOM      7  C5  PXY d   1       1.777   0.339  -0.793  0.00  0.00     0.003 A 
ATOM      8  C6  PXY d   1       1.111   1.424  -1.355  0.00  0.00     0.003 A 
ENDROOT
TORSDOF 0
ENDMDL
