MODEL 1
REMARK minimizedAffinity -4.08293819
REMARK minimizedRMSD -1
REMARK  0 active torsions:
REMARK  status: ('A' for Active; 'I' for Inactive)
ROOT
ATOM      1  C4' PXY d   1       1.942  -2.279   1.499  0.00  0.00     0.077 C 
ATOM      2  C1' PXY d   1      -1.163   1.679  -1.348  0.00  0.00     0.077 C 
ATOM      3  C1  PXY d   1      -0.342   0.639  -0.612  0.00  0.00    -0.082 A 
ATOM      4  C2  PXY d   1      -0.848   0.039   0.453  0.00  0.00     0.003 A 
ATOM      5  C3  PXY d   1      -0.107  -0.880   1.150  0.00  0.00     0.003 A 
ATOM      6  C4  PXY d   1       1.145  -1.229   0.720  0.00  0.00    -0.082 A 
ATOM      7  C5  PXY d   1       1.665  -0.630  -0.373  0.00  0.00     0.003 A 
ATOM      8  C6  PXY d   1       0.912   0.331  -1.042  0.00  0.00     0.003 A 
ENDROOT
TORSDOF 0
ENDMDL
