MODEL 1
REMARK minimizedAffinity -2.47069693
REMARK minimizedRMSD -1
REMARK  0 active torsions:
REMARK  status: ('A' for Active; 'I' for Inactive)
ROOT
ATOM      1  C4' PXY d   1       1.416  -2.837   1.327  0.00  0.00     0.077 C 
ATOM      2  C1' PXY d   1      -0.985   2.001  -0.735  0.00  0.00     0.077 C 
ATOM      3  C1  PXY d   1      -0.365   0.732  -0.185  0.00  0.00    -0.082 A 
ATOM      4  C2  PXY d   1       0.906   0.462  -0.438  0.00  0.00     0.003 A 
ATOM      5  C3  PXY d   1       1.474  -0.697   0.025  0.00  0.00     0.003 A 
ATOM      6  C4  PXY d   1       0.750  -1.562   0.800  0.00  0.00    -0.082 A 
ATOM      7  C5  PXY d   1      -0.544  -1.289   1.071  0.00  0.00     0.003 A 
ATOM      8  C6  PXY d   1      -1.114  -0.128   0.557  0.00  0.00     0.003 A 
ENDROOT
TORSDOF 0
ENDMDL
