MODEL 1
REMARK minimizedAffinity -1.71704936
REMARK minimizedRMSD -1
REMARK  0 active torsions:
REMARK  status: ('A' for Active; 'I' for Inactive)
ROOT
ATOM      1  C4' PXY d   1       2.130  -1.953   1.119  0.00  0.00     0.077 C 
ATOM      2  C1' PXY d   1      -0.932   2.063  -1.693  0.00  0.00     0.077 C 
ATOM      3  C1  PXY d   1      -0.119   1.011  -0.964  0.00  0.00    -0.082 A 
ATOM      4  C2  PXY d   1      -0.737   0.097  -0.234  0.00  0.00     0.003 A 
ATOM      5  C3  PXY d   1      -0.016  -0.842   0.458  0.00  0.00     0.003 A 
ATOM      6  C4  PXY d   1       1.349  -0.878   0.358  0.00  0.00    -0.082 A 
ATOM      7  C5  PXY d   1       1.986   0.045  -0.394  0.00  0.00     0.003 A 
ATOM      8  C6  PXY d   1       1.238   1.014  -1.055  0.00  0.00     0.003 A 
ENDROOT
TORSDOF 0
ENDMDL
