MODEL 1
REMARK minimizedAffinity -3.3141911
REMARK minimizedRMSD -1
REMARK  0 active torsions:
REMARK  status: ('A' for Active; 'I' for Inactive)
ROOT
ATOM      1  C4' PXY d   1      -1.182   1.235  -1.736  0.00  0.00     0.077 C 
ATOM      2  C1' PXY d   1       2.057  -2.430   1.345  0.00  0.00     0.077 C 
ATOM      3  C1  PXY d   1       1.198  -1.478   0.537  0.00  0.00    -0.082 A 
ATOM      4  C2  PXY d   1       1.774  -0.539  -0.196  0.00  0.00     0.003 A 
ATOM      5  C3  PXY d   1       1.011   0.351  -0.907  0.00  0.00     0.003 A 
ATOM      6  C4  PXY d   1      -0.354   0.245  -0.911  0.00  0.00    -0.082 A 
ATOM      7  C5  PXY d   1      -0.949  -0.717  -0.175  0.00  0.00     0.003 A 
ATOM      8  C6  PXY d   1      -0.158  -1.585   0.573  0.00  0.00     0.003 A 
ENDROOT
TORSDOF 0
ENDMDL
