MODEL 1
REMARK minimizedAffinity -3.76723671
REMARK minimizedRMSD -1
REMARK  0 active torsions:
REMARK  status: ('A' for Active; 'I' for Inactive)
ROOT
ATOM      1  C4' PXY d   1       1.444  -2.913   1.163  0.00  0.00     0.077 C 
ATOM      2  C1' PXY d   1      -1.560   1.707  -0.584  0.00  0.00     0.077 C 
ATOM      3  C1  PXY d   1      -0.779   0.495  -0.114  0.00  0.00    -0.082 A 
ATOM      4  C2  PXY d   1       0.414   0.246  -0.630  0.00  0.00     0.003 A 
ATOM      5  C3  PXY d   1       1.120  -0.863  -0.240  0.00  0.00     0.003 A 
ATOM      6  C4  PXY d   1       0.624  -1.696   0.726  0.00  0.00    -0.082 A 
ATOM      7  C5  PXY d   1      -0.588  -1.442   1.265  0.00  0.00     0.003 A 
ATOM      8  C6  PXY d   1      -1.307  -0.334   0.826  0.00  0.00     0.003 A 
ENDROOT
TORSDOF 0
ENDMDL
