MODEL 1
REMARK minimizedAffinity -3.9363265
REMARK minimizedRMSD -1
REMARK  0 active torsions:
REMARK  status: ('A' for Active; 'I' for Inactive)
ROOT
ATOM      1  C4' PXY d   1      -0.256   2.023  -1.168  0.00  0.00     0.077 C 
ATOM      2  C1' PXY d   1       1.831  -2.943   0.929  0.00  0.00     0.077 C 
ATOM      3  C1  PXY d   1       1.273  -1.646   0.376  0.00  0.00    -0.082 A 
ATOM      4  C2  PXY d   1       2.101  -0.705  -0.047  0.00  0.00     0.003 A 
ATOM      5  C3  PXY d   1       1.613   0.486  -0.521  0.00  0.00     0.003 A 
ATOM      6  C4  PXY d   1       0.263   0.695  -0.610  0.00  0.00    -0.082 A 
ATOM      7  C5  PXY d   1      -0.589  -0.265  -0.190  0.00  0.00     0.003 A 
ATOM      8  C6  PXY d   1      -0.073  -1.450   0.325  0.00  0.00     0.003 A 
ENDROOT
TORSDOF 0
ENDMDL
