MODEL 1
REMARK minimizedAffinity -4.57482433
REMARK minimizedRMSD -1
REMARK  0 active torsions:
REMARK  status: ('A' for Active; 'I' for Inactive)
ROOT
ATOM      1  C4' PXY d   1       1.701  -2.959   0.835  0.00  0.00     0.077 C 
ATOM      2  C1' PXY d   1      -1.081   1.949  -0.422  0.00  0.00     0.077 C 
ATOM      3  C1  PXY d   1      -0.343   0.664  -0.102  0.00  0.00    -0.082 A 
ATOM      4  C2  PXY d   1      -0.978  -0.318   0.517  0.00  0.00     0.003 A 
ATOM      5  C3  PXY d   1      -0.317  -1.474   0.843  0.00  0.00     0.003 A 
ATOM      6  C4  PXY d   1       0.993  -1.648   0.483  0.00  0.00    -0.082 A 
ATOM      7  C5  PXY d   1       1.644  -0.655  -0.158  0.00  0.00     0.003 A 
ATOM      8  C6  PXY d   1       0.967   0.527  -0.443  0.00  0.00     0.003 A 
ENDROOT
TORSDOF 0
ENDMDL
