MODEL 1
REMARK minimizedAffinity -1.62172866
REMARK minimizedRMSD -1
REMARK  0 active torsions:
REMARK  status: ('A' for Active; 'I' for Inactive)
ROOT
ATOM      1  C4' PXY d   1      -2.764   1.423  -3.619  0.00  0.00     0.077 C 
ATOM      2  C1' PXY d   1       1.427   5.383  -4.036  0.00  0.00     0.077 C 
ATOM      3  C1  PXY d   1       0.335   4.337  -3.920  0.00  0.00    -0.082 A 
ATOM      4  C2  PXY d   1      -0.609   4.271  -4.844  0.00  0.00     0.003 A 
ATOM      5  C3  PXY d   1      -1.621   3.352  -4.737  0.00  0.00     0.003 A 
ATOM      6  C4  PXY d   1      -1.638   2.457  -3.701  0.00  0.00    -0.082 A 
ATOM      7  C5  PXY d   1      -0.672   2.511  -2.759  0.00  0.00     0.003 A 
ATOM      8  C6  PXY d   1       0.324   3.478  -2.864  0.00  0.00     0.003 A 
ENDROOT
TORSDOF 0
ENDMDL
