MODEL 1
REMARK minimizedAffinity -3.43184733
REMARK minimizedRMSD -1
REMARK  0 active torsions:
REMARK  status: ('A' for Active; 'I' for Inactive)
ROOT
ATOM      1  C4' PXY d   1       1.558  -3.006   1.172  0.00  0.00     0.077 C 
ATOM      2  C1' PXY d   1      -0.716   2.048  -0.468  0.00  0.00     0.077 C 
ATOM      3  C1  PXY d   1      -0.110   0.724  -0.047  0.00  0.00    -0.082 A 
ATOM      4  C2  PXY d   1      -0.875  -0.194   0.522  0.00  0.00     0.003 A 
ATOM      5  C3  PXY d   1      -0.336  -1.384   0.938  0.00  0.00     0.003 A 
ATOM      6  C4  PXY d   1       0.988  -1.659   0.722  0.00  0.00    -0.082 A 
ATOM      7  C5  PXY d   1       1.772  -0.732   0.133  0.00  0.00     0.003 A 
ATOM      8  C6  PXY d   1       1.215   0.487  -0.245  0.00  0.00     0.003 A 
ENDROOT
TORSDOF 0
ENDMDL
