MODEL 1
REMARK minimizedAffinity -1.8277142
REMARK minimizedRMSD -1
REMARK  0 active torsions:
REMARK  status: ('A' for Active; 'I' for Inactive)
ROOT
ATOM      1  C4' PXY d   1      -3.150   0.938  -2.816  0.00  0.00     0.077 C 
ATOM      2  C1' PXY d   1       0.373   5.493  -3.327  0.00  0.00     0.077 C 
ATOM      3  C1  PXY d   1      -0.541   4.291  -3.190  0.00  0.00    -0.082 A 
ATOM      4  C2  PXY d   1      -1.712   4.287  -3.805  0.00  0.00     0.003 A 
ATOM      5  C3  PXY d   1      -2.565   3.221  -3.666  0.00  0.00     0.003 A 
ATOM      6  C4  PXY d   1      -2.191   2.126  -2.933  0.00  0.00    -0.082 A 
ATOM      7  C5  PXY d   1      -0.993   2.119  -2.312  0.00  0.00     0.003 A 
ATOM      8  C6  PXY d   1      -0.160   3.227  -2.432  0.00  0.00     0.003 A 
ENDROOT
TORSDOF 0
ENDMDL
