MODEL 1
REMARK minimizedAffinity -3.22318149
REMARK minimizedRMSD -1
REMARK  0 active torsions:
REMARK  status: ('A' for Active; 'I' for Inactive)
ROOT
ATOM      1  C4' PXY d   1       3.562  -0.119  -0.506  0.00  0.00     0.077 C 
ATOM      2  C1' PXY d   1      -1.707   0.244   1.844  0.00  0.00     0.077 C 
ATOM      3  C1  PXY d   1      -0.321   0.141   1.237  0.00  0.00    -0.082 A 
ATOM      4  C2  PXY d   1       0.146   1.136   0.501  0.00  0.00     0.003 A 
ATOM      5  C3  PXY d   1       1.384   1.045  -0.082  0.00  0.00     0.003 A 
ATOM      6  C4  PXY d   1       2.173  -0.053   0.134  0.00  0.00    -0.082 A 
ATOM      7  C5  PXY d   1       1.707  -1.068   0.893  0.00  0.00     0.003 A 
ATOM      8  C6  PXY d   1       0.432  -0.974   1.442  0.00  0.00     0.003 A 
ENDROOT
TORSDOF 0
ENDMDL
