MODEL 1
REMARK minimizedAffinity -5.28130341
REMARK minimizedRMSD -1
REMARK  0 active torsions:
REMARK  status: ('A' for Active; 'I' for Inactive)
ROOT
ATOM      1  C4' PXY d   1       1.803  -3.078   0.853  0.00  0.00     0.077 C 
ATOM      2  C1' PXY d   1      -0.792   1.880  -0.596  0.00  0.00     0.077 C 
ATOM      3  C1  PXY d   1      -0.101   0.583  -0.223  0.00  0.00    -0.082 A 
ATOM      4  C2  PXY d   1      -0.824  -0.455   0.166  0.00  0.00     0.003 A 
ATOM      5  C3  PXY d   1      -0.214  -1.625   0.537  0.00  0.00     0.003 A 
ATOM      6  C4  PXY d   1       1.147  -1.752   0.459  0.00  0.00    -0.082 A 
ATOM      7  C5  PXY d   1       1.891  -0.701   0.052  0.00  0.00     0.003 A 
ATOM      8  C6  PXY d   1       1.255   0.491  -0.281  0.00  0.00     0.003 A 
ENDROOT
TORSDOF 0
ENDMDL
