MODEL 1
REMARK minimizedAffinity -0.0604885221
REMARK minimizedRMSD -1
REMARK  0 active torsions:
REMARK  status: ('A' for Active; 'I' for Inactive)
ROOT
ATOM      1  C4' PXY d   1       3.484   1.723  -0.261  0.00  0.00     0.077 C 
ATOM      2  C1' PXY d   1      -1.054  -1.734   0.671  0.00  0.00     0.077 C 
ATOM      3  C1  PXY d   1       0.143  -0.834   0.436  0.00  0.00    -0.082 A 
ATOM      4  C2  PXY d   1      -0.035   0.367  -0.091  0.00  0.00     0.003 A 
ATOM      5  C3  PXY d   1       1.039   1.181  -0.340  0.00  0.00     0.003 A 
ATOM      6  C4  PXY d   1       2.304   0.784   0.003  0.00  0.00    -0.082 A 
ATOM      7  C5  PXY d   1       2.493  -0.435   0.551  0.00  0.00     0.003 A 
ATOM      8  C6  PXY d   1       1.393  -1.263   0.758  0.00  0.00     0.003 A 
ENDROOT
TORSDOF 0
ENDMDL
