MODEL 1
REMARK minimizedAffinity -3.65512562
REMARK minimizedRMSD -1
REMARK  0 active torsions:
REMARK  status: ('A' for Active; 'I' for Inactive)
ROOT
ATOM      1  C4' PXY d   1      -0.746   1.953  -0.817  0.00  0.00     0.077 C 
ATOM      2  C1' PXY d   1       1.578  -2.978   1.106  0.00  0.00     0.077 C 
ATOM      3  C1  PXY d   1       0.980  -1.679   0.601  0.00  0.00    -0.082 A 
ATOM      4  C2  PXY d   1      -0.292  -1.407   0.844  0.00  0.00     0.003 A 
ATOM      5  C3  PXY d   1      -0.857  -0.252   0.367  0.00  0.00     0.003 A 
ATOM      6  C4  PXY d   1      -0.098   0.659  -0.319  0.00  0.00    -0.082 A 
ATOM      7  C5  PXY d   1       1.203   0.393  -0.561  0.00  0.00     0.003 A 
ATOM      8  C6  PXY d   1       1.747  -0.804  -0.104  0.00  0.00     0.003 A 
ENDROOT
TORSDOF 0
ENDMDL
