MODEL 1
REMARK minimizedAffinity 13.2353516
REMARK minimizedRMSD -1
REMARK  1 active torsions:
REMARK  status: ('A' for Active; 'I' for Inactive)
REMARK    1  A    between atoms: N_2  and  C1_3 
ROOT
ATOM      1  C1  UNL d   1      -0.964  -2.936   0.175  0.00  0.00     0.143 A 
ATOM      2  C2  UNL d   1      -1.043  -2.112  -0.954  0.00  0.00    -0.057 A 
ATOM      3  C3  UNL d   1      -1.883  -0.992  -0.979  0.00  0.00     0.033 A 
ATOM      4  C4  UNL d   1      -2.684  -0.692   0.118  0.00  0.00    -0.042 A 
ATOM      5  C5  UNL d   1      -2.641  -1.510   1.241  0.00  0.00     0.033 A 
ATOM      6  C6  UNL d   1      -1.795  -2.623   1.262  0.00  0.00    -0.057 A 
ENDROOT
BRANCH   1   7
ATOM      7  N   UNL d   1      -0.223  -4.118   0.224  0.00  0.00    -0.732 N 
ATOM      8  C   UNL d   1      -0.413  -5.150  -0.772  0.00  0.00     0.284 C 
ATOM      9  H3  UNL d   1       0.750  -3.957   0.475  0.00  0.00     0.395 HD
ENDBRANCH   1   7
TORSDOF 1
ENDMDL
