MODEL 1
REMARK minimizedAffinity 13.0408335
REMARK minimizedRMSD -1
REMARK  1 active torsions:
REMARK  status: ('A' for Active; 'I' for Inactive)
REMARK    1  A    between atoms: N_2  and  C1_3 
ROOT
ATOM      1  C1  UNL d   1      -3.937   5.007  -3.969  0.00  0.00     0.143 A 
ATOM      2  C2  UNL d   1      -3.988   3.892  -4.812  0.00  0.00    -0.057 A 
ATOM      3  C3  UNL d   1      -4.957   3.786  -5.818  0.00  0.00     0.033 A 
ATOM      4  C4  UNL d   1      -5.912   4.783  -5.980  0.00  0.00    -0.042 A 
ATOM      5  C5  UNL d   1      -5.896   5.889  -5.137  0.00  0.00     0.033 A 
ATOM      6  C6  UNL d   1      -4.922   5.993  -4.139  0.00  0.00    -0.057 A 
ENDROOT
BRANCH   1   7
ATOM      7  N   UNL d   1      -3.061   5.125  -2.888  0.00  0.00    -0.732 N 
ATOM      8  C   UNL d   1      -3.471   4.724  -1.560  0.00  0.00     0.284 C 
ATOM      9  H3  UNL d   1      -2.109   4.857  -3.128  0.00  0.00     0.395 HD
ENDBRANCH   1   7
TORSDOF 1
ENDMDL
