MODEL 1
REMARK minimizedAffinity 11.8766441
REMARK minimizedRMSD -1
REMARK  1 active torsions:
REMARK  status: ('A' for Active; 'I' for Inactive)
REMARK    1  A    between atoms: N_2  and  C1_3 
ROOT
ATOM      1  C1  UNL d   1      -3.917   3.912  -5.020  0.00  0.00     0.143 A 
ATOM      2  C2  UNL d   1      -4.965   3.889  -5.947  0.00  0.00    -0.057 A 
ATOM      3  C3  UNL d   1      -5.918   4.915  -5.990  0.00  0.00     0.033 A 
ATOM      4  C4  UNL d   1      -5.855   5.970  -5.086  0.00  0.00    -0.042 A 
ATOM      5  C5  UNL d   1      -4.837   6.000  -4.140  0.00  0.00     0.033 A 
ATOM      6  C6  UNL d   1      -3.885   4.976  -4.106  0.00  0.00    -0.057 A 
ENDROOT
BRANCH   1   7
ATOM      7  N   UNL d   1      -2.997   2.873  -4.862  0.00  0.00    -0.732 N 
ATOM      8  C   UNL d   1      -3.420   1.492  -4.956  0.00  0.00     0.284 C 
ATOM      9  H3  UNL d   1      -2.109   3.068  -5.320  0.00  0.00     0.395 HD
ENDBRANCH   1   7
TORSDOF 1
ENDMDL
