MODEL 1
REMARK minimizedAffinity 10.6440001
REMARK minimizedRMSD -1
REMARK  1 active torsions:
REMARK  status: ('A' for Active; 'I' for Inactive)
REMARK    1  A    between atoms: N_2  and  C1_3 
ROOT
ATOM      1  C1  UNL d   1      -0.595  -3.331  -0.115  0.00  0.00     0.143 A 
ATOM      2  C2  UNL d   1      -0.480  -2.524  -1.252  0.00  0.00    -0.057 A 
ATOM      3  C3  UNL d   1      -1.226  -1.346  -1.386  0.00  0.00     0.033 A 
ATOM      4  C4  UNL d   1      -2.125  -0.969  -0.394  0.00  0.00    -0.042 A 
ATOM      5  C5  UNL d   1      -2.274  -1.769   0.734  0.00  0.00     0.033 A 
ATOM      6  C6  UNL d   1      -1.522  -2.940   0.864  0.00  0.00    -0.057 A 
ENDROOT
BRANCH   1   7
ATOM      7  N   UNL d   1       0.046  -4.563   0.032  0.00  0.00    -0.732 N 
ATOM      8  C   UNL d   1      -0.276  -5.670  -0.842  0.00  0.00     0.284 C 
ATOM      9  H3  UNL d   1       1.039  -4.463   0.229  0.00  0.00     0.395 HD
ENDBRANCH   1   7
TORSDOF 1
ENDMDL
