MODEL 1
REMARK minimizedAffinity 12.6185465
REMARK minimizedRMSD -1
REMARK  1 active torsions:
REMARK  status: ('A' for Active; 'I' for Inactive)
REMARK    1  A    between atoms: N_2  and  C1_3 
ROOT
ATOM      1  C1  UNL d   1       2.622   1.865  -0.253  0.00  0.00     0.143 A 
ATOM      2  C2  UNL d   1       2.407   2.496  -1.483  0.00  0.00    -0.057 A 
ATOM      3  C3  UNL d   1       1.989   1.773  -2.607  0.00  0.00     0.033 A 
ATOM      4  C4  UNL d   1       1.805   0.397  -2.527  0.00  0.00    -0.042 A 
ATOM      5  C5  UNL d   1       2.037  -0.255  -1.321  0.00  0.00     0.033 A 
ATOM      6  C6  UNL d   1       2.448   0.473  -0.201  0.00  0.00    -0.057 A 
ENDROOT
BRANCH   1   7
ATOM      7  N   UNL d   1       3.133   2.513   0.874  0.00  0.00    -0.732 N 
ATOM      8  C   UNL d   1       3.940   1.792   1.836  0.00  0.00     0.284 C 
ATOM      9  H3  UNL d   1       3.472   3.448   0.664  0.00  0.00     0.395 HD
ENDBRANCH   1   7
TORSDOF 1
ENDMDL
