MODEL 1
REMARK minimizedAffinity 14.8591204
REMARK minimizedRMSD -1
REMARK  1 active torsions:
REMARK  status: ('A' for Active; 'I' for Inactive)
REMARK    1  A    between atoms: N_2  and  C1_3 
ROOT
ATOM      1  C1  UNL d   1       2.881   1.397  -0.963  0.00  0.00     0.143 A 
ATOM      2  C2  UNL d   1       1.814   0.567  -1.324  0.00  0.00    -0.057 A 
ATOM      3  C3  UNL d   1       1.940  -0.370  -2.357  0.00  0.00     0.033 A 
ATOM      4  C4  UNL d   1       3.131  -0.473  -3.068  0.00  0.00    -0.042 A 
ATOM      5  C5  UNL d   1       4.197   0.359  -2.743  0.00  0.00     0.033 A 
ATOM      6  C6  UNL d   1       4.066   1.288  -1.706  0.00  0.00    -0.057 A 
ENDROOT
BRANCH   1   7
ATOM      7  N   UNL d   1       2.786   2.416  -0.011  0.00  0.00    -0.732 N 
ATOM      8  C   UNL d   1       3.958   2.858   0.714  0.00  0.00     0.284 C 
ATOM      9  H3  UNL d   1       2.173   3.170  -0.310  0.00  0.00     0.395 HD
ENDBRANCH   1   7
TORSDOF 1
ENDMDL
