MODEL 1
REMARK minimizedAffinity 11.914155
REMARK minimizedRMSD -1
REMARK  1 active torsions:
REMARK  status: ('A' for Active; 'I' for Inactive)
REMARK    1  A    between atoms: N_2  and  C1_3 
ROOT
ATOM      1  C1  UNL d   1      -0.762  -2.535  -0.412  0.00  0.00     0.143 A 
ATOM      2  C2  UNL d   1      -0.527  -2.275  -1.767  0.00  0.00    -0.057 A 
ATOM      3  C3  UNL d   1      -1.365  -1.425  -2.499  0.00  0.00     0.033 A 
ATOM      4  C4  UNL d   1      -2.473  -0.840  -1.894  0.00  0.00    -0.042 A 
ATOM      5  C5  UNL d   1      -2.740  -1.105  -0.555  0.00  0.00     0.033 A 
ATOM      6  C6  UNL d   1      -1.896  -1.949   0.172  0.00  0.00    -0.057 A 
ENDROOT
BRANCH   1   7
ATOM      7  N   UNL d   1      -0.023  -3.449   0.344  0.00  0.00    -0.732 N 
ATOM      8  C   UNL d   1      -0.130  -4.870   0.093  0.00  0.00     0.284 C 
ATOM      9  H3  UNL d   1       0.926  -3.128   0.521  0.00  0.00     0.395 HD
ENDBRANCH   1   7
TORSDOF 1
ENDMDL
