MODEL 1
REMARK minimizedAffinity 11.2051764
REMARK minimizedRMSD -1
REMARK  1 active torsions:
REMARK  status: ('A' for Active; 'I' for Inactive)
REMARK    1  A    between atoms: N_2  and  C1_3 
ROOT
ATOM      1  C1  UNL d   1      -0.891  -2.500  -0.338  0.00  0.00     0.143 A 
ATOM      2  C2  UNL d   1      -0.557  -2.267  -1.677  0.00  0.00    -0.057 A 
ATOM      3  C3  UNL d   1      -1.266  -1.342  -2.452  0.00  0.00     0.033 A 
ATOM      4  C4  UNL d   1      -2.344  -0.651  -1.908  0.00  0.00    -0.042 A 
ATOM      5  C5  UNL d   1      -2.709  -0.884  -0.587  0.00  0.00     0.033 A 
ATOM      6  C6  UNL d   1      -1.993  -1.805   0.184  0.00  0.00    -0.057 A 
ENDROOT
BRANCH   1   7
ATOM      7  N   UNL d   1      -0.287  -3.478   0.455  0.00  0.00    -0.732 N 
ATOM      8  C   UNL d   1      -0.373  -4.877   0.093  0.00  0.00     0.284 C 
ATOM      9  H3  UNL d   1       0.628  -3.192   0.796  0.00  0.00     0.395 HD
ENDBRANCH   1   7
TORSDOF 1
ENDMDL
