MODEL 1
REMARK minimizedAffinity 15.8887005
REMARK minimizedRMSD -1
REMARK  1 active torsions:
REMARK  status: ('A' for Active; 'I' for Inactive)
REMARK    1  A    between atoms: N_2  and  C1_3 
ROOT
ATOM      1  C1  UNL d   1       5.006   4.801   0.544  0.00  0.00     0.143 A 
ATOM      2  C2  UNL d   1       5.959   4.512  -0.439  0.00  0.00    -0.057 A 
ATOM      3  C3  UNL d   1       6.000   3.259  -1.063  0.00  0.00     0.033 A 
ATOM      4  C4  UNL d   1       5.105   2.261  -0.693  0.00  0.00    -0.042 A 
ATOM      5  C5  UNL d   1       4.166   2.518   0.300  0.00  0.00     0.033 A 
ATOM      6  C6  UNL d   1       4.125   3.773   0.914  0.00  0.00    -0.057 A 
ENDROOT
BRANCH   1   7
ATOM      7  N   UNL d   1       4.977   5.994   1.271  0.00  0.00    -0.732 N 
ATOM      8  C   UNL d   1       5.260   6.000   2.690  0.00  0.00     0.284 C 
ATOM      9  H3  UNL d   1       5.392   6.770   0.761  0.00  0.00     0.395 HD
ENDBRANCH   1   7
TORSDOF 1
ENDMDL
