MODEL 1
REMARK minimizedAffinity 15.2531471
REMARK minimizedRMSD -1
REMARK  1 active torsions:
REMARK  status: ('A' for Active; 'I' for Inactive)
REMARK    1  A    between atoms: N_2  and  C1_3 
ROOT
ATOM      1  C1  UNL d   1       4.432   3.366   0.420  0.00  0.00     0.143 A 
ATOM      2  C2  UNL d   1       4.471   4.730   0.731  0.00  0.00    -0.057 A 
ATOM      3  C3  UNL d   1       5.234   5.626  -0.026  0.00  0.00     0.033 A 
ATOM      4  C4  UNL d   1       5.998   5.169  -1.094  0.00  0.00    -0.042 A 
ATOM      5  C5  UNL d   1       5.995   3.814  -1.407  0.00  0.00     0.033 A 
ATOM      6  C6  UNL d   1       5.226   2.925  -0.650  0.00  0.00    -0.057 A 
ENDROOT
BRANCH   1   7
ATOM      7  N   UNL d   1       3.771   2.410   1.194  0.00  0.00    -0.732 N 
ATOM      8  C   UNL d   1       4.357   1.926   2.426  0.00  0.00     0.284 C 
ATOM      9  H3  UNL d   1       2.769   2.579   1.249  0.00  0.00     0.395 HD
ENDBRANCH   1   7
TORSDOF 1
ENDMDL
