MODEL 1
REMARK minimizedAffinity 5.96125507
REMARK minimizedRMSD -1
REMARK  1 active torsions:
REMARK  status: ('A' for Active; 'I' for Inactive)
REMARK    1  A    between atoms: N_2  and  C1_3 
ROOT
ATOM      1  C1  UNL d   1      -4.138   3.566  -5.216  0.00  0.00     0.143 A 
ATOM      2  C2  UNL d   1      -5.290   3.730  -5.993  0.00  0.00    -0.057 A 
ATOM      3  C3  UNL d   1      -5.996   4.939  -5.999  0.00  0.00     0.033 A 
ATOM      4  C4  UNL d   1      -5.576   6.000  -5.204  0.00  0.00    -0.042 A 
ATOM      5  C5  UNL d   1      -4.448   5.851  -4.405  0.00  0.00     0.033 A 
ATOM      6  C6  UNL d   1      -3.744   4.643  -4.408  0.00  0.00    -0.057 A 
ENDROOT
BRANCH   1   7
ATOM      7  N   UNL d   1      -3.450   2.356  -5.092  0.00  0.00    -0.732 N 
ATOM      8  C   UNL d   1      -2.133   2.316  -4.492  0.00  0.00     0.284 C 
ATOM      9  H3  UNL d   1      -4.058   1.590  -4.811  0.00  0.00     0.395 HD
ENDBRANCH   1   7
TORSDOF 1
ENDMDL
