MODEL 1
REMARK minimizedAffinity 11.1698589
REMARK minimizedRMSD -1
REMARK  1 active torsions:
REMARK  status: ('A' for Active; 'I' for Inactive)
REMARK    1  A    between atoms: N_2  and  C1_3 
ROOT
ATOM      1  C1  UNL d   1      -4.075   3.583  -5.140  0.00  0.00     0.143 A 
ATOM      2  C2  UNL d   1      -3.714   4.627  -4.280  0.00  0.00    -0.057 A 
ATOM      3  C3  UNL d   1      -4.451   5.816  -4.233  0.00  0.00     0.033 A 
ATOM      4  C4  UNL d   1      -5.548   5.995  -5.068  0.00  0.00    -0.042 A 
ATOM      5  C5  UNL d   1      -5.911   4.982  -5.949  0.00  0.00     0.033 A 
ATOM      6  C6  UNL d   1      -5.175   3.793  -5.986  0.00  0.00    -0.057 A 
ENDROOT
BRANCH   1   7
ATOM      7  N   UNL d   1      -3.325   2.416  -5.304  0.00  0.00    -0.732 N 
ATOM      8  C   UNL d   1      -2.463   1.938  -4.244  0.00  0.00     0.284 C 
ATOM      9  H3  UNL d   1      -3.847   1.682  -5.778  0.00  0.00     0.395 HD
ENDBRANCH   1   7
TORSDOF 1
ENDMDL
