MODEL 1
REMARK minimizedAffinity 0.333613187
REMARK minimizedRMSD -1
REMARK  1 active torsions:
REMARK  status: ('A' for Active; 'I' for Inactive)
REMARK    1  A    between atoms: N_2  and  C1_3 
ROOT
ATOM      1  C1  UNL d   1      -4.069   3.664  -5.128  0.00  0.00     0.143 A 
ATOM      2  C2  UNL d   1      -3.786   4.766  -4.315  0.00  0.00    -0.057 A 
ATOM      3  C3  UNL d   1      -4.606   5.901  -4.317  0.00  0.00     0.033 A 
ATOM      4  C4  UNL d   1      -5.712   5.965  -5.158  0.00  0.00    -0.042 A 
ATOM      5  C5  UNL d   1      -5.999   4.891  -5.994  0.00  0.00     0.033 A 
ATOM      6  C6  UNL d   1      -5.180   3.758  -5.982  0.00  0.00    -0.057 A 
ENDROOT
BRANCH   1   7
ATOM      7  N   UNL d   1      -3.238   2.547  -5.243  0.00  0.00    -0.732 N 
ATOM      8  C   UNL d   1      -1.842   2.627  -4.871  0.00  0.00     0.284 C 
ATOM      9  H3  UNL d   1      -3.698   1.688  -4.950  0.00  0.00     0.395 HD
ENDBRANCH   1   7
TORSDOF 1
ENDMDL
