MODEL 1
REMARK minimizedAffinity 8.94458389
REMARK minimizedRMSD -1
REMARK  1 active torsions:
REMARK  status: ('A' for Active; 'I' for Inactive)
REMARK    1  A    between atoms: N_2  and  C1_3 
ROOT
ATOM      1  C1  UNL d   1      -4.417   5.300  -0.702  0.00  0.00     0.143 A 
ATOM      2  C2  UNL d   1      -4.070   4.006  -0.298  0.00  0.00    -0.057 A 
ATOM      3  C3  UNL d   1      -4.691   3.397   0.799  0.00  0.00     0.033 A 
ATOM      4  C4  UNL d   1      -5.653   4.085   1.531  0.00  0.00    -0.042 A 
ATOM      5  C5  UNL d   1      -5.996   5.381   1.163  0.00  0.00     0.033 A 
ATOM      6  C6  UNL d   1      -5.376   5.981   0.063  0.00  0.00    -0.057 A 
ENDROOT
BRANCH   1   7
ATOM      7  N   UNL d   1      -3.766   5.996  -1.723  0.00  0.00    -0.732 N 
ATOM      8  C   UNL d   1      -4.132   5.787  -3.108  0.00  0.00     0.284 C 
ATOM      9  H3  UNL d   1      -3.594   6.969  -1.481  0.00  0.00     0.395 HD
ENDBRANCH   1   7
TORSDOF 1
ENDMDL
