MODEL 1
REMARK minimizedAffinity 4.78655195
REMARK minimizedRMSD -1
REMARK  0 active torsions:
REMARK  status: ('A' for Active; 'I' for Inactive)
ROOT
ATOM      1  C4' PXY d   1      -0.437   1.843   2.949  0.00  0.00     0.077 C 
ATOM      2  C1' PXY d   1       0.886  -2.605  -0.497  0.00  0.00     0.077 C 
ATOM      3  C1  PXY d   1       0.527  -1.442   0.407  0.00  0.00    -0.082 A 
ATOM      4  C2  PXY d   1       1.280  -0.355   0.404  0.00  0.00     0.003 A 
ATOM      5  C3  PXY d   1       0.988   0.693   1.239  0.00  0.00     0.003 A 
ATOM      6  C4  PXY d   1      -0.117   0.649   2.046  0.00  0.00    -0.082 A 
ATOM      7  C5  PXY d   1      -0.897  -0.453   2.047  0.00  0.00     0.003 A 
ATOM      8  C6  PXY d   1      -0.560  -1.523   1.222  0.00  0.00     0.003 A 
ENDROOT
TORSDOF 0
ENDMDL
