MODEL 1
REMARK minimizedAffinity -1.1087656
REMARK minimizedRMSD -1
REMARK  0 active torsions:
REMARK  status: ('A' for Active; 'I' for Inactive)
ROOT
ATOM      1  C4' PXY d   1       0.715  -2.211  -1.143  0.00  0.00     0.077 C 
ATOM      2  C1' PXY d   1      -0.534   3.058   0.877  0.00  0.00     0.077 C 
ATOM      3  C1  PXY d   1      -0.214   1.679   0.337  0.00  0.00    -0.082 A 
ATOM      4  C2  PXY d   1       0.105   0.706   1.175  0.00  0.00     0.003 A 
ATOM      5  C3  PXY d   1       0.429  -0.539   0.700  0.00  0.00     0.003 A 
ATOM      6  C4  PXY d   1       0.375  -0.805  -0.642  0.00  0.00    -0.082 A 
ATOM      7  C5  PXY d   1       0.040   0.179  -1.502  0.00  0.00     0.003 A 
ATOM      8  C6  PXY d   1      -0.245   1.447  -1.004  0.00  0.00     0.003 A 
ENDROOT
TORSDOF 0
ENDMDL
