MODEL 1
REMARK minimizedAffinity -3.59253097
REMARK minimizedRMSD -1
REMARK  0 active torsions:
REMARK  status: ('A' for Active; 'I' for Inactive)
ROOT
ATOM      1  C4' PXY d   1      -0.682  -3.368  -1.009  0.00  0.00     0.077 C 
ATOM      2  C1' PXY d   1       0.449   1.654   1.621  0.00  0.00     0.077 C 
ATOM      3  C1  PXY d   1       0.158   0.342   0.920  0.00  0.00    -0.082 A 
ATOM      4  C2  PXY d   1      -0.846  -0.413   1.336  0.00  0.00     0.003 A 
ATOM      5  C3  PXY d   1      -1.103  -1.618   0.734  0.00  0.00     0.003 A 
ATOM      6  C4  PXY d   1      -0.357  -2.030  -0.338  0.00  0.00    -0.082 A 
ATOM      7  C5  PXY d   1       0.662  -1.261  -0.774  0.00  0.00     0.003 A 
ATOM      8  C6  PXY d   1       0.933  -0.061  -0.124  0.00  0.00     0.003 A 
ENDROOT
TORSDOF 0
ENDMDL
