MODEL 1
REMARK minimizedAffinity -1.50846601
REMARK minimizedRMSD -1
REMARK  0 active torsions:
REMARK  status: ('A' for Active; 'I' for Inactive)
ROOT
ATOM      1  C4' PXY d   1       0.449  -1.869  -0.395  0.00  0.00     0.077 C 
ATOM      2  C1' PXY d   1       0.252   3.906  -0.535  0.00  0.00     0.077 C 
ATOM      3  C1  PXY d   1       0.310   2.392  -0.487  0.00  0.00    -0.082 A 
ATOM      4  C2  PXY d   1       0.249   1.699  -1.612  0.00  0.00     0.003 A 
ATOM      5  C3  PXY d   1       0.268   0.328  -1.585  0.00  0.00     0.003 A 
ATOM      6  C4  PXY d   1       0.404  -0.339  -0.397  0.00  0.00    -0.082 A 
ATOM      7  C5  PXY d   1       0.476   0.362   0.755  0.00  0.00     0.003 A 
ATOM      8  C6  PXY d   1       0.414   1.751   0.709  0.00  0.00     0.003 A 
ENDROOT
TORSDOF 0
ENDMDL
