MODEL 1
REMARK minimizedAffinity -3.1931107
REMARK minimizedRMSD -1
REMARK  0 active torsions:
REMARK  status: ('A' for Active; 'I' for Inactive)
ROOT
ATOM      1  C4' PXY d   1      -0.193  -4.413  -0.623  0.00  0.00     0.077 C 
ATOM      2  C1' PXY d   1      -0.362   1.182  -2.065  0.00  0.00     0.077 C 
ATOM      3  C1  PXY d   1      -0.330  -0.286  -1.690  0.00  0.00    -0.082 A 
ATOM      4  C2  PXY d   1       0.570  -0.721  -0.824  0.00  0.00     0.003 A 
ATOM      5  C3  PXY d   1       0.634  -2.051  -0.498  0.00  0.00     0.003 A 
ATOM      6  C4  PXY d   1      -0.268  -2.937  -1.024  0.00  0.00    -0.082 A 
ATOM      7  C5  PXY d   1      -1.197  -2.500  -1.900  0.00  0.00     0.003 A 
ATOM      8  C6  PXY d   1      -1.218  -1.152  -2.250  0.00  0.00     0.003 A 
ENDROOT
TORSDOF 0
ENDMDL
