MODEL 1
REMARK minimizedAffinity -2.35970545
REMARK minimizedRMSD -1
REMARK  0 active torsions:
REMARK  status: ('A' for Active; 'I' for Inactive)
ROOT
ATOM      1  C4' PXY d   1       0.898  -2.140  -1.375  0.00  0.00     0.077 C 
ATOM      2  C1' PXY d   1      -0.603   2.345   1.949  0.00  0.00     0.077 C 
ATOM      3  C1  PXY d   1      -0.218   1.172   1.069  0.00  0.00    -0.082 A 
ATOM      4  C2  PXY d   1       0.367   0.114   1.607  0.00  0.00     0.003 A 
ATOM      5  C3  PXY d   1       0.750  -0.941   0.820  0.00  0.00     0.003 A 
ATOM      6  C4  PXY d   1       0.484  -0.937  -0.523  0.00  0.00    -0.082 A 
ATOM      7  C5  PXY d   1      -0.122   0.134  -1.078  0.00  0.00     0.003 A 
ATOM      8  C6  PXY d   1      -0.466   1.213  -0.269  0.00  0.00     0.003 A 
ENDROOT
TORSDOF 0
ENDMDL
