MODEL 1
REMARK minimizedAffinity -0.245829776
REMARK minimizedRMSD -1
REMARK  0 active torsions:
REMARK  status: ('A' for Active; 'I' for Inactive)
ROOT
ATOM      1  C4' PXY d   1      -0.146   3.530   0.545  0.00  0.00     0.077 C 
ATOM      2  C1' PXY d   1       0.174  -2.146  -0.506  0.00  0.00     0.077 C 
ATOM      3  C1  PXY d   1       0.086  -0.660  -0.218  0.00  0.00    -0.082 A 
ATOM      4  C2  PXY d   1      -0.079   0.191  -1.218  0.00  0.00     0.003 A 
ATOM      5  C3  PXY d   1      -0.129   1.541  -0.978  0.00  0.00     0.003 A 
ATOM      6  C4  PXY d   1      -0.062   2.020   0.302  0.00  0.00    -0.082 A 
ATOM      7  C5  PXY d   1       0.096   1.157   1.328  0.00  0.00     0.003 A 
ATOM      8  C6  PXY d   1       0.185  -0.206   1.061  0.00  0.00     0.003 A 
ENDROOT
TORSDOF 0
ENDMDL
