MODEL 1
REMARK minimizedAffinity -2.1332469
REMARK minimizedRMSD -1
REMARK  0 active torsions:
REMARK  status: ('A' for Active; 'I' for Inactive)
ROOT
ATOM      1  C4' PXY d   1      -0.987   3.761   0.738  0.00  0.00     0.077 C 
ATOM      2  C1' PXY d   1       0.681  -1.378  -1.316  0.00  0.00     0.077 C 
ATOM      3  C1  PXY d   1       0.245  -0.025  -0.789  0.00  0.00    -0.082 A 
ATOM      4  C2  PXY d   1       0.445   0.277   0.483  0.00  0.00     0.003 A 
ATOM      5  C3  PXY d   1       0.027   1.484   0.983  0.00  0.00     0.003 A 
ATOM      6  C4  PXY d   1      -0.554   2.411   0.160  0.00  0.00    -0.082 A 
ATOM      7  C5  PXY d   1      -0.752   2.114  -1.141  0.00  0.00     0.003 A 
ATOM      8  C6  PXY d   1      -0.358   0.868  -1.620  0.00  0.00     0.003 A 
ENDROOT
TORSDOF 0
ENDMDL
