MODEL 1
REMARK minimizedAffinity -4.24978828
REMARK minimizedRMSD -1
REMARK  0 active torsions:
REMARK  status: ('A' for Active; 'I' for Inactive)
ROOT
ATOM      1  C4' PXY d   1       0.804  -1.040  -0.951  0.00  0.00     0.077 C 
ATOM      2  C1' PXY d   1      -1.734   3.603   1.376  0.00  0.00     0.077 C 
ATOM      3  C1  PXY d   1      -1.064   2.382   0.778  0.00  0.00    -0.082 A 
ATOM      4  C2  PXY d   1      -0.681   2.400  -0.489  0.00  0.00     0.003 A 
ATOM      5  C3  PXY d   1      -0.103   1.293  -1.055  0.00  0.00     0.003 A 
ATOM      6  C4  PXY d   1       0.133   0.174  -0.302  0.00  0.00    -0.082 A 
ATOM      7  C5  PXY d   1      -0.245   0.151   0.993  0.00  0.00     0.003 A 
ATOM      8  C6  PXY d   1      -0.867   1.271   1.538  0.00  0.00     0.003 A 
ENDROOT
TORSDOF 0
ENDMDL
