MODEL 1
REMARK minimizedAffinity -2.8081038
REMARK minimizedRMSD -1
REMARK  0 active torsions:
REMARK  status: ('A' for Active; 'I' for Inactive)
ROOT
ATOM      1  C4' PXY d   1      -0.120  -1.631  -1.059  0.00  0.00     0.077 C 
ATOM      2  C1' PXY d   1      -0.790   3.429   1.653  0.00  0.00     0.077 C 
ATOM      3  C1  PXY d   1      -0.618   2.107   0.931  0.00  0.00    -0.082 A 
ATOM      4  C2  PXY d   1      -0.633   0.978   1.620  0.00  0.00     0.003 A 
ATOM      5  C3  PXY d   1      -0.447  -0.224   0.987  0.00  0.00     0.003 A 
ATOM      6  C4  PXY d   1      -0.298  -0.274  -0.373  0.00  0.00    -0.082 A 
ATOM      7  C5  PXY d   1      -0.293   0.872  -1.085  0.00  0.00     0.003 A 
ATOM      8  C6  PXY d   1      -0.442   2.085  -0.418  0.00  0.00     0.003 A 
ENDROOT
TORSDOF 0
ENDMDL
