MODEL 1
REMARK minimizedAffinity 7.99540377
REMARK minimizedRMSD -1
REMARK  0 active torsions:
REMARK  status: ('A' for Active; 'I' for Inactive)
ROOT
ATOM      1  C   UNL d   1       5.354   0.819  -5.942  0.00  0.00     0.023 A 
ATOM      2  C1  UNL d   1       4.042   1.142  -5.595  0.00  0.00     0.003 A 
ATOM      3  C2  UNL d   1       3.373   0.397  -4.622  0.00  0.00     0.048 A 
ATOM      4  C3  UNL d   1       4.022  -0.668  -3.999  0.00  0.00     0.023 A 
ATOM      5  C4  UNL d   1       5.335  -0.994  -4.342  0.00  0.00     0.048 A 
ATOM      6  C5  UNL d   1       6.000  -0.247  -5.316  0.00  0.00     0.003 A 
ATOM      7  I   UNL d   1       3.028  -1.778  -2.549  0.00  0.00    -0.146 I 
ENDROOT
TORSDOF 0
ENDMDL
