MODEL 1
REMARK minimizedAffinity 7.40205145
REMARK minimizedRMSD -1
REMARK  0 active torsions:
REMARK  status: ('A' for Active; 'I' for Inactive)
ROOT
ATOM      1  C   UNL d   1       4.214   5.440  -1.388  0.00  0.00     0.023 A 
ATOM      2  C1  UNL d   1       5.493   5.945  -1.621  0.00  0.00     0.003 A 
ATOM      3  C2  UNL d   1       5.999   5.998  -2.921  0.00  0.00     0.048 A 
ATOM      4  C3  UNL d   1       5.219   5.546  -3.985  0.00  0.00     0.023 A 
ATOM      5  C4  UNL d   1       3.938   5.041  -3.758  0.00  0.00     0.048 A 
ATOM      6  C5  UNL d   1       3.437   4.989  -2.455  0.00  0.00     0.003 A 
ATOM      7  I   UNL d   1       5.969   5.624  -5.922  0.00  0.00    -0.146 I 
ENDROOT
TORSDOF 0
ENDMDL
