MODEL 1
REMARK minimizedAffinity 5.92787933
REMARK minimizedRMSD -1
REMARK  0 active torsions:
REMARK  status: ('A' for Active; 'I' for Inactive)
ROOT
ATOM      1  C   UNL d   1       5.849   5.765  -4.465  0.00  0.00     0.023 A 
ATOM      2  C1  UNL d   1       6.000   6.000  -3.099  0.00  0.00     0.003 A 
ATOM      3  C2  UNL d   1       4.963   5.691  -2.217  0.00  0.00     0.048 A 
ATOM      4  C3  UNL d   1       3.777   5.145  -2.708  0.00  0.00     0.023 A 
ATOM      5  C4  UNL d   1       3.621   4.907  -4.074  0.00  0.00     0.048 A 
ATOM      6  C5  UNL d   1       4.661   5.219  -4.952  0.00  0.00     0.003 A 
ATOM      7  I   UNL d   1       2.232   4.684  -1.397  0.00  0.00    -0.146 I 
ENDROOT
TORSDOF 0
ENDMDL
