MODEL 1
REMARK minimizedAffinity 7.31947422
REMARK minimizedRMSD -1
REMARK  0 active torsions:
REMARK  status: ('A' for Active; 'I' for Inactive)
ROOT
ATOM      1  C   UNL d   1       4.183   0.891  -4.374  0.00  0.00     0.023 A 
ATOM      2  C1  UNL d   1       3.927  -0.292  -3.679  0.00  0.00     0.003 A 
ATOM      3  C2  UNL d   1       4.447  -1.502  -4.143  0.00  0.00     0.048 A 
ATOM      4  C3  UNL d   1       5.223  -1.522  -5.302  0.00  0.00     0.023 A 
ATOM      5  C4  UNL d   1       5.482  -0.341  -5.999  0.00  0.00     0.048 A 
ATOM      6  C5  UNL d   1       4.960   0.866  -5.532  0.00  0.00     0.003 A 
ATOM      7  I   UNL d   1       5.998  -3.322  -5.994  0.00  0.00    -0.146 I 
ENDROOT
TORSDOF 0
ENDMDL
