MODEL 1
REMARK minimizedAffinity 6.35076666
REMARK minimizedRMSD -1
REMARK  0 active torsions:
REMARK  status: ('A' for Active; 'I' for Inactive)
ROOT
ATOM      1  C   UNL d   1       1.765  -2.445   0.986  0.00  0.00     0.023 A 
ATOM      2  C1  UNL d   1       2.003  -1.110   0.661  0.00  0.00     0.003 A 
ATOM      3  C2  UNL d   1       0.934  -0.258   0.375  0.00  0.00     0.048 A 
ATOM      4  C3  UNL d   1      -0.371  -0.749   0.416  0.00  0.00     0.023 A 
ATOM      5  C4  UNL d   1      -0.614  -2.084   0.742  0.00  0.00     0.048 A 
ATOM      6  C5  UNL d   1       0.458  -2.932   1.026  0.00  0.00     0.003 A 
ATOM      7  I   UNL d   1      -1.964   0.517  -0.009  0.00  0.00    -0.146 I 
ENDROOT
TORSDOF 0
ENDMDL
