MODEL 1
REMARK minimizedAffinity 3.34382439
REMARK minimizedRMSD -1
REMARK  0 active torsions:
REMARK  status: ('A' for Active; 'I' for Inactive)
ROOT
ATOM      1  C   UNL d   1      -5.635  -3.578  -6.000  0.00  0.00     0.023 A 
ATOM      2  C1  UNL d   1      -5.263  -4.897  -5.739  0.00  0.00     0.003 A 
ATOM      3  C2  UNL d   1      -4.877  -5.274  -4.451  0.00  0.00     0.048 A 
ATOM      4  C3  UNL d   1      -4.867  -4.326  -3.428  0.00  0.00     0.023 A 
ATOM      5  C4  UNL d   1      -5.240  -3.006  -3.684  0.00  0.00     0.048 A 
ATOM      6  C5  UNL d   1      -5.624  -2.634  -4.974  0.00  0.00     0.003 A 
ATOM      7  I   UNL d   1      -4.293  -4.884  -1.510  0.00  0.00    -0.146 I 
ENDROOT
TORSDOF 0
ENDMDL
