MODEL 1
REMARK minimizedAffinity 6.07151842
REMARK minimizedRMSD -1
REMARK  0 active torsions:
REMARK  status: ('A' for Active; 'I' for Inactive)
ROOT
ATOM      1  C   UNL d   1       2.824  -1.133   1.749  0.00  0.00     0.023 A 
ATOM      2  C1  UNL d   1       3.814  -0.744   0.846  0.00  0.00     0.003 A 
ATOM      3  C2  UNL d   1       3.860   0.573   0.384  0.00  0.00     0.048 A 
ATOM      4  C3  UNL d   1       2.914   1.495   0.828  0.00  0.00     0.023 A 
ATOM      5  C4  UNL d   1       1.922   1.111   1.731  0.00  0.00     0.048 A 
ATOM      6  C5  UNL d   1       1.879  -0.207   2.191  0.00  0.00     0.003 A 
ATOM      7  I   UNL d   1       2.981   3.456   0.141  0.00  0.00    -0.146 I 
ENDROOT
TORSDOF 0
ENDMDL
