MODEL 1
REMARK minimizedAffinity 3.81109738
REMARK minimizedRMSD -1
REMARK  0 active torsions:
REMARK  status: ('A' for Active; 'I' for Inactive)
ROOT
ATOM      1  C   UNL d   1       1.216  -0.294   4.854  0.00  0.00     0.023 A 
ATOM      2  C1  UNL d   1       1.558  -1.638   5.005  0.00  0.00     0.003 A 
ATOM      3  C2  UNL d   1       2.178  -2.324   3.959  0.00  0.00     0.048 A 
ATOM      4  C3  UNL d   1       2.454  -1.660   2.765  0.00  0.00     0.023 A 
ATOM      5  C4  UNL d   1       2.114  -0.315   2.609  0.00  0.00     0.048 A 
ATOM      6  C5  UNL d   1       1.493   0.366   3.657  0.00  0.00     0.003 A 
ATOM      7  I   UNL d   1       3.377  -2.679   1.206  0.00  0.00    -0.146 I 
ENDROOT
TORSDOF 0
ENDMDL
