MODEL 1
REMARK minimizedAffinity -0.347593099
REMARK minimizedRMSD -1
REMARK  0 active torsions:
REMARK  status: ('A' for Active; 'I' for Inactive)
ROOT
ATOM      1  C   UNL d   1       1.845   0.295   2.516  0.00  0.00     0.023 A 
ATOM      2  C1  UNL d   1       1.297   0.691   3.736  0.00  0.00     0.003 A 
ATOM      3  C2  UNL d   1       1.062  -0.254   4.737  0.00  0.00     0.048 A 
ATOM      4  C3  UNL d   1       1.380  -1.593   4.512  0.00  0.00     0.023 A 
ATOM      5  C4  UNL d   1       1.930  -1.993   3.293  0.00  0.00     0.048 A 
ATOM      6  C5  UNL d   1       2.161  -1.045   2.295  0.00  0.00     0.003 A 
ATOM      7  I   UNL d   1       1.032  -3.001   6.000  0.00  0.00    -0.146 I 
ENDROOT
TORSDOF 0
ENDMDL
