MODEL 1
REMARK minimizedAffinity 0.873044968
REMARK minimizedRMSD -1
REMARK  0 active torsions:
REMARK  status: ('A' for Active; 'I' for Inactive)
ROOT
ATOM      1  C   UNL d   1      -5.193  -4.327  -5.986  0.00  0.00     0.023 A 
ATOM      2  C1  UNL d   1      -5.767  -5.558  -5.668  0.00  0.00     0.003 A 
ATOM      3  C2  UNL d   1      -5.998  -5.898  -4.334  0.00  0.00     0.048 A 
ATOM      4  C3  UNL d   1      -5.653  -5.002  -3.322  0.00  0.00     0.023 A 
ATOM      5  C4  UNL d   1      -5.079  -3.769  -3.636  0.00  0.00     0.048 A 
ATOM      6  C5  UNL d   1      -4.849  -3.434  -4.971  0.00  0.00     0.003 A 
ATOM      7  I   UNL d   1      -5.997  -5.505  -1.335  0.00  0.00    -0.146 I 
ENDROOT
TORSDOF 0
ENDMDL
