MODEL 1
REMARK minimizedAffinity -1.11956954
REMARK minimizedRMSD -1
REMARK  0 active torsions:
REMARK  status: ('A' for Active; 'I' for Inactive)
ROOT
ATOM      1  C   UNL d   1       1.950   1.957   1.889  0.00  0.00     0.023 A 
ATOM      2  C1  UNL d   1       2.671   0.763   1.934  0.00  0.00     0.003 A 
ATOM      3  C2  UNL d   1       2.020  -0.455   1.729  0.00  0.00     0.048 A 
ATOM      4  C3  UNL d   1       0.648  -0.472   1.478  0.00  0.00     0.023 A 
ATOM      5  C4  UNL d   1      -0.077   0.719   1.431  0.00  0.00     0.048 A 
ATOM      6  C5  UNL d   1       0.578   1.935   1.637  0.00  0.00     0.003 A 
ATOM      7  I   UNL d   1      -0.322  -2.285   1.172  0.00  0.00    -0.146 I 
ENDROOT
TORSDOF 0
ENDMDL
