MODEL 1
REMARK minimizedAffinity -1.66021061
REMARK minimizedRMSD -1
REMARK  0 active torsions:
REMARK  status: ('A' for Active; 'I' for Inactive)
ROOT
ATOM      1  O1  BZF d   1       2.197  -2.999   0.425  0.00  0.00    -0.204 OA
ATOM      2  C2  BZF d   1       1.399  -4.019  -0.055  0.00  0.00     0.174 A 
ATOM      3  C3  BZF d   1       0.100  -3.658  -0.038  0.00  0.00    -0.012 A 
ATOM      4  C3A BZF d   1       0.093  -2.296   0.398  0.00  0.00    -0.107 A 
ATOM      5  C4  BZF d   1      -0.899  -1.380   0.601  0.00  0.00     0.055 A 
ATOM      6  C5  BZF d   1      -0.578  -0.158   1.101  0.00  0.00    -0.016 A 
ATOM      7  C6  BZF d   1       0.723   0.180   1.414  0.00  0.00     0.022 A 
ATOM      8  C7  BZF d   1       1.742  -0.694   1.226  0.00  0.00     0.029 A 
ATOM      9  C7A BZF d   1       1.424  -1.918   0.689  0.00  0.00     0.058 A 
ENDROOT
TORSDOF 0
ENDMDL
