MODEL 1
REMARK minimizedAffinity -3.1143117
REMARK minimizedRMSD -1
REMARK  0 active torsions:
REMARK  status: ('A' for Active; 'I' for Inactive)
ROOT
ATOM      1  O1  BZF d   1       3.250  -1.851  -0.090  0.00  0.00    -0.204 OA
ATOM      2  C2  BZF d   1       3.383  -3.206  -0.322  0.00  0.00     0.174 A 
ATOM      3  C3  BZF d   1       2.231  -3.853  -0.053  0.00  0.00    -0.012 A 
ATOM      4  C3A BZF d   1       1.294  -2.826   0.286  0.00  0.00    -0.107 A 
ATOM      5  C4  BZF d   1      -0.026  -2.839   0.635  0.00  0.00     0.055 A 
ATOM      6  C5  BZF d   1      -0.630  -1.670   0.976  0.00  0.00    -0.016 A 
ATOM      7  C6  BZF d   1       0.056  -0.473   0.983  0.00  0.00     0.022 A 
ATOM      8  C7  BZF d   1       1.365  -0.410   0.639  0.00  0.00     0.029 A 
ATOM      9  C7A BZF d   1       1.970  -1.585   0.263  0.00  0.00     0.058 A 
ENDROOT
TORSDOF 0
ENDMDL
