MODEL 1
REMARK minimizedAffinity -6.03219938
REMARK minimizedRMSD -1
REMARK  0 active torsions:
REMARK  status: ('A' for Active; 'I' for Inactive)
ROOT
ATOM      1  O1  BZF d   1       1.704  -4.138   0.046  0.00  0.00    -0.204 OA
ATOM      2  C2  BZF d   1       3.070  -3.941   0.114  0.00  0.00     0.174 A 
ATOM      3  C3  BZF d   1       3.355  -2.641   0.330  0.00  0.00    -0.012 A 
ATOM      4  C3A BZF d   1       2.086  -1.999   0.494  0.00  0.00    -0.107 A 
ATOM      5  C4  BZF d   1       1.712  -0.711   0.749  0.00  0.00     0.055 A 
ATOM      6  C5  BZF d   1       0.389  -0.401   0.776  0.00  0.00    -0.016 A 
ATOM      7  C6  BZF d   1      -0.585  -1.352   0.548  0.00  0.00     0.022 A 
ATOM      8  C7  BZF d   1      -0.262  -2.643   0.295  0.00  0.00     0.029 A 
ATOM      9  C7A BZF d   1       1.073  -2.966   0.300  0.00  0.00     0.058 A 
ENDROOT
TORSDOF 0
ENDMDL
