MODEL 1
REMARK minimizedAffinity 10.3348818
REMARK minimizedRMSD -1
REMARK  0 active torsions:
REMARK  status: ('A' for Active; 'I' for Inactive)
ROOT
ATOM      1  O1  BZF d   1       2.778  -0.254   0.166  0.00  0.00    -0.204 OA
ATOM      2  C2  BZF d   1       2.945   0.101   1.491  0.00  0.00     0.174 A 
ATOM      3  C3  BZF d   1       1.791  -0.044   2.175  0.00  0.00    -0.012 A 
ATOM      4  C3A BZF d   1       0.868  -0.608   1.238  0.00  0.00    -0.107 A 
ATOM      5  C4  BZF d   1      -0.439  -0.995   1.325  0.00  0.00     0.055 A 
ATOM      6  C5  BZF d   1      -1.072  -1.438   0.208  0.00  0.00    -0.016 A 
ATOM      7  C6  BZF d   1      -0.432  -1.502  -1.013  0.00  0.00     0.022 A 
ATOM      8  C7  BZF d   1       0.865  -1.133  -1.148  0.00  0.00     0.029 A 
ATOM      9  C7A BZF d   1       1.517  -0.716  -0.013  0.00  0.00     0.058 A 
ENDROOT
TORSDOF 0
ENDMDL
