MODEL 1
REMARK minimizedAffinity 0.0893200561
REMARK minimizedRMSD -1
REMARK  0 active torsions:
REMARK  status: ('A' for Active; 'I' for Inactive)
ROOT
ATOM      1  O1  BZF d   1      -1.064  -1.692   1.359  0.00  0.00    -0.204 OA
ATOM      2  C2  BZF d   1      -0.889  -0.324   1.430  0.00  0.00     0.174 A 
ATOM      3  C3  BZF d   1       0.342   0.024   1.003  0.00  0.00    -0.012 A 
ATOM      4  C3A BZF d   1       0.943  -1.195   0.555  0.00  0.00    -0.107 A 
ATOM      5  C4  BZF d   1       2.156  -1.497   0.007  0.00  0.00     0.055 A 
ATOM      6  C5  BZF d   1       2.460  -2.797  -0.250  0.00  0.00    -0.016 A 
ATOM      7  C6  BZF d   1       1.577  -3.818   0.034  0.00  0.00     0.022 A 
ATOM      8  C7  BZF d   1       0.359  -3.567   0.573  0.00  0.00     0.029 A 
ATOM      9  C7A BZF d   1       0.037  -2.252   0.803  0.00  0.00     0.058 A 
ENDROOT
TORSDOF 0
ENDMDL
