MODEL 1
REMARK minimizedAffinity 1.89534616
REMARK minimizedRMSD -1
REMARK  0 active torsions:
REMARK  status: ('A' for Active; 'I' for Inactive)
ROOT
ATOM      1  O1  BZF d   1      -0.679   0.758   1.752  0.00  0.00    -0.204 OA
ATOM      2  C2  BZF d   1      -2.005   0.416   1.568  0.00  0.00     0.174 A 
ATOM      3  C3  BZF d   1      -2.110  -0.820   1.038  0.00  0.00    -0.012 A 
ATOM      4  C3A BZF d   1      -0.770  -1.314   0.966  0.00  0.00    -0.107 A 
ATOM      5  C4  BZF d   1      -0.225  -2.493   0.542  0.00  0.00     0.055 A 
ATOM      6  C5  BZF d   1       1.127  -2.631   0.535  0.00  0.00    -0.016 A 
ATOM      7  C6  BZF d   1       1.963  -1.611   0.940  0.00  0.00     0.022 A 
ATOM      8  C7  BZF d   1       1.469  -0.426   1.373  0.00  0.00     0.029 A 
ATOM      9  C7A BZF d   1       0.102  -0.295   1.413  0.00  0.00     0.058 A 
ENDROOT
TORSDOF 0
ENDMDL
