MODEL 1
REMARK minimizedAffinity -6.07197428
REMARK minimizedRMSD -1
REMARK  0 active torsions:
REMARK  status: ('A' for Active; 'I' for Inactive)
ROOT
ATOM      1  O1  BZF d   1       3.395  -2.107  -0.099  0.00  0.00    -0.204 OA
ATOM      2  C2  BZF d   1       3.487  -3.480  -0.215  0.00  0.00     0.174 A 
ATOM      3  C3  BZF d   1       2.308  -4.065   0.078  0.00  0.00    -0.012 A 
ATOM      4  C3A BZF d   1       1.398  -2.985   0.307  0.00  0.00    -0.107 A 
ATOM      5  C4  BZF d   1       0.071  -2.925   0.624  0.00  0.00     0.055 A 
ATOM      6  C5  BZF d   1      -0.500  -1.714   0.850  0.00  0.00    -0.016 A 
ATOM      7  C6  BZF d   1       0.226  -0.543   0.775  0.00  0.00     0.022 A 
ATOM      8  C7  BZF d   1       1.544  -0.551   0.460  0.00  0.00     0.029 A 
ATOM      9  C7A BZF d   1       2.116  -1.771   0.198  0.00  0.00     0.058 A 
ENDROOT
TORSDOF 0
ENDMDL
