MODEL 1
REMARK minimizedAffinity -0.515199363
REMARK minimizedRMSD -1
REMARK  0 active torsions:
REMARK  status: ('A' for Active; 'I' for Inactive)
ROOT
ATOM      1  O1  BZF d   1       0.269  -3.994   0.335  0.00  0.00    -0.204 OA
ATOM      2  C2  BZF d   1       1.511  -4.329  -0.169  0.00  0.00     0.174 A 
ATOM      3  C3  BZF d   1       2.278  -3.231  -0.321  0.00  0.00    -0.012 A 
ATOM      4  C3A BZF d   1       1.498  -2.152   0.203  0.00  0.00    -0.107 A 
ATOM      5  C4  BZF d   1       1.724  -0.813   0.346  0.00  0.00     0.055 A 
ATOM      6  C5  BZF d   1       0.728  -0.022   0.828  0.00  0.00    -0.016 A 
ATOM      7  C6  BZF d   1      -0.505  -0.536   1.171  0.00  0.00     0.022 A 
ATOM      8  C7  BZF d   1      -0.774  -1.859   1.052  0.00  0.00     0.029 A 
ATOM      9  C7A BZF d   1       0.240  -2.665   0.596  0.00  0.00     0.058 A 
ENDROOT
TORSDOF 0
ENDMDL
