MODEL 1
REMARK minimizedAffinity -3.86420035
REMARK minimizedRMSD -1
REMARK  0 active torsions:
REMARK  status: ('A' for Active; 'I' for Inactive)
ROOT
ATOM      1  O1  BZF d   1       3.222  -2.717  -0.140  0.00  0.00    -0.204 OA
ATOM      2  C2  BZF d   1       2.891  -4.050  -0.285  0.00  0.00     0.174 A 
ATOM      3  C3  BZF d   1       1.612  -4.269   0.082  0.00  0.00    -0.012 A 
ATOM      4  C3A BZF d   1       1.084  -2.976   0.393  0.00  0.00    -0.107 A 
ATOM      5  C4  BZF d   1      -0.143  -2.537   0.803  0.00  0.00     0.055 A 
ATOM      6  C5  BZF d   1      -0.310  -1.220   1.090  0.00  0.00    -0.016 A 
ATOM      7  C6  BZF d   1       0.726  -0.316   0.983  0.00  0.00     0.022 A 
ATOM      8  C7  BZF d   1       1.959  -0.703   0.575  0.00  0.00     0.029 A 
ATOM      9  C7A BZF d   1       2.123  -2.028   0.252  0.00  0.00     0.058 A 
ENDROOT
TORSDOF 0
ENDMDL
