MODEL 1
REMARK minimizedAffinity 1.20432258
REMARK minimizedRMSD -1
REMARK  0 active torsions:
REMARK  status: ('A' for Active; 'I' for Inactive)
ROOT
ATOM      1  O1  BZF d   1       3.750   4.853  -2.636  0.00  0.00    -0.204 OA
ATOM      2  C2  BZF d   1       4.546   4.862  -1.506  0.00  0.00     0.174 A 
ATOM      3  C3  BZF d   1       4.659   3.620  -0.992  0.00  0.00    -0.012 A 
ATOM      4  C3A BZF d   1       3.961   2.769  -1.906  0.00  0.00    -0.107 A 
ATOM      5  C4  BZF d   1       3.734   1.423  -1.949  0.00  0.00     0.055 A 
ATOM      6  C5  BZF d   1       2.952   0.916  -2.938  0.00  0.00    -0.016 A 
ATOM      7  C6  BZF d   1       2.378   1.726  -3.896  0.00  0.00     0.022 A 
ATOM      8  C7  BZF d   1       2.579   3.066  -3.898  0.00  0.00     0.029 A 
ATOM      9  C7A BZF d   1       3.395   3.577  -2.919  0.00  0.00     0.058 A 
ENDROOT
TORSDOF 0
ENDMDL
