MODEL 1
REMARK minimizedAffinity -3.16634226
REMARK minimizedRMSD -1
REMARK  0 active torsions:
REMARK  status: ('A' for Active; 'I' for Inactive)
ROOT
ATOM      1  O1  BZF d   1      -0.769  -2.354   1.041  0.00  0.00    -0.204 OA
ATOM      2  C2  BZF d   1      -1.155  -1.074   1.388  0.00  0.00     0.174 A 
ATOM      3  C3  BZF d   1      -0.146  -0.201   1.196  0.00  0.00    -0.012 A 
ATOM      4  C3A BZF d   1       0.910  -0.969   0.611  0.00  0.00    -0.107 A 
ATOM      5  C4  BZF d   1       2.167  -0.660   0.177  0.00  0.00     0.055 A 
ATOM      6  C5  BZF d   1       2.973  -1.655  -0.276  0.00  0.00    -0.016 A 
ATOM      7  C6  BZF d   1       2.557  -2.970  -0.305  0.00  0.00     0.022 A 
ATOM      8  C7  BZF d   1       1.316  -3.325   0.109  0.00  0.00     0.029 A 
ATOM      9  C7A BZF d   1       0.488  -2.317   0.537  0.00  0.00     0.058 A 
ENDROOT
TORSDOF 0
ENDMDL
