MODEL 1
REMARK minimizedAffinity -0.120673709
REMARK minimizedRMSD -1
REMARK  0 active torsions:
REMARK  status: ('A' for Active; 'I' for Inactive)
ROOT
ATOM      1  O1  BZF d   1       2.967  -3.124   0.051  0.00  0.00    -0.204 OA
ATOM      2  C2  BZF d   1       2.130  -4.195  -0.196  0.00  0.00     0.174 A 
ATOM      3  C3  BZF d   1       0.838  -3.835  -0.051  0.00  0.00    -0.012 A 
ATOM      4  C3A BZF d   1       0.867  -2.430   0.217  0.00  0.00    -0.107 A 
ATOM      5  C4  BZF d   1      -0.106  -1.497   0.438  0.00  0.00     0.055 A 
ATOM      6  C5  BZF d   1       0.258  -0.223   0.744  0.00  0.00    -0.016 A 
ATOM      7  C6  BZF d   1       1.583   0.149   0.841  0.00  0.00     0.022 A 
ATOM      8  C7  BZF d   1       2.583  -0.740   0.625  0.00  0.00     0.029 A 
ATOM      9  C7A BZF d   1       2.218  -2.019   0.284  0.00  0.00     0.058 A 
ENDROOT
TORSDOF 0
ENDMDL
