MODEL 1
REMARK minimizedAffinity 3.42596579
REMARK minimizedRMSD -1
REMARK  0 active torsions:
REMARK  status: ('A' for Active; 'I' for Inactive)
ROOT
ATOM      1  O1  BZF d   1       2.254  -2.946   0.944  0.00  0.00    -0.204 OA
ATOM      2  C2  BZF d   1       1.823  -4.099   0.317  0.00  0.00     0.174 A 
ATOM      3  C3  BZF d   1       0.545  -3.971  -0.095  0.00  0.00    -0.012 A 
ATOM      4  C3A BZF d   1       0.183  -2.623   0.217  0.00  0.00    -0.107 A 
ATOM      5  C4  BZF d   1      -0.955  -1.890   0.036  0.00  0.00     0.055 A 
ATOM      6  C5  BZF d   1      -1.009  -0.622   0.520  0.00  0.00    -0.016 A 
ATOM      7  C6  BZF d   1       0.054  -0.056   1.194  0.00  0.00     0.022 A 
ATOM      8  C7  BZF d   1       1.206  -0.742   1.394  0.00  0.00     0.029 A 
ATOM      9  C7A BZF d   1       1.275  -2.013   0.877  0.00  0.00     0.058 A 
ENDROOT
TORSDOF 0
ENDMDL
