MODEL 1
REMARK minimizedAffinity -4.33461332
REMARK minimizedRMSD -1
REMARK  0 active torsions:
REMARK  status: ('A' for Active; 'I' for Inactive)
ROOT
ATOM      1  O1  BZF d   1       3.891  -2.138   0.397  0.00  0.00    -0.204 OA
ATOM      2  C2  BZF d   1       3.986  -3.464   0.022  0.00  0.00     0.174 A 
ATOM      3  C3  BZF d   1       2.766  -4.039  -0.015  0.00  0.00    -0.012 A 
ATOM      4  C3A BZF d   1       1.844  -2.984   0.271  0.00  0.00    -0.107 A 
ATOM      5  C4  BZF d   1       0.482  -2.926   0.362  0.00  0.00     0.055 A 
ATOM      6  C5  BZF d   1      -0.106  -1.757   0.730  0.00  0.00    -0.016 A 
ATOM      7  C6  BZF d   1       0.636  -0.631   1.020  0.00  0.00     0.022 A 
ATOM      8  C7  BZF d   1       1.989  -0.638   0.939  0.00  0.00     0.029 A 
ATOM      9  C7A BZF d   1       2.584  -1.808   0.534  0.00  0.00     0.058 A 
ENDROOT
TORSDOF 0
ENDMDL
