MODEL 1
REMARK minimizedAffinity -1.35311747
REMARK minimizedRMSD -1
REMARK  0 active torsions:
REMARK  status: ('A' for Active; 'I' for Inactive)
ROOT
ATOM      1  O1  BZF d   1       3.692  -2.329   0.211  0.00  0.00    -0.204 OA
ATOM      2  C2  BZF d   1       3.816  -3.685  -0.020  0.00  0.00     0.174 A 
ATOM      3  C3  BZF d   1       2.609  -4.286  -0.004  0.00  0.00    -0.012 A 
ATOM      4  C3A BZF d   1       1.663  -3.225   0.160  0.00  0.00    -0.107 A 
ATOM      5  C4  BZF d   1       0.300  -3.186   0.234  0.00  0.00     0.055 A 
ATOM      6  C5  BZF d   1      -0.315  -1.997   0.471  0.00  0.00    -0.016 A 
ATOM      7  C6  BZF d   1       0.402  -0.831   0.643  0.00  0.00     0.022 A 
ATOM      8  C7  BZF d   1       1.755  -0.819   0.574  0.00  0.00     0.029 A 
ATOM      9  C7A BZF d   1       2.377  -2.013   0.302  0.00  0.00     0.058 A 
ENDROOT
TORSDOF 0
ENDMDL
