MODEL 1
REMARK minimizedAffinity -2.37709284
REMARK minimizedRMSD -1
REMARK  0 active torsions:
REMARK  status: ('A' for Active; 'I' for Inactive)
ROOT
ATOM      1  O1  BZF d   1      -0.127  -3.488  -0.386  0.00  0.00    -0.204 OA
ATOM      2  C2  BZF d   1       1.236  -3.714  -0.381  0.00  0.00     0.174 A 
ATOM      3  C3  BZF d   1       1.887  -2.701   0.228  0.00  0.00    -0.012 A 
ATOM      4  C3A BZF d   1       0.859  -1.831   0.711  0.00  0.00    -0.107 A 
ATOM      5  C4  BZF d   1       0.874  -0.660   1.414  0.00  0.00     0.055 A 
ATOM      6  C5  BZF d   1      -0.300  -0.024   1.663  0.00  0.00    -0.016 A 
ATOM      7  C6  BZF d   1      -1.506  -0.527   1.221  0.00  0.00     0.022 A 
ATOM      8  C7  BZF d   1      -1.572  -1.688   0.525  0.00  0.00     0.029 A 
ATOM      9  C7A BZF d   1      -0.390  -2.349   0.300  0.00  0.00     0.058 A 
ENDROOT
TORSDOF 0
ENDMDL
