MODEL 1
REMARK minimizedAffinity -4.79492855
REMARK minimizedRMSD -1
REMARK  0 active torsions:
REMARK  status: ('A' for Active; 'I' for Inactive)
ROOT
ATOM      1  O1  BZF d   1       3.497  -1.882   0.509  0.00  0.00    -0.204 OA
ATOM      2  C2  BZF d   1       3.684  -3.211   0.178  0.00  0.00     0.174 A 
ATOM      3  C3  BZF d   1       2.502  -3.856   0.104  0.00  0.00    -0.012 A 
ATOM      4  C3A BZF d   1       1.509  -2.848   0.317  0.00  0.00    -0.107 A 
ATOM      5  C4  BZF d   1       0.144  -2.866   0.346  0.00  0.00     0.055 A 
ATOM      6  C5  BZF d   1      -0.525  -1.724   0.654  0.00  0.00    -0.016 A 
ATOM      7  C6  BZF d   1       0.137  -0.549   0.942  0.00  0.00     0.022 A 
ATOM      8  C7  BZF d   1       1.491  -0.481   0.921  0.00  0.00     0.029 A 
ATOM      9  C7A BZF d   1       2.169  -1.625   0.579  0.00  0.00     0.058 A 
ENDROOT
TORSDOF 0
ENDMDL
