MODEL 1
REMARK minimizedAffinity -6.25711489
REMARK minimizedRMSD -1
REMARK  0 active torsions:
REMARK  status: ('A' for Active; 'I' for Inactive)
ROOT
ATOM      1  O1  BZF d   1       3.373  -1.960   0.413  0.00  0.00    -0.204 OA
ATOM      2  C2  BZF d   1       3.433  -3.324   0.197  0.00  0.00     0.174 A 
ATOM      3  C3  BZF d   1       2.199  -3.866   0.221  0.00  0.00    -0.012 A 
ATOM      4  C3A BZF d   1       1.305  -2.761   0.375  0.00  0.00    -0.107 A 
ATOM      5  C4  BZF d   1      -0.055  -2.656   0.451  0.00  0.00     0.055 A 
ATOM      6  C5  BZF d   1      -0.612  -1.437   0.676  0.00  0.00    -0.016 A 
ATOM      7  C6  BZF d   1       0.159  -0.304   0.834  0.00  0.00     0.022 A 
ATOM      8  C7  BZF d   1       1.511  -0.357   0.762  0.00  0.00     0.029 A 
ATOM      9  C7A BZF d   1       2.076  -1.582   0.502  0.00  0.00     0.058 A 
ENDROOT
TORSDOF 0
ENDMDL
