MODEL 1
REMARK minimizedAffinity 9.03244591
REMARK minimizedRMSD -1
REMARK  0 active torsions:
REMARK  status: ('A' for Active; 'I' for Inactive)
ROOT
ATOM      1  O1  BZF d   1      -5.096  -3.467   2.451  0.00  0.00    -0.204 OA
ATOM      2  C2  BZF d   1      -4.936  -4.498   1.546  0.00  0.00     0.174 A 
ATOM      3  C3  BZF d   1      -4.516  -5.619   2.166  0.00  0.00    -0.012 A 
ATOM      4  C3A BZF d   1      -4.494  -5.293   3.559  0.00  0.00    -0.107 A 
ATOM      5  C4  BZF d   1      -4.178  -6.000   4.684  0.00  0.00     0.055 A 
ATOM      6  C5  BZF d   1      -4.190  -5.367   5.887  0.00  0.00    -0.016 A 
ATOM      7  C6  BZF d   1      -4.507  -4.029   6.000  0.00  0.00     0.022 A 
ATOM      8  C7  BZF d   1      -4.833  -3.288   4.913  0.00  0.00     0.029 A 
ATOM      9  C7A BZF d   1      -4.854  -3.933   3.700  0.00  0.00     0.058 A 
ENDROOT
TORSDOF 0
ENDMDL
