MODEL 1
REMARK minimizedAffinity -1.05075729
REMARK minimizedRMSD -1
REMARK  0 active torsions:
REMARK  status: ('A' for Active; 'I' for Inactive)
ROOT
ATOM      1  C   UNL d   1       5.941  -1.631  -0.742  0.00  0.00     0.020 A 
ATOM      2  C1  UNL d   1       6.000  -0.407  -1.407  0.00  0.00     0.020 A 
ATOM      3  C2  UNL d   1       4.838   0.152  -1.944  0.00  0.00     0.034 A 
ATOM      4  C3  UNL d   1       3.613  -0.512  -1.816  0.00  0.00     0.017 A 
ATOM      5  C4  UNL d   1       3.555  -1.740  -1.148  0.00  0.00     0.017 A 
ATOM      6  C5  UNL d   1       4.721  -2.296  -0.613  0.00  0.00     0.034 A 
ATOM      7 Cl   UNL d   1       2.080  -2.619  -0.950  0.00  0.00    -0.070 Cl
ATOM      8 Cl1  UNL d   1       2.216   0.238  -2.503  0.00  0.00    -0.070 Cl
ENDROOT
TORSDOF 0
ENDMDL
