MODEL 1
REMARK minimizedAffinity 8.22831821
REMARK minimizedRMSD -1
REMARK  0 active torsions:
REMARK  status: ('A' for Active; 'I' for Inactive)
ROOT
ATOM      1  C   UNL d   1       1.823   3.190  -0.847  0.00  0.00     0.020 A 
ATOM      2  C1  UNL d   1       2.256   2.461   0.260  0.00  0.00     0.020 A 
ATOM      3  C2  UNL d   1       2.441   1.080   0.157  0.00  0.00     0.034 A 
ATOM      4  C3  UNL d   1       2.195   0.425  -1.054  0.00  0.00     0.017 A 
ATOM      5  C4  UNL d   1       1.760   1.158  -2.165  0.00  0.00     0.017 A 
ATOM      6  C5  UNL d   1       1.576   2.539  -2.057  0.00  0.00     0.034 A 
ATOM      7 Cl   UNL d   1       1.435   0.419  -3.693  0.00  0.00    -0.070 Cl
ATOM      8 Cl1  UNL d   1       2.446  -1.284  -1.109  0.00  0.00    -0.070 Cl
ENDROOT
TORSDOF 0
ENDMDL
