MODEL 1
REMARK minimizedAffinity 7.04462671
REMARK minimizedRMSD -1
REMARK  0 active torsions:
REMARK  status: ('A' for Active; 'I' for Inactive)
ROOT
ATOM      1  C   UNL d   1      -5.519   5.039  -6.000  0.00  0.00     0.020 A 
ATOM      2  C1  UNL d   1      -5.532   3.644  -5.998  0.00  0.00     0.020 A 
ATOM      3  C2  UNL d   1      -4.329   2.935  -5.997  0.00  0.00     0.034 A 
ATOM      4  C3  UNL d   1      -3.108   3.620  -5.997  0.00  0.00     0.017 A 
ATOM      5  C4  UNL d   1      -3.096   5.019  -5.998  0.00  0.00     0.017 A 
ATOM      6  C5  UNL d   1      -4.304   5.724  -5.999  0.00  0.00     0.034 A 
ATOM      7 Cl   UNL d   1      -1.630   5.934  -5.998  0.00  0.00    -0.070 Cl
ATOM      8 Cl1  UNL d   1      -1.659   2.678  -5.995  0.00  0.00    -0.070 Cl
ENDROOT
TORSDOF 0
ENDMDL
