MODEL 1
REMARK minimizedAffinity 12.4139748
REMARK minimizedRMSD -1
REMARK  0 active torsions:
REMARK  status: ('A' for Active; 'I' for Inactive)
ROOT
ATOM      1  C   UNL d   1      -2.674   2.255   4.928  0.00  0.00     0.020 A 
ATOM      2  C1  UNL d   1      -3.053   1.447   6.000  0.00  0.00     0.020 A 
ATOM      3  C2  UNL d   1      -3.816   0.300   5.774  0.00  0.00     0.034 A 
ATOM      4  C3  UNL d   1      -4.204  -0.042   4.473  0.00  0.00     0.017 A 
ATOM      5  C4  UNL d   1      -3.823   0.769   3.398  0.00  0.00     0.017 A 
ATOM      6  C5  UNL d   1      -3.058   1.917   3.630  0.00  0.00     0.034 A 
ATOM      7 Cl   UNL d   1      -4.263   0.412   1.765  0.00  0.00    -0.070 Cl
ATOM      8 Cl1  UNL d   1      -5.147  -1.475   4.267  0.00  0.00    -0.070 Cl
ENDROOT
TORSDOF 0
ENDMDL
