MODEL 1
REMARK minimizedAffinity 19.2489529
REMARK minimizedRMSD -1
REMARK  0 active torsions:
REMARK  status: ('A' for Active; 'I' for Inactive)
ROOT
ATOM      1  C   UNL d   1      -2.963   1.883   4.632  0.00  0.00     0.020 A 
ATOM      2  C1  UNL d   1      -3.600   2.060   3.405  0.00  0.00     0.020 A 
ATOM      3  C2  UNL d   1      -4.534   1.121   2.960  0.00  0.00     0.034 A 
ATOM      4  C3  UNL d   1      -4.834   0.001   3.745  0.00  0.00     0.017 A 
ATOM      5  C4  UNL d   1      -4.194  -0.175   4.977  0.00  0.00     0.017 A 
ATOM      6  C5  UNL d   1      -3.260   0.767   5.417  0.00  0.00     0.034 A 
ATOM      7 Cl   UNL d   1      -4.512  -1.532   6.000  0.00  0.00    -0.070 Cl
ATOM      8 Cl1  UNL d   1      -5.999  -1.118   3.134  0.00  0.00    -0.070 Cl
ENDROOT
TORSDOF 0
ENDMDL
