MODEL 1
REMARK minimizedAffinity 14.2461662
REMARK minimizedRMSD -1
REMARK  0 active torsions:
REMARK  status: ('A' for Active; 'I' for Inactive)
ROOT
ATOM      1  C   UNL d   1       0.363  -1.834  -0.389  0.00  0.00     0.020 A 
ATOM      2  C1  UNL d   1       1.331  -0.973  -0.903  0.00  0.00     0.020 A 
ATOM      3  C2  UNL d   1       1.739  -1.096  -2.233  0.00  0.00     0.034 A 
ATOM      4  C3  UNL d   1       1.179  -2.083  -3.053  0.00  0.00     0.017 A 
ATOM      5  C4  UNL d   1       0.208  -2.947  -2.535  0.00  0.00     0.017 A 
ATOM      6  C5  UNL d   1      -0.197  -2.819  -1.203  0.00  0.00     0.034 A 
ATOM      7 Cl   UNL d   1      -0.529  -4.189  -3.485  0.00  0.00    -0.070 Cl
ATOM      8 Cl1  UNL d   1       1.731  -2.178  -4.687  0.00  0.00    -0.070 Cl
ENDROOT
TORSDOF 0
ENDMDL
