MODEL 1
REMARK minimizedAffinity 4.28368759
REMARK minimizedRMSD -1
REMARK  0 active torsions:
REMARK  status: ('A' for Active; 'I' for Inactive)
ROOT
ATOM      1  C   UNL d   1       0.105  -1.540   1.623  0.00  0.00     0.020 A 
ATOM      2  C1  UNL d   1       0.528  -1.217   0.334  0.00  0.00     0.020 A 
ATOM      3  C2  UNL d   1       0.004  -1.901  -0.765  0.00  0.00     0.034 A 
ATOM      4  C3  UNL d   1      -0.946  -2.911  -0.577  0.00  0.00     0.017 A 
ATOM      5  C4  UNL d   1      -1.370  -3.234   0.717  0.00  0.00     0.017 A 
ATOM      6  C5  UNL d   1      -0.842  -2.547   1.813  0.00  0.00     0.034 A 
ATOM      7 Cl   UNL d   1      -2.540  -4.469   1.027  0.00  0.00    -0.070 Cl
ATOM      8 Cl1  UNL d   1      -1.552  -3.715  -1.982  0.00  0.00    -0.070 Cl
ENDROOT
TORSDOF 0
ENDMDL
