MODEL 1
REMARK minimizedAffinity 15.1104822
REMARK minimizedRMSD -1
REMARK  0 active torsions:
REMARK  status: ('A' for Active; 'I' for Inactive)
ROOT
ATOM      1  C   UNL d   1       2.263  -0.464  -2.043  0.00  0.00     0.020 A 
ATOM      2  C1  UNL d   1       1.561   0.410  -2.872  0.00  0.00     0.020 A 
ATOM      3  C2  UNL d   1       1.377   1.740  -2.489  0.00  0.00     0.034 A 
ATOM      4  C3  UNL d   1       1.895   2.200  -1.273  0.00  0.00     0.017 A 
ATOM      5  C4  UNL d   1       2.599   1.322  -0.441  0.00  0.00     0.017 A 
ATOM      6  C5  UNL d   1       2.781  -0.009  -0.830  0.00  0.00     0.034 A 
ATOM      7 Cl   UNL d   1       3.268   1.817   1.074  0.00  0.00    -0.070 Cl
ATOM      8 Cl1  UNL d   1       1.630   3.857  -0.862  0.00  0.00    -0.070 Cl
ENDROOT
TORSDOF 0
ENDMDL
