MODEL 1
REMARK minimizedAffinity 11.4467983
REMARK minimizedRMSD -1
REMARK  0 active torsions:
REMARK  status: ('A' for Active; 'I' for Inactive)
ROOT
ATOM      1  C   UNL d   1       0.568   2.276   5.994  0.00  0.00     0.020 A 
ATOM      2  C1  UNL d   1       1.604   1.548   5.413  0.00  0.00     0.020 A 
ATOM      3  C2  UNL d   1       1.404   0.901   4.192  0.00  0.00     0.034 A 
ATOM      4  C3  UNL d   1       0.164   0.982   3.547  0.00  0.00     0.017 A 
ATOM      5  C4  UNL d   1      -0.876   1.714   4.132  0.00  0.00     0.017 A 
ATOM      6  C5  UNL d   1      -0.670   2.359   5.355  0.00  0.00     0.034 A 
ATOM      7 Cl   UNL d   1      -2.434   1.859   3.397  0.00  0.00    -0.070 Cl
ATOM      8 Cl1  UNL d   1      -0.013   0.158   2.039  0.00  0.00    -0.070 Cl
ENDROOT
TORSDOF 0
ENDMDL
