MODEL 1
REMARK minimizedAffinity 11.911438
REMARK minimizedRMSD -1
REMARK  0 active torsions:
REMARK  status: ('A' for Active; 'I' for Inactive)
ROOT
ATOM      1  C   UNL d   1       1.287   5.999   0.739  0.00  0.00     0.020 A 
ATOM      2  C1  UNL d   1       0.858   6.000  -0.587  0.00  0.00     0.020 A 
ATOM      3  C2  UNL d   1       0.927   4.828  -1.344  0.00  0.00     0.034 A 
ATOM      4  C3  UNL d   1       1.426   3.651  -0.775  0.00  0.00     0.017 A 
ATOM      5  C4  UNL d   1       1.856   3.651   0.556  0.00  0.00     0.017 A 
ATOM      6  C5  UNL d   1       1.785   4.827   1.310  0.00  0.00     0.034 A 
ATOM      7 Cl   UNL d   1       2.483   2.237   1.328  0.00  0.00    -0.070 Cl
ATOM      8 Cl1  UNL d   1       1.481   2.239  -1.770  0.00  0.00    -0.070 Cl
ENDROOT
TORSDOF 0
ENDMDL
