MODEL 1
REMARK minimizedAffinity 19.8901348
REMARK minimizedRMSD -1
REMARK  0 active torsions:
REMARK  status: ('A' for Active; 'I' for Inactive)
ROOT
ATOM      1  C   UNL d   1       3.770  -0.421  -0.061  0.00  0.00     0.020 A 
ATOM      2  C1  UNL d   1       4.112   0.732  -0.767  0.00  0.00     0.020 A 
ATOM      3  C2  UNL d   1       3.195   1.310  -1.647  0.00  0.00     0.034 A 
ATOM      4  C3  UNL d   1       1.931   0.735  -1.824  0.00  0.00     0.017 A 
ATOM      5  C4  UNL d   1       1.589  -0.422  -1.116  0.00  0.00     0.017 A 
ATOM      6  C5  UNL d   1       2.511  -0.997  -0.236  0.00  0.00     0.034 A 
ATOM      7 Cl   UNL d   1       0.049  -1.189  -1.282  0.00  0.00    -0.070 Cl
ATOM      8 Cl1  UNL d   1       0.847   1.504  -2.929  0.00  0.00    -0.070 Cl
ENDROOT
TORSDOF 0
ENDMDL
