MODEL 1
REMARK minimizedAffinity 8.22441578
REMARK minimizedRMSD -1
REMARK  0 active torsions:
REMARK  status: ('A' for Active; 'I' for Inactive)
ROOT
ATOM      1  C   UNL d   1      -0.039  -1.528   0.101  0.00  0.00     0.020 A 
ATOM      2  C1  UNL d   1      -0.460  -2.063   1.318  0.00  0.00     0.020 A 
ATOM      3  C2  UNL d   1      -1.412  -3.085   1.339  0.00  0.00     0.034 A 
ATOM      4  C3  UNL d   1      -1.947  -3.574   0.141  0.00  0.00     0.017 A 
ATOM      5  C4  UNL d   1      -1.523  -3.036  -1.079  0.00  0.00     0.017 A 
ATOM      6  C5  UNL d   1      -0.570  -2.013  -1.095  0.00  0.00     0.034 A 
ATOM      7 Cl   UNL d   1      -2.137  -3.588  -2.598  0.00  0.00    -0.070 Cl
ATOM      8 Cl1  UNL d   1      -3.120  -4.838   0.243  0.00  0.00    -0.070 Cl
ENDROOT
TORSDOF 0
ENDMDL
