MODEL 1
REMARK minimizedAffinity 21.5059719
REMARK minimizedRMSD -1
REMARK  0 active torsions:
REMARK  status: ('A' for Active; 'I' for Inactive)
ROOT
ATOM      1  C   UNL d   1      -2.980   1.894   5.617  0.00  0.00     0.020 A 
ATOM      2  C1  UNL d   1      -1.664   1.637   5.999  0.00  0.00     0.020 A 
ATOM      3  C2  UNL d   1      -0.729   1.223   5.048  0.00  0.00     0.034 A 
ATOM      4  C3  UNL d   1      -1.108   1.065   3.710  0.00  0.00     0.017 A 
ATOM      5  C4  UNL d   1      -2.430   1.323   3.328  0.00  0.00     0.017 A 
ATOM      6  C5  UNL d   1      -3.362   1.737   4.284  0.00  0.00     0.034 A 
ATOM      7 Cl   UNL d   1      -2.973   1.150   1.696  0.00  0.00    -0.070 Cl
ATOM      8 Cl1  UNL d   1       0.100   0.550   2.588  0.00  0.00    -0.070 Cl
ENDROOT
TORSDOF 0
ENDMDL
