MODEL 1
REMARK minimizedAffinity -2.77924943
REMARK minimizedRMSD -1
REMARK  0 active torsions:
REMARK  status: ('A' for Active; 'I' for Inactive)
ROOT
ATOM      1  C   UNL d   1       2.195   0.640  -1.455  0.00  0.00     0.020 A 
ATOM      2  C1  UNL d   1       1.559   1.580  -0.644  0.00  0.00     0.020 A 
ATOM      3  C2  UNL d   1       0.623   1.164   0.305  0.00  0.00     0.034 A 
ATOM      4  C3  UNL d   1       0.320  -0.195   0.446  0.00  0.00     0.017 A 
ATOM      5  C4  UNL d   1       0.958  -1.137  -0.368  0.00  0.00     0.017 A 
ATOM      6  C5  UNL d   1       1.895  -0.716  -1.316  0.00  0.00     0.034 A 
ATOM      7 Cl   UNL d   1       0.636  -2.832  -0.252  0.00  0.00    -0.070 Cl
ATOM      8 Cl1  UNL d   1      -0.848  -0.638   1.641  0.00  0.00    -0.070 Cl
ENDROOT
TORSDOF 0
ENDMDL
