MODEL 1
REMARK minimizedAffinity -4.11837482
REMARK minimizedRMSD -1
REMARK  0 active torsions:
REMARK  status: ('A' for Active; 'I' for Inactive)
ROOT
ATOM      1  C   UNL d   1       0.661  -1.579  -2.518  0.00  0.00     0.020 A 
ATOM      2  C1  UNL d   1       1.374  -0.559  -3.146  0.00  0.00     0.020 A 
ATOM      3  C2  UNL d   1       1.643   0.628  -2.461  0.00  0.00     0.034 A 
ATOM      4  C3  UNL d   1       1.198   0.798  -1.145  0.00  0.00     0.017 A 
ATOM      5  C4  UNL d   1       0.482  -0.226  -0.516  0.00  0.00     0.017 A 
ATOM      6  C5  UNL d   1       0.215  -1.413  -1.206  0.00  0.00     0.034 A 
ATOM      7 Cl   UNL d   1      -0.100  -0.090   1.106  0.00  0.00    -0.070 Cl
ATOM      8 Cl1  UNL d   1       1.566   2.292  -0.359  0.00  0.00    -0.070 Cl
ENDROOT
TORSDOF 0
ENDMDL
