MODEL 1
REMARK minimizedAffinity -1.28922987
REMARK minimizedRMSD -1
REMARK  0 active torsions:
REMARK  status: ('A' for Active; 'I' for Inactive)
ROOT
ATOM      1  C   UNL d   1       0.386   0.649   0.769  0.00  0.00     0.020 A 
ATOM      2  C1  UNL d   1       0.924   0.930  -0.486  0.00  0.00     0.020 A 
ATOM      3  C2  UNL d   1       0.911  -0.046  -1.485  0.00  0.00     0.034 A 
ATOM      4  C3  UNL d   1       0.359  -1.307  -1.230  0.00  0.00     0.017 A 
ATOM      5  C4  UNL d   1      -0.181  -1.587   0.030  0.00  0.00     0.017 A 
ATOM      6  C5  UNL d   1      -0.165  -0.607   1.027  0.00  0.00     0.034 A 
ATOM      7 Cl   UNL d   1      -0.879  -3.120   0.420  0.00  0.00    -0.070 Cl
ATOM      8 Cl1  UNL d   1       0.377  -2.466  -2.512  0.00  0.00    -0.070 Cl
ENDROOT
TORSDOF 0
ENDMDL
