MODEL 1
REMARK minimizedAffinity 2.15793467
REMARK minimizedRMSD -1
REMARK  0 active torsions:
REMARK  status: ('A' for Active; 'I' for Inactive)
ROOT
ATOM      1  C   UNL d   1      -5.730   4.531  -5.821  0.00  0.00     0.020 A 
ATOM      2  C1  UNL d   1      -4.458   4.947  -5.432  0.00  0.00     0.020 A 
ATOM      3  C2  UNL d   1      -3.453   4.004  -5.208  0.00  0.00     0.034 A 
ATOM      4  C3  UNL d   1      -3.719   2.640  -5.373  0.00  0.00     0.017 A 
ATOM      5  C4  UNL d   1      -4.996   2.223  -5.763  0.00  0.00     0.017 A 
ATOM      6  C5  UNL d   1      -5.999   3.172  -5.986  0.00  0.00     0.034 A 
ATOM      7 Cl   UNL d   1      -5.400   0.557  -5.987  0.00  0.00    -0.070 Cl
ATOM      8 Cl1  UNL d   1      -2.428   1.529  -5.079  0.00  0.00    -0.070 Cl
ENDROOT
TORSDOF 0
ENDMDL
