MODEL 1
REMARK minimizedAffinity -4.14837313
REMARK minimizedRMSD -1
REMARK  0 active torsions:
REMARK  status: ('A' for Active; 'I' for Inactive)
ROOT
ATOM      1  C   UNL d   1      -2.470  -0.535   1.001  0.00  0.00     0.020 A 
ATOM      2  C1  UNL d   1      -2.121  -1.496   0.053  0.00  0.00     0.020 A 
ATOM      3  C2  UNL d   1      -0.797  -1.603  -0.378  0.00  0.00     0.034 A 
ATOM      4  C3  UNL d   1       0.183  -0.748   0.140  0.00  0.00     0.017 A 
ATOM      5  C4  UNL d   1      -0.168   0.216   1.092  0.00  0.00     0.017 A 
ATOM      6  C5  UNL d   1      -1.495   0.319   1.519  0.00  0.00     0.034 A 
ATOM      7 Cl   UNL d   1       0.986   1.306   1.776  0.00  0.00    -0.070 Cl
ATOM      8 Cl1  UNL d   1       1.800  -0.937  -0.438  0.00  0.00    -0.070 Cl
ENDROOT
TORSDOF 0
ENDMDL
