MODEL 1
REMARK minimizedAffinity -2.80048561
REMARK minimizedRMSD -1
REMARK  0 active torsions:
REMARK  status: ('A' for Active; 'I' for Inactive)
ROOT
ATOM      1  C   UNL d   1       2.608  -1.150  -3.915  0.00  0.00     0.020 A 
ATOM      2  C1  UNL d   1       2.311   0.015  -3.209  0.00  0.00     0.020 A 
ATOM      3  C2  UNL d   1       1.623  -0.059  -1.996  0.00  0.00     0.034 A 
ATOM      4  C3  UNL d   1       1.229  -1.301  -1.486  0.00  0.00     0.017 A 
ATOM      5  C4  UNL d   1       1.527  -2.471  -2.195  0.00  0.00     0.017 A 
ATOM      6  C5  UNL d   1       2.216  -2.390  -3.409  0.00  0.00     0.034 A 
ATOM      7 Cl   UNL d   1       1.074  -4.039  -1.629  0.00  0.00    -0.070 Cl
ATOM      8 Cl1  UNL d   1       0.382  -1.319   0.020  0.00  0.00    -0.070 Cl
ENDROOT
TORSDOF 0
ENDMDL
