MODEL 1
REMARK minimizedAffinity -6.04335833
REMARK minimizedRMSD -1
REMARK  0 active torsions:
REMARK  status: ('A' for Active; 'I' for Inactive)
ROOT
ATOM      1  C   UNL d   1       1.628  -2.152  -2.585  0.00  0.00     0.020 A 
ATOM      2  C1  UNL d   1       2.066  -0.891  -2.989  0.00  0.00     0.020 A 
ATOM      3  C2  UNL d   1       1.822   0.223  -2.184  0.00  0.00     0.034 A 
ATOM      4  C3  UNL d   1       1.137   0.080  -0.972  0.00  0.00     0.017 A 
ATOM      5  C4  UNL d   1       0.697  -1.186  -0.568  0.00  0.00     0.017 A 
ATOM      6  C5  UNL d   1       0.945  -2.299  -1.377  0.00  0.00     0.034 A 
ATOM      7 Cl   UNL d   1      -0.154  -1.442   0.914  0.00  0.00    -0.070 Cl
ATOM      8 Cl1  UNL d   1       0.869   1.501  -0.027  0.00  0.00    -0.070 Cl
ENDROOT
TORSDOF 0
ENDMDL
