MODEL 1
REMARK minimizedAffinity -4.63902903
REMARK minimizedRMSD -1
REMARK  1 active torsions:
REMARK  status: ('A' for Active; 'I' for Inactive)
REMARK    1  A    between atoms: N_2  and  C1_3 
ROOT
ATOM      1  C1  UNL d   1      -0.088   0.368   0.718  0.00  0.00     0.143 A 
ATOM      2  C2  UNL d   1       0.043   1.030   1.944  0.00  0.00    -0.057 A 
ATOM      3  C3  UNL d   1      -0.507   2.302   2.145  0.00  0.00     0.033 A 
ATOM      4  C4  UNL d   1      -1.174   2.949   1.110  0.00  0.00    -0.042 A 
ATOM      5  C5  UNL d   1      -1.295   2.320  -0.124  0.00  0.00     0.033 A 
ATOM      6  C6  UNL d   1      -0.750   1.047  -0.317  0.00  0.00    -0.057 A 
ENDROOT
BRANCH   1   7
ATOM      7  N   UNL d   1       0.520  -0.855   0.426  0.00  0.00    -0.732 N 
ATOM      8  C   UNL d   1       0.317  -1.491  -0.858  0.00  0.00     0.284 C 
ATOM      9  H3  UNL d   1       1.478  -0.904   0.767  0.00  0.00     0.395 HD
ENDBRANCH   1   7
TORSDOF 1
ENDMDL
