MODEL 1
REMARK minimizedAffinity -2.59663343
REMARK minimizedRMSD -1
REMARK  1 active torsions:
REMARK  status: ('A' for Active; 'I' for Inactive)
REMARK    1  A    between atoms: N_2  and  C1_3 
ROOT
ATOM      1  C1  UNL d   1       0.972  -1.485  -0.575  0.00  0.00     0.143 A 
ATOM      2  C2  UNL d   1       0.234  -0.614  -1.384  0.00  0.00    -0.057 A 
ATOM      3  C3  UNL d   1      -0.294   0.578  -0.874  0.00  0.00     0.033 A 
ATOM      4  C4  UNL d   1      -0.118   0.907   0.466  0.00  0.00    -0.042 A 
ATOM      5  C5  UNL d   1       0.591   0.044   1.294  0.00  0.00     0.033 A 
ATOM      6  C6  UNL d   1       1.122  -1.141   0.777  0.00  0.00    -0.057 A 
ENDROOT
BRANCH   1   7
ATOM      7  N   UNL d   1       1.439  -2.731  -0.999  0.00  0.00    -0.732 N 
ATOM      8  C   UNL d   1       0.512  -3.781  -1.363  0.00  0.00     0.284 C 
ATOM      9  H3  UNL d   1       2.244  -2.655  -1.616  0.00  0.00     0.395 HD
ENDBRANCH   1   7
TORSDOF 1
ENDMDL
