MODEL 1
REMARK minimizedAffinity -3.5698278
REMARK minimizedRMSD -1
REMARK  1 active torsions:
REMARK  status: ('A' for Active; 'I' for Inactive)
REMARK    1  A    between atoms: N_2  and  C1_3 
ROOT
ATOM      1  C1  UNL d   1       0.222  -0.284  -0.140  0.00  0.00     0.143 A 
ATOM      2  C2  UNL d   1       0.545   0.120   1.160  0.00  0.00    -0.057 A 
ATOM      3  C3  UNL d   1      -0.068   1.233   1.748  0.00  0.00     0.033 A 
ATOM      4  C4  UNL d   1      -0.998   1.981   1.033  0.00  0.00    -0.042 A 
ATOM      5  C5  UNL d   1      -1.316   1.613  -0.270  0.00  0.00     0.033 A 
ATOM      6  C6  UNL d   1      -0.705   0.497  -0.849  0.00  0.00    -0.057 A 
ENDROOT
BRANCH   1   7
ATOM      7  N   UNL d   1       0.869  -1.322  -0.816  0.00  0.00    -0.732 N 
ATOM      8  C   UNL d   1       0.171  -2.554  -1.115  0.00  0.00     0.284 C 
ATOM      9  H3  UNL d   1       1.460  -0.984  -1.572  0.00  0.00     0.395 HD
ENDBRANCH   1   7
TORSDOF 1
ENDMDL
