MODEL 1
REMARK minimizedAffinity -4.2291255
REMARK minimizedRMSD -1
REMARK  1 active torsions:
REMARK  status: ('A' for Active; 'I' for Inactive)
REMARK    1  A    between atoms: N_2  and  C1_3 
ROOT
ATOM      1  C1  UNL d   1      -0.558   1.156  -0.269  0.00  0.00     0.143 A 
ATOM      2  C2  UNL d   1      -0.717   1.076   1.119  0.00  0.00    -0.057 A 
ATOM      3  C3  UNL d   1      -1.069   2.200   1.876  0.00  0.00     0.033 A 
ATOM      4  C4  UNL d   1      -1.240   3.435   1.260  0.00  0.00    -0.042 A 
ATOM      5  C5  UNL d   1      -1.063   3.544  -0.115  0.00  0.00     0.033 A 
ATOM      6  C6  UNL d   1      -0.718   2.416  -0.866  0.00  0.00    -0.057 A 
ENDROOT
BRANCH   1   7
ATOM      7  N   UNL d   1      -0.113   0.097  -1.063  0.00  0.00    -0.732 N 
ATOM      8  C   UNL d   1       0.999  -0.726  -0.639  0.00  0.00     0.284 C 
ATOM      9  H3  UNL d   1      -0.880  -0.425  -1.481  0.00  0.00     0.395 HD
ENDBRANCH   1   7
TORSDOF 1
ENDMDL
