MODEL 1
REMARK minimizedAffinity 0.377890974
REMARK minimizedRMSD -1
REMARK  1 active torsions:
REMARK  status: ('A' for Active; 'I' for Inactive)
REMARK    1  A    between atoms: N_2  and  C1_3 
ROOT
ATOM      1  C1  UNL d   1       0.010  -4.513  -1.602  0.00  0.00     0.143 A 
ATOM      2  C2  UNL d   1      -0.775  -3.633  -0.850  0.00  0.00    -0.057 A 
ATOM      3  C3  UNL d   1      -1.922  -3.039  -1.392  0.00  0.00     0.033 A 
ATOM      4  C4  UNL d   1      -2.288  -3.293  -2.709  0.00  0.00    -0.042 A 
ATOM      5  C5  UNL d   1      -1.508  -4.145  -3.483  0.00  0.00     0.033 A 
ATOM      6  C6  UNL d   1      -0.368  -4.741  -2.935  0.00  0.00    -0.057 A 
ENDROOT
BRANCH   1   7
ATOM      7  N   UNL d   1       1.215  -5.059  -1.153  0.00  0.00    -0.732 N 
ATOM      8  C   UNL d   1       1.236  -5.984  -0.040  0.00  0.00     0.284 C 
ATOM      9  H3  UNL d   1       1.835  -5.315  -1.918  0.00  0.00     0.395 HD
ENDBRANCH   1   7
TORSDOF 1
ENDMDL
