MODEL 1
REMARK minimizedAffinity 4.09500551
REMARK minimizedRMSD -1
REMARK  0 active torsions:
REMARK  status: ('A' for Active; 'I' for Inactive)
ROOT
ATOM      1  C   UNL d   1       0.628  -0.731   1.054  0.00  0.00    -0.002 A 
ATOM      2  C1  UNL d   1       1.049   0.371   0.323  0.00  0.00     0.010 A 
ATOM      3  C2  UNL d   1       0.370   1.587   0.416  0.00  0.00     0.041 A 
ATOM      4  C3  UNL d   1      -0.749   1.679   1.267  0.00  0.00    -0.075 A 
ATOM      5  S   UNL d   1      -1.734   3.067   1.542  0.00  0.00     0.015 SA
ATOM      6  C4  UNL d   1      -2.737   2.230   2.637  0.00  0.00     0.022 A 
ATOM      7  C5  UNL d   1      -2.344   0.923   2.801  0.00  0.00     0.026 A 
ATOM      8  C6  UNL d   1      -1.192   0.584   2.015  0.00  0.00    -0.082 A 
ATOM      9  C7  UNL d   1      -0.482  -0.636   1.897  0.00  0.00     0.045 A 
ENDROOT
TORSDOF 0
ENDMDL
