MODEL 1
REMARK minimizedAffinity 3.76428556
REMARK minimizedRMSD -1
REMARK  0 active torsions:
REMARK  status: ('A' for Active; 'I' for Inactive)
ROOT
ATOM      1  C   UNL d   1      -2.192   1.570   1.626  0.00  0.00    -0.002 A 
ATOM      2  C1  UNL d   1      -2.166   0.240   2.022  0.00  0.00     0.010 A 
ATOM      3  C2  UNL d   1      -0.974  -0.487   1.991  0.00  0.00     0.041 A 
ATOM      4  C3  UNL d   1       0.203   0.151   1.552  0.00  0.00    -0.075 A 
ATOM      5  S   UNL d   1       1.777  -0.541   1.431  0.00  0.00     0.015 SA
ATOM      6  C4  UNL d   1       2.453   0.913   0.852  0.00  0.00     0.022 A 
ATOM      7  C5  UNL d   1       1.514   1.912   0.747  0.00  0.00     0.026 A 
ATOM      8  C6  UNL d   1       0.202   1.490   1.150  0.00  0.00    -0.082 A 
ATOM      9  C7  UNL d   1      -1.022   2.200   1.192  0.00  0.00     0.045 A 
ENDROOT
TORSDOF 0
ENDMDL
