MODEL 1
REMARK minimizedAffinity 2.44993639
REMARK minimizedRMSD -1
REMARK  0 active torsions:
REMARK  status: ('A' for Active; 'I' for Inactive)
ROOT
ATOM      1  C   UNL d   1       1.033   0.440   0.567  0.00  0.00    -0.002 A 
ATOM      2  C1  UNL d   1       0.507  -0.818   0.824  0.00  0.00     0.010 A 
ATOM      3  C2  UNL d   1      -0.734  -0.954   1.450  0.00  0.00     0.041 A 
ATOM      4  C3  UNL d   1      -1.444   0.206   1.816  0.00  0.00    -0.075 A 
ATOM      5  S   UNL d   1      -2.982   0.282   2.592  0.00  0.00     0.015 SA
ATOM      6  C4  UNL d   1      -2.977   1.986   2.600  0.00  0.00     0.022 A 
ATOM      7  C5  UNL d   1      -1.837   2.501   2.029  0.00  0.00     0.026 A 
ATOM      8  C6  UNL d   1      -0.935   1.484   1.567  0.00  0.00    -0.082 A 
ATOM      9  C7  UNL d   1       0.325   1.589   0.931  0.00  0.00     0.045 A 
ENDROOT
TORSDOF 0
ENDMDL
