MODEL 1
REMARK minimizedAffinity 4.2681756
REMARK minimizedRMSD -1
REMARK  0 active torsions:
REMARK  status: ('A' for Active; 'I' for Inactive)
ROOT
ATOM      1  C   UNL d   1      -0.474  -1.423   1.420  0.00  0.00    -0.002 A 
ATOM      2  C1  UNL d   1      -1.834  -1.195   1.572  0.00  0.00     0.010 A 
ATOM      3  C2  UNL d   1      -2.329   0.107   1.671  0.00  0.00     0.041 A 
ATOM      4  C3  UNL d   1      -1.426   1.186   1.611  0.00  0.00    -0.075 A 
ATOM      5  S   UNL d   1      -1.805   2.865   1.709  0.00  0.00     0.015 SA
ATOM      6  C4  UNL d   1      -0.170   3.319   1.549  0.00  0.00     0.022 A 
ATOM      7  C5  UNL d   1       0.659   2.229   1.424  0.00  0.00     0.026 A 
ATOM      8  C6  UNL d   1      -0.052   0.982   1.457  0.00  0.00    -0.082 A 
ATOM      9  C7  UNL d   1       0.419  -0.350   1.361  0.00  0.00     0.045 A 
ENDROOT
TORSDOF 0
ENDMDL
