MODEL 1
REMARK minimizedAffinity 13.7754669
REMARK minimizedRMSD -1
REMARK  0 active torsions:
REMARK  status: ('A' for Active; 'I' for Inactive)
ROOT
ATOM      1  C   UNL d   1       0.843   1.738   1.965  0.00  0.00    -0.002 A 
ATOM      2  C1  UNL d   1      -0.439   2.232   1.768  0.00  0.00     0.010 A 
ATOM      3  C2  UNL d   1      -1.554   1.422   1.995  0.00  0.00     0.041 A 
ATOM      4  C3  UNL d   1      -1.357   0.097   2.429  0.00  0.00    -0.075 A 
ATOM      5  S   UNL d   1      -2.572  -1.077   2.772  0.00  0.00     0.015 SA
ATOM      6  C4  UNL d   1      -1.419  -2.260   3.188  0.00  0.00     0.022 A 
ATOM      7  C5  UNL d   1      -0.132  -1.789   3.074  0.00  0.00     0.026 A 
ATOM      8  C6  UNL d   1      -0.075  -0.422   2.635  0.00  0.00    -0.082 A 
ATOM      9  C7  UNL d   1       1.035   0.423   2.395  0.00  0.00     0.045 A 
ENDROOT
TORSDOF 0
ENDMDL
