MODEL 1
REMARK minimizedAffinity 6.02924824
REMARK minimizedRMSD -1
REMARK  0 active torsions:
REMARK  status: ('A' for Active; 'I' for Inactive)
ROOT
ATOM      1  C   UNL d   1       0.734   2.433   0.982  0.00  0.00    -0.002 A 
ATOM      2  C1  UNL d   1       1.623   1.399   1.242  0.00  0.00     0.010 A 
ATOM      3  C2  UNL d   1       1.155   0.116   1.531  0.00  0.00     0.041 A 
ATOM      4  C3  UNL d   1      -0.235  -0.114   1.552  0.00  0.00    -0.075 A 
ATOM      5  S   UNL d   1      -1.037  -1.604   1.881  0.00  0.00     0.015 SA
ATOM      6  C4  UNL d   1      -2.578  -0.904   1.683  0.00  0.00     0.022 A 
ATOM      7  C5  UNL d   1      -2.501   0.433   1.374  0.00  0.00     0.026 A 
ATOM      8  C6  UNL d   1      -1.149   0.910   1.293  0.00  0.00    -0.082 A 
ATOM      9  C7  UNL d   1      -0.643   2.201   1.004  0.00  0.00     0.045 A 
ENDROOT
TORSDOF 0
ENDMDL
