MODEL 1
REMARK minimizedAffinity 4.8664484
REMARK minimizedRMSD -1
REMARK  0 active torsions:
REMARK  status: ('A' for Active; 'I' for Inactive)
ROOT
ATOM      1  C   UNL d   1       0.430   1.765   1.174  0.00  0.00    -0.002 A 
ATOM      2  C1  UNL d   1       0.453   0.381   1.069  0.00  0.00     0.010 A 
ATOM      3  C2  UNL d   1      -0.597  -0.387   1.574  0.00  0.00     0.041 A 
ATOM      4  C3  UNL d   1      -1.683   0.264   2.191  0.00  0.00    -0.075 A 
ATOM      5  S   UNL d   1      -3.081  -0.472   2.882  0.00  0.00     0.015 SA
ATOM      6  C4  UNL d   1      -3.742   1.033   3.332  0.00  0.00     0.022 A 
ATOM      7  C5  UNL d   1      -2.930   2.082   2.972  0.00  0.00     0.026 A 
ATOM      8  C6  UNL d   1      -1.730   1.656   2.308  0.00  0.00    -0.082 A 
ATOM      9  C7  UNL d   1      -0.649   2.408   1.787  0.00  0.00     0.045 A 
ENDROOT
TORSDOF 0
ENDMDL
