MODEL 1
REMARK minimizedAffinity 3.18051004
REMARK minimizedRMSD -1
REMARK  0 active torsions:
REMARK  status: ('A' for Active; 'I' for Inactive)
ROOT
ATOM      1  C   UNL d   1       1.042   0.349   0.561  0.00  0.00    -0.002 A 
ATOM      2  C1  UNL d   1       0.386  -0.837   0.858  0.00  0.00     0.010 A 
ATOM      3  C2  UNL d   1      -0.829  -0.823   1.546  0.00  0.00     0.041 A 
ATOM      4  C3  UNL d   1      -1.380   0.415   1.932  0.00  0.00    -0.075 A 
ATOM      5  S   UNL d   1      -2.857   0.676   2.782  0.00  0.00     0.015 SA
ATOM      6  C4  UNL d   1      -2.651   2.368   2.771  0.00  0.00     0.022 A 
ATOM      7  C5  UNL d   1      -1.489   2.742   2.138  0.00  0.00     0.026 A 
ATOM      8  C6  UNL d   1      -0.737   1.623   1.644  0.00  0.00    -0.082 A 
ATOM      9  C7  UNL d   1       0.493   1.575   0.946  0.00  0.00     0.045 A 
ENDROOT
TORSDOF 0
ENDMDL
