MODEL 1
REMARK minimizedAffinity 8.98849487
REMARK minimizedRMSD -1
REMARK  0 active torsions:
REMARK  status: ('A' for Active; 'I' for Inactive)
ROOT
ATOM      1  C   UNL d   1       5.908   4.756  -5.723  0.00  0.00    -0.002 A 
ATOM      2  C1  UNL d   1       4.925   5.701  -5.983  0.00  0.00     0.010 A 
ATOM      3  C2  UNL d   1       3.597   5.462  -5.624  0.00  0.00     0.041 A 
ATOM      4  C3  UNL d   1       3.271   4.247  -4.990  0.00  0.00    -0.075 A 
ATOM      5  S   UNL d   1       1.711   3.737  -4.459  0.00  0.00     0.015 SA
ATOM      6  C4  UNL d   1       2.313   2.254  -3.873  0.00  0.00     0.022 A 
ATOM      7  C5  UNL d   1       3.668   2.134  -4.070  0.00  0.00     0.026 A 
ATOM      8  C6  UNL d   1       4.243   3.280  -4.716  0.00  0.00    -0.082 A 
ATOM      9  C7  UNL d   1       5.580   3.552  -5.094  0.00  0.00     0.045 A 
ENDROOT
TORSDOF 0
ENDMDL
