MODEL 1
REMARK minimizedAffinity 11.1947203
REMARK minimizedRMSD -1
REMARK  0 active torsions:
REMARK  status: ('A' for Active; 'I' for Inactive)
ROOT
ATOM      1  C   UNL d   1      -0.406   2.978   0.749  0.00  0.00    -0.002 A 
ATOM      2  C1  UNL d   1      -0.011   1.648   0.715  0.00  0.00     0.010 A 
ATOM      3  C2  UNL d   1      -0.697   0.684   1.456  0.00  0.00     0.041 A 
ATOM      4  C3  UNL d   1      -1.799   1.083   2.238  0.00  0.00    -0.075 A 
ATOM      5  S   UNL d   1      -2.790   0.077   3.227  0.00  0.00     0.015 SA
ATOM      6  C4  UNL d   1      -3.762   1.389   3.717  0.00  0.00     0.022 A 
ATOM      7  C5  UNL d   1      -3.354   2.573   3.150  0.00  0.00     0.026 A 
ATOM      8  C6  UNL d   1      -2.216   2.416   2.288  0.00  0.00    -0.082 A 
ATOM      9  C7  UNL d   1      -1.499   3.370   1.525  0.00  0.00     0.045 A 
ENDROOT
TORSDOF 0
ENDMDL
