MODEL 1
REMARK minimizedAffinity 2.74729776
REMARK minimizedRMSD -1
REMARK  1 active torsions:
REMARK  status: ('A' for Active; 'I' for Inactive)
REMARK    1  A    between atoms: C1_2  and  C2_3 
ROOT
ATOM      1  C2  UNL d   1      -0.487   2.547  -0.265  0.00  0.00    -0.076 A 
ATOM      2  C3  UNL d   1       0.834   2.092  -0.422  0.00  0.00     0.004 A 
ATOM      3  C4  UNL d   1       1.099   0.810  -0.901  0.00  0.00    -0.003 A 
ATOM      4  C5  UNL d   1       0.047  -0.037  -1.232  0.00  0.00     0.000 A 
ATOM      5  C6  UNL d   1      -1.269   0.404  -1.100  0.00  0.00     0.000 A 
ATOM      6  C7  UNL d   1      -1.553   1.699  -0.634  0.00  0.00    -0.073 A 
ATOM      7  C8  UNL d   1      -2.991   2.120  -0.505  0.00  0.00     0.078 C 
ENDROOT
BRANCH   1   8
ATOM      8  C1  UNL d   1      -0.713   3.937   0.284  0.00  0.00     0.053 C 
ATOM      9  C   UNL d   1       0.193   4.252   1.465  0.00  0.00     0.018 C 
ENDBRANCH   1   8
TORSDOF 1
ENDMDL
