MODEL 1
REMARK minimizedAffinity 7.95035362
REMARK minimizedRMSD -1
REMARK  1 active torsions:
REMARK  status: ('A' for Active; 'I' for Inactive)
REMARK    1  A    between atoms: C1_2  and  C2_3 
ROOT
ATOM      1  C2  UNL d   1       1.200   0.875  -0.141  0.00  0.00    -0.076 A 
ATOM      2  C3  UNL d   1       1.252  -0.394  -0.743  0.00  0.00     0.004 A 
ATOM      3  C4  UNL d   1       0.290  -0.787  -1.671  0.00  0.00    -0.003 A 
ATOM      4  C5  UNL d   1      -0.740   0.082  -2.013  0.00  0.00     0.000 A 
ATOM      5  C6  UNL d   1      -0.798   1.351  -1.438  0.00  0.00     0.000 A 
ATOM      6  C7  UNL d   1       0.174   1.770  -0.513  0.00  0.00    -0.073 A 
ATOM      7  C8  UNL d   1       0.060   3.148   0.080  0.00  0.00     0.078 C 
ENDROOT
BRANCH   1   8
ATOM      8  C1  UNL d   1       2.256   1.237   0.880  0.00  0.00     0.053 C 
ATOM      9  C   UNL d   1       3.405   0.241   0.906  0.00  0.00     0.018 C 
ENDBRANCH   1   8
TORSDOF 1
ENDMDL
