MODEL 1
REMARK minimizedAffinity -0.116860852
REMARK minimizedRMSD -1
REMARK  1 active torsions:
REMARK  status: ('A' for Active; 'I' for Inactive)
REMARK    1  A    between atoms: C1_2  and  C2_3 
ROOT
ATOM      1  C2  UNL d   1       2.921   0.182  -1.171  0.00  0.00    -0.076 A 
ATOM      2  C3  UNL d   1       4.085   0.742  -0.616  0.00  0.00     0.004 A 
ATOM      3  C4  UNL d   1       4.098   1.221   0.693  0.00  0.00    -0.003 A 
ATOM      4  C5  UNL d   1       2.947   1.147   1.469  0.00  0.00     0.000 A 
ATOM      5  C6  UNL d   1       1.788   0.578   0.941  0.00  0.00     0.000 A 
ATOM      6  C7  UNL d   1       1.763   0.076  -0.371  0.00  0.00    -0.073 A 
ATOM      7  C8  UNL d   1       0.485  -0.522  -0.892  0.00  0.00     0.078 C 
ENDROOT
BRANCH   1   8
ATOM      8  C1  UNL d   1       2.960  -0.296  -2.605  0.00  0.00     0.053 C 
ATOM      9  C   UNL d   1       4.033   0.405  -3.424  0.00  0.00     0.018 C 
ENDBRANCH   1   8
TORSDOF 1
ENDMDL
