MODEL 1
REMARK minimizedAffinity 3.0171895
REMARK minimizedRMSD -1
REMARK  1 active torsions:
REMARK  status: ('A' for Active; 'I' for Inactive)
REMARK    1  A    between atoms: C1_2  and  C2_3 
ROOT
ATOM      1  C2  UNL d   1       0.608   1.464   0.304  0.00  0.00    -0.076 A 
ATOM      2  C3  UNL d   1       0.783   0.279  -0.433  0.00  0.00     0.004 A 
ATOM      3  C4  UNL d   1      -0.004   0.008  -1.551  0.00  0.00    -0.003 A 
ATOM      4  C5  UNL d   1      -0.977   0.916  -1.951  0.00  0.00     0.000 A 
ATOM      5  C6  UNL d   1      -1.152   2.104  -1.242  0.00  0.00     0.000 A 
ATOM      6  C7  UNL d   1      -0.357   2.401  -0.122  0.00  0.00    -0.073 A 
ATOM      7  C8  UNL d   1      -0.593   3.695   0.609  0.00  0.00     0.078 C 
ENDROOT
BRANCH   1   8
ATOM      8  C1  UNL d   1       1.472   1.692   1.524  0.00  0.00     0.053 C 
ATOM      9  C   UNL d   1       1.895   0.391   2.190  0.00  0.00     0.018 C 
ENDBRANCH   1   8
TORSDOF 1
ENDMDL
