MODEL 1
REMARK minimizedAffinity 10.227623
REMARK minimizedRMSD -1
REMARK  1 active torsions:
REMARK  status: ('A' for Active; 'I' for Inactive)
REMARK    1  A    between atoms: C1_2  and  C2_3 
ROOT
ATOM      1  C2  UNL d   1       2.771   0.267  -0.685  0.00  0.00    -0.076 A 
ATOM      2  C3  UNL d   1       3.899   0.622   0.075  0.00  0.00     0.004 A 
ATOM      3  C4  UNL d   1       3.841   0.667   1.467  0.00  0.00    -0.003 A 
ATOM      4  C5  UNL d   1       2.654   0.356   2.122  0.00  0.00     0.000 A 
ATOM      5  C6  UNL d   1       1.530  -0.015   1.384  0.00  0.00     0.000 A 
ATOM      6  C7  UNL d   1       1.576  -0.081  -0.019  0.00  0.00    -0.073 A 
ATOM      7  C8  UNL d   1       0.333  -0.482  -0.764  0.00  0.00     0.078 C 
ENDROOT
BRANCH   1   8
ATOM      8  C1  UNL d   1       2.885   0.263  -2.193  0.00  0.00     0.053 C 
ATOM      9  C   UNL d   1       4.102   1.031  -2.687  0.00  0.00     0.018 C 
ENDBRANCH   1   8
TORSDOF 1
ENDMDL
