MODEL 1
REMARK minimizedAffinity 2.32871461
REMARK minimizedRMSD -1
REMARK  1 active torsions:
REMARK  status: ('A' for Active; 'I' for Inactive)
REMARK    1  A    between atoms: C1_2  and  C2_3 
ROOT
ATOM      1  C2  UNL d   1       4.556   1.442  -0.504  0.00  0.00    -0.076 A 
ATOM      2  C3  UNL d   1       5.193   1.785  -1.710  0.00  0.00     0.004 A 
ATOM      3  C4  UNL d   1       4.690   1.350  -2.935  0.00  0.00    -0.003 A 
ATOM      4  C5  UNL d   1       3.543   0.565  -2.975  0.00  0.00     0.000 A 
ATOM      5  C6  UNL d   1       2.889   0.230  -1.790  0.00  0.00     0.000 A 
ATOM      6  C7  UNL d   1       3.373   0.674  -0.547  0.00  0.00    -0.073 A 
ATOM      7  C8  UNL d   1       2.631   0.278   0.700  0.00  0.00     0.078 C 
ENDROOT
BRANCH   1   8
ATOM      8  C1  UNL d   1       5.162   1.920   0.796  0.00  0.00     0.053 C 
ATOM      9  C   UNL d   1       4.705   3.321   1.171  0.00  0.00     0.018 C 
ENDBRANCH   1   8
TORSDOF 1
ENDMDL
