MODEL 1
REMARK minimizedAffinity 4.91901588
REMARK minimizedRMSD -1
REMARK  1 active torsions:
REMARK  status: ('A' for Active; 'I' for Inactive)
REMARK    1  A    between atoms: C1_2  and  C2_3 
ROOT
ATOM      1  C2  UNL d   1       2.863   0.248   0.689  0.00  0.00    -0.076 A 
ATOM      2  C3  UNL d   1       1.980  -0.470  -0.137  0.00  0.00     0.004 A 
ATOM      3  C4  UNL d   1       2.044  -0.357  -1.525  0.00  0.00    -0.003 A 
ATOM      4  C5  UNL d   1       2.993   0.474  -2.110  0.00  0.00     0.000 A 
ATOM      5  C6  UNL d   1       3.888   1.180  -1.307  0.00  0.00     0.000 A 
ATOM      6  C7  UNL d   1       3.848   1.065   0.094  0.00  0.00    -0.073 A 
ATOM      7  C8  UNL d   1       4.833   1.854   0.911  0.00  0.00     0.078 C 
ENDROOT
BRANCH   1   8
ATOM      8  C1  UNL d   1       2.728   0.108   2.188  0.00  0.00     0.053 C 
ATOM      9  C   UNL d   1       2.350  -1.304   2.609  0.00  0.00     0.018 C 
ENDBRANCH   1   8
TORSDOF 1
ENDMDL
