MODEL 1
REMARK minimizedAffinity 11.5312319
REMARK minimizedRMSD -1
REMARK  1 active torsions:
REMARK  status: ('A' for Active; 'I' for Inactive)
REMARK    1  A    between atoms: C1_2  and  C2_3 
ROOT
ATOM      1  C2  UNL d   1       4.734   1.713  -1.462  0.00  0.00    -0.076 A 
ATOM      2  C3  UNL d   1       3.768   1.182  -2.335  0.00  0.00     0.004 A 
ATOM      3  C4  UNL d   1       2.682   0.457  -1.848  0.00  0.00    -0.003 A 
ATOM      4  C5  UNL d   1       2.543   0.252  -0.480  0.00  0.00     0.000 A 
ATOM      5  C6  UNL d   1       3.482   0.786   0.402  0.00  0.00     0.000 A 
ATOM      6  C7  UNL d   1       4.574   1.534  -0.071  0.00  0.00    -0.073 A 
ATOM      7  C8  UNL d   1       5.559   2.082   0.924  0.00  0.00     0.078 C 
ENDROOT
BRANCH   1   8
ATOM      8  C1  UNL d   1       5.905   2.468  -2.050  0.00  0.00     0.053 C 
ATOM      9  C   UNL d   1       5.470   3.548  -3.029  0.00  0.00     0.018 C 
ENDBRANCH   1   8
TORSDOF 1
ENDMDL
