MODEL 1
REMARK minimizedAffinity 9.30924416
REMARK minimizedRMSD -1
REMARK  1 active torsions:
REMARK  status: ('A' for Active; 'I' for Inactive)
REMARK    1  A    between atoms: C1_2  and  C2_3 
ROOT
ATOM      1  C2  UNL d   1       4.891   1.767  -1.818  0.00  0.00    -0.076 A 
ATOM      2  C3  UNL d   1       3.901   1.133  -2.589  0.00  0.00     0.004 A 
ATOM      3  C4  UNL d   1       2.885   0.394  -1.984  0.00  0.00    -0.003 A 
ATOM      4  C5  UNL d   1       2.844   0.276  -0.600  0.00  0.00     0.000 A 
ATOM      5  C6  UNL d   1       3.808   0.913   0.181  0.00  0.00     0.000 A 
ATOM      6  C7  UNL d   1       4.828   1.676  -0.411  0.00  0.00    -0.073 A 
ATOM      7  C8  UNL d   1       5.845   2.336   0.479  0.00  0.00     0.078 C 
ENDROOT
BRANCH   1   8
ATOM      8  C1  UNL d   1       5.983   2.533  -2.530  0.00  0.00     0.053 C 
ATOM      9  C   UNL d   1       5.505   3.880  -3.051  0.00  0.00     0.018 C 
ENDBRANCH   1   8
TORSDOF 1
ENDMDL
