MODEL 1
REMARK minimizedAffinity 3.03891063
REMARK minimizedRMSD -1
REMARK  1 active torsions:
REMARK  status: ('A' for Active; 'I' for Inactive)
REMARK    1  A    between atoms: C1_2  and  C2_3 
ROOT
ATOM      1  C2  UNL d   1       4.761   1.737   0.099  0.00  0.00    -0.076 A 
ATOM      2  C3  UNL d   1       5.291   2.183  -1.125  0.00  0.00     0.004 A 
ATOM      3  C4  UNL d   1       4.734   1.781  -2.337  0.00  0.00    -0.003 A 
ATOM      4  C5  UNL d   1       3.636   0.927  -2.346  0.00  0.00     0.000 A 
ATOM      5  C6  UNL d   1       3.086   0.489  -1.142  0.00  0.00     0.000 A 
ATOM      6  C7  UNL d   1       3.627   0.898   0.090  0.00  0.00    -0.073 A 
ATOM      7  C8  UNL d   1       2.998   0.390   1.358  0.00  0.00     0.078 C 
ENDROOT
BRANCH   1   8
ATOM      8  C1  UNL d   1       5.425   2.185   1.381  0.00  0.00     0.053 C 
ATOM      9  C   UNL d   1       4.871   3.505   1.894  0.00  0.00     0.018 C 
ENDBRANCH   1   8
TORSDOF 1
ENDMDL
