MODEL 1
REMARK minimizedAffinity -2.36253381
REMARK minimizedRMSD -1
REMARK  1 active torsions:
REMARK  status: ('A' for Active; 'I' for Inactive)
REMARK    1  A    between atoms: C1_2  and  C2_3 
ROOT
ATOM      1  C2  UNL d   1       0.242  -0.540   0.511  0.00  0.00    -0.073 A 
ATOM      2  C3  UNL d   1       0.845  -1.054   1.665  0.00  0.00    -0.002 A 
ATOM      3  C4  UNL d   1       0.063  -1.582   2.693  0.00  0.00     0.004 A 
ATOM      4  C5  UNL d   1      -1.326  -1.609   2.575  0.00  0.00    -0.004 A 
ATOM      5  C6  UNL d   1      -1.947  -1.111   1.425  0.00  0.00    -0.075 A 
ATOM      6  C7  UNL d   1      -3.441  -1.130   1.284  0.00  0.00     0.076 C 
ATOM      7  C8  UNL d   1      -1.155  -0.579   0.398  0.00  0.00     0.001 A 
ENDROOT
BRANCH   1   8
ATOM      8  C1  UNL d   1       1.082   0.026  -0.605  0.00  0.00     0.053 C 
ATOM      9  C   UNL d   1       2.109  -0.976  -1.109  0.00  0.00     0.018 C 
ENDBRANCH   1   8
TORSDOF 1
ENDMDL
