MODEL 1
REMARK minimizedAffinity -2.2536819
REMARK minimizedRMSD -1
REMARK  1 active torsions:
REMARK  status: ('A' for Active; 'I' for Inactive)
REMARK    1  A    between atoms: C1_2  and  C2_3 
ROOT
ATOM      1  C2  UNL d   1       0.013   0.276  -1.433  0.00  0.00    -0.073 A 
ATOM      2  C3  UNL d   1       1.092   0.705  -2.215  0.00  0.00    -0.002 A 
ATOM      3  C4  UNL d   1       0.876   1.513  -3.332  0.00  0.00     0.004 A 
ATOM      4  C5  UNL d   1      -0.418   1.906  -3.675  0.00  0.00    -0.004 A 
ATOM      5  C6  UNL d   1      -1.508   1.498  -2.899  0.00  0.00    -0.075 A 
ATOM      6  C7  UNL d   1      -2.906   1.910  -3.255  0.00  0.00     0.076 C 
ATOM      7  C8  UNL d   1      -1.283   0.684  -1.780  0.00  0.00     0.001 A 
ENDROOT
BRANCH   1   8
ATOM      8  C1  UNL d   1       0.242  -0.591  -0.222  0.00  0.00     0.053 C 
ATOM      9  C   UNL d   1       1.521  -0.218   0.512  0.00  0.00     0.018 C 
ENDBRANCH   1   8
TORSDOF 1
ENDMDL
