MODEL 1
REMARK minimizedAffinity -2.2122314
REMARK minimizedRMSD -1
REMARK  1 active torsions:
REMARK  status: ('A' for Active; 'I' for Inactive)
REMARK    1  A    between atoms: C1_2  and  C2_3 
ROOT
ATOM      1  C2  UNL d   1       0.281  -0.364   0.287  0.00  0.00    -0.073 A 
ATOM      2  C3  UNL d   1       1.524  -0.015   0.826  0.00  0.00    -0.002 A 
ATOM      3  C4  UNL d   1       1.783  -0.209   2.184  0.00  0.00     0.004 A 
ATOM      4  C5  UNL d   1       0.806  -0.760   3.013  0.00  0.00    -0.004 A 
ATOM      5  C6  UNL d   1      -0.438  -1.126   2.490  0.00  0.00    -0.075 A 
ATOM      6  C7  UNL d   1      -1.501  -1.717   3.369  0.00  0.00     0.076 C 
ATOM      7  C8  UNL d   1      -0.692  -0.925   1.127  0.00  0.00     0.001 A 
ENDROOT
BRANCH   1   8
ATOM      8  C1  UNL d   1      -0.001  -0.162  -1.180  0.00  0.00     0.053 C 
ATOM      9  C   UNL d   1      -1.488  -0.006  -1.458  0.00  0.00     0.018 C 
ENDBRANCH   1   8
TORSDOF 1
ENDMDL
