MODEL 1
REMARK minimizedAffinity -4.25701141
REMARK minimizedRMSD -1
REMARK  1 active torsions:
REMARK  status: ('A' for Active; 'I' for Inactive)
REMARK    1  A    between atoms: C1_2  and  C2_3 
ROOT
ATOM      1  C2  UNL d   1      -0.481   0.027  -0.187  0.00  0.00    -0.073 A 
ATOM      2  C3  UNL d   1      -1.789  -0.308   0.179  0.00  0.00    -0.002 A 
ATOM      3  C4  UNL d   1      -2.087  -0.649   1.499  0.00  0.00     0.004 A 
ATOM      4  C5  UNL d   1      -1.083  -0.651   2.467  0.00  0.00    -0.004 A 
ATOM      5  C6  UNL d   1       0.229  -0.307   2.123  0.00  0.00    -0.075 A 
ATOM      6  C7  UNL d   1       1.321  -0.307   3.152  0.00  0.00     0.076 C 
ATOM      7  C8  UNL d   1       0.520   0.031   0.795  0.00  0.00     0.001 A 
ENDROOT
BRANCH   1   8
ATOM      8  C1  UNL d   1      -0.156   0.403  -1.610  0.00  0.00     0.053 C 
ATOM      9  C   UNL d   1      -0.640   1.802  -1.955  0.00  0.00     0.018 C 
ENDBRANCH   1   8
TORSDOF 1
ENDMDL
