MODEL 1
REMARK minimizedAffinity -5.04572153
REMARK minimizedRMSD -1
REMARK  0 active torsions:
REMARK  status: ('A' for Active; 'I' for Inactive)
ROOT
ATOM      1  C   UNL d   1       2.131   2.926   1.277  0.00  0.00    -0.002 A 
ATOM      2  C1  UNL d   1       2.877   2.187   0.370  0.00  0.00     0.010 A 
ATOM      3  C2  UNL d   1       2.316   1.087  -0.282  0.00  0.00     0.041 A 
ATOM      4  C3  UNL d   1       0.979   0.741  -0.006  0.00  0.00    -0.075 A 
ATOM      5  S   UNL d   1       0.081  -0.566  -0.685  0.00  0.00     0.015 SA
ATOM      6  C4  UNL d   1      -1.313  -0.172   0.212  0.00  0.00     0.022 A 
ATOM      7  C5  UNL d   1      -1.117   0.926   1.016  0.00  0.00     0.026 A 
ATOM      8  C6  UNL d   1       0.207   1.470   0.903  0.00  0.00    -0.082 A 
ATOM      9  C7  UNL d   1       0.805   2.579   1.548  0.00  0.00     0.045 A 
ENDROOT
TORSDOF 0
ENDMDL
