MODEL 1
REMARK minimizedAffinity -3.85595393
REMARK minimizedRMSD -1
REMARK  0 active torsions:
REMARK  status: ('A' for Active; 'I' for Inactive)
ROOT
ATOM      1  C   UNL d   1       0.217   2.442   1.482  0.00  0.00    -0.002 A 
ATOM      2  C1  UNL d   1       1.476   2.324   0.910  0.00  0.00     0.010 A 
ATOM      3  C2  UNL d   1       1.726   1.358  -0.066  0.00  0.00     0.041 A 
ATOM      4  C3  UNL d   1       0.678   0.504  -0.463  0.00  0.00    -0.075 A 
ATOM      5  S   UNL d   1       0.752  -0.753  -1.641  0.00  0.00     0.015 SA
ATOM      6  C4  UNL d   1      -0.887  -1.163  -1.414  0.00  0.00     0.022 A 
ATOM      7  C5  UNL d   1      -1.490  -0.371  -0.466  0.00  0.00     0.026 A 
ATOM      8  C6  UNL d   1      -0.598   0.603   0.098  0.00  0.00    -0.082 A 
ATOM      9  C7  UNL d   1      -0.819   1.593   1.085  0.00  0.00     0.045 A 
ENDROOT
TORSDOF 0
ENDMDL
