MODEL 1
REMARK minimizedAffinity -0.364078611
REMARK minimizedRMSD -1
REMARK  0 active torsions:
REMARK  status: ('A' for Active; 'I' for Inactive)
ROOT
ATOM      1  C   UNL d   1      -0.266   1.881   2.056  0.00  0.00    -0.002 A 
ATOM      2  C1  UNL d   1       1.086   1.598   1.923  0.00  0.00     0.010 A 
ATOM      3  C2  UNL d   1       1.522   0.606   1.042  0.00  0.00     0.041 A 
ATOM      4  C3  UNL d   1       0.566  -0.103   0.288  0.00  0.00    -0.075 A 
ATOM      5  S   UNL d   1       0.867  -1.359  -0.854  0.00  0.00     0.015 SA
ATOM      6  C4  UNL d   1      -0.792  -1.549  -1.194  0.00  0.00     0.022 A 
ATOM      7  C5  UNL d   1      -1.571  -0.684  -0.462  0.00  0.00     0.026 A 
ATOM      8  C6  UNL d   1      -0.801   0.165   0.403  0.00  0.00    -0.082 A 
ATOM      9  C7  UNL d   1      -1.211   1.175   1.306  0.00  0.00     0.045 A 
ENDROOT
TORSDOF 0
ENDMDL
