MODEL 1
REMARK minimizedAffinity -2.50579882
REMARK minimizedRMSD -1
REMARK  0 active torsions:
REMARK  status: ('A' for Active; 'I' for Inactive)
ROOT
ATOM      1  C   UNL d   1       0.877   2.591   1.510  0.00  0.00    -0.002 A 
ATOM      2  C1  UNL d   1       1.506   2.655   0.275  0.00  0.00     0.010 A 
ATOM      3  C2  UNL d   1       1.258   1.686  -0.699  0.00  0.00     0.041 A 
ATOM      4  C3  UNL d   1       0.357   0.643  -0.409  0.00  0.00    -0.075 A 
ATOM      5  S   UNL d   1      -0.101  -0.654  -1.448  0.00  0.00     0.015 SA
ATOM      6  C4  UNL d   1      -1.143  -1.323  -0.277  0.00  0.00     0.022 A 
ATOM      7  C5  UNL d   1      -1.153  -0.588   0.884  0.00  0.00     0.026 A 
ATOM      8  C6  UNL d   1      -0.289   0.557   0.828  0.00  0.00    -0.082 A 
ATOM      9  C7  UNL d   1      -0.016   1.555   1.795  0.00  0.00     0.045 A 
ENDROOT
TORSDOF 0
ENDMDL
