MODEL 1
REMARK minimizedAffinity -4.37982941
REMARK minimizedRMSD -1
REMARK  0 active torsions:
REMARK  status: ('A' for Active; 'I' for Inactive)
ROOT
ATOM      1  C   UNL d   1       2.820   1.505   0.031  0.00  0.00    -0.002 A 
ATOM      2  C1  UNL d   1       2.047   2.250   0.911  0.00  0.00     0.010 A 
ATOM      3  C2  UNL d   1       0.747   1.850   1.228  0.00  0.00     0.041 A 
ATOM      4  C3  UNL d   1       0.233   0.678   0.640  0.00  0.00    -0.075 A 
ATOM      5  S   UNL d   1      -1.332  -0.004   0.881  0.00  0.00     0.015 SA
ATOM      6  C4  UNL d   1      -1.012  -1.301  -0.178  0.00  0.00     0.022 A 
ATOM      7  C5  UNL d   1       0.253  -1.230  -0.711  0.00  0.00     0.026 A 
ATOM      8  C6  UNL d   1       0.992  -0.089  -0.248  0.00  0.00    -0.082 A 
ATOM      9  C7  UNL d   1       2.306   0.343  -0.549  0.00  0.00     0.045 A 
ENDROOT
TORSDOF 0
ENDMDL
