MODEL 1
REMARK minimizedAffinity -0.0573123321
REMARK minimizedRMSD -1
REMARK  0 active torsions:
REMARK  status: ('A' for Active; 'I' for Inactive)
ROOT
ATOM      1  C   UNL d   1      -1.330  -1.128  -2.677  0.00  0.00    -0.002 A 
ATOM      2  C1  UNL d   1      -0.617  -2.121  -2.020  0.00  0.00     0.010 A 
ATOM      3  C2  UNL d   1      -0.165  -1.925  -0.713  0.00  0.00     0.041 A 
ATOM      4  C3  UNL d   1      -0.447  -0.703  -0.071  0.00  0.00    -0.075 A 
ATOM      5  S   UNL d   1       0.004  -0.240   1.527  0.00  0.00     0.015 SA
ATOM      6  C4  UNL d   1      -0.740   1.286   1.376  0.00  0.00     0.022 A 
ATOM      7  C5  UNL d   1      -1.323   1.455   0.142  0.00  0.00     0.026 A 
ATOM      8  C6  UNL d   1      -1.164   0.312  -0.712  0.00  0.00    -0.082 A 
ATOM      9  C7  UNL d   1      -1.607   0.083  -2.037  0.00  0.00     0.045 A 
ENDROOT
TORSDOF 0
ENDMDL
