MODEL 1
REMARK minimizedAffinity -2.20361686
REMARK minimizedRMSD -1
REMARK  0 active torsions:
REMARK  status: ('A' for Active; 'I' for Inactive)
ROOT
ATOM      1  C   UNL d   1       0.005   1.707   1.998  0.00  0.00    -0.002 A 
ATOM      2  C1  UNL d   1       1.278   1.872   1.473  0.00  0.00     0.010 A 
ATOM      3  C2  UNL d   1       1.759   1.005   0.489  0.00  0.00     0.041 A 
ATOM      4  C3  UNL d   1       0.928  -0.040   0.037  0.00  0.00    -0.075 A 
ATOM      5  S   UNL d   1       1.304  -1.222  -1.160  0.00  0.00     0.015 SA
ATOM      6  C4  UNL d   1      -0.218  -1.974  -1.002  0.00  0.00     0.022 A 
ATOM      7  C5  UNL d   1      -1.005  -1.351  -0.063  0.00  0.00     0.026 A 
ATOM      8  C6  UNL d   1      -0.358  -0.226   0.551  0.00  0.00    -0.082 A 
ATOM      9  C7  UNL d   1      -0.816   0.670   1.548  0.00  0.00     0.045 A 
ENDROOT
TORSDOF 0
ENDMDL
