MODEL 1
REMARK minimizedAffinity -2.01165724
REMARK minimizedRMSD -1
REMARK  0 active torsions:
REMARK  status: ('A' for Active; 'I' for Inactive)
ROOT
ATOM      1  C   UNL d   1       2.747   2.251   0.763  0.00  0.00    -0.002 A 
ATOM      2  C1  UNL d   1       1.981   2.435   1.906  0.00  0.00     0.010 A 
ATOM      3  C2  UNL d   1       0.754   1.785   2.050  0.00  0.00     0.041 A 
ATOM      4  C3  UNL d   1       0.306   0.937   1.018  0.00  0.00    -0.075 A 
ATOM      5  S   UNL d   1      -1.164   0.036   0.977  0.00  0.00     0.015 SA
ATOM      6  C4  UNL d   1      -0.809  -0.615  -0.557  0.00  0.00     0.022 A 
ATOM      7  C5  UNL d   1       0.397  -0.167  -1.041  0.00  0.00     0.026 A 
ATOM      8  C6  UNL d   1       1.060   0.734  -0.141  0.00  0.00    -0.082 A 
ATOM      9  C7  UNL d   1       2.300   1.408  -0.258  0.00  0.00     0.045 A 
ENDROOT
TORSDOF 0
ENDMDL
