MODEL 1
REMARK minimizedAffinity 0.186283424
REMARK minimizedRMSD -1
REMARK  0 active torsions:
REMARK  status: ('A' for Active; 'I' for Inactive)
ROOT
ATOM      1  C   UNL d   1       1.699   2.575   1.669  0.00  0.00    -0.002 A 
ATOM      2  C1  UNL d   1       2.356   2.090   0.546  0.00  0.00     0.010 A 
ATOM      3  C2  UNL d   1       1.792   1.069  -0.221  0.00  0.00     0.041 A 
ATOM      4  C3  UNL d   1       0.545   0.539   0.162  0.00  0.00    -0.075 A 
ATOM      5  S   UNL d   1      -0.338  -0.715  -0.627  0.00  0.00     0.015 SA
ATOM      6  C4  UNL d   1      -1.607  -0.637   0.507  0.00  0.00     0.022 A 
ATOM      7  C5  UNL d   1      -1.380   0.317   1.471  0.00  0.00     0.026 A 
ATOM      8  C6  UNL d   1      -0.137   1.011   1.287  0.00  0.00    -0.082 A 
ATOM      9  C7  UNL d   1       0.461   2.046   2.045  0.00  0.00     0.045 A 
ENDROOT
TORSDOF 0
ENDMDL
