MODEL 1
REMARK minimizedAffinity -3.01263666
REMARK minimizedRMSD -1
REMARK  0 active torsions:
REMARK  status: ('A' for Active; 'I' for Inactive)
ROOT
ATOM      1  C   UNL d   1       1.849   2.657   1.787  0.00  0.00    -0.002 A 
ATOM      2  C1  UNL d   1       2.955   1.942   1.350  0.00  0.00     0.010 A 
ATOM      3  C2  UNL d   1       2.796   0.792   0.574  0.00  0.00     0.041 A 
ATOM      4  C3  UNL d   1       1.494   0.370   0.239  0.00  0.00    -0.075 A 
ATOM      5  S   UNL d   1       1.058  -1.007  -0.701  0.00  0.00     0.015 SA
ATOM      6  C4  UNL d   1      -0.607  -0.679  -0.546  0.00  0.00     0.022 A 
ATOM      7  C5  UNL d   1      -0.842   0.450   0.203  0.00  0.00     0.026 A 
ATOM      8  C6  UNL d   1       0.365   1.073   0.667  0.00  0.00    -0.082 A 
ATOM      9  C7  UNL d   1       0.559   2.234   1.454  0.00  0.00     0.045 A 
ENDROOT
TORSDOF 0
ENDMDL
