MODEL 1
REMARK minimizedAffinity 7.09516811
REMARK minimizedRMSD -1
REMARK  1 active torsions:
REMARK  status: ('A' for Active; 'I' for Inactive)
REMARK    1  A    between atoms: C1_2  and  C2_3 
ROOT
ATOM      1  C2  UNL d   1       1.222  -2.673   0.906  0.00  0.00    -0.073 A 
ATOM      2  C3  UNL d   1       1.458  -2.549  -0.468  0.00  0.00    -0.002 A 
ATOM      3  C4  UNL d   1       2.602  -3.106  -1.040  0.00  0.00     0.004 A 
ATOM      4  C5  UNL d   1       3.518  -3.797  -0.248  0.00  0.00    -0.004 A 
ATOM      5  C6  UNL d   1       3.295  -3.941   1.126  0.00  0.00    -0.075 A 
ATOM      6  C7  UNL d   1       4.272  -4.680   1.992  0.00  0.00     0.076 C 
ATOM      7  C8  UNL d   1       2.145  -3.378   1.693  0.00  0.00     0.001 A 
ENDROOT
BRANCH   1   8
ATOM      8  C1  UNL d   1      -0.015  -2.080   1.527  0.00  0.00     0.053 C 
ATOM      9  C   UNL d   1      -1.189  -3.046   1.496  0.00  0.00     0.018 C 
ENDBRANCH   1   8
TORSDOF 1
ENDMDL
