MODEL 1
REMARK minimizedAffinity 5.38162231
REMARK minimizedRMSD -1
REMARK  1 active torsions:
REMARK  status: ('A' for Active; 'I' for Inactive)
REMARK    1  A    between atoms: C1_2  and  C2_3 
ROOT
ATOM      1  C2  UNL d   1      -2.033   3.450  -4.536  0.00  0.00    -0.073 A 
ATOM      2  C3  UNL d   1      -3.331   3.889  -4.251  0.00  0.00    -0.002 A 
ATOM      3  C4  UNL d   1      -4.227   3.052  -3.584  0.00  0.00     0.004 A 
ATOM      4  C5  UNL d   1      -3.832   1.774  -3.189  0.00  0.00    -0.004 A 
ATOM      5  C6  UNL d   1      -2.535   1.322  -3.454  0.00  0.00    -0.075 A 
ATOM      6  C7  UNL d   1      -2.096  -0.051  -3.037  0.00  0.00     0.076 C 
ATOM      7  C8  UNL d   1      -1.642   2.167  -4.127  0.00  0.00     0.001 A 
ENDROOT
BRANCH   1   8
ATOM      8  C1  UNL d   1      -1.060   4.353  -5.250  0.00  0.00     0.053 C 
ATOM      9  C   UNL d   1       0.004   3.565  -5.998  0.00  0.00     0.018 C 
ENDBRANCH   1   8
TORSDOF 1
ENDMDL
