MODEL 1
REMARK minimizedAffinity 4.50628614
REMARK minimizedRMSD -1
REMARK  1 active torsions:
REMARK  status: ('A' for Active; 'I' for Inactive)
REMARK    1  A    between atoms: C1_2  and  C2_3 
ROOT
ATOM      1  C2  UNL d   1       0.847  -3.741   1.075  0.00  0.00    -0.073 A 
ATOM      2  C3  UNL d   1       1.505  -2.670   0.459  0.00  0.00    -0.002 A 
ATOM      3  C4  UNL d   1       2.895  -2.673   0.336  0.00  0.00     0.004 A 
ATOM      4  C5  UNL d   1       3.640  -3.747   0.821  0.00  0.00    -0.004 A 
ATOM      5  C6  UNL d   1       3.000  -4.832   1.430  0.00  0.00    -0.075 A 
ATOM      6  C7  UNL d   1       3.788  -5.995   1.959  0.00  0.00     0.076 C 
ATOM      7  C8  UNL d   1       1.604  -4.821   1.552  0.00  0.00     0.001 A 
ENDROOT
BRANCH   1   8
ATOM      8  C1  UNL d   1      -0.654  -3.745   1.204  0.00  0.00     0.053 C 
ATOM      9  C   UNL d   1      -1.125  -2.958   2.417  0.00  0.00     0.018 C 
ENDBRANCH   1   8
TORSDOF 1
ENDMDL
