MODEL 1
REMARK minimizedAffinity 11.3205986
REMARK minimizedRMSD -1
REMARK  1 active torsions:
REMARK  status: ('A' for Active; 'I' for Inactive)
REMARK    1  A    between atoms: C1_2  and  C2_3 
ROOT
ATOM      1  C2  UNL d   1      -1.389   1.357  -3.877  0.00  0.00    -0.073 A 
ATOM      2  C3  UNL d   1      -2.508   2.107  -3.496  0.00  0.00    -0.002 A 
ATOM      3  C4  UNL d   1      -2.646   3.430  -3.918  0.00  0.00     0.004 A 
ATOM      4  C5  UNL d   1      -1.673   4.014  -4.728  0.00  0.00    -0.004 A 
ATOM      5  C6  UNL d   1      -0.554   3.277  -5.129  0.00  0.00    -0.075 A 
ATOM      6  C7  UNL d   1       0.504   3.891  -5.999  0.00  0.00     0.076 C 
ATOM      7  C8  UNL d   1      -0.421   1.949  -4.699  0.00  0.00     0.001 A 
ENDROOT
BRANCH   1   8
ATOM      8  C1  UNL d   1      -1.239  -0.074  -3.429  0.00  0.00     0.053 C 
ATOM      9  C   UNL d   1       0.167  -0.601  -3.668  0.00  0.00     0.018 C 
ENDBRANCH   1   8
TORSDOF 1
ENDMDL
