MODEL 1
REMARK minimizedAffinity 8.87065411
REMARK minimizedRMSD -1
REMARK  1 active torsions:
REMARK  status: ('A' for Active; 'I' for Inactive)
REMARK    1  A    between atoms: C1_2  and  C2_3 
ROOT
ATOM      1  C2  UNL d   1      -4.892   3.622  -2.124  0.00  0.00    -0.076 A 
ATOM      2  C3  UNL d   1      -4.727   3.382  -0.749  0.00  0.00     0.004 A 
ATOM      3  C4  UNL d   1      -3.738   2.516  -0.286  0.00  0.00    -0.003 A 
ATOM      4  C5  UNL d   1      -2.897   1.877  -1.190  0.00  0.00     0.000 A 
ATOM      5  C6  UNL d   1      -3.035   2.118  -2.557  0.00  0.00     0.000 A 
ATOM      6  C7  UNL d   1      -4.017   3.000  -3.040  0.00  0.00    -0.073 A 
ATOM      7  C8  UNL d   1      -4.125   3.217  -4.524  0.00  0.00     0.078 C 
ENDROOT
BRANCH   1   8
ATOM      8  C1  UNL d   1      -6.000   4.550  -2.570  0.00  0.00     0.053 C 
ATOM      9  C   UNL d   1      -5.995   5.869  -1.812  0.00  0.00     0.018 C 
ENDBRANCH   1   8
TORSDOF 1
ENDMDL
