MODEL 1
REMARK minimizedAffinity 9.42161083
REMARK minimizedRMSD -1
REMARK  1 active torsions:
REMARK  status: ('A' for Active; 'I' for Inactive)
REMARK    1  A    between atoms: C1_2  and  C2_3 
ROOT
ATOM      1  C2  UNL d   1       1.155  -4.336   3.243  0.00  0.00    -0.076 A 
ATOM      2  C3  UNL d   1       1.108  -3.060   2.654  0.00  0.00     0.004 A 
ATOM      3  C4  UNL d   1       0.632  -1.959   3.365  0.00  0.00    -0.003 A 
ATOM      4  C5  UNL d   1       0.197  -2.116   4.676  0.00  0.00     0.000 A 
ATOM      5  C6  UNL d   1       0.254  -3.371   5.282  0.00  0.00     0.000 A 
ATOM      6  C7  UNL d   1       0.746  -4.488   4.585  0.00  0.00    -0.073 A 
ATOM      7  C8  UNL d   1       0.779  -5.819   5.285  0.00  0.00     0.078 C 
ENDROOT
BRANCH   1   8
ATOM      8  C1  UNL d   1       1.655  -5.498   2.414  0.00  0.00     0.053 C 
ATOM      9  C   UNL d   1       1.566  -5.229   0.920  0.00  0.00     0.018 C 
ENDBRANCH   1   8
TORSDOF 1
ENDMDL
