MODEL 1
REMARK minimizedAffinity -0.103535071
REMARK minimizedRMSD -1
REMARK  1 active torsions:
REMARK  status: ('A' for Active; 'I' for Inactive)
REMARK    1  A    between atoms: C1_2  and  C2_3 
ROOT
ATOM      1  C2  UNL d   1       4.251   4.570  -3.566  0.00  0.00    -0.076 A 
ATOM      2  C3  UNL d   1       3.762   4.088  -4.793  0.00  0.00     0.004 A 
ATOM      3  C4  UNL d   1       4.337   4.482  -6.000  0.00  0.00    -0.003 A 
ATOM      4  C5  UNL d   1       5.413   5.363  -6.000  0.00  0.00     0.000 A 
ATOM      5  C6  UNL d   1       5.923   5.837  -4.792  0.00  0.00     0.000 A 
ATOM      6  C7  UNL d   1       5.364   5.438  -3.565  0.00  0.00    -0.073 A 
ATOM      7  C8  UNL d   1       5.950   5.985  -2.293  0.00  0.00     0.078 C 
ENDROOT
BRANCH   1   8
ATOM      8  C1  UNL d   1       3.570   4.130  -2.291  0.00  0.00     0.053 C 
ATOM      9  C   UNL d   1       2.099   4.516  -2.253  0.00  0.00     0.018 C 
ENDBRANCH   1   8
TORSDOF 1
ENDMDL
