MODEL 1
REMARK minimizedAffinity 17.6896801
REMARK minimizedRMSD -1
REMARK  1 active torsions:
REMARK  status: ('A' for Active; 'I' for Inactive)
REMARK    1  A    between atoms: C1_2  and  C2_3 
ROOT
ATOM      1  C2  UNL d   1      -4.804   3.464  -0.969  0.00  0.00    -0.076 A 
ATOM      2  C3  UNL d   1      -5.274   3.276  -2.280  0.00  0.00     0.004 A 
ATOM      3  C4  UNL d   1      -4.632   2.400  -3.154  0.00  0.00    -0.003 A 
ATOM      4  C5  UNL d   1      -3.511   1.695  -2.729  0.00  0.00     0.000 A 
ATOM      5  C6  UNL d   1      -3.042   1.855  -1.426  0.00  0.00     0.000 A 
ATOM      6  C7  UNL d   1      -3.687   2.723  -0.527  0.00  0.00    -0.073 A 
ATOM      7  C8  UNL d   1      -3.134   2.862   0.865  0.00  0.00     0.078 C 
ENDROOT
BRANCH   1   8
ATOM      8  C1  UNL d   1      -5.524   4.448  -0.075  0.00  0.00     0.053 C 
ATOM      9  C   UNL d   1      -5.889   5.734  -0.800  0.00  0.00     0.018 C 
ENDBRANCH   1   8
TORSDOF 1
ENDMDL
