MODEL 1
REMARK minimizedAffinity 13.5084925
REMARK minimizedRMSD -1
REMARK  1 active torsions:
REMARK  status: ('A' for Active; 'I' for Inactive)
REMARK    1  A    between atoms: C1_2  and  C2_3 
ROOT
ATOM      1  C2  UNL d   1      -4.729   3.833  -0.043  0.00  0.00    -0.076 A 
ATOM      2  C3  UNL d   1      -3.509   3.636  -0.713  0.00  0.00     0.004 A 
ATOM      3  C4  UNL d   1      -2.305   3.588  -0.012  0.00  0.00    -0.003 A 
ATOM      4  C5  UNL d   1      -2.302   3.735   1.370  0.00  0.00     0.000 A 
ATOM      5  C6  UNL d   1      -3.505   3.914   2.053  0.00  0.00     0.000 A 
ATOM      6  C7  UNL d   1      -4.729   3.949   1.363  0.00  0.00    -0.073 A 
ATOM      7  C8  UNL d   1      -5.995   4.150   2.149  0.00  0.00     0.078 C 
ENDROOT
BRANCH   1   8
ATOM      8  C1  UNL d   1      -6.000   3.904  -0.859  0.00  0.00     0.053 C 
ATOM      9  C   UNL d   1      -5.994   2.937  -2.033  0.00  0.00     0.018 C 
ENDBRANCH   1   8
TORSDOF 1
ENDMDL
