MODEL 1
REMARK minimizedAffinity 14.9089022
REMARK minimizedRMSD -1
REMARK  1 active torsions:
REMARK  status: ('A' for Active; 'I' for Inactive)
REMARK    1  A    between atoms: C1_2  and  C2_3 
ROOT
ATOM      1  C2  UNL d   1       0.774  -0.278   2.576  0.00  0.00    -0.076 A 
ATOM      2  C3  UNL d   1       0.007  -0.627   3.702  0.00  0.00     0.004 A 
ATOM      3  C4  UNL d   1       0.051  -1.917   4.228  0.00  0.00    -0.003 A 
ATOM      4  C5  UNL d   1       0.862  -2.879   3.637  0.00  0.00     0.000 A 
ATOM      5  C6  UNL d   1       1.643  -2.546   2.530  0.00  0.00     0.000 A 
ATOM      6  C7  UNL d   1       1.623  -1.246   1.998  0.00  0.00    -0.073 A 
ATOM      7  C8  UNL d   1       2.480  -0.943   0.799  0.00  0.00     0.078 C 
ENDROOT
BRANCH   1   8
ATOM      8  C1  UNL d   1       0.665   1.129   2.034  0.00  0.00     0.053 C 
ATOM      9  C   UNL d   1       1.658   2.082   2.682  0.00  0.00     0.018 C 
ENDBRANCH   1   8
TORSDOF 1
ENDMDL
