MODEL 1
REMARK minimizedAffinity 2.4276495
REMARK minimizedRMSD -1
REMARK  1 active torsions:
REMARK  status: ('A' for Active; 'I' for Inactive)
REMARK    1  A    between atoms: C1_2  and  C2_3 
ROOT
ATOM      1  C2  UNL d   1       1.926   0.053   2.272  0.00  0.00    -0.076 A 
ATOM      2  C3  UNL d   1       1.471  -1.232   1.929  0.00  0.00     0.004 A 
ATOM      3  C4  UNL d   1       0.849  -2.048   2.871  0.00  0.00    -0.003 A 
ATOM      4  C5  UNL d   1       0.671  -1.593   4.173  0.00  0.00     0.000 A 
ATOM      5  C6  UNL d   1       1.100  -0.314   4.527  0.00  0.00     0.000 A 
ATOM      6  C7  UNL d   1       1.715   0.528   3.584  0.00  0.00    -0.073 A 
ATOM      7  C8  UNL d   1       2.164   1.895   4.022  0.00  0.00     0.078 C 
ENDROOT
BRANCH   1   8
ATOM      8  C1  UNL d   1       2.619   0.883   1.215  0.00  0.00     0.053 C 
ATOM      9  C   UNL d   1       3.353   0.029   0.192  0.00  0.00     0.018 C 
ENDBRANCH   1   8
TORSDOF 1
ENDMDL
