MODEL 1
REMARK minimizedAffinity 5.09102964
REMARK minimizedRMSD -1
REMARK  1 active torsions:
REMARK  status: ('A' for Active; 'I' for Inactive)
REMARK    1  A    between atoms: C1_2  and  C2_3 
ROOT
ATOM      1  C2  UNL d   1       4.604   3.886  -4.381  0.00  0.00    -0.076 A 
ATOM      2  C3  UNL d   1       3.909   3.551  -3.206  0.00  0.00     0.004 A 
ATOM      3  C4  UNL d   1       3.878   4.423  -2.118  0.00  0.00    -0.003 A 
ATOM      4  C5  UNL d   1       4.539   5.644  -2.188  0.00  0.00     0.000 A 
ATOM      5  C6  UNL d   1       5.218   6.000  -3.353  0.00  0.00     0.000 A 
ATOM      6  C7  UNL d   1       5.247   5.140  -4.465  0.00  0.00    -0.073 A 
ATOM      7  C8  UNL d   1       5.999   5.573  -5.693  0.00  0.00     0.078 C 
ENDROOT
BRANCH   1   8
ATOM      8  C1  UNL d   1       4.626   2.890  -5.518  0.00  0.00     0.053 C 
ATOM      9  C   UNL d   1       5.954   2.156  -5.623  0.00  0.00     0.018 C 
ENDBRANCH   1   8
TORSDOF 1
ENDMDL
