MODEL 1
REMARK minimizedAffinity 3.87237048
REMARK minimizedRMSD -1
REMARK  1 active torsions:
REMARK  status: ('A' for Active; 'I' for Inactive)
REMARK    1  A    between atoms: C1_2  and  C2_3 
ROOT
ATOM      1  C2  UNL d   1       5.116   4.815  -3.884  0.00  0.00    -0.076 A 
ATOM      2  C3  UNL d   1       5.358   5.851  -2.966  0.00  0.00     0.004 A 
ATOM      3  C4  UNL d   1       4.570   5.997  -1.825  0.00  0.00    -0.003 A 
ATOM      4  C5  UNL d   1       3.527   5.110  -1.585  0.00  0.00     0.000 A 
ATOM      5  C6  UNL d   1       3.284   4.065  -2.476  0.00  0.00     0.000 A 
ATOM      6  C7  UNL d   1       4.079   3.894  -3.622  0.00  0.00    -0.073 A 
ATOM      7  C8  UNL d   1       3.768   2.754  -4.553  0.00  0.00     0.078 C 
ENDROOT
BRANCH   1   8
ATOM      8  C1  UNL d   1       5.986   4.722  -5.117  0.00  0.00     0.053 C 
ATOM      9  C   UNL d   1       5.943   5.989  -5.957  0.00  0.00     0.018 C 
ENDBRANCH   1   8
TORSDOF 1
ENDMDL
