MODEL 1
REMARK minimizedAffinity 10.3990812
REMARK minimizedRMSD -1
REMARK  1 active torsions:
REMARK  status: ('A' for Active; 'I' for Inactive)
REMARK    1  A    between atoms: C1_2  and  C2_3 
ROOT
ATOM      1  C2  UNL d   1       1.642  -1.009   2.720  0.00  0.00    -0.076 A 
ATOM      2  C3  UNL d   1       1.669  -2.119   1.858  0.00  0.00     0.004 A 
ATOM      3  C4  UNL d   1       1.376  -3.399   2.327  0.00  0.00    -0.003 A 
ATOM      4  C5  UNL d   1       1.051  -3.588   3.666  0.00  0.00     0.000 A 
ATOM      5  C6  UNL d   1       1.003  -2.496   4.531  0.00  0.00     0.000 A 
ATOM      6  C7  UNL d   1       1.280  -1.197   4.070  0.00  0.00    -0.073 A 
ATOM      7  C8  UNL d   1       1.219  -0.056   5.049  0.00  0.00     0.078 C 
ENDROOT
BRANCH   1   8
ATOM      8  C1  UNL d   1       1.996   0.351   2.160  0.00  0.00     0.053 C 
ATOM      9  C   UNL d   1       2.734   0.261   0.834  0.00  0.00     0.018 C 
ENDBRANCH   1   8
TORSDOF 1
ENDMDL
