MODEL 1
REMARK minimizedAffinity -4.24396038
REMARK minimizedRMSD -1
REMARK  1 active torsions:
REMARK  status: ('A' for Active; 'I' for Inactive)
REMARK    1  A    between atoms: C1_2  and  C2_3 
ROOT
ATOM      1  C2  UNL d   1      -0.551   0.045  -0.167  0.00  0.00    -0.073 A 
ATOM      2  C3  UNL d   1      -1.742  -0.198   0.527  0.00  0.00    -0.002 A 
ATOM      3  C4  UNL d   1      -1.710  -0.625   1.855  0.00  0.00     0.004 A 
ATOM      4  C5  UNL d   1      -0.489  -0.805   2.505  0.00  0.00    -0.004 A 
ATOM      5  C6  UNL d   1       0.712  -0.556   1.832  0.00  0.00    -0.075 A 
ATOM      6  C7  UNL d   1       2.034  -0.747   2.516  0.00  0.00     0.076 C 
ATOM      7  C8  UNL d   1       0.671  -0.131   0.498  0.00  0.00     0.001 A 
ENDROOT
BRANCH   1   8
ATOM      8  C1  UNL d   1      -0.581   0.512  -1.599  0.00  0.00     0.053 C 
ATOM      9  C   UNL d   1      -1.612   1.607  -1.820  0.00  0.00     0.018 C 
ENDBRANCH   1   8
TORSDOF 1
ENDMDL
