MODEL 1
REMARK minimizedAffinity -4.5306077
REMARK minimizedRMSD -1
REMARK  1 active torsions:
REMARK  status: ('A' for Active; 'I' for Inactive)
REMARK    1  A    between atoms: C1_2  and  C2_3 
ROOT
ATOM      1  C2  UNL d   1      -0.595   0.467  -0.619  0.00  0.00    -0.073 A 
ATOM      2  C3  UNL d   1      -1.030   0.414   0.710  0.00  0.00    -0.002 A 
ATOM      3  C4  UNL d   1      -0.264  -0.237   1.677  0.00  0.00     0.004 A 
ATOM      4  C5  UNL d   1       0.947  -0.835   1.328  0.00  0.00    -0.004 A 
ATOM      5  C6  UNL d   1       1.405  -0.783   0.007  0.00  0.00    -0.075 A 
ATOM      6  C7  UNL d   1       2.704  -1.423  -0.385  0.00  0.00     0.076 C 
ATOM      7  C8  UNL d   1       0.628  -0.129  -0.959  0.00  0.00     0.001 A 
ENDROOT
BRANCH   1   8
ATOM      8  C1  UNL d   1      -1.416   1.175  -1.666  0.00  0.00     0.053 C 
ATOM      9  C   UNL d   1      -0.595   1.520  -2.898  0.00  0.00     0.018 C 
ENDBRANCH   1   8
TORSDOF 1
ENDMDL
