MODEL 1
REMARK minimizedAffinity -4.67294121
REMARK minimizedRMSD -1
REMARK  1 active torsions:
REMARK  status: ('A' for Active; 'I' for Inactive)
REMARK    1  A    between atoms: C1_2  and  C2_3 
ROOT
ATOM      1  C2  UNL d   1      -0.021  -0.230  -0.534  0.00  0.00    -0.073 A 
ATOM      2  C3  UNL d   1       0.954  -0.833  -1.337  0.00  0.00    -0.002 A 
ATOM      3  C4  UNL d   1       1.983  -1.577  -0.758  0.00  0.00     0.004 A 
ATOM      4  C5  UNL d   1       2.044  -1.732   0.627  0.00  0.00    -0.004 A 
ATOM      5  C6  UNL d   1       1.073  -1.147   1.446  0.00  0.00    -0.075 A 
ATOM      6  C7  UNL d   1       1.125  -1.302   2.937  0.00  0.00     0.076 C 
ATOM      7  C8  UNL d   1       0.044  -0.399   0.857  0.00  0.00     0.001 A 
ENDROOT
BRANCH   1   8
ATOM      8  C1  UNL d   1      -1.137   0.569  -1.155  0.00  0.00     0.053 C 
ATOM      9  C   UNL d   1      -0.629   1.840  -1.816  0.00  0.00     0.018 C 
ENDBRANCH   1   8
TORSDOF 1
ENDMDL
