MODEL 1
REMARK minimizedAffinity -4.05418158
REMARK minimizedRMSD -1
REMARK  1 active torsions:
REMARK  status: ('A' for Active; 'I' for Inactive)
REMARK    1  A    between atoms: C1_2  and  C2_3 
ROOT
ATOM      1  C2  UNL d   1      -0.284  -0.600   0.666  0.00  0.00    -0.073 A 
ATOM      2  C3  UNL d   1       0.300  -0.880  -0.575  0.00  0.00    -0.002 A 
ATOM      3  C4  UNL d   1       1.551  -1.494  -0.643  0.00  0.00     0.004 A 
ATOM      4  C5  UNL d   1       2.227  -1.842   0.526  0.00  0.00    -0.004 A 
ATOM      5  C6  UNL d   1       1.655  -1.582   1.775  0.00  0.00    -0.075 A 
ATOM      6  C7  UNL d   1       2.371  -1.947   3.043  0.00  0.00     0.076 C 
ATOM      7  C8  UNL d   1       0.400  -0.962   1.836  0.00  0.00     0.001 A 
ENDROOT
BRANCH   1   8
ATOM      8  C1  UNL d   1      -1.637   0.057   0.745  0.00  0.00     0.053 C 
ATOM      9  C   UNL d   1      -2.759  -0.901   0.379  0.00  0.00     0.018 C 
ENDBRANCH   1   8
TORSDOF 1
ENDMDL
