MODEL 1
REMARK minimizedAffinity -2.41903019
REMARK minimizedRMSD -1
REMARK  1 active torsions:
REMARK  status: ('A' for Active; 'I' for Inactive)
REMARK    1  A    between atoms: C1_2  and  C2_3 
ROOT
ATOM      1  C2  UNL d   1      -0.731   2.211  -1.754  0.00  0.00    -0.073 A 
ATOM      2  C3  UNL d   1       0.058   2.991  -2.606  0.00  0.00    -0.002 A 
ATOM      3  C4  UNL d   1      -0.499   3.580  -3.741  0.00  0.00     0.004 A 
ATOM      4  C5  UNL d   1      -1.852   3.401  -4.033  0.00  0.00    -0.004 A 
ATOM      5  C6  UNL d   1      -2.660   2.635  -3.187  0.00  0.00    -0.075 A 
ATOM      6  C7  UNL d   1      -4.116   2.430  -3.488  0.00  0.00     0.076 C 
ATOM      7  C8  UNL d   1      -2.092   2.044  -2.050  0.00  0.00     0.001 A 
ENDROOT
BRANCH   1   8
ATOM      8  C1  UNL d   1      -0.135   1.578  -0.523  0.00  0.00     0.053 C 
ATOM      9  C   UNL d   1      -0.734   0.210  -0.238  0.00  0.00     0.018 C 
ENDBRANCH   1   8
TORSDOF 1
ENDMDL
