MODEL 1
REMARK minimizedAffinity 9.69893265
REMARK minimizedRMSD -1
REMARK  1 active torsions:
REMARK  status: ('A' for Active; 'I' for Inactive)
REMARK    1  A    between atoms: C1_2  and  C2_3 
ROOT
ATOM      1  C2  UNL d   1       0.887  -2.479  -2.164  0.00  0.00    -0.073 A 
ATOM      2  C3  UNL d   1      -0.302  -1.815  -2.487  0.00  0.00    -0.002 A 
ATOM      3  C4  UNL d   1      -1.307  -1.663  -1.531  0.00  0.00     0.004 A 
ATOM      4  C5  UNL d   1      -1.130  -2.165  -0.241  0.00  0.00    -0.004 A 
ATOM      5  C6  UNL d   1       0.056  -2.820   0.104  0.00  0.00    -0.075 A 
ATOM      6  C7  UNL d   1       0.261  -3.368   1.486  0.00  0.00     0.076 C 
ATOM      7  C8  UNL d   1       1.059  -2.972  -0.863  0.00  0.00     0.001 A 
ENDROOT
BRANCH   1   8
ATOM      8  C1  UNL d   1       1.977  -2.641  -3.192  0.00  0.00     0.053 C 
ATOM      9  C   UNL d   1       3.262  -1.943  -2.775  0.00  0.00     0.018 C 
ENDBRANCH   1   8
TORSDOF 1
ENDMDL
