MODEL 1
REMARK minimizedAffinity 17.8275814
REMARK minimizedRMSD -1
REMARK  1 active torsions:
REMARK  status: ('A' for Active; 'I' for Inactive)
REMARK    1  A    between atoms: C1_2  and  C2_3 
ROOT
ATOM      1  C2  UNL d   1       0.196  -3.039  -2.645  0.00  0.00    -0.073 A 
ATOM      2  C3  UNL d   1      -0.186  -4.300  -2.175  0.00  0.00    -0.002 A 
ATOM      3  C4  UNL d   1       0.678  -5.389  -2.298  0.00  0.00     0.004 A 
ATOM      4  C5  UNL d   1       1.933  -5.227  -2.885  0.00  0.00    -0.004 A 
ATOM      5  C6  UNL d   1       2.337  -3.972  -3.350  0.00  0.00    -0.075 A 
ATOM      6  C7  UNL d   1       3.683  -3.781  -3.985  0.00  0.00     0.076 C 
ATOM      7  C8  UNL d   1       1.463  -2.884  -3.225  0.00  0.00     0.001 A 
ENDROOT
BRANCH   1   8
ATOM      8  C1  UNL d   1      -0.731  -1.858  -2.508  0.00  0.00     0.053 C 
ATOM      9  C   UNL d   1      -0.981  -1.496  -1.053  0.00  0.00     0.018 C 
ENDBRANCH   1   8
TORSDOF 1
ENDMDL
