MODEL 1
REMARK minimizedAffinity 13.4636097
REMARK minimizedRMSD -1
REMARK  1 active torsions:
REMARK  status: ('A' for Active; 'I' for Inactive)
REMARK    1  A    between atoms: C1_2  and  C2_3 
ROOT
ATOM      1  C2  UNL d   1       3.984   5.590  -1.832  0.00  0.00    -0.073 A 
ATOM      2  C3  UNL d   1       3.230   5.537  -0.654  0.00  0.00    -0.002 A 
ATOM      3  C4  UNL d   1       1.837   5.490  -0.711  0.00  0.00     0.004 A 
ATOM      4  C5  UNL d   1       1.184   5.488  -1.943  0.00  0.00    -0.004 A 
ATOM      5  C6  UNL d   1       1.920   5.529  -3.131  0.00  0.00    -0.075 A 
ATOM      6  C7  UNL d   1       1.232   5.530  -4.465  0.00  0.00     0.076 C 
ATOM      7  C8  UNL d   1       3.319   5.579  -3.067  0.00  0.00     0.001 A 
ENDROOT
BRANCH   1   8
ATOM      8  C1  UNL d   1       5.489   5.635  -1.776  0.00  0.00     0.053 C 
ATOM      9  C   UNL d   1       5.998   5.997  -0.390  0.00  0.00     0.018 C 
ENDBRANCH   1   8
TORSDOF 1
ENDMDL
