MODEL 1
REMARK minimizedAffinity 7.69628572
REMARK minimizedRMSD -1
REMARK  1 active torsions:
REMARK  status: ('A' for Active; 'I' for Inactive)
REMARK    1  A    between atoms: C1_2  and  C2_3 
ROOT
ATOM      1  C2  UNL d   1      -1.827  -2.917  -3.683  0.00  0.00    -0.073 A 
ATOM      2  C3  UNL d   1      -1.126  -2.706  -4.876  0.00  0.00    -0.002 A 
ATOM      3  C4  UNL d   1      -1.394  -3.490  -5.999  0.00  0.00     0.004 A 
ATOM      4  C5  UNL d   1      -2.368  -4.486  -5.943  0.00  0.00    -0.004 A 
ATOM      5  C6  UNL d   1      -3.088  -4.704  -4.764  0.00  0.00    -0.075 A 
ATOM      6  C7  UNL d   1      -4.138  -5.774  -4.687  0.00  0.00     0.076 C 
ATOM      7  C8  UNL d   1      -2.811  -3.915  -3.640  0.00  0.00     0.001 A 
ENDROOT
BRANCH   1   8
ATOM      8  C1  UNL d   1      -1.545  -2.069  -2.470  0.00  0.00     0.053 C 
ATOM      9  C   UNL d   1      -0.355  -2.585  -1.677  0.00  0.00     0.018 C 
ENDBRANCH   1   8
TORSDOF 1
ENDMDL
