MODEL 1
REMARK minimizedAffinity 5.5756073
REMARK minimizedRMSD -1
REMARK  1 active torsions:
REMARK  status: ('A' for Active; 'I' for Inactive)
REMARK    1  A    between atoms: C1_2  and  C2_3 
ROOT
ATOM      1  C2  UNL d   1       2.585   4.277  -1.653  0.00  0.00    -0.073 A 
ATOM      2  C3  UNL d   1       1.974   4.721  -2.831  0.00  0.00    -0.002 A 
ATOM      3  C4  UNL d   1       2.652   5.580  -3.696  0.00  0.00     0.004 A 
ATOM      4  C5  UNL d   1       3.949   5.999  -3.397  0.00  0.00    -0.004 A 
ATOM      5  C6  UNL d   1       4.581   5.557  -2.230  0.00  0.00    -0.075 A 
ATOM      6  C7  UNL d   1       5.974   5.999  -1.892  0.00  0.00     0.076 C 
ATOM      7  C8  UNL d   1       3.892   4.696  -1.365  0.00  0.00     0.001 A 
ENDROOT
BRANCH   1   8
ATOM      8  C1  UNL d   1       1.860   3.343  -0.719  0.00  0.00     0.053 C 
ATOM      9  C   UNL d   1       1.124   4.094   0.380  0.00  0.00     0.018 C 
ENDBRANCH   1   8
TORSDOF 1
ENDMDL
