MODEL 1
REMARK minimizedAffinity 17.6973438
REMARK minimizedRMSD -1
REMARK  1 active torsions:
REMARK  status: ('A' for Active; 'I' for Inactive)
REMARK    1  A    between atoms: C1_2  and  C2_3 
ROOT
ATOM      1  C2  UNL d   1      -2.493   0.620   0.306  0.00  0.00    -0.073 A 
ATOM      2  C3  UNL d   1      -3.495  -0.074   0.994  0.00  0.00    -0.002 A 
ATOM      3  C4  UNL d   1      -3.505  -1.470   1.004  0.00  0.00     0.004 A 
ATOM      4  C5  UNL d   1      -2.511  -2.184   0.335  0.00  0.00    -0.004 A 
ATOM      5  C6  UNL d   1      -1.495  -1.508  -0.347  0.00  0.00    -0.075 A 
ATOM      6  C7  UNL d   1      -0.420  -2.262  -1.074  0.00  0.00     0.076 C 
ATOM      7  C8  UNL d   1      -1.493  -0.107  -0.356  0.00  0.00     0.001 A 
ENDROOT
BRANCH   1   8
ATOM      8  C1  UNL d   1      -2.475   2.127   0.297  0.00  0.00     0.053 C 
ATOM      9  C   UNL d   1      -3.877   2.714   0.325  0.00  0.00     0.018 C 
ENDBRANCH   1   8
TORSDOF 1
ENDMDL
