MODEL 1
REMARK minimizedAffinity 9.59535694
REMARK minimizedRMSD -1
REMARK  1 active torsions:
REMARK  status: ('A' for Active; 'I' for Inactive)
REMARK    1  A    between atoms: C1_2  and  C2_3 
ROOT
ATOM      1  C2  UNL d   1       5.971   3.290  -3.952  0.00  0.00    -0.073 A 
ATOM      2  C3  UNL d   1       5.975   4.286  -4.936  0.00  0.00    -0.002 A 
ATOM      3  C4  UNL d   1       5.957   5.633  -4.575  0.00  0.00     0.004 A 
ATOM      4  C5  UNL d   1       5.942   6.000  -3.229  0.00  0.00    -0.004 A 
ATOM      5  C6  UNL d   1       5.950   5.020  -2.231  0.00  0.00    -0.075 A 
ATOM      6  C7  UNL d   1       5.932   5.398  -0.779  0.00  0.00     0.076 C 
ATOM      7  C8  UNL d   1       5.966   3.669  -2.601  0.00  0.00     0.001 A 
ENDROOT
BRANCH   1   8
ATOM      8  C1  UNL d   1       5.997   1.834  -4.336  0.00  0.00     0.053 C 
ATOM      9  C   UNL d   1       5.780   1.634  -5.828  0.00  0.00     0.018 C 
ENDBRANCH   1   8
TORSDOF 1
ENDMDL
