MODEL 1
REMARK minimizedAffinity 20.9768353
REMARK minimizedRMSD -1
REMARK  1 active torsions:
REMARK  status: ('A' for Active; 'I' for Inactive)
REMARK    1  A    between atoms: C1_2  and  C2_3 
ROOT
ATOM      1  C2  UNL d   1       1.489  -3.181  -2.655  0.00  0.00    -0.073 A 
ATOM      2  C3  UNL d   1       0.502  -3.376  -3.629  0.00  0.00    -0.002 A 
ATOM      3  C4  UNL d   1      -0.777  -2.847  -3.452  0.00  0.00     0.004 A 
ATOM      4  C5  UNL d   1      -1.081  -2.114  -2.304  0.00  0.00    -0.004 A 
ATOM      5  C6  UNL d   1      -0.105  -1.899  -1.326  0.00  0.00    -0.075 A 
ATOM      6  C7  UNL d   1      -0.416  -1.115  -0.085  0.00  0.00     0.076 C 
ATOM      7  C8  UNL d   1       1.177  -2.436  -1.510  0.00  0.00     0.001 A 
ENDROOT
BRANCH   1   8
ATOM      8  C1  UNL d   1       2.873  -3.745  -2.846  0.00  0.00     0.053 C 
ATOM      9  C   UNL d   1       3.215  -3.934  -4.315  0.00  0.00     0.018 C 
ENDBRANCH   1   8
TORSDOF 1
ENDMDL
