MODEL 1
REMARK minimizedAffinity 12.5754681
REMARK minimizedRMSD -1
REMARK  1 active torsions:
REMARK  status: ('A' for Active; 'I' for Inactive)
REMARK    1  A    between atoms: C1_2  and  C2_3 
ROOT
ATOM      1  C2  UNL d   1       3.878   4.657  -1.854  0.00  0.00    -0.073 A 
ATOM      2  C3  UNL d   1       3.198   5.218  -2.942  0.00  0.00    -0.002 A 
ATOM      3  C4  UNL d   1       1.803   5.266  -2.952  0.00  0.00     0.004 A 
ATOM      4  C5  UNL d   1       1.075   4.761  -1.875  0.00  0.00    -0.004 A 
ATOM      5  C6  UNL d   1       1.737   4.207  -0.774  0.00  0.00    -0.075 A 
ATOM      6  C7  UNL d   1       0.969   3.657   0.392  0.00  0.00     0.076 C 
ATOM      7  C8  UNL d   1       3.138   4.160  -0.772  0.00  0.00     0.001 A 
ENDROOT
BRANCH   1   8
ATOM      8  C1  UNL d   1       5.384   4.609  -1.836  0.00  0.00     0.053 C 
ATOM      9  C   UNL d   1       5.998   6.000  -1.843  0.00  0.00     0.018 C 
ENDBRANCH   1   8
TORSDOF 1
ENDMDL
