MODEL 1
REMARK minimizedAffinity 5.44437647
REMARK minimizedRMSD -1
REMARK  1 active torsions:
REMARK  status: ('A' for Active; 'I' for Inactive)
REMARK    1  A    between atoms: C1_2  and  C2_3 
ROOT
ATOM      1  C2  UNL d   1       5.999   4.750  -3.182  0.00  0.00    -0.073 A 
ATOM      2  C3  UNL d   1       5.993   5.646  -4.256  0.00  0.00    -0.002 A 
ATOM      3  C4  UNL d   1       5.996   5.173  -5.569  0.00  0.00     0.004 A 
ATOM      4  C5  UNL d   1       5.999   3.802  -5.821  0.00  0.00    -0.004 A 
ATOM      5  C6  UNL d   1       5.994   2.890  -4.761  0.00  0.00    -0.075 A 
ATOM      6  C7  UNL d   1       5.999   1.411  -5.015  0.00  0.00     0.076 C 
ATOM      7  C8  UNL d   1       5.993   3.372  -3.445  0.00  0.00     0.001 A 
ENDROOT
BRANCH   1   8
ATOM      8  C1  UNL d   1       5.988   5.255  -1.763  0.00  0.00     0.053 C 
ATOM      9  C   UNL d   1       4.593   5.230  -1.159  0.00  0.00     0.018 C 
ENDBRANCH   1   8
TORSDOF 1
ENDMDL
