MODEL 1
REMARK minimizedAffinity 12.5252962
REMARK minimizedRMSD -1
REMARK  1 active torsions:
REMARK  status: ('A' for Active; 'I' for Inactive)
REMARK    1  A    between atoms: C1_2  and  C2_3 
ROOT
ATOM      1  C2  UNL d   1       3.946  -3.120   3.929  0.00  0.00    -0.073 A 
ATOM      2  C3  UNL d   1       4.326  -2.075   4.779  0.00  0.00    -0.002 A 
ATOM      3  C4  UNL d   1       5.237  -2.302   5.811  0.00  0.00     0.004 A 
ATOM      4  C5  UNL d   1       5.781  -3.573   6.000  0.00  0.00    -0.004 A 
ATOM      5  C6  UNL d   1       5.423  -4.627   5.154  0.00  0.00    -0.075 A 
ATOM      6  C7  UNL d   1       5.997  -6.000   5.345  0.00  0.00     0.076 C 
ATOM      7  C8  UNL d   1       4.505  -4.391   4.121  0.00  0.00     0.001 A 
ENDROOT
BRANCH   1   8
ATOM      8  C1  UNL d   1       2.967  -2.878   2.809  0.00  0.00     0.053 C 
ATOM      9  C   UNL d   1       2.868  -1.404   2.447  0.00  0.00     0.018 C 
ENDBRANCH   1   8
TORSDOF 1
ENDMDL
