MODEL 1
REMARK minimizedAffinity 5.89867353
REMARK minimizedRMSD -1
REMARK  1 active torsions:
REMARK  status: ('A' for Active; 'I' for Inactive)
REMARK    1  A    between atoms: C1_2  and  C2_3 
ROOT
ATOM      1  C2  UNL d   1       5.386   4.633  -2.411  0.00  0.00    -0.073 A 
ATOM      2  C3  UNL d   1       5.215   5.872  -3.039  0.00  0.00    -0.002 A 
ATOM      3  C4  UNL d   1       5.306   5.977  -4.428  0.00  0.00     0.004 A 
ATOM      4  C5  UNL d   1       5.561   4.846  -5.202  0.00  0.00    -0.004 A 
ATOM      5  C6  UNL d   1       5.722   3.597  -4.594  0.00  0.00    -0.075 A 
ATOM      6  C7  UNL d   1       5.999   2.370  -5.413  0.00  0.00     0.076 C 
ATOM      7  C8  UNL d   1       5.633   3.500  -3.199  0.00  0.00     0.001 A 
ENDROOT
BRANCH   1   8
ATOM      8  C1  UNL d   1       5.283   4.514  -0.913  0.00  0.00     0.053 C 
ATOM      9  C   UNL d   1       3.941   3.947  -0.477  0.00  0.00     0.018 C 
ENDBRANCH   1   8
TORSDOF 1
ENDMDL
