MODEL 1
REMARK minimizedAffinity 5.06969118
REMARK minimizedRMSD -1
REMARK  0 active torsions:
REMARK  status: ('A' for Active; 'I' for Inactive)
ROOT
ATOM      1  C1  BNZ d   1       2.306  -1.511   2.903  0.00  0.00     0.000 A 
ATOM      2  C2  BNZ d   1       3.605  -1.808   2.589  0.00  0.00     0.000 A 
ATOM      3  C3  BNZ d   1       4.405  -2.475   3.475  0.00  0.00     0.000 A 
ATOM      4  C4  BNZ d   1       3.917  -2.808   4.687  0.00  0.00     0.000 A 
ATOM      5  C5  BNZ d   1       2.612  -2.507   5.023  0.00  0.00     0.000 A 
ATOM      6  C6  BNZ d   1       1.799  -1.870   4.114  0.00  0.00     0.000 A 
ENDROOT
TORSDOF 0
ENDMDL
