MODEL 1
REMARK minimizedAffinity 5.05511093
REMARK minimizedRMSD -1
REMARK  0 active torsions:
REMARK  status: ('A' for Active; 'I' for Inactive)
ROOT
ATOM      1  C1  BNZ d   1      -2.025  -3.888   0.364  0.00  0.00     0.000 A 
ATOM      2  C2  BNZ d   1      -1.454  -5.132   0.405  0.00  0.00     0.000 A 
ATOM      3  C3  BNZ d   1      -0.124  -5.301   0.140  0.00  0.00     0.000 A 
ATOM      4  C4  BNZ d   1       0.624  -4.233  -0.205  0.00  0.00     0.000 A 
ATOM      5  C5  BNZ d   1       0.061  -2.973  -0.261  0.00  0.00     0.000 A 
ATOM      6  C6  BNZ d   1      -1.270  -2.802   0.045  0.00  0.00     0.000 A 
ENDROOT
TORSDOF 0
ENDMDL
