MODEL 1
REMARK minimizedAffinity -0.714233279
REMARK minimizedRMSD -1
REMARK  0 active torsions:
REMARK  status: ('A' for Active; 'I' for Inactive)
ROOT
ATOM      1  C1  BNZ d   1      -1.797  -2.123   1.329  0.00  0.00     0.000 A 
ATOM      2  C2  BNZ d   1      -0.683  -2.918   1.290  0.00  0.00     0.000 A 
ATOM      3  C3  BNZ d   1      -0.486  -3.798   0.263  0.00  0.00     0.000 A 
ATOM      4  C4  BNZ d   1      -1.422  -3.910  -0.702  0.00  0.00     0.000 A 
ATOM      5  C5  BNZ d   1      -2.555  -3.122  -0.672  0.00  0.00     0.000 A 
ATOM      6  C6  BNZ d   1      -2.731  -2.210   0.342  0.00  0.00     0.000 A 
ENDROOT
TORSDOF 0
ENDMDL
