MODEL 1
REMARK minimizedAffinity -3.39115071
REMARK minimizedRMSD -1
REMARK  0 active torsions:
REMARK  status: ('A' for Active; 'I' for Inactive)
ROOT
ATOM      1  C1  BNZ d   1      -0.559  -2.874   0.800  0.00  0.00     0.000 A 
ATOM      2  C2  BNZ d   1       0.640  -2.214   0.851  0.00  0.00     0.000 A 
ATOM      3  C3  BNZ d   1       0.843  -1.075   0.123  0.00  0.00     0.000 A 
ATOM      4  C4  BNZ d   1      -0.136  -0.621  -0.684  0.00  0.00     0.000 A 
ATOM      5  C5  BNZ d   1      -1.347  -1.280  -0.754  0.00  0.00     0.000 A 
ATOM      6  C6  BNZ d   1      -1.562  -2.405   0.010  0.00  0.00     0.000 A 
ENDROOT
TORSDOF 0
ENDMDL
