MODEL 1
REMARK minimizedAffinity 2.22379875
REMARK minimizedRMSD -1
REMARK  0 active torsions:
REMARK  status: ('A' for Active; 'I' for Inactive)
ROOT
ATOM      1  C1  BNZ d   1      -0.855  -4.890   0.572  0.00  0.00     0.000 A 
ATOM      2  C2  BNZ d   1      -1.806  -4.212   1.287  0.00  0.00     0.000 A 
ATOM      3  C3  BNZ d   1      -2.260  -2.993   0.868  0.00  0.00     0.000 A 
ATOM      4  C4  BNZ d   1      -1.735  -2.436  -0.242  0.00  0.00     0.000 A 
ATOM      5  C5  BNZ d   1      -0.769  -3.103  -0.969  0.00  0.00     0.000 A 
ATOM      6  C6  BNZ d   1      -0.343  -4.347  -0.566  0.00  0.00     0.000 A 
ENDROOT
TORSDOF 0
ENDMDL
