MODEL 1
REMARK minimizedAffinity 3.09952378
REMARK minimizedRMSD -1
REMARK  0 active torsions:
REMARK  status: ('A' for Active; 'I' for Inactive)
ROOT
ATOM      1  C1  BNZ d   1      -1.502  -3.093  -0.430  0.00  0.00     0.000 A 
ATOM      2  C2  BNZ d   1      -1.927  -2.325   0.621  0.00  0.00     0.000 A 
ATOM      3  C3  BNZ d   1      -1.681  -2.706   1.911  0.00  0.00     0.000 A 
ATOM      4  C4  BNZ d   1      -1.047  -3.873   2.148  0.00  0.00     0.000 A 
ATOM      5  C5  BNZ d   1      -0.620  -4.663   1.098  0.00  0.00     0.000 A 
ATOM      6  C6  BNZ d   1      -0.836  -4.257  -0.199  0.00  0.00     0.000 A 
ENDROOT
TORSDOF 0
ENDMDL
