MODEL 1
REMARK minimizedAffinity 11.4601717
REMARK minimizedRMSD -1
REMARK  0 active torsions:
REMARK  status: ('A' for Active; 'I' for Inactive)
ROOT
ATOM      1  C1  BNZ d   1       0.271  -4.742  -0.382  0.00  0.00     0.000 A 
ATOM      2  C2  BNZ d   1      -0.874  -4.560  -1.111  0.00  0.00     0.000 A 
ATOM      3  C3  BNZ d   1      -1.773  -3.588  -0.772  0.00  0.00     0.000 A 
ATOM      4  C4  BNZ d   1      -1.546  -2.827   0.318  0.00  0.00     0.000 A 
ATOM      5  C5  BNZ d   1      -0.402  -3.005   1.069  0.00  0.00     0.000 A 
ATOM      6  C6  BNZ d   1       0.520  -3.958   0.702  0.00  0.00     0.000 A 
ENDROOT
TORSDOF 0
ENDMDL
