MODEL 1
REMARK minimizedAffinity 4.45836258
REMARK minimizedRMSD -1
REMARK  0 active torsions:
REMARK  status: ('A' for Active; 'I' for Inactive)
ROOT
ATOM      1  C1  BNZ d   1      -1.969  -3.750   0.813  0.00  0.00     0.000 A 
ATOM      2  C2  BNZ d   1      -1.286  -4.907   1.078  0.00  0.00     0.000 A 
ATOM      3  C3  BNZ d   1      -0.150  -5.224   0.386  0.00  0.00     0.000 A 
ATOM      4  C4  BNZ d   1       0.278  -4.404  -0.596  0.00  0.00     0.000 A 
ATOM      5  C5  BNZ d   1      -0.406  -3.239  -0.882  0.00  0.00     0.000 A 
ATOM      6  C6  BNZ d   1      -1.526  -2.904  -0.157  0.00  0.00     0.000 A 
ENDROOT
TORSDOF 0
ENDMDL
