MODEL 1
REMARK minimizedAffinity 2.43972039
REMARK minimizedRMSD -1
REMARK  0 active torsions:
REMARK  status: ('A' for Active; 'I' for Inactive)
ROOT
ATOM      1  C1  BNZ d   1       1.959  -2.578   5.147  0.00  0.00     0.000 A 
ATOM      2  C2  BNZ d   1       3.233  -2.978   4.845  0.00  0.00     0.000 A 
ATOM      3  C3  BNZ d   1       3.739  -2.813   3.586  0.00  0.00     0.000 A 
ATOM      4  C4  BNZ d   1       2.957  -2.286   2.621  0.00  0.00     0.000 A 
ATOM      5  C5  BNZ d   1       1.667  -1.887   2.908  0.00  0.00     0.000 A 
ATOM      6  C6  BNZ d   1       1.174  -2.019   4.186  0.00  0.00     0.000 A 
ENDROOT
TORSDOF 0
ENDMDL
