MODEL 1
REMARK minimizedAffinity 2.54796958
REMARK minimizedRMSD -1
REMARK  0 active torsions:
REMARK  status: ('A' for Active; 'I' for Inactive)
ROOT
ATOM      1  C1  BNZ d   1      -3.287  -1.857  -0.078  0.00  0.00     0.000 A 
ATOM      2  C2  BNZ d   1      -4.200  -0.915  -0.471  0.00  0.00     0.000 A 
ATOM      3  C3  BNZ d   1      -3.852   0.072  -1.350  0.00  0.00     0.000 A 
ATOM      4  C4  BNZ d   1      -2.583   0.141  -1.802  0.00  0.00     0.000 A 
ATOM      5  C5  BNZ d   1      -1.649  -0.796  -1.407  0.00  0.00     0.000 A 
ATOM      6  C6  BNZ d   1      -2.013  -1.812  -0.553  0.00  0.00     0.000 A 
ENDROOT
TORSDOF 0
ENDMDL
