MODEL 1
REMARK minimizedAffinity -2.64255023
REMARK minimizedRMSD -1
REMARK  0 active torsions:
REMARK  status: ('A' for Active; 'I' for Inactive)
ROOT
ATOM      1  C   UNL d   1       3.895   0.294  -1.010  0.00  0.00     0.077 C 
ATOM      2  C1  UNL d   1       2.624  -0.077  -0.304  0.00  0.00    -0.074 A 
ATOM      3  C2  UNL d   1       2.627  -1.006   0.741  0.00  0.00    -0.005 A 
ATOM      4  C3  UNL d   1       1.439  -1.333   1.395  0.00  0.00     0.006 A 
ATOM      5  C4  UNL d   1       0.238  -0.735   1.010  0.00  0.00    -0.005 A 
ATOM      6  C5  UNL d   1       0.216   0.197  -0.032  0.00  0.00    -0.074 A 
ATOM      7  C6  UNL d   1      -1.065   0.856  -0.451  0.00  0.00     0.077 C 
ATOM      8  C7  UNL d   1       1.415   0.525  -0.679  0.00  0.00    -0.001 A 
ENDROOT
TORSDOF 0
ENDMDL
