MODEL 1
REMARK minimizedAffinity -3.65898395
REMARK minimizedRMSD -1
REMARK  0 active torsions:
REMARK  status: ('A' for Active; 'I' for Inactive)
ROOT
ATOM      1  C   UNL d   1      -0.418  -1.417   3.073  0.00  0.00     0.077 C 
ATOM      2  C1  UNL d   1      -0.005  -1.010   1.690  0.00  0.00    -0.074 A 
ATOM      3  C2  UNL d   1       1.175  -1.497   1.119  0.00  0.00    -0.005 A 
ATOM      4  C3  UNL d   1       1.540  -1.117  -0.172  0.00  0.00     0.006 A 
ATOM      5  C4  UNL d   1       0.731  -0.247  -0.904  0.00  0.00    -0.005 A 
ATOM      6  C5  UNL d   1      -0.453   0.250  -0.350  0.00  0.00    -0.074 A 
ATOM      7  C6  UNL d   1      -1.338   1.179  -1.126  0.00  0.00     0.077 C 
ATOM      8  C7  UNL d   1      -0.817  -0.142   0.946  0.00  0.00    -0.001 A 
ENDROOT
TORSDOF 0
ENDMDL
