MODEL 1
REMARK minimizedAffinity -4.05038404
REMARK minimizedRMSD -1
REMARK  0 active torsions:
REMARK  status: ('A' for Active; 'I' for Inactive)
ROOT
ATOM      1  C   UNL d   1       1.000  -2.553   1.950  0.00  0.00     0.077 C 
ATOM      2  C1  UNL d   1       1.308  -1.506   0.921  0.00  0.00    -0.074 A 
ATOM      3  C2  UNL d   1       2.534  -1.497   0.249  0.00  0.00    -0.005 A 
ATOM      4  C3  UNL d   1       2.803  -0.523  -0.712  0.00  0.00     0.006 A 
ATOM      5  C4  UNL d   1       1.849   0.451  -1.011  0.00  0.00    -0.005 A 
ATOM      6  C5  UNL d   1       0.617   0.458  -0.350  0.00  0.00    -0.074 A 
ATOM      7  C6  UNL d   1      -0.423   1.491  -0.666  0.00  0.00     0.077 C 
ATOM      8  C7  UNL d   1       0.352  -0.529   0.610  0.00  0.00    -0.001 A 
ENDROOT
TORSDOF 0
ENDMDL
