MODEL 1
REMARK minimizedAffinity -2.32720065
REMARK minimizedRMSD -1
REMARK  0 active torsions:
REMARK  status: ('A' for Active; 'I' for Inactive)
ROOT
ATOM      1  C   UNL d   1       4.100  -0.382  -2.029  0.00  0.00     0.077 C 
ATOM      2  C1  UNL d   1       3.065  -0.552  -0.957  0.00  0.00    -0.074 A 
ATOM      3  C2  UNL d   1       3.214  -1.522   0.039  0.00  0.00    -0.005 A 
ATOM      4  C3  UNL d   1       2.248  -1.662   1.035  0.00  0.00     0.006 A 
ATOM      5  C4  UNL d   1       1.125  -0.834   1.046  0.00  0.00    -0.005 A 
ATOM      6  C5  UNL d   1       0.959   0.142   0.058  0.00  0.00    -0.074 A 
ATOM      7  C6  UNL d   1      -0.237   1.047   0.060  0.00  0.00     0.077 C 
ATOM      8  C7  UNL d   1       1.938   0.281  -0.935  0.00  0.00    -0.001 A 
ENDROOT
TORSDOF 0
ENDMDL
