MODEL 1
REMARK minimizedAffinity -2.51476669
REMARK minimizedRMSD -1
REMARK  0 active torsions:
REMARK  status: ('A' for Active; 'I' for Inactive)
ROOT
ATOM      1  C   UNL d   1      -1.652   1.845  -2.336  0.00  0.00     0.077 C 
ATOM      2  C1  UNL d   1      -0.788   1.080  -1.378  0.00  0.00    -0.074 A 
ATOM      3  C2  UNL d   1       0.588   0.956  -1.593  0.00  0.00    -0.005 A 
ATOM      4  C3  UNL d   1       1.380   0.249  -0.689  0.00  0.00     0.006 A 
ATOM      5  C4  UNL d   1       0.806  -0.340   0.438  0.00  0.00    -0.005 A 
ATOM      6  C5  UNL d   1      -0.569  -0.226   0.670  0.00  0.00    -0.074 A 
ATOM      7  C6  UNL d   1      -1.201  -0.845   1.881  0.00  0.00     0.077 C 
ATOM      8  C7  UNL d   1      -1.357   0.492  -0.240  0.00  0.00    -0.001 A 
ENDROOT
TORSDOF 0
ENDMDL
