MODEL 1
REMARK minimizedAffinity -4.73592806
REMARK minimizedRMSD -1
REMARK  0 active torsions:
REMARK  status: ('A' for Active; 'I' for Inactive)
ROOT
ATOM      1  C   UNL d   1      -0.997   1.615  -0.596  0.00  0.00     0.077 C 
ATOM      2  C1  UNL d   1       0.008   0.669  -0.010  0.00  0.00    -0.074 A 
ATOM      3  C2  UNL d   1      -0.387  -0.346   0.868  0.00  0.00    -0.005 A 
ATOM      4  C3  UNL d   1       0.558  -1.225   1.398  0.00  0.00     0.006 A 
ATOM      5  C4  UNL d   1       1.905  -1.097   1.056  0.00  0.00    -0.005 A 
ATOM      6  C5  UNL d   1       2.319  -0.089   0.180  0.00  0.00    -0.074 A 
ATOM      7  C6  UNL d   1       3.761   0.057  -0.205  0.00  0.00     0.077 C 
ATOM      8  C7  UNL d   1       1.362   0.786  -0.354  0.00  0.00    -0.001 A 
ENDROOT
TORSDOF 0
ENDMDL
