MODEL 1
REMARK minimizedAffinity -5.00508595
REMARK minimizedRMSD -1
REMARK  0 active torsions:
REMARK  status: ('A' for Active; 'I' for Inactive)
ROOT
ATOM      1  C   UNL d   1      -0.820   1.280   0.029  0.00  0.00     0.077 C 
ATOM      2  C1  UNL d   1       0.238   0.242   0.260  0.00  0.00    -0.074 A 
ATOM      3  C2  UNL d   1      -0.036  -0.910   1.003  0.00  0.00    -0.005 A 
ATOM      4  C3  UNL d   1       0.956  -1.871   1.202  0.00  0.00     0.006 A 
ATOM      5  C4  UNL d   1       2.229  -1.689   0.661  0.00  0.00    -0.005 A 
ATOM      6  C5  UNL d   1       2.521  -0.543  -0.085  0.00  0.00    -0.074 A 
ATOM      7  C6  UNL d   1       3.882  -0.337  -0.682  0.00  0.00     0.077 C 
ATOM      8  C7  UNL d   1       1.518   0.414  -0.287  0.00  0.00    -0.001 A 
ENDROOT
TORSDOF 0
ENDMDL
