MODEL 1
REMARK minimizedAffinity -5.28299665
REMARK minimizedRMSD -1
REMARK  0 active torsions:
REMARK  status: ('A' for Active; 'I' for Inactive)
ROOT
ATOM      1  C   UNL d   1       1.496  -3.522   1.771  0.00  0.00     0.077 C 
ATOM      2  C1  UNL d   1       0.509  -2.434   1.466  0.00  0.00    -0.074 A 
ATOM      3  C2  UNL d   1      -0.789  -2.475   1.985  0.00  0.00    -0.005 A 
ATOM      4  C3  UNL d   1      -1.693  -1.451   1.701  0.00  0.00     0.006 A 
ATOM      5  C4  UNL d   1      -1.308  -0.378   0.896  0.00  0.00    -0.005 A 
ATOM      6  C5  UNL d   1      -0.014  -0.319   0.369  0.00  0.00    -0.074 A 
ATOM      7  C6  UNL d   1       0.418   0.832  -0.489  0.00  0.00     0.077 C 
ATOM      8  C7  UNL d   1       0.890  -1.348   0.665  0.00  0.00    -0.001 A 
ENDROOT
TORSDOF 0
ENDMDL
