MODEL 1
REMARK minimizedAffinity -5.27237082
REMARK minimizedRMSD -1
REMARK  0 active torsions:
REMARK  status: ('A' for Active; 'I' for Inactive)
ROOT
ATOM      1  C   UNL d   1      -1.373   1.318   0.723  0.00  0.00     0.077 C 
ATOM      2  C1  UNL d   1      -0.281   0.318   0.482  0.00  0.00    -0.074 A 
ATOM      3  C2  UNL d   1      -0.461  -1.033   0.798  0.00  0.00    -0.005 A 
ATOM      4  C3  UNL d   1       0.559  -1.953   0.559  0.00  0.00     0.006 A 
ATOM      5  C4  UNL d   1       1.768  -1.533   0.003  0.00  0.00    -0.005 A 
ATOM      6  C5  UNL d   1       1.966  -0.187  -0.320  0.00  0.00    -0.074 A 
ATOM      7  C6  UNL d   1       3.256   0.280  -0.928  0.00  0.00     0.077 C 
ATOM      8  C7  UNL d   1       0.933   0.731  -0.084  0.00  0.00    -0.001 A 
ENDROOT
TORSDOF 0
ENDMDL
