MODEL 1
REMARK minimizedAffinity -4.50734615
REMARK minimizedRMSD -1
REMARK  0 active torsions:
REMARK  status: ('A' for Active; 'I' for Inactive)
ROOT
ATOM      1  C   UNL d   1       0.511   1.260   0.063  0.00  0.00     0.077 C 
ATOM      2  C1  UNL d   1      -0.440   1.206  -1.095  0.00  0.00    -0.074 A 
ATOM      3  C2  UNL d   1      -0.622   2.314  -1.928  0.00  0.00    -0.005 A 
ATOM      4  C3  UNL d   1      -1.503   2.246  -3.007  0.00  0.00     0.006 A 
ATOM      5  C4  UNL d   1      -2.210   1.070  -3.264  0.00  0.00    -0.005 A 
ATOM      6  C5  UNL d   1      -2.040  -0.048  -2.442  0.00  0.00    -0.074 A 
ATOM      7  C6  UNL d   1      -2.784  -1.323  -2.710  0.00  0.00     0.077 C 
ATOM      8  C7  UNL d   1      -1.148   0.026  -1.364  0.00  0.00    -0.001 A 
ENDROOT
TORSDOF 0
ENDMDL
