MODEL 1
REMARK minimizedAffinity -4.29884815
REMARK minimizedRMSD -1
REMARK  0 active torsions:
REMARK  status: ('A' for Active; 'I' for Inactive)
ROOT
ATOM      1  C   UNL d   1       3.473  -1.097   1.251  0.00  0.00     0.077 C 
ATOM      2  C1  UNL d   1       2.006  -1.270   0.989  0.00  0.00    -0.074 A 
ATOM      3  C2  UNL d   1       1.345  -2.446   1.355  0.00  0.00    -0.005 A 
ATOM      4  C3  UNL d   1      -0.022  -2.589   1.113  0.00  0.00     0.006 A 
ATOM      5  C4  UNL d   1      -0.739  -1.559   0.503  0.00  0.00    -0.005 A 
ATOM      6  C5  UNL d   1      -0.094  -0.375   0.131  0.00  0.00    -0.074 A 
ATOM      7  C6  UNL d   1      -0.852   0.745  -0.516  0.00  0.00     0.077 C 
ATOM      8  C7  UNL d   1       1.277  -0.237   0.384  0.00  0.00    -0.001 A 
ENDROOT
TORSDOF 0
ENDMDL
