MODEL 1
REMARK minimizedAffinity -4.01607275
REMARK minimizedRMSD -1
REMARK  0 active torsions:
REMARK  status: ('A' for Active; 'I' for Inactive)
ROOT
ATOM      1  C   UNL d   1       0.767  -1.131   0.378  0.00  0.00     0.077 C 
ATOM      2  C1  UNL d   1      -0.061   0.006  -0.141  0.00  0.00    -0.074 A 
ATOM      3  C2  UNL d   1      -0.288   1.145   0.639  0.00  0.00    -0.005 A 
ATOM      4  C3  UNL d   1      -1.053   2.198   0.139  0.00  0.00     0.006 A 
ATOM      5  C4  UNL d   1      -1.598   2.124  -1.143  0.00  0.00    -0.005 A 
ATOM      6  C5  UNL d   1      -1.382   0.994  -1.938  0.00  0.00    -0.074 A 
ATOM      7  C6  UNL d   1      -1.952   0.902  -3.322  0.00  0.00     0.077 C 
ATOM      8  C7  UNL d   1      -0.606  -0.058  -1.431  0.00  0.00    -0.001 A 
ENDROOT
TORSDOF 0
ENDMDL
