MODEL 1
REMARK minimizedAffinity -4.41531038
REMARK minimizedRMSD -1
REMARK  0 active torsions:
REMARK  status: ('A' for Active; 'I' for Inactive)
ROOT
ATOM      1  C   UNL d   1       0.371  -1.154  -0.034  0.00  0.00     0.077 C 
ATOM      2  C1  UNL d   1      -0.392  -0.044  -0.693  0.00  0.00    -0.074 A 
ATOM      3  C2  UNL d   1      -0.416   1.240  -0.139  0.00  0.00    -0.005 A 
ATOM      4  C3  UNL d   1      -1.123   2.265  -0.768  0.00  0.00     0.006 A 
ATOM      5  C4  UNL d   1      -1.812   2.017  -1.956  0.00  0.00    -0.005 A 
ATOM      6  C5  UNL d   1      -1.798   0.740  -2.526  0.00  0.00    -0.074 A 
ATOM      7  C6  UNL d   1      -2.525   0.459  -3.807  0.00  0.00     0.077 C 
ATOM      8  C7  UNL d   1      -1.080  -0.283  -1.891  0.00  0.00    -0.001 A 
ENDROOT
TORSDOF 0
ENDMDL
