MODEL 1
REMARK minimizedAffinity -1.86710811
REMARK minimizedRMSD -1
REMARK  0 active torsions:
REMARK  status: ('A' for Active; 'I' for Inactive)
ROOT
ATOM      1  C   UNL d   1       0.402  -2.568   1.060  0.00  0.00     0.077 C 
ATOM      2  C1  UNL d   1       0.038  -1.136   0.804  0.00  0.00    -0.074 A 
ATOM      3  C2  UNL d   1      -1.120  -0.578   1.357  0.00  0.00    -0.005 A 
ATOM      4  C3  UNL d   1      -1.440   0.758   1.118  0.00  0.00     0.006 A 
ATOM      5  C4  UNL d   1      -0.608   1.549   0.324  0.00  0.00    -0.005 A 
ATOM      6  C5  UNL d   1       0.554   1.009  -0.236  0.00  0.00    -0.074 A 
ATOM      7  C6  UNL d   1       1.464   1.848  -1.083  0.00  0.00     0.077 C 
ATOM      8  C7  UNL d   1       0.873  -0.333   0.015  0.00  0.00    -0.001 A 
ENDROOT
TORSDOF 0
ENDMDL
