MODEL 1
REMARK minimizedAffinity -4.22122002
REMARK minimizedRMSD -1
REMARK  0 active torsions:
REMARK  status: ('A' for Active; 'I' for Inactive)
ROOT
ATOM      1  C   UNL d   1       3.573  -1.014   2.017  0.00  0.00     0.077 C 
ATOM      2  C1  UNL d   1       2.247  -1.222   1.346  0.00  0.00    -0.074 A 
ATOM      3  C2  UNL d   1       1.709  -2.504   1.199  0.00  0.00    -0.005 A 
ATOM      4  C3  UNL d   1       0.470  -2.681   0.582  0.00  0.00     0.006 A 
ATOM      5  C4  UNL d   1      -0.241  -1.579   0.107  0.00  0.00    -0.005 A 
ATOM      6  C5  UNL d   1       0.281  -0.289   0.246  0.00  0.00    -0.074 A 
ATOM      7  C6  UNL d   1      -0.476   0.908  -0.251  0.00  0.00     0.077 C 
ATOM      8  C7  UNL d   1       1.522  -0.119   0.873  0.00  0.00    -0.001 A 
ENDROOT
TORSDOF 0
ENDMDL
