MODEL 1
REMARK minimizedAffinity -3.1888299
REMARK minimizedRMSD -1
REMARK  0 active torsions:
REMARK  status: ('A' for Active; 'I' for Inactive)
ROOT
ATOM      1  C   UNL d   1       0.741  -2.398   0.991  0.00  0.00     0.077 C 
ATOM      2  C1  UNL d   1       0.720  -1.025   0.387  0.00  0.00    -0.074 A 
ATOM      3  C2  UNL d   1       1.898  -0.421  -0.065  0.00  0.00    -0.005 A 
ATOM      4  C3  UNL d   1       1.862   0.852  -0.633  0.00  0.00     0.006 A 
ATOM      5  C4  UNL d   1       0.650   1.533  -0.755  0.00  0.00    -0.005 A 
ATOM      6  C5  UNL d   1      -0.538   0.944  -0.310  0.00  0.00    -0.074 A 
ATOM      7  C6  UNL d   1      -1.850   1.658  -0.442  0.00  0.00     0.077 C 
ATOM      8  C7  UNL d   1      -0.494  -0.338   0.254  0.00  0.00    -0.001 A 
ENDROOT
TORSDOF 0
ENDMDL
