MODEL 1
REMARK minimizedAffinity 10.2625847
REMARK minimizedRMSD -1
REMARK  0 active torsions:
REMARK  status: ('A' for Active; 'I' for Inactive)
ROOT
ATOM      1  C   UNL d   1       1.439   2.609   3.811  0.00  0.00    -0.002 A 
ATOM      2  C1  UNL d   1       2.632   1.965   4.107  0.00  0.00     0.010 A 
ATOM      3  C2  UNL d   1       2.632   0.745   4.785  0.00  0.00     0.041 A 
ATOM      4  C3  UNL d   1       1.400   0.176   5.163  0.00  0.00    -0.075 A 
ATOM      5  S   UNL d   1       1.155  -1.312   6.000  0.00  0.00     0.015 SA
ATOM      6  C4  UNL d   1      -0.539  -1.128   5.984  0.00  0.00     0.022 A 
ATOM      7  C5  UNL d   1      -0.926   0.034   5.360  0.00  0.00     0.026 A 
ATOM      8  C6  UNL d   1       0.185   0.804   4.876  0.00  0.00    -0.082 A 
ATOM      9  C7  UNL d   1       0.219   2.041   4.188  0.00  0.00     0.045 A 
ENDROOT
TORSDOF 0
ENDMDL
