MODEL 1
REMARK minimizedAffinity 9.96632481
REMARK minimizedRMSD -1
REMARK  0 active torsions:
REMARK  status: ('A' for Active; 'I' for Inactive)
ROOT
ATOM      1  C   UNL d   1      -1.377  -0.354   4.726  0.00  0.00    -0.002 A 
ATOM      2  C1  UNL d   1      -0.912   0.665   3.908  0.00  0.00     0.010 A 
ATOM      3  C2  UNL d   1      -1.525   0.926   2.681  0.00  0.00     0.041 A 
ATOM      4  C3  UNL d   1      -2.626   0.140   2.287  0.00  0.00    -0.075 A 
ATOM      5  S   UNL d   1      -3.534   0.278   0.829  0.00  0.00     0.015 SA
ATOM      6  C4  UNL d   1      -4.562  -1.012   1.259  0.00  0.00     0.022 A 
ATOM      7  C5  UNL d   1      -4.234  -1.547   2.482  0.00  0.00     0.026 A 
ATOM      8  C6  UNL d   1      -3.113  -0.892   3.095  0.00  0.00    -0.082 A 
ATOM      9  C7  UNL d   1      -2.469  -1.133   4.333  0.00  0.00     0.045 A 
ENDROOT
TORSDOF 0
ENDMDL
