MODEL 1
REMARK minimizedAffinity 11.6670961
REMARK minimizedRMSD -1
REMARK  0 active torsions:
REMARK  status: ('A' for Active; 'I' for Inactive)
ROOT
ATOM      1  C   UNL d   1       2.638   1.039  -0.229  0.00  0.00    -0.002 A 
ATOM      2  C1  UNL d   1       2.468  -0.272   0.192  0.00  0.00     0.010 A 
ATOM      3  C2  UNL d   1       1.727  -0.559   1.340  0.00  0.00     0.041 A 
ATOM      4  C3  UNL d   1       1.152   0.505   2.064  0.00  0.00    -0.075 A 
ATOM      5  S   UNL d   1       0.203   0.392   3.499  0.00  0.00     0.015 SA
ATOM      6  C4  UNL d   1       0.000   2.082   3.586  0.00  0.00     0.022 A 
ATOM      7  C5  UNL d   1       0.635   2.732   2.554  0.00  0.00     0.026 A 
ATOM      8  C6  UNL d   1       1.309   1.833   1.659  0.00  0.00    -0.082 A 
ATOM      9  C7  UNL d   1       2.067   2.091   0.491  0.00  0.00     0.045 A 
ENDROOT
TORSDOF 0
ENDMDL
