MODEL 1
REMARK minimizedAffinity 11.2123213
REMARK minimizedRMSD -1
REMARK  0 active torsions:
REMARK  status: ('A' for Active; 'I' for Inactive)
ROOT
ATOM      1  C   UNL d   1      -1.135  -0.183   1.233  0.00  0.00     0.124 A 
ATOM      2  C1  UNL d   1      -1.530  -1.461   0.864  0.00  0.00     0.062 A 
ATOM      3  C2  UNL d   1      -0.675  -2.542   1.059  0.00  0.00     0.162 A 
ATOM      4  C3  UNL d   1       0.584  -2.349   1.627  0.00  0.00    -0.034 A 
ATOM      5  C4  UNL d   1       0.975  -1.061   1.995  0.00  0.00     0.162 A 
ATOM      6  C5  UNL d   1       0.116   0.016   1.798  0.00  0.00     0.062 A 
ATOM      7  F   UNL d   1       0.500   1.251   2.155  0.00  0.00    -0.097 F 
ATOM      8  F1  UNL d   1       2.178  -0.840   2.545  0.00  0.00    -0.096 F 
ATOM      9  I   UNL d   1       1.865  -3.963   1.921  0.00  0.00    -0.060 I 
ATOM     10  F2  UNL d   1      -1.083  -3.766   0.693  0.00  0.00    -0.096 F 
ATOM     11  F3  UNL d   1      -2.739  -1.656   0.316  0.00  0.00    -0.097 F 
ATOM     12  F4  UNL d   1      -1.959   0.855   1.043  0.00  0.00    -0.092 F 
ENDROOT
TORSDOF 0
ENDMDL
