MODEL 1
REMARK minimizedAffinity 2.26110816
REMARK minimizedRMSD -1
REMARK  0 active torsions:
REMARK  status: ('A' for Active; 'I' for Inactive)
ROOT
ATOM      1  C   UNL d   1      -0.823  -3.900  -1.135  0.00  0.00     0.124 A 
ATOM      2  C1  UNL d   1      -1.138  -3.105  -0.042  0.00  0.00     0.062 A 
ATOM      3  C2  UNL d   1      -2.396  -2.517   0.057  0.00  0.00     0.162 A 
ATOM      4  C3  UNL d   1      -3.349  -2.723  -0.940  0.00  0.00    -0.034 A 
ATOM      5  C4  UNL d   1      -3.025  -3.523  -2.037  0.00  0.00     0.162 A 
ATOM      6  C5  UNL d   1      -1.766  -4.108  -2.131  0.00  0.00     0.062 A 
ATOM      7  F   UNL d   1      -1.464  -4.876  -3.188  0.00  0.00    -0.097 F 
ATOM      8  F1  UNL d   1      -3.917  -3.741  -3.014  0.00  0.00    -0.096 F 
ATOM      9  I   UNL d   1      -5.231  -1.845  -0.796  0.00  0.00    -0.060 I 
ATOM     10  F2  UNL d   1      -2.672  -1.753   1.125  0.00  0.00    -0.096 F 
ATOM     11  F3  UNL d   1      -0.228  -2.901   0.922  0.00  0.00    -0.097 F 
ATOM     12  F4  UNL d   1       0.388  -4.464  -1.228  0.00  0.00    -0.092 F 
ENDROOT
TORSDOF 0
ENDMDL
