MODEL 1
REMARK minimizedAffinity 10.0643816
REMARK minimizedRMSD -1
REMARK  0 active torsions:
REMARK  status: ('A' for Active; 'I' for Inactive)
ROOT
ATOM      1  C   UNL d   1      -1.318  -0.050   1.222  0.00  0.00     0.124 A 
ATOM      2  C1  UNL d   1      -1.712  -1.319   0.820  0.00  0.00     0.062 A 
ATOM      3  C2  UNL d   1      -0.844  -2.399   0.962  0.00  0.00     0.162 A 
ATOM      4  C3  UNL d   1       0.425  -2.214   1.509  0.00  0.00    -0.034 A 
ATOM      5  C4  UNL d   1       0.814  -0.935   1.910  0.00  0.00     0.162 A 
ATOM      6  C5  UNL d   1      -0.056   0.141   1.766  0.00  0.00     0.062 A 
ATOM      7  F   UNL d   1       0.325   1.366   2.155  0.00  0.00    -0.097 F 
ATOM      8  F1  UNL d   1       2.028  -0.722   2.440  0.00  0.00    -0.096 F 
ATOM      9  I   UNL d   1       1.725  -3.825   1.722  0.00  0.00    -0.060 I 
ATOM     10  F2  UNL d   1      -1.251  -3.614   0.565  0.00  0.00    -0.096 F 
ATOM     11  F3  UNL d   1      -2.930  -1.507   0.293  0.00  0.00    -0.097 F 
ATOM     12  F4  UNL d   1      -2.155   0.987   1.083  0.00  0.00    -0.092 F 
ENDROOT
TORSDOF 0
ENDMDL
