MODEL 1
REMARK minimizedAffinity 19.2308865
REMARK minimizedRMSD -1
REMARK  0 active torsions:
REMARK  status: ('A' for Active; 'I' for Inactive)
ROOT
ATOM      1  C   UNL d   1      -3.757   1.166  -3.477  0.00  0.00     0.124 A 
ATOM      2  C1  UNL d   1      -3.861   1.788  -4.713  0.00  0.00     0.062 A 
ATOM      3  C2  UNL d   1      -4.027   3.168  -4.791  0.00  0.00     0.162 A 
ATOM      4  C3  UNL d   1      -4.089   3.936  -3.628  0.00  0.00    -0.034 A 
ATOM      5  C4  UNL d   1      -3.985   3.303  -2.388  0.00  0.00     0.162 A 
ATOM      6  C5  UNL d   1      -3.819   1.923  -2.316  0.00  0.00     0.062 A 
ATOM      7  F   UNL d   1      -3.719   1.324  -1.121  0.00  0.00    -0.097 F 
ATOM      8  F1  UNL d   1      -4.041   4.010  -1.250  0.00  0.00    -0.096 F 
ATOM      9  I   UNL d   1      -4.338   5.999  -3.740  0.00  0.00    -0.060 I 
ATOM     10  F2  UNL d   1      -4.124   3.742  -5.999  0.00  0.00    -0.096 F 
ATOM     11  F3  UNL d   1      -3.802   1.058  -5.837  0.00  0.00    -0.097 F 
ATOM     12  F4  UNL d   1      -3.598  -0.162  -3.405  0.00  0.00    -0.092 F 
ENDROOT
TORSDOF 0
ENDMDL
