MODEL 1
REMARK minimizedAffinity 9.75760937
REMARK minimizedRMSD -1
REMARK  0 active torsions:
REMARK  status: ('A' for Active; 'I' for Inactive)
ROOT
ATOM      1  C   UNL d   1       1.117  -0.206   4.881  0.00  0.00     0.124 A 
ATOM      2  C1  UNL d   1       1.196   0.551   3.720  0.00  0.00     0.062 A 
ATOM      3  C2  UNL d   1       1.717  -0.006   2.555  0.00  0.00     0.162 A 
ATOM      4  C3  UNL d   1       2.162  -1.328   2.545  0.00  0.00    -0.034 A 
ATOM      5  C4  UNL d   1       2.080  -2.083   3.717  0.00  0.00     0.162 A 
ATOM      6  C5  UNL d   1       1.559  -1.521   4.878  0.00  0.00     0.062 A 
ATOM      7  F   UNL d   1       1.483  -2.254   5.999  0.00  0.00    -0.097 F 
ATOM      8  F1  UNL d   1       2.499  -3.357   3.743  0.00  0.00    -0.096 F 
ATOM      9  I   UNL d   1       2.941  -2.165   0.806  0.00  0.00    -0.060 I 
ATOM     10  F2  UNL d   1       1.782   0.748   1.448  0.00  0.00    -0.096 F 
ATOM     11  F3  UNL d   1       0.771   1.822   3.720  0.00  0.00    -0.097 F 
ATOM     12  F4  UNL d   1       0.616   0.333   6.000  0.00  0.00    -0.092 F 
ENDROOT
TORSDOF 0
ENDMDL
