MODEL 1
REMARK minimizedAffinity -3.64175916
REMARK minimizedRMSD -1
REMARK  0 active torsions:
REMARK  status: ('A' for Active; 'I' for Inactive)
ROOT
ATOM      1  C4' PXY d   1      -1.926  -2.369  -1.612  0.00  0.00     0.077 C 
ATOM      2  C1' PXY d   1       0.409   1.419   2.078  0.00  0.00     0.077 C 
ATOM      3  C1  PXY d   1      -0.193   0.427   1.102  0.00  0.00    -0.082 A 
ATOM      4  C2  PXY d   1      -1.502   0.235   1.089  0.00  0.00     0.003 A 
ATOM      5  C3  PXY d   1      -2.060  -0.682   0.236  0.00  0.00     0.003 A 
ATOM      6  C4  PXY d   1      -1.276  -1.371  -0.650  0.00  0.00    -0.082 A 
ATOM      7  C5  PXY d   1       0.060  -1.172  -0.651  0.00  0.00     0.003 A 
ATOM      8  C6  PXY d   1       0.611  -0.267   0.252  0.00  0.00     0.003 A 
ENDROOT
TORSDOF 0
ENDMDL
