MODEL 1
REMARK minimizedAffinity -4.33949614
REMARK minimizedRMSD -1
REMARK  0 active torsions:
REMARK  status: ('A' for Active; 'I' for Inactive)
ROOT
ATOM      1  C4' PXY d   1      -1.349  -1.832  -1.109  0.00  0.00     0.077 C 
ATOM      2  C1' PXY d   1       1.247   2.020   2.333  0.00  0.00     0.077 C 
ATOM      3  C1  PXY d   1       0.573   1.014   1.420  0.00  0.00    -0.082 A 
ATOM      4  C2  PXY d   1      -0.619   0.537   1.739  0.00  0.00     0.003 A 
ATOM      5  C3  PXY d   1      -1.229  -0.397   0.942  0.00  0.00     0.003 A 
ATOM      6  C4  PXY d   1      -0.636  -0.807  -0.222  0.00  0.00    -0.082 A 
ATOM      7  C5  PXY d   1       0.576  -0.317  -0.560  0.00  0.00     0.003 A 
ATOM      8  C6  PXY d   1       1.196   0.599   0.284  0.00  0.00     0.003 A 
ENDROOT
TORSDOF 0
ENDMDL
