MODEL 1
REMARK minimizedAffinity -2.78801155
REMARK minimizedRMSD -1
REMARK  0 active torsions:
REMARK  status: ('A' for Active; 'I' for Inactive)
ROOT
ATOM      1  C4' PXY d   1      -1.391  -1.355  -1.803  0.00  0.00     0.077 C 
ATOM      2  C1' PXY d   1       0.974   1.773   2.443  0.00  0.00     0.077 C 
ATOM      3  C1  PXY d   1       0.365   0.954   1.322  0.00  0.00    -0.082 A 
ATOM      4  C2  PXY d   1      -0.951   0.892   1.198  0.00  0.00     0.003 A 
ATOM      5  C3  PXY d   1      -1.519   0.130   0.210  0.00  0.00     0.003 A 
ATOM      6  C4  PXY d   1      -0.732  -0.533  -0.693  0.00  0.00    -0.082 A 
ATOM      7  C5  PXY d   1       0.611  -0.466  -0.579  0.00  0.00     0.003 A 
ATOM      8  C6  PXY d   1       1.168   0.280   0.456  0.00  0.00     0.003 A 
ENDROOT
TORSDOF 0
ENDMDL
