MODEL 1
REMARK minimizedAffinity -3.03368235
REMARK minimizedRMSD -1
REMARK  0 active torsions:
REMARK  status: ('A' for Active; 'I' for Inactive)
ROOT
ATOM      1  C4' PXY d   1       0.276   1.560   2.431  0.00  0.00     0.077 C 
ATOM      2  C1' PXY d   1      -1.599  -1.672  -1.979  0.00  0.00     0.077 C 
ATOM      3  C1  PXY d   1      -1.119  -0.819  -0.822  0.00  0.00    -0.082 A 
ATOM      4  C2  PXY d   1       0.173  -0.566  -0.687  0.00  0.00     0.003 A 
ATOM      5  C3  PXY d   1       0.627   0.177   0.372  0.00  0.00     0.003 A 
ATOM      6  C4  PXY d   1      -0.255   0.711   1.273  0.00  0.00    -0.082 A 
ATOM      7  C5  PXY d   1      -1.576   0.467   1.136  0.00  0.00     0.003 A 
ATOM      8  C6  PXY d   1      -2.013  -0.324   0.078  0.00  0.00     0.003 A 
ENDROOT
TORSDOF 0
ENDMDL
