MODEL 1
REMARK minimizedAffinity -3.88537383
REMARK minimizedRMSD -1
REMARK  0 active torsions:
REMARK  status: ('A' for Active; 'I' for Inactive)
ROOT
ATOM      1  C4' PXY d   1      -1.592  -1.752  -2.208  0.00  0.00     0.077 C 
ATOM      2  C1' PXY d   1       0.683   1.630   1.891  0.00  0.00     0.077 C 
ATOM      3  C1  PXY d   1       0.098   0.738   0.814  0.00  0.00    -0.082 A 
ATOM      4  C2  PXY d   1      -1.030   1.087   0.216  0.00  0.00     0.003 A 
ATOM      5  C3  PXY d   1      -1.590   0.276  -0.737  0.00  0.00     0.003 A 
ATOM      6  C4  PXY d   1      -0.960  -0.877  -1.122  0.00  0.00    -0.082 A 
ATOM      7  C5  PXY d   1       0.196  -1.235  -0.525  0.00  0.00     0.003 A 
ATOM      8  C6  PXY d   1       0.726  -0.419   0.470  0.00  0.00     0.003 A 
ENDROOT
TORSDOF 0
ENDMDL
