MODEL 1
REMARK minimizedAffinity -3.95190406
REMARK minimizedRMSD -1
REMARK  0 active torsions:
REMARK  status: ('A' for Active; 'I' for Inactive)
ROOT
ATOM      1  C4' PXY d   1      -1.550  -2.161  -1.356  0.00  0.00     0.077 C 
ATOM      2  C1' PXY d   1       1.243   1.847   1.734  0.00  0.00     0.077 C 
ATOM      3  C1  PXY d   1       0.502   0.794   0.934  0.00  0.00    -0.082 A 
ATOM      4  C2  PXY d   1       1.126   0.155  -0.043  0.00  0.00     0.003 A 
ATOM      5  C3  PXY d   1       0.462  -0.777  -0.798  0.00  0.00     0.003 A 
ATOM      6  C4  PXY d   1      -0.839  -1.097  -0.515  0.00  0.00    -0.082 A 
ATOM      7  C5  PXY d   1      -1.479  -0.458   0.487  0.00  0.00     0.003 A 
ATOM      8  C6  PXY d   1      -0.799   0.514   1.214  0.00  0.00     0.003 A 
ENDROOT
TORSDOF 0
ENDMDL
