MODEL 1
REMARK minimizedAffinity -3.55265927
REMARK minimizedRMSD -1
REMARK  0 active torsions:
REMARK  status: ('A' for Active; 'I' for Inactive)
ROOT
ATOM      1  C4' PXY d   1      -1.796  -2.139  -1.276  0.00  0.00     0.077 C 
ATOM      2  C1' PXY d   1       1.290   1.823   1.587  0.00  0.00     0.077 C 
ATOM      3  C1  PXY d   1       0.482   0.791   0.825  0.00  0.00    -0.082 A 
ATOM      4  C2  PXY d   1      -0.398   0.042   1.470  0.00  0.00     0.003 A 
ATOM      5  C3  PXY d   1      -1.114  -0.918   0.803  0.00  0.00     0.003 A 
ATOM      6  C4  PXY d   1      -0.966  -1.078  -0.549  0.00  0.00    -0.082 A 
ATOM      7  C5  PXY d   1      -0.077  -0.311  -1.216  0.00  0.00     0.003 A 
ATOM      8  C6  PXY d   1       0.669   0.630  -0.513  0.00  0.00     0.003 A 
ENDROOT
TORSDOF 0
ENDMDL
