MODEL 1
REMARK minimizedAffinity -3.84950852
REMARK minimizedRMSD -1
REMARK  0 active torsions:
REMARK  status: ('A' for Active; 'I' for Inactive)
ROOT
ATOM      1  C4' PXY d   1      -2.686  -1.709  -2.264  0.00  0.00     0.077 C 
ATOM      2  C1' PXY d   1       2.182   0.121   0.258  0.00  0.00     0.077 C 
ATOM      3  C1  PXY d   1       0.900  -0.347  -0.401  0.00  0.00    -0.082 A 
ATOM      4  C2  PXY d   1       0.629  -1.641  -0.459  0.00  0.00     0.003 A 
ATOM      5  C3  PXY d   1      -0.510  -2.084  -1.080  0.00  0.00     0.003 A 
ATOM      6  C4  PXY d   1      -1.408  -1.190  -1.599  0.00  0.00    -0.082 A 
ATOM      7  C5  PXY d   1      -1.144   0.132  -1.534  0.00  0.00     0.003 A 
ATOM      8  C6  PXY d   1       0.038   0.559  -0.936  0.00  0.00     0.003 A 
ENDROOT
TORSDOF 0
ENDMDL
