MODEL 1
REMARK minimizedAffinity -3.07241368
REMARK minimizedRMSD -1
REMARK  0 active torsions:
REMARK  status: ('A' for Active; 'I' for Inactive)
ROOT
ATOM      1  C4' PXY d   1      -1.500  -1.888  -1.440  0.00  0.00     0.077 C 
ATOM      2  C1' PXY d   1       1.131   2.170   1.727  0.00  0.00     0.077 C 
ATOM      3  C1  PXY d   1       0.452   1.105   0.889  0.00  0.00    -0.082 A 
ATOM      4  C2  PXY d   1      -0.869   1.030   0.872  0.00  0.00     0.003 A 
ATOM      5  C3  PXY d   1      -1.499   0.053   0.145  0.00  0.00     0.003 A 
ATOM      6  C4  PXY d   1      -0.771  -0.823  -0.615  0.00  0.00    -0.082 A 
ATOM      7  C5  PXY d   1       0.577  -0.746  -0.612  0.00  0.00     0.003 A 
ATOM      8  C6  PXY d   1       1.198   0.227   0.166  0.00  0.00     0.003 A 
ENDROOT
TORSDOF 0
ENDMDL
