MODEL 1
REMARK minimizedAffinity -2.00807476
REMARK minimizedRMSD -1
REMARK  0 active torsions:
REMARK  status: ('A' for Active; 'I' for Inactive)
ROOT
ATOM      1  C4' PXY d   1      -1.396  -1.850  -1.321  0.00  0.00     0.077 C 
ATOM      2  C1' PXY d   1       1.269   1.928   2.149  0.00  0.00     0.077 C 
ATOM      3  C1  PXY d   1       0.579   0.940   1.230  0.00  0.00    -0.082 A 
ATOM      4  C2  PXY d   1      -0.689   0.626   1.441  0.00  0.00     0.003 A 
ATOM      5  C3  PXY d   1      -1.319  -0.290   0.638  0.00  0.00     0.003 A 
ATOM      6  C4  PXY d   1      -0.661  -0.850  -0.423  0.00  0.00    -0.082 A 
ATOM      7  C5  PXY d   1       0.630  -0.527  -0.652  0.00  0.00     0.003 A 
ATOM      8  C6  PXY d   1       1.264   0.374   0.199  0.00  0.00     0.003 A 
ENDROOT
TORSDOF 0
ENDMDL
