MODEL 1
REMARK minimizedAffinity -3.6183691
REMARK minimizedRMSD -1
REMARK  0 active torsions:
REMARK  status: ('A' for Active; 'I' for Inactive)
ROOT
ATOM      1  C4' PXY d   1      -2.187   0.644   1.574  0.00  0.00     0.077 C 
ATOM      2  C1' PXY d   1       3.462   0.599   0.351  0.00  0.00     0.077 C 
ATOM      3  C1  PXY d   1       1.978   0.605   0.660  0.00  0.00    -0.082 A 
ATOM      4  C2  PXY d   1       1.496   1.471   1.537  0.00  0.00     0.003 A 
ATOM      5  C3  PXY d   1       0.162   1.469   1.852  0.00  0.00     0.003 A 
ATOM      6  C4  PXY d   1      -0.697   0.608   1.224  0.00  0.00    -0.082 A 
ATOM      7  C5  PXY d   1      -0.215  -0.271   0.320  0.00  0.00     0.003 A 
ATOM      8  C6  PXY d   1       1.149  -0.281   0.044  0.00  0.00     0.003 A 
ENDROOT
TORSDOF 0
ENDMDL
