MODEL 1
REMARK minimizedAffinity 0.350490332
REMARK minimizedRMSD -1
REMARK  0 active torsions:
REMARK  status: ('A' for Active; 'I' for Inactive)
ROOT
ATOM      1  C4' PXY d   1      -1.771  -1.846  -1.933  0.00  0.00     0.077 C 
ATOM      2  C1' PXY d   1       0.589   1.255   2.336  0.00  0.00     0.077 C 
ATOM      3  C1  PXY d   1      -0.021   0.446   1.208  0.00  0.00    -0.082 A 
ATOM      4  C2  PXY d   1      -1.298   0.104   1.265  0.00  0.00     0.003 A 
ATOM      5  C3  PXY d   1      -1.857  -0.655   0.269  0.00  0.00     0.003 A 
ATOM      6  C4  PXY d   1      -1.116  -1.022  -0.822  0.00  0.00    -0.082 A 
ATOM      7  C5  PXY d   1       0.185  -0.667  -0.892  0.00  0.00     0.003 A 
ATOM      8  C6  PXY d   1       0.744   0.068   0.149  0.00  0.00     0.003 A 
ENDROOT
TORSDOF 0
ENDMDL
