MODEL 1
REMARK minimizedAffinity 0.250375599
REMARK minimizedRMSD -1
REMARK  0 active torsions:
REMARK  status: ('A' for Active; 'I' for Inactive)
ROOT
ATOM      1  C4' PXY d   1      -1.841  -1.408  -1.879  0.00  0.00     0.077 C 
ATOM      2  C1' PXY d   1       0.770   1.459   2.408  0.00  0.00     0.077 C 
ATOM      3  C1  PXY d   1       0.095   0.710   1.276  0.00  0.00    -0.082 A 
ATOM      4  C2  PXY d   1      -1.214   0.520   1.306  0.00  0.00     0.003 A 
ATOM      5  C3  PXY d   1      -1.836  -0.183   0.306  0.00  0.00     0.003 A 
ATOM      6  C4  PXY d   1      -1.118  -0.650  -0.762  0.00  0.00    -0.082 A 
ATOM      7  C5  PXY d   1       0.216  -0.451  -0.806  0.00  0.00     0.003 A 
ATOM      8  C6  PXY d   1       0.834   0.229   0.240  0.00  0.00     0.003 A 
ENDROOT
TORSDOF 0
ENDMDL
