MODEL 1
REMARK minimizedAffinity -2.74289393
REMARK minimizedRMSD -1
REMARK  0 active torsions:
REMARK  status: ('A' for Active; 'I' for Inactive)
ROOT
ATOM      1  C4' PXY d   1       1.463  -0.415  -0.754  0.00  0.00     0.077 C 
ATOM      2  C1' PXY d   1      -3.501  -1.665  -3.440  0.00  0.00     0.077 C 
ATOM      3  C1  PXY d   1      -2.206  -1.335  -2.724  0.00  0.00    -0.082 A 
ATOM      4  C2  PXY d   1      -1.163  -0.912  -3.421  0.00  0.00     0.003 A 
ATOM      5  C3  PXY d   1       0.025  -0.640  -2.794  0.00  0.00     0.003 A 
ATOM      6  C4  PXY d   1       0.132  -0.751  -1.433  0.00  0.00    -0.082 A 
ATOM      7  C5  PXY d   1      -0.930  -1.172  -0.715  0.00  0.00     0.003 A 
ATOM      8  C6  PXY d   1      -2.115  -1.483  -1.375  0.00  0.00     0.003 A 
ENDROOT
TORSDOF 0
ENDMDL
