MODEL 1
REMARK minimizedAffinity -2.0065341
REMARK minimizedRMSD -1
REMARK  0 active torsions:
REMARK  status: ('A' for Active; 'I' for Inactive)
ROOT
ATOM      1  C4' PXY d   1      -1.927  -1.774  -1.933  0.00  0.00     0.077 C 
ATOM      2  C1' PXY d   1       0.497   1.607   2.080  0.00  0.00     0.077 C 
ATOM      3  C1  PXY d   1      -0.150   0.727   1.029  0.00  0.00    -0.082 A 
ATOM      4  C2  PXY d   1       0.349  -0.474   0.784  0.00  0.00     0.003 A 
ATOM      5  C3  PXY d   1      -0.204  -1.270  -0.185  0.00  0.00     0.003 A 
ATOM      6  C4  PXY d   1      -1.312  -0.855  -0.874  0.00  0.00    -0.082 A 
ATOM      7  C5  PXY d   1      -1.834   0.364  -0.623  0.00  0.00     0.003 A 
ATOM      8  C6  PXY d   1      -1.232   1.174   0.337  0.00  0.00     0.003 A 
ENDROOT
TORSDOF 0
ENDMDL
