MODEL 1
REMARK minimizedAffinity -2.59882474
REMARK minimizedRMSD -1
REMARK  0 active torsions:
REMARK  status: ('A' for Active; 'I' for Inactive)
ROOT
ATOM      1  C4' PXY d   1      -1.526  -1.872  -1.804  0.00  0.00     0.077 C 
ATOM      2  C1' PXY d   1       1.157   1.452   2.091  0.00  0.00     0.077 C 
ATOM      3  C1  PXY d   1       0.465   0.573   1.068  0.00  0.00    -0.082 A 
ATOM      4  C2  PXY d   1      -0.612   1.022   0.443  0.00  0.00     0.003 A 
ATOM      5  C3  PXY d   1      -1.269   0.229  -0.463  0.00  0.00     0.003 A 
ATOM      6  C4  PXY d   1      -0.789  -1.016  -0.770  0.00  0.00    -0.082 A 
ATOM      7  C5  PXY d   1       0.315  -1.477  -0.144  0.00  0.00     0.003 A 
ATOM      8  C6  PXY d   1       0.944  -0.672   0.802  0.00  0.00     0.003 A 
ENDROOT
TORSDOF 0
ENDMDL
