MODEL 1
REMARK minimizedAffinity -3.51454067
REMARK minimizedRMSD -1
REMARK  0 active torsions:
REMARK  status: ('A' for Active; 'I' for Inactive)
ROOT
ATOM      1  C4' PXY d   1      -1.278  -1.187  -1.203  0.00  0.00     0.077 C 
ATOM      2  C1' PXY d   1       2.837   1.474   1.864  0.00  0.00     0.077 C 
ATOM      3  C1  PXY d   1       1.749   0.778   1.069  0.00  0.00    -0.082 A 
ATOM      4  C2  PXY d   1       2.080  -0.110   0.146  0.00  0.00     0.003 A 
ATOM      5  C3  PXY d   1       1.110  -0.725  -0.604  0.00  0.00     0.003 A 
ATOM      6  C4  PXY d   1      -0.214  -0.467  -0.370  0.00  0.00    -0.082 A 
ATOM      7  C5  PXY d   1      -0.560   0.430   0.578  0.00  0.00     0.003 A 
ATOM      8  C6  PXY d   1       0.441   1.074   1.300  0.00  0.00     0.003 A 
ENDROOT
TORSDOF 0
ENDMDL
