MODEL 1
REMARK minimizedAffinity -1.73143899
REMARK minimizedRMSD -1
REMARK  0 active torsions:
REMARK  status: ('A' for Active; 'I' for Inactive)
ROOT
ATOM      1  C4' PXY d   1      -0.782  -1.016  -3.410  0.00  0.00     0.077 C 
ATOM      2  C1' PXY d   1      -5.051  -3.430  -0.351  0.00  0.00     0.077 C 
ATOM      3  C1  PXY d   1      -3.940  -2.794  -1.163  0.00  0.00    -0.082 A 
ATOM      4  C2  PXY d   1      -2.687  -3.167  -0.960  0.00  0.00     0.003 A 
ATOM      5  C3  PXY d   1      -1.666  -2.579  -1.663  0.00  0.00     0.003 A 
ATOM      6  C4  PXY d   1      -1.937  -1.638  -2.620  0.00  0.00    -0.082 A 
ATOM      7  C5  PXY d   1      -3.214  -1.260  -2.840  0.00  0.00     0.003 A 
ATOM      8  C6  PXY d   1      -4.231  -1.839  -2.087  0.00  0.00     0.003 A 
ENDROOT
TORSDOF 0
ENDMDL
