MODEL 1
REMARK minimizedAffinity -1.90955675
REMARK minimizedRMSD -1
REMARK  0 active torsions:
REMARK  status: ('A' for Active; 'I' for Inactive)
ROOT
ATOM      1  C4' PXY d   1       3.088   0.299  -0.355  0.00  0.00     0.077 C 
ATOM      2  C1' PXY d   1      -1.936   1.241   2.345  0.00  0.00     0.077 C 
ATOM      3  C1  PXY d   1      -0.623   0.982   1.633  0.00  0.00    -0.082 A 
ATOM      4  C2  PXY d   1       0.471   1.615   2.027  0.00  0.00     0.003 A 
ATOM      5  C3  PXY d   1       1.660   1.416   1.374  0.00  0.00     0.003 A 
ATOM      6  C4  PXY d   1       1.742   0.522   0.340  0.00  0.00    -0.082 A 
ATOM      7  C5  PXY d   1       0.633  -0.135  -0.061  0.00  0.00     0.003 A 
ATOM      8  C6  PXY d   1      -0.573   0.111   0.589  0.00  0.00     0.003 A 
ENDROOT
TORSDOF 0
ENDMDL
