MODEL 1
REMARK minimizedAffinity -3.7619853
REMARK minimizedRMSD -1
REMARK  0 active torsions:
REMARK  status: ('A' for Active; 'I' for Inactive)
ROOT
ATOM      1  C4' PXY d   1      -1.896  -1.922  -0.755  0.00  0.00     0.077 C 
ATOM      2  C1' PXY d   1       1.422   2.075   1.780  0.00  0.00     0.077 C 
ATOM      3  C1  PXY d   1       0.561   1.026   1.105  0.00  0.00    -0.082 A 
ATOM      4  C2  PXY d   1      -0.739   0.990   1.351  0.00  0.00     0.003 A 
ATOM      5  C3  PXY d   1      -1.527   0.028   0.774  0.00  0.00     0.003 A 
ATOM      6  C4  PXY d   1      -0.989  -0.874  -0.104  0.00  0.00    -0.082 A 
ATOM      7  C5  PXY d   1       0.334  -0.838  -0.367  0.00  0.00     0.003 A 
ATOM      8  C6  PXY d   1       1.125   0.121   0.260  0.00  0.00     0.003 A 
ENDROOT
TORSDOF 0
ENDMDL
