MODEL 1
REMARK minimizedAffinity -5.42575693
REMARK minimizedRMSD -1
REMARK  3 active torsions:
REMARK  status: ('A' for Active; 'I' for Inactive)
REMARK    1  A    between atoms: C3'_2  and  C2'_3 
REMARK    2  A    between atoms: C2'_3  and  C1'_4 
REMARK    3  A    between atoms: C1'_4  and  C1_5 
ROOT
ATOM      1  C1  N4B d   1      -0.226  -0.778  -0.256  0.00  0.00    -0.075 A 
ATOM      2  C2  N4B d   1      -0.665  -1.931   0.432  0.00  0.00     0.002 A 
ATOM      3  C3  N4B d   1      -0.810  -3.119  -0.241  0.00  0.00     0.002 A 
ATOM      4  C4  N4B d   1      -0.541  -3.174  -1.601  0.00  0.00    -0.004 A 
ATOM      5  C5  N4B d   1      -0.093  -2.062  -2.252  0.00  0.00     0.002 A 
ATOM      6  C6  N4B d   1       0.061  -0.862  -1.587  0.00  0.00     0.002 A 
ENDROOT
BRANCH   1   7
ATOM      7  C1' N4B d   1      -0.135   0.563   0.420  0.00  0.00     0.057 C 
BRANCH   7   8
ATOM      8  C2' N4B d   1       1.066   0.569   1.361  0.00  0.00     0.009 C 
BRANCH   8   9
ATOM      9  C3' N4B d   1       1.644   1.963   1.536  0.00  0.00     0.004 C 
ATOM     10  C4' N4B d   1       1.188   2.918   0.474  0.00  0.00     0.003 C 
ENDBRANCH   8   9
ENDBRANCH   7   8
ENDBRANCH   1   7
TORSDOF 3
ENDMDL
