MODEL 1
REMARK minimizedAffinity -1.90753174
REMARK minimizedRMSD -1
REMARK  3 active torsions:
REMARK  status: ('A' for Active; 'I' for Inactive)
REMARK    1  A    between atoms: C3'_2  and  C2'_3 
REMARK    2  A    between atoms: C2'_3  and  C1'_4 
REMARK    3  A    between atoms: C1'_4  and  C1_5 
ROOT
ATOM      1  C1  N4B d   1      -0.275   0.252  -0.003  0.00  0.00    -0.075 A 
ATOM      2  C2  N4B d   1      -0.877  -0.303   1.147  0.00  0.00     0.002 A 
ATOM      3  C3  N4B d   1      -1.364  -1.586   1.116  0.00  0.00     0.002 A 
ATOM      4  C4  N4B d   1      -1.278  -2.324  -0.055  0.00  0.00    -0.004 A 
ATOM      5  C5  N4B d   1      -0.672  -1.790  -1.154  0.00  0.00     0.002 A 
ATOM      6  C6  N4B d   1      -0.174  -0.503  -1.136  0.00  0.00     0.002 A 
ENDROOT
BRANCH   1   7
ATOM      7  C1' N4B d   1       0.196   1.680  -0.043  0.00  0.00     0.057 C 
BRANCH   7   8
ATOM      8  C2' N4B d   1       1.658   1.739   0.390  0.00  0.00     0.009 C 
BRANCH   8   9
ATOM      9  C3' N4B d   1       2.102   3.157   0.703  0.00  0.00     0.004 C 
ATOM     10  C4' N4B d   1       1.616   3.636   2.039  0.00  0.00     0.003 C 
ENDBRANCH   8   9
ENDBRANCH   7   8
ENDBRANCH   1   7
TORSDOF 3
ENDMDL
