MODEL 1
REMARK minimizedAffinity -2.93539786
REMARK minimizedRMSD -1
REMARK  3 active torsions:
REMARK  status: ('A' for Active; 'I' for Inactive)
REMARK    1  A    between atoms: C3'_2  and  C2'_3 
REMARK    2  A    between atoms: C2'_3  and  C1'_4 
REMARK    3  A    between atoms: C1'_4  and  C1_5 
ROOT
ATOM      1  C1  N4B d   1      -0.314   0.191  -0.149  0.00  0.00    -0.075 A 
ATOM      2  C2  N4B d   1      -1.050   0.176   1.055  0.00  0.00     0.002 A 
ATOM      3  C3  N4B d   1      -1.302  -1.016   1.691  0.00  0.00     0.002 A 
ATOM      4  C4  N4B d   1      -0.846  -2.201   1.132  0.00  0.00    -0.004 A 
ATOM      5  C5  N4B d   1      -0.114  -2.174  -0.018  0.00  0.00     0.002 A 
ATOM      6  C6  N4B d   1       0.150  -0.984  -0.665  0.00  0.00     0.002 A 
ENDROOT
BRANCH   1   7
ATOM      7  C1' N4B d   1      -0.087   1.460  -0.925  0.00  0.00     0.057 C 
BRANCH   7   8
ATOM      8  C2' N4B d   1       0.481   2.524   0.010  0.00  0.00     0.009 C 
BRANCH   8   9
ATOM      9  C3' N4B d   1       1.944   2.276   0.332  0.00  0.00     0.004 C 
ATOM     10  C4' N4B d   1       2.523   3.316   1.243  0.00  0.00     0.003 C 
ENDBRANCH   8   9
ENDBRANCH   7   8
ENDBRANCH   1   7
TORSDOF 3
ENDMDL
