MODEL 1
REMARK minimizedAffinity -2.75913143
REMARK minimizedRMSD -1
REMARK  3 active torsions:
REMARK  status: ('A' for Active; 'I' for Inactive)
REMARK    1  A    between atoms: C3'_2  and  C2'_3 
REMARK    2  A    between atoms: C2'_3  and  C1'_4 
REMARK    3  A    between atoms: C1'_4  and  C1_5 
ROOT
ATOM      1  C1  N4B d   1      -0.017  -0.515   0.461  0.00  0.00    -0.075 A 
ATOM      2  C2  N4B d   1       0.326  -0.852  -0.867  0.00  0.00     0.002 A 
ATOM      3  C3  N4B d   1      -0.038  -2.072  -1.381  0.00  0.00     0.002 A 
ATOM      4  C4  N4B d   1      -0.726  -2.975  -0.585  0.00  0.00    -0.004 A 
ATOM      5  C5  N4B d   1      -1.076  -2.632   0.689  0.00  0.00     0.002 A 
ATOM      6  C6  N4B d   1      -0.720  -1.408   1.217  0.00  0.00     0.002 A 
ENDROOT
BRANCH   1   7
ATOM      7  C1' N4B d   1       0.433   0.773   1.095  0.00  0.00     0.057 C 
BRANCH   7   8
ATOM      8  C2' N4B d   1       0.454   1.871   0.037  0.00  0.00     0.009 C 
BRANCH   8   9
ATOM      9  C3' N4B d   1       0.571   3.254   0.655  0.00  0.00     0.004 C 
ATOM     10  C4' N4B d   1       1.993   3.660   0.905  0.00  0.00     0.003 C 
ENDBRANCH   8   9
ENDBRANCH   7   8
ENDBRANCH   1   7
TORSDOF 3
ENDMDL
