MODEL 1
REMARK minimizedAffinity -2.00184464
REMARK minimizedRMSD -1
REMARK  3 active torsions:
REMARK  status: ('A' for Active; 'I' for Inactive)
REMARK    1  A    between atoms: C3'_2  and  C2'_3 
REMARK    2  A    between atoms: C2'_3  and  C1'_4 
REMARK    3  A    between atoms: C1'_4  and  C1_5 
ROOT
ATOM      1  C1  N4B d   1       0.384   0.474   0.049  0.00  0.00    -0.075 A 
ATOM      2  C2  N4B d   1       0.043   0.185   1.389  0.00  0.00     0.002 A 
ATOM      3  C3  N4B d   1      -0.888  -0.786   1.666  0.00  0.00     0.002 A 
ATOM      4  C4  N4B d   1      -1.503  -1.464   0.624  0.00  0.00    -0.004 A 
ATOM      5  C5  N4B d   1      -1.149  -1.196  -0.667  0.00  0.00     0.002 A 
ATOM      6  C6  N4B d   1      -0.212  -0.226  -0.960  0.00  0.00     0.002 A 
ENDROOT
BRANCH   1   7
ATOM      7  C1' N4B d   1       1.332   1.586  -0.306  0.00  0.00     0.057 C 
BRANCH   7   8
ATOM      8  C2' N4B d   1       0.766   2.909   0.200  0.00  0.00     0.009 C 
BRANCH   8   9
ATOM      9  C3' N4B d   1       1.843   3.797   0.799  0.00  0.00     0.004 C 
ATOM     10  C4' N4B d   1       3.215   3.472   0.285  0.00  0.00     0.003 C 
ENDBRANCH   8   9
ENDBRANCH   7   8
ENDBRANCH   1   7
TORSDOF 3
ENDMDL
