MODEL 1
REMARK minimizedAffinity -3.93405843
REMARK minimizedRMSD -1
REMARK  3 active torsions:
REMARK  status: ('A' for Active; 'I' for Inactive)
REMARK    1  A    between atoms: C3'_2  and  C2'_3 
REMARK    2  A    between atoms: C2'_3  and  C1'_4 
REMARK    3  A    between atoms: C1'_4  and  C1_5 
ROOT
ATOM      1  C1  N4B d   1       0.423   1.612   0.588  0.00  0.00    -0.075 A 
ATOM      2  C2  N4B d   1       0.242   2.514   1.661  0.00  0.00     0.002 A 
ATOM      3  C3  N4B d   1       1.019   3.643   1.747  0.00  0.00     0.002 A 
ATOM      4  C4  N4B d   1       1.991   3.881   0.787  0.00  0.00    -0.004 A 
ATOM      5  C5  N4B d   1       2.142   3.019  -0.260  0.00  0.00     0.002 A 
ATOM      6  C6  N4B d   1       1.365   1.882  -0.361  0.00  0.00     0.002 A 
ENDROOT
BRANCH   1   7
ATOM      7  C1' N4B d   1      -0.344   0.321   0.499  0.00  0.00     0.057 C 
BRANCH   7   8
ATOM      8  C2' N4B d   1      -0.270  -0.400   1.841  0.00  0.00     0.009 C 
BRANCH   8   9
ATOM      9  C3' N4B d   1      -0.969  -1.747   1.802  0.00  0.00     0.004 C 
ATOM     10  C4' N4B d   1      -1.686  -1.992   0.508  0.00  0.00     0.003 C 
ENDBRANCH   8   9
ENDBRANCH   7   8
ENDBRANCH   1   7
TORSDOF 3
ENDMDL
