MODEL 1
REMARK minimizedAffinity 13.3061829
REMARK minimizedRMSD -1
REMARK  3 active torsions:
REMARK  status: ('A' for Active; 'I' for Inactive)
REMARK    1  A    between atoms: C3'_2  and  C2'_3 
REMARK    2  A    between atoms: C2'_3  and  C1'_4 
REMARK    3  A    between atoms: C1'_4  and  C1_5 
ROOT
ATOM      1  C1  N4B d   1      -1.964   3.240  -2.002  0.00  0.00    -0.075 A 
ATOM      2  C2  N4B d   1      -2.302   2.639  -3.234  0.00  0.00     0.002 A 
ATOM      3  C3  N4B d   1      -1.542   2.887  -4.351  0.00  0.00     0.002 A 
ATOM      4  C4  N4B d   1      -0.455   3.744  -4.264  0.00  0.00    -0.004 A 
ATOM      5  C5  N4B d   1      -0.120   4.300  -3.064  0.00  0.00     0.002 A 
ATOM      6  C6  N4B d   1      -0.873   4.056  -1.933  0.00  0.00     0.002 A 
ENDROOT
BRANCH   1   7
ATOM      7  C1' N4B d   1      -2.815   3.066  -0.774  0.00  0.00     0.057 C 
BRANCH   7   8
ATOM      8  C2' N4B d   1      -4.166   3.737  -1.002  0.00  0.00     0.009 C 
BRANCH   8   9
ATOM      9  C3' N4B d   1      -4.950   3.892   0.290  0.00  0.00     0.004 C 
ATOM     10  C4' N4B d   1      -5.295   2.576   0.921  0.00  0.00     0.003 C 
ENDBRANCH   8   9
ENDBRANCH   7   8
ENDBRANCH   1   7
TORSDOF 3
ENDMDL
