MODEL 1
REMARK minimizedAffinity 3.25355959
REMARK minimizedRMSD -1
REMARK  3 active torsions:
REMARK  status: ('A' for Active; 'I' for Inactive)
REMARK    1  A    between atoms: C3'_2  and  C2'_3 
REMARK    2  A    between atoms: C2'_3  and  C1'_4 
REMARK    3  A    between atoms: C1'_4  and  C1_5 
ROOT
ATOM      1  C1  N4B d   1       1.336   1.212  -0.284  0.00  0.00    -0.075 A 
ATOM      2  C2  N4B d   1       1.700  -0.121   0.007  0.00  0.00     0.002 A 
ATOM      3  C3  N4B d   1       0.797  -0.963   0.609  0.00  0.00     0.002 A 
ATOM      4  C4  N4B d   1      -0.463  -0.491   0.944  0.00  0.00    -0.004 A 
ATOM      5  C5  N4B d   1      -0.815   0.790   0.635  0.00  0.00     0.002 A 
ATOM      6  C6  N4B d   1       0.081   1.646   0.027  0.00  0.00     0.002 A 
ENDROOT
BRANCH   1   7
ATOM      7  C1' N4B d   1       2.318   2.194  -0.863  0.00  0.00     0.057 C 
BRANCH   7   8
ATOM      8  C2' N4B d   1       3.714   1.580  -0.838  0.00  0.00     0.009 C 
BRANCH   8   9
ATOM      9  C3' N4B d   1       4.413   1.704  -2.181  0.00  0.00     0.004 C 
ATOM     10  C4' N4B d   1       5.216   0.486  -2.532  0.00  0.00     0.003 C 
ENDBRANCH   8   9
ENDBRANCH   7   8
ENDBRANCH   1   7
TORSDOF 3
ENDMDL
