MODEL 1
REMARK minimizedAffinity -2.74925876
REMARK minimizedRMSD -1
REMARK  3 active torsions:
REMARK  status: ('A' for Active; 'I' for Inactive)
REMARK    1  A    between atoms: C3'_2  and  C2'_3 
REMARK    2  A    between atoms: C2'_3  and  C1'_4 
REMARK    3  A    between atoms: C1'_4  and  C1_5 
ROOT
ATOM      1  C1  N4B d   1      -0.958  -2.376   0.867  0.00  0.00    -0.075 A 
ATOM      2  C2  N4B d   1       0.153  -3.151   0.470  0.00  0.00     0.002 A 
ATOM      3  C3  N4B d   1       1.351  -2.541   0.188  0.00  0.00     0.002 A 
ATOM      4  C4  N4B d   1       1.455  -1.161   0.278  0.00  0.00    -0.004 A 
ATOM      5  C5  N4B d   1       0.384  -0.422   0.687  0.00  0.00     0.002 A 
ATOM      6  C6  N4B d   1      -0.824  -1.022   0.977  0.00  0.00     0.002 A 
ENDROOT
BRANCH   1   7
ATOM      7  C1' N4B d   1      -2.311  -2.990   1.102  0.00  0.00     0.057 C 
BRANCH   7   8
ATOM      8  C2' N4B d   1      -2.646  -2.908   2.588  0.00  0.00     0.009 C 
BRANCH   8   9
ATOM      9  C3' N4B d   1      -1.553  -3.513   3.452  0.00  0.00     0.004 C 
ATOM     10  C4' N4B d   1      -1.161  -2.628   4.597  0.00  0.00     0.003 C 
ENDBRANCH   8   9
ENDBRANCH   7   8
ENDBRANCH   1   7
TORSDOF 3
ENDMDL
