MODEL 1
REMARK minimizedAffinity 9.67971897
REMARK minimizedRMSD -1
REMARK  3 active torsions:
REMARK  status: ('A' for Active; 'I' for Inactive)
REMARK    1  A    between atoms: C3'_2  and  C2'_3 
REMARK    2  A    between atoms: C2'_3  and  C1'_4 
REMARK    3  A    between atoms: C1'_4  and  C1_5 
ROOT
ATOM      1  C1  N4B d   1       4.092   2.289   0.283  0.00  0.00    -0.075 A 
ATOM      2  C2  N4B d   1       3.213   1.455  -0.442  0.00  0.00     0.002 A 
ATOM      3  C3  N4B d   1       3.192   0.104  -0.199  0.00  0.00     0.002 A 
ATOM      4  C4  N4B d   1       4.050  -0.436   0.747  0.00  0.00    -0.004 A 
ATOM      5  C5  N4B d   1       4.879   0.380   1.460  0.00  0.00     0.002 A 
ATOM      6  C6  N4B d   1       4.907   1.740   1.229  0.00  0.00     0.002 A 
ENDROOT
BRANCH   1   7
ATOM      7  C1' N4B d   1       4.212   3.760  -0.009  0.00  0.00     0.057 C 
BRANCH   7   8
ATOM      8  C2' N4B d   1       5.619   4.057  -0.520  0.00  0.00     0.009 C 
BRANCH   8   9
ATOM      9  C3' N4B d   1       5.602   4.973  -1.731  0.00  0.00     0.004 C 
ATOM     10  C4' N4B d   1       5.784   4.232  -3.022  0.00  0.00     0.003 C 
ENDBRANCH   8   9
ENDBRANCH   7   8
ENDBRANCH   1   7
TORSDOF 3
ENDMDL
