MODEL 1
REMARK minimizedAffinity 8.97247601
REMARK minimizedRMSD -1
REMARK  3 active torsions:
REMARK  status: ('A' for Active; 'I' for Inactive)
REMARK    1  A    between atoms: C3'_2  and  C2'_3 
REMARK    2  A    between atoms: C2'_3  and  C1'_4 
REMARK    3  A    between atoms: C1'_4  and  C1_5 
ROOT
ATOM      1  C1  N4B d   1      -2.097   3.133  -2.962  0.00  0.00    -0.075 A 
ATOM      2  C2  N4B d   1      -1.927   3.213  -4.362  0.00  0.00     0.002 A 
ATOM      3  C3  N4B d   1      -0.780   3.760  -4.884  0.00  0.00     0.002 A 
ATOM      4  C4  N4B d   1       0.197   4.248  -4.030  0.00  0.00    -0.004 A 
ATOM      5  C5  N4B d   1       0.037   4.143  -2.680  0.00  0.00     0.002 A 
ATOM      6  C6  N4B d   1      -1.109   3.593  -2.141  0.00  0.00     0.002 A 
ENDROOT
BRANCH   1   7
ATOM      7  C1' N4B d   1      -3.370   2.622  -2.345  0.00  0.00     0.057 C 
BRANCH   7   8
ATOM      8  C2' N4B d   1      -3.902   3.661  -1.362  0.00  0.00     0.009 C 
BRANCH   8   9
ATOM      9  C3' N4B d   1      -4.868   3.053  -0.360  0.00  0.00     0.004 C 
ATOM     10  C4' N4B d   1      -5.601   4.087   0.441  0.00  0.00     0.003 C 
ENDBRANCH   8   9
ENDBRANCH   7   8
ENDBRANCH   1   7
TORSDOF 3
ENDMDL
