MODEL 1
REMARK minimizedAffinity 0.240632012
REMARK minimizedRMSD -1
REMARK  3 active torsions:
REMARK  status: ('A' for Active; 'I' for Inactive)
REMARK    1  A    between atoms: C3'_2  and  C2'_3 
REMARK    2  A    between atoms: C2'_3  and  C1'_4 
REMARK    3  A    between atoms: C1'_4  and  C1_5 
ROOT
ATOM      1  C1  N4B d   1      -0.027  -0.289   0.294  0.00  0.00    -0.075 A 
ATOM      2  C2  N4B d   1      -0.751  -1.471   0.562  0.00  0.00     0.002 A 
ATOM      3  C3  N4B d   1      -0.117  -2.689   0.520  0.00  0.00     0.002 A 
ATOM      4  C4  N4B d   1       1.230  -2.750   0.193  0.00  0.00    -0.004 A 
ATOM      5  C5  N4B d   1       1.927  -1.601  -0.040  0.00  0.00     0.002 A 
ATOM      6  C6  N4B d   1       1.304  -0.370   0.004  0.00  0.00     0.002 A 
ENDROOT
BRANCH   1   7
ATOM      7  C1' N4B d   1      -0.697   1.058   0.244  0.00  0.00     0.057 C 
BRANCH   7   8
ATOM      8  C2' N4B d   1       0.087   1.972  -0.693  0.00  0.00     0.009 C 
BRANCH   8   9
ATOM      9  C3' N4B d   1      -0.746   3.153  -1.161  0.00  0.00     0.004 C 
ATOM     10  C4' N4B d   1      -0.049   3.978  -2.202  0.00  0.00     0.003 C 
ENDBRANCH   8   9
ENDBRANCH   7   8
ENDBRANCH   1   7
TORSDOF 3
ENDMDL
