MODEL 1
REMARK minimizedAffinity 2.66566873
REMARK minimizedRMSD -1
REMARK  0 active torsions:
REMARK  status: ('A' for Active; 'I' for Inactive)
ROOT
ATOM      1  C   UNL d   1      -1.447  -0.396   1.598  0.00  0.00    -0.002 A 
ATOM      2  C1  UNL d   1      -0.333   0.362   1.929  0.00  0.00     0.010 A 
ATOM      3  C2  UNL d   1       0.947  -0.063   1.568  0.00  0.00     0.041 A 
ATOM      4  C3  UNL d   1       1.090  -1.272   0.860  0.00  0.00    -0.075 A 
ATOM      5  S   UNL d   1       2.560  -1.988   0.312  0.00  0.00     0.015 SA
ATOM      6  C4  UNL d   1       1.742  -3.316  -0.376  0.00  0.00     0.022 A 
ATOM      7  C5  UNL d   1       0.382  -3.231  -0.201  0.00  0.00     0.026 A 
ATOM      8  C6  UNL d   1      -0.017  -2.051   0.513  0.00  0.00    -0.082 A 
ATOM      9  C7  UNL d   1      -1.302  -1.595   0.894  0.00  0.00     0.045 A 
ENDROOT
TORSDOF 0
ENDMDL
