MODEL 1
REMARK minimizedAffinity -2.66095352
REMARK minimizedRMSD -1
REMARK  0 active torsions:
REMARK  status: ('A' for Active; 'I' for Inactive)
ROOT
ATOM      1  C   UNL d   1       1.879  -2.232   0.057  0.00  0.00    -0.002 A 
ATOM      2  C1  UNL d   1       2.131  -0.896  -0.221  0.00  0.00     0.010 A 
ATOM      3  C2  UNL d   1       1.294   0.104   0.280  0.00  0.00     0.041 A 
ATOM      4  C3  UNL d   1       0.191  -0.265   1.075  0.00  0.00    -0.075 A 
ATOM      5  S   UNL d   1      -0.968   0.787   1.797  0.00  0.00     0.015 SA
ATOM      6  C4  UNL d   1      -1.824  -0.513   2.492  0.00  0.00     0.022 A 
ATOM      7  C5  UNL d   1      -1.253  -1.727   2.191  0.00  0.00     0.026 A 
ATOM      8  C6  UNL d   1      -0.082  -1.604   1.369  0.00  0.00    -0.082 A 
ATOM      9  C7  UNL d   1       0.784  -2.594   0.846  0.00  0.00     0.045 A 
ENDROOT
TORSDOF 0
ENDMDL
