MODEL 1
REMARK minimizedAffinity 0.818513811
REMARK minimizedRMSD -1
REMARK  0 active torsions:
REMARK  status: ('A' for Active; 'I' for Inactive)
ROOT
ATOM      1  C   UNL d   1       5.262   3.353  -2.429  0.00  0.00    -0.002 A 
ATOM      2  C1  UNL d   1       4.340   2.436  -1.944  0.00  0.00     0.010 A 
ATOM      3  C2  UNL d   1       3.771   2.602  -0.680  0.00  0.00     0.041 A 
ATOM      4  C3  UNL d   1       4.147   3.716   0.096  0.00  0.00    -0.075 A 
ATOM      5  S   UNL d   1       3.581   4.124   1.673  0.00  0.00     0.015 SA
ATOM      6  C4  UNL d   1       4.549   5.525   1.739  0.00  0.00     0.022 A 
ATOM      7  C5  UNL d   1       5.293   5.693   0.596  0.00  0.00     0.026 A 
ATOM      8  C6  UNL d   1       5.073   4.653  -0.371  0.00  0.00    -0.082 A 
ATOM      9  C7  UNL d   1       5.633   4.457  -1.656  0.00  0.00     0.045 A 
ENDROOT
TORSDOF 0
ENDMDL
