MODEL 1
REMARK minimizedAffinity 1.35496712
REMARK minimizedRMSD -1
REMARK  0 active torsions:
REMARK  status: ('A' for Active; 'I' for Inactive)
ROOT
ATOM      1  C   UNL d   1      -1.034  -0.194   1.307  0.00  0.00    -0.002 A 
ATOM      2  C1  UNL d   1       0.192   0.397   1.579  0.00  0.00     0.010 A 
ATOM      3  C2  UNL d   1       1.381  -0.224   1.193  0.00  0.00     0.041 A 
ATOM      4  C3  UNL d   1       1.318  -1.460   0.521  0.00  0.00    -0.075 A 
ATOM      5  S   UNL d   1       2.645  -2.404  -0.047  0.00  0.00     0.015 SA
ATOM      6  C4  UNL d   1       1.616  -3.614  -0.665  0.00  0.00     0.022 A 
ATOM      7  C5  UNL d   1       0.290  -3.322  -0.451  0.00  0.00     0.026 A 
ATOM      8  C6  UNL d   1       0.096  -2.075   0.235  0.00  0.00    -0.082 A 
ATOM      9  C7  UNL d   1      -1.092  -1.421   0.640  0.00  0.00     0.045 A 
ENDROOT
TORSDOF 0
ENDMDL
