MODEL 1
REMARK minimizedAffinity -0.443803459
REMARK minimizedRMSD -1
REMARK  0 active torsions:
REMARK  status: ('A' for Active; 'I' for Inactive)
ROOT
ATOM      1  C   UNL d   1       2.432  -2.202  -0.001  0.00  0.00    -0.002 A 
ATOM      2  C1  UNL d   1       1.513  -3.197  -0.303  0.00  0.00     0.010 A 
ATOM      3  C2  UNL d   1       0.153  -3.012  -0.043  0.00  0.00     0.041 A 
ATOM      4  C3  UNL d   1      -0.271  -1.796   0.528  0.00  0.00    -0.075 A 
ATOM      5  S   UNL d   1      -1.886  -1.346   0.932  0.00  0.00     0.015 SA
ATOM      6  C4  UNL d   1      -1.394   0.179   1.514  0.00  0.00     0.022 A 
ATOM      7  C5  UNL d   1      -0.035   0.357   1.411  0.00  0.00     0.026 A 
ATOM      8  C6  UNL d   1       0.635  -0.778   0.840  0.00  0.00    -0.082 A 
ATOM      9  C7  UNL d   1       2.006  -0.998   0.566  0.00  0.00     0.045 A 
ENDROOT
TORSDOF 0
ENDMDL
