MODEL 1
REMARK minimizedAffinity 3.03358531
REMARK minimizedRMSD -1
REMARK  0 active torsions:
REMARK  status: ('A' for Active; 'I' for Inactive)
ROOT
ATOM      1  C   UNL d   1      -0.989  -0.683   1.166  0.00  0.00    -0.002 A 
ATOM      2  C1  UNL d   1      -1.392  -1.928   0.701  0.00  0.00     0.010 A 
ATOM      3  C2  UNL d   1      -0.460  -2.824   0.175  0.00  0.00     0.041 A 
ATOM      4  C3  UNL d   1       0.897  -2.447   0.125  0.00  0.00    -0.075 A 
ATOM      5  S   UNL d   1       2.214  -3.382  -0.476  0.00  0.00     0.015 SA
ATOM      6  C4  UNL d   1       3.342  -2.152  -0.130  0.00  0.00     0.022 A 
ATOM      7  C5  UNL d   1       2.745  -1.048   0.431  0.00  0.00     0.026 A 
ATOM      8  C6  UNL d   1       1.326  -1.200   0.588  0.00  0.00    -0.082 A 
ATOM      9  C7  UNL d   1       0.357  -0.312   1.114  0.00  0.00     0.045 A 
ENDROOT
TORSDOF 0
ENDMDL
