MODEL 1
REMARK minimizedAffinity 0.177529514
REMARK minimizedRMSD -1
REMARK  0 active torsions:
REMARK  status: ('A' for Active; 'I' for Inactive)
ROOT
ATOM      1  C   UNL d   1      -1.468  -1.223   1.321  0.00  0.00    -0.002 A 
ATOM      2  C1  UNL d   1      -1.206  -0.928   2.652  0.00  0.00     0.010 A 
ATOM      3  C2  UNL d   1       0.064  -0.506   3.049  0.00  0.00     0.041 A 
ATOM      4  C3  UNL d   1       1.076  -0.382   2.076  0.00  0.00    -0.075 A 
ATOM      5  S   UNL d   1       2.706   0.118   2.331  0.00  0.00     0.015 SA
ATOM      6  C4  UNL d   1       3.093  -0.047   0.679  0.00  0.00     0.022 A 
ATOM      7  C5  UNL d   1       2.017  -0.473  -0.063  0.00  0.00     0.026 A 
ATOM      8  C6  UNL d   1       0.836  -0.673   0.730  0.00  0.00    -0.082 A 
ATOM      9  C7  UNL d   1      -0.462  -1.099   0.360  0.00  0.00     0.045 A 
ENDROOT
TORSDOF 0
ENDMDL
