MODEL 1
REMARK minimizedAffinity 0.271636873
REMARK minimizedRMSD -1
REMARK  0 active torsions:
REMARK  status: ('A' for Active; 'I' for Inactive)
ROOT
ATOM      1  C   UNL d   1       2.019  -4.105  -0.507  0.00  0.00    -0.002 A 
ATOM      2  C1  UNL d   1       3.124  -3.281  -0.343  0.00  0.00     0.010 A 
ATOM      3  C2  UNL d   1       2.966  -1.955   0.063  0.00  0.00     0.041 A 
ATOM      4  C3  UNL d   1       1.667  -1.466   0.306  0.00  0.00    -0.075 A 
ATOM      5  S   UNL d   1       1.233   0.123   0.812  0.00  0.00     0.015 SA
ATOM      6  C4  UNL d   1      -0.429  -0.254   0.824  0.00  0.00     0.022 A 
ATOM      7  C5  UNL d   1      -0.665  -1.557   0.453  0.00  0.00     0.026 A 
ATOM      8  C6  UNL d   1       0.540  -2.277   0.149  0.00  0.00    -0.082 A 
ATOM      9  C7  UNL d   1       0.733  -3.617  -0.265  0.00  0.00     0.045 A 
ENDROOT
TORSDOF 0
ENDMDL
