MODEL 1
REMARK minimizedAffinity 5.15746164
REMARK minimizedRMSD -1
REMARK  0 active torsions:
REMARK  status: ('A' for Active; 'I' for Inactive)
ROOT
ATOM      1  C   UNL d   1      -3.458   1.011  -0.078  0.00  0.00    -0.002 A 
ATOM      2  C1  UNL d   1      -3.024   1.618   1.092  0.00  0.00     0.010 A 
ATOM      3  C2  UNL d   1      -1.821   1.232   1.688  0.00  0.00     0.041 A 
ATOM      4  C3  UNL d   1      -1.055   0.217   1.082  0.00  0.00    -0.075 A 
ATOM      5  S   UNL d   1       0.450  -0.418   1.632  0.00  0.00     0.015 SA
ATOM      6  C4  UNL d   1       0.552  -1.510   0.327  0.00  0.00     0.022 A 
ATOM      7  C5  UNL d   1      -0.528  -1.406  -0.517  0.00  0.00     0.026 A 
ATOM      8  C6  UNL d   1      -1.472  -0.409  -0.097  0.00  0.00    -0.082 A 
ATOM      9  C7  UNL d   1      -2.696   0.004  -0.676  0.00  0.00     0.045 A 
ENDROOT
TORSDOF 0
ENDMDL
