MODEL 1
REMARK minimizedAffinity 7.72828245
REMARK minimizedRMSD -1
REMARK  0 active torsions:
REMARK  status: ('A' for Active; 'I' for Inactive)
ROOT
ATOM      1  C   UNL d   1      -0.592  -1.194  -0.670  0.00  0.00    -0.002 A 
ATOM      2  C1  UNL d   1      -1.364  -0.806   0.416  0.00  0.00     0.010 A 
ATOM      3  C2  UNL d   1      -0.761  -0.448   1.624  0.00  0.00     0.041 A 
ATOM      4  C3  UNL d   1       0.644  -0.486   1.722  0.00  0.00    -0.075 A 
ATOM      5  S   UNL d   1       1.600  -0.090   3.101  0.00  0.00     0.015 SA
ATOM      6  C4  UNL d   1       3.056  -0.425   2.280  0.00  0.00     0.022 A 
ATOM      7  C5  UNL d   1       2.836  -0.831   0.985  0.00  0.00     0.026 A 
ATOM      8  C6  UNL d   1       1.442  -0.872   0.642  0.00  0.00    -0.082 A 
ATOM      9  C7  UNL d   1       0.801  -1.230  -0.568  0.00  0.00     0.045 A 
ENDROOT
TORSDOF 0
ENDMDL
