MODEL 1
REMARK minimizedAffinity 0.86539048
REMARK minimizedRMSD -1
REMARK  0 active torsions:
REMARK  status: ('A' for Active; 'I' for Inactive)
ROOT
ATOM      1  C   UNL d   1       3.050  -2.744  -0.406  0.00  0.00    -0.002 A 
ATOM      2  C1  UNL d   1       2.009  -3.594  -0.754  0.00  0.00     0.010 A 
ATOM      3  C2  UNL d   1       0.708  -3.339  -0.317  0.00  0.00     0.041 A 
ATOM      4  C3  UNL d   1       0.467  -2.204   0.482  0.00  0.00    -0.075 A 
ATOM      5  S   UNL d   1      -1.045  -1.693   1.132  0.00  0.00     0.015 SA
ATOM      6  C4  UNL d   1      -0.346  -0.333   1.886  0.00  0.00     0.022 A 
ATOM      7  C5  UNL d   1       1.007  -0.256   1.658  0.00  0.00     0.026 A 
ATOM      8  C6  UNL d   1       1.498  -1.333   0.845  0.00  0.00    -0.082 A 
ATOM      9  C7  UNL d   1       2.807  -1.619   0.386  0.00  0.00     0.045 A 
ENDROOT
TORSDOF 0
ENDMDL
