MODEL 1
REMARK minimizedAffinity 7.04177332
REMARK minimizedRMSD -1
REMARK  0 active torsions:
REMARK  status: ('A' for Active; 'I' for Inactive)
ROOT
ATOM      1  C   UNL d   1      -2.076  -0.114   1.631  0.00  0.00    -0.002 A 
ATOM      2  C1  UNL d   1      -1.096   0.589   2.317  0.00  0.00     0.010 A 
ATOM      3  C2  UNL d   1       0.254   0.273   2.149  0.00  0.00     0.041 A 
ATOM      4  C3  UNL d   1       0.605  -0.770   1.270  0.00  0.00    -0.075 A 
ATOM      5  S   UNL d   1       2.194  -1.332   0.906  0.00  0.00     0.015 SA
ATOM      6  C4  UNL d   1       1.609  -2.518  -0.170  0.00  0.00     0.022 A 
ATOM      7  C5  UNL d   1       0.237  -2.500  -0.260  0.00  0.00     0.026 A 
ATOM      8  C6  UNL d   1      -0.364  -1.492   0.567  0.00  0.00    -0.082 A 
ATOM      9  C7  UNL d   1      -1.723  -1.148   0.760  0.00  0.00     0.045 A 
ENDROOT
TORSDOF 0
ENDMDL
