MODEL 1
REMARK minimizedAffinity -1.13292289
REMARK minimizedRMSD -1
REMARK  0 active torsions:
REMARK  status: ('A' for Active; 'I' for Inactive)
ROOT
ATOM      1  C   UNL d   1      -1.210  -1.164   0.120  0.00  0.00    -0.002 A 
ATOM      2  C1  UNL d   1      -0.104  -2.002   0.085  0.00  0.00     0.010 A 
ATOM      3  C2  UNL d   1       0.730  -2.123   1.198  0.00  0.00     0.041 A 
ATOM      4  C3  UNL d   1       0.432  -1.381   2.358  0.00  0.00    -0.075 A 
ATOM      5  S   UNL d   1       1.312  -1.371   3.840  0.00  0.00     0.015 SA
ATOM      6  C4  UNL d   1       0.241  -0.254   4.555  0.00  0.00     0.022 A 
ATOM      7  C5  UNL d   1      -0.769   0.113   3.697  0.00  0.00     0.026 A 
ATOM      8  C6  UNL d   1      -0.676  -0.531   2.417  0.00  0.00    -0.082 A 
ATOM      9  C7  UNL d   1      -1.503  -0.429   1.272  0.00  0.00     0.045 A 
ENDROOT
TORSDOF 0
ENDMDL
