MODEL 1
REMARK minimizedAffinity 0.479711533
REMARK minimizedRMSD -1
REMARK  0 active torsions:
REMARK  status: ('A' for Active; 'I' for Inactive)
ROOT
ATOM      1  C   UNL d   1      -0.547  -1.543   0.660  0.00  0.00    -0.002 A 
ATOM      2  C1  UNL d   1       0.214  -0.394   0.822  0.00  0.00     0.010 A 
ATOM      3  C2  UNL d   1       1.591  -0.416   0.595  0.00  0.00     0.041 A 
ATOM      4  C3  UNL d   1       2.197  -1.624   0.196  0.00  0.00    -0.075 A 
ATOM      5  S   UNL d   1       3.867  -1.888  -0.140  0.00  0.00     0.015 SA
ATOM      6  C4  UNL d   1       3.609  -3.532  -0.507  0.00  0.00     0.022 A 
ATOM      7  C5  UNL d   1       2.287  -3.888  -0.382  0.00  0.00     0.026 A 
ATOM      8  C6  UNL d   1       1.451  -2.794   0.025  0.00  0.00    -0.082 A 
ATOM      9  C7  UNL d   1       0.057  -2.739   0.265  0.00  0.00     0.045 A 
ENDROOT
TORSDOF 0
ENDMDL
