MODEL 1
REMARK minimizedAffinity 9.68401814
REMARK minimizedRMSD -1
REMARK  0 active torsions:
REMARK  status: ('A' for Active; 'I' for Inactive)
ROOT
ATOM      1  C   UNL d   1       1.087  -0.356   1.998  0.00  0.00    -0.002 A 
ATOM      2  C1  UNL d   1       2.082  -0.165   1.049  0.00  0.00     0.010 A 
ATOM      3  C2  UNL d   1       2.031  -0.829  -0.178  0.00  0.00     0.041 A 
ATOM      4  C3  UNL d   1       0.951  -1.696  -0.439  0.00  0.00    -0.075 A 
ATOM      5  S   UNL d   1       0.679  -2.614  -1.872  0.00  0.00     0.015 SA
ATOM      6  C4  UNL d   1      -0.765  -3.281  -1.260  0.00  0.00     0.022 A 
ATOM      7  C5  UNL d   1      -1.048  -2.825   0.006  0.00  0.00     0.026 A 
ATOM      8  C6  UNL d   1      -0.063  -1.903   0.500  0.00  0.00    -0.082 A 
ATOM      9  C7  UNL d   1       0.018  -1.216   1.735  0.00  0.00     0.045 A 
ENDROOT
TORSDOF 0
ENDMDL
