MODEL 1
REMARK minimizedAffinity 11.7289181
REMARK minimizedRMSD -1
REMARK  0 active torsions:
REMARK  status: ('A' for Active; 'I' for Inactive)
ROOT
ATOM      1  C   UNL d   1       0.553  -1.650  -0.544  0.00  0.00    -0.002 A 
ATOM      2  C1  UNL d   1      -0.667  -1.598   0.115  0.00  0.00     0.010 A 
ATOM      3  C2  UNL d   1      -0.740  -1.166   1.441  0.00  0.00     0.041 A 
ATOM      4  C3  UNL d   1       0.445  -0.782   2.099  0.00  0.00    -0.075 A 
ATOM      5  S   UNL d   1       0.598  -0.219   3.722  0.00  0.00     0.015 SA
ATOM      6  C4  UNL d   1       2.286  -0.034   3.578  0.00  0.00     0.022 A 
ATOM      7  C5  UNL d   1       2.739  -0.389   2.329  0.00  0.00     0.026 A 
ATOM      8  C6  UNL d   1       1.686  -0.826   1.456  0.00  0.00    -0.082 A 
ATOM      9  C7  UNL d   1       1.727  -1.269   0.112  0.00  0.00     0.045 A 
ENDROOT
TORSDOF 0
ENDMDL
