MODEL 1
REMARK minimizedAffinity -2.62585759
REMARK minimizedRMSD -1
REMARK  0 active torsions:
REMARK  status: ('A' for Active; 'I' for Inactive)
ROOT
ATOM      1  C   UNL d   1      -2.983   6.000  -5.585  0.00  0.00     0.172 C 
ATOM      2  N   UNL d   1      -2.227   4.781  -5.751  0.00  0.00    -0.070 N 
ATOM      3  C1  UNL d   1      -0.863   4.693  -5.830  0.00  0.00    -0.004 A 
ATOM      4  C2  UNL d   1      -0.534   3.363  -5.985  0.00  0.00    -0.047 A 
ATOM      5  C3  UNL d   1      -1.743   2.627  -6.000  0.00  0.00    -0.047 A 
ATOM      6  C4  UNL d   1      -2.775   3.530  -5.853  0.00  0.00    -0.004 A 
ENDROOT
TORSDOF 0
ENDMDL
