MODEL 1
REMARK minimizedAffinity -1.61807275
REMARK minimizedRMSD -1
REMARK  0 active torsions:
REMARK  status: ('A' for Active; 'I' for Inactive)
ROOT
ATOM      1  C   UNL d   1      -3.007   5.959  -5.987  0.00  0.00     0.172 C 
ATOM      2  N   UNL d   1      -2.163   4.788  -5.987  0.00  0.00    -0.070 N 
ATOM      3  C1  UNL d   1      -0.793   4.791  -5.975  0.00  0.00    -0.004 A 
ATOM      4  C2  UNL d   1      -0.369   3.480  -5.980  0.00  0.00    -0.047 A 
ATOM      5  C3  UNL d   1      -1.523   2.661  -5.995  0.00  0.00    -0.047 A 
ATOM      6  C4  UNL d   1      -2.619   3.496  -6.000  0.00  0.00    -0.004 A 
ENDROOT
TORSDOF 0
ENDMDL
