MODEL 1
REMARK minimizedAffinity -1.79111898
REMARK minimizedRMSD -1
REMARK  0 active torsions:
REMARK  status: ('A' for Active; 'I' for Inactive)
ROOT
ATOM      1  C   UNL d   1       0.298   3.263  -6.000  0.00  0.00     0.172 C 
ATOM      2  N   UNL d   1      -0.457   4.309  -5.351  0.00  0.00    -0.070 N 
ATOM      3  C1  UNL d   1      -0.401   4.626  -4.020  0.00  0.00    -0.004 A 
ATOM      4  C2  UNL d   1      -1.266   5.676  -3.800  0.00  0.00    -0.047 A 
ATOM      5  C3  UNL d   1      -1.864   6.000  -5.041  0.00  0.00    -0.047 A 
ATOM      6  C4  UNL d   1      -1.345   5.138  -5.984  0.00  0.00    -0.004 A 
ENDROOT
TORSDOF 0
ENDMDL
