MODEL 1
REMARK minimizedAffinity -1.56127441
REMARK minimizedRMSD -1
REMARK  0 active torsions:
REMARK  status: ('A' for Active; 'I' for Inactive)
ROOT
ATOM      1  C   UNL d   1      -2.659   3.048  -5.999  0.00  0.00     0.172 C 
ATOM      2  N   UNL d   1      -1.359   3.676  -5.999  0.00  0.00    -0.070 N 
ATOM      3  C1  UNL d   1      -0.156   3.021  -6.000  0.00  0.00    -0.004 A 
ATOM      4  C2  UNL d   1       0.842   3.971  -6.000  0.00  0.00    -0.047 A 
ATOM      5  C3  UNL d   1       0.217   5.241  -5.998  0.00  0.00    -0.047 A 
ATOM      6  C4  UNL d   1      -1.145   5.029  -5.997  0.00  0.00    -0.004 A 
ENDROOT
TORSDOF 0
ENDMDL
