MODEL 1
REMARK minimizedAffinity -0.575608253
REMARK minimizedRMSD -1
REMARK  0 active torsions:
REMARK  status: ('A' for Active; 'I' for Inactive)
ROOT
ATOM      1  C   UNL d   1      -2.347   2.961  -5.995  0.00  0.00     0.172 C 
ATOM      2  N   UNL d   1      -0.998   3.475  -5.997  0.00  0.00    -0.070 N 
ATOM      3  C1  UNL d   1      -0.648   4.799  -5.999  0.00  0.00    -0.004 A 
ATOM      4  C2  UNL d   1       0.728   4.872  -6.000  0.00  0.00    -0.047 A 
ATOM      5  C3  UNL d   1       1.223   3.546  -6.000  0.00  0.00    -0.047 A 
ATOM      6  C4  UNL d   1       0.133   2.701  -5.998  0.00  0.00    -0.004 A 
ENDROOT
TORSDOF 0
ENDMDL
