MODEL 1
REMARK minimizedAffinity 0.658955216
REMARK minimizedRMSD -1
REMARK  0 active torsions:
REMARK  status: ('A' for Active; 'I' for Inactive)
ROOT
ATOM      1  C   UNL d   1      -2.256   5.960  -4.257  0.00  0.00     0.172 C 
ATOM      2  N   UNL d   1      -1.213   5.064  -4.698  0.00  0.00    -0.070 N 
ATOM      3  C1  UNL d   1      -0.179   4.603  -3.929  0.00  0.00    -0.004 A 
ATOM      4  C2  UNL d   1       0.595   3.775  -4.714  0.00  0.00    -0.047 A 
ATOM      5  C3  UNL d   1       0.005   3.738  -6.000  0.00  0.00    -0.047 A 
ATOM      6  C4  UNL d   1      -1.113   4.545  -5.962  0.00  0.00    -0.004 A 
ENDROOT
TORSDOF 0
ENDMDL
