MODEL 1
REMARK minimizedAffinity -0.766398609
REMARK minimizedRMSD -1
REMARK  0 active torsions:
REMARK  status: ('A' for Active; 'I' for Inactive)
ROOT
ATOM      1  C   UNL d   1      -0.247   1.022   1.055  0.00  0.00     0.172 C 
ATOM      2  N   UNL d   1      -1.652   1.144   0.745  0.00  0.00    -0.070 N 
ATOM      3  C1  UNL d   1      -2.637   1.496   1.629  0.00  0.00    -0.004 A 
ATOM      4  C2  UNL d   1      -3.835   1.500   0.947  0.00  0.00    -0.047 A 
ATOM      5  C3  UNL d   1      -3.560   1.136  -0.393  0.00  0.00    -0.047 A 
ATOM      6  C4  UNL d   1      -2.202   0.921  -0.490  0.00  0.00    -0.004 A 
ENDROOT
TORSDOF 0
ENDMDL
