MODEL 1
REMARK minimizedAffinity -2.3578527
REMARK minimizedRMSD -1
REMARK  0 active torsions:
REMARK  status: ('A' for Active; 'I' for Inactive)
ROOT
ATOM      1  C   UNL d   1      -2.946   5.993  -5.988  0.00  0.00     0.172 C 
ATOM      2  N   UNL d   1      -1.980   5.100  -5.392  0.00  0.00    -0.070 N 
ATOM      3  C1  UNL d   1      -1.425   4.005  -5.998  0.00  0.00    -0.004 A 
ATOM      4  C2  UNL d   1      -0.555   3.422  -5.103  0.00  0.00    -0.047 A 
ATOM      5  C3  UNL d   1      -0.588   4.194  -3.917  0.00  0.00    -0.047 A 
ATOM      6  C4  UNL d   1      -1.478   5.226  -4.124  0.00  0.00    -0.004 A 
ENDROOT
TORSDOF 0
ENDMDL
