MODEL 1
REMARK minimizedAffinity -1.93478799
REMARK minimizedRMSD -1
REMARK  0 active torsions:
REMARK  status: ('A' for Active; 'I' for Inactive)
ROOT
ATOM      1  C   UNL d   1      -0.344   4.696  -5.959  0.00  0.00     0.172 C 
ATOM      2  N   UNL d   1      -1.783   4.811  -5.969  0.00  0.00    -0.070 N 
ATOM      3  C1  UNL d   1      -2.668   3.766  -5.986  0.00  0.00    -0.004 A 
ATOM      4  C2  UNL d   1      -3.942   4.291  -5.990  0.00  0.00    -0.047 A 
ATOM      5  C3  UNL d   1      -3.819   5.701  -5.977  0.00  0.00    -0.047 A 
ATOM      6  C4  UNL d   1      -2.472   5.995  -5.964  0.00  0.00    -0.004 A 
ENDROOT
TORSDOF 0
ENDMDL
