MODEL 1
REMARK minimizedAffinity -1.37038767
REMARK minimizedRMSD -1
REMARK  0 active torsions:
REMARK  status: ('A' for Active; 'I' for Inactive)
ROOT
ATOM      1  C   UNL d   1      -2.058   2.428  -5.970  0.00  0.00     0.172 C 
ATOM      2  N   UNL d   1      -2.575   3.776  -5.977  0.00  0.00    -0.070 N 
ATOM      3  C1  UNL d   1      -1.823   4.920  -5.997  0.00  0.00    -0.004 A 
ATOM      4  C2  UNL d   1      -2.687   5.994  -5.998  0.00  0.00    -0.047 A 
ATOM      5  C3  UNL d   1      -4.004   5.478  -5.978  0.00  0.00    -0.047 A 
ATOM      6  C4  UNL d   1      -3.906   4.102  -5.966  0.00  0.00    -0.004 A 
ENDROOT
TORSDOF 0
ENDMDL
