MODEL 1
REMARK minimizedAffinity 1.04502499
REMARK minimizedRMSD -1
REMARK  0 active torsions:
REMARK  status: ('A' for Active; 'I' for Inactive)
ROOT
ATOM      1  C   UNL d   1       3.036   2.338  -5.998  0.00  0.00     0.172 C 
ATOM      2  N   UNL d   1       3.889   3.503  -5.999  0.00  0.00    -0.070 N 
ATOM      3  C1  UNL d   1       5.258   3.491  -5.997  0.00  0.00    -0.004 A 
ATOM      4  C2  UNL d   1       5.692   4.799  -5.999  0.00  0.00    -0.047 A 
ATOM      5  C3  UNL d   1       4.543   5.626  -6.000  0.00  0.00    -0.047 A 
ATOM      6  C4  UNL d   1       3.441   4.798  -6.000  0.00  0.00    -0.004 A 
ENDROOT
TORSDOF 0
ENDMDL
