MODEL 1
REMARK minimizedAffinity -0.287184417
REMARK minimizedRMSD -1
REMARK  0 active torsions:
REMARK  status: ('A' for Active; 'I' for Inactive)
ROOT
ATOM      1  C   UNL d   1      -1.504   5.881  -5.989  0.00  0.00     0.172 C 
ATOM      2  N   UNL d   1      -1.157   4.480  -5.993  0.00  0.00    -0.070 N 
ATOM      3  C1  UNL d   1       0.115   3.972  -5.997  0.00  0.00    -0.004 A 
ATOM      4  C2  UNL d   1       0.021   2.598  -5.999  0.00  0.00    -0.047 A 
ATOM      5  C3  UNL d   1      -1.355   2.267  -5.999  0.00  0.00    -0.047 A 
ATOM      6  C4  UNL d   1      -2.061   3.451  -5.995  0.00  0.00    -0.004 A 
ENDROOT
TORSDOF 0
ENDMDL
