MODEL 1
REMARK minimizedAffinity -2.40795612
REMARK minimizedRMSD -1
REMARK  0 active torsions:
REMARK  status: ('A' for Active; 'I' for Inactive)
ROOT
ATOM      1  C   UNL d   1      -3.562   3.376  -5.999  0.00  0.00     0.172 C 
ATOM      2  N   UNL d   1      -2.206   3.873  -5.998  0.00  0.00    -0.070 N 
ATOM      3  C1  UNL d   1      -1.839   5.193  -5.994  0.00  0.00    -0.004 A 
ATOM      4  C2  UNL d   1      -0.462   5.248  -5.993  0.00  0.00    -0.047 A 
ATOM      5  C3  UNL d   1       0.015   3.916  -5.997  0.00  0.00    -0.047 A 
ATOM      6  C4  UNL d   1      -1.085   3.085  -6.000  0.00  0.00    -0.004 A 
ENDROOT
TORSDOF 0
ENDMDL
