MODEL 1
REMARK minimizedAffinity -1.58886778
REMARK minimizedRMSD -1
REMARK  0 active torsions:
REMARK  status: ('A' for Active; 'I' for Inactive)
ROOT
ATOM      1  C   UNL d   1       0.767   2.143  -5.984  0.00  0.00     0.172 C 
ATOM      2  N   UNL d   1      -0.253   3.165  -5.988  0.00  0.00    -0.070 N 
ATOM      3  C1  UNL d   1      -0.029   4.516  -5.988  0.00  0.00    -0.004 A 
ATOM      4  C2  UNL d   1      -1.255   5.147  -5.993  0.00  0.00    -0.047 A 
ATOM      5  C3  UNL d   1      -2.249   4.140  -5.995  0.00  0.00    -0.047 A 
ATOM      6  C4  UNL d   1      -1.601   2.923  -5.992  0.00  0.00    -0.004 A 
ENDROOT
TORSDOF 0
ENDMDL
