MODEL 1
REMARK minimizedAffinity -1.95396674
REMARK minimizedRMSD -1
REMARK  0 active torsions:
REMARK  status: ('A' for Active; 'I' for Inactive)
ROOT
ATOM      1  C   UNL d   1       0.069   5.982  -5.998  0.00  0.00     0.172 C 
ATOM      2  N   UNL d   1      -0.566   4.685  -5.998  0.00  0.00    -0.070 N 
ATOM      3  C1  UNL d   1      -1.917   4.458  -5.997  0.00  0.00    -0.004 A 
ATOM      4  C2  UNL d   1      -2.115   3.094  -5.999  0.00  0.00    -0.047 A 
ATOM      5  C3  UNL d   1      -0.839   2.480  -6.000  0.00  0.00    -0.047 A 
ATOM      6  C4  UNL d   1       0.101   3.489  -5.999  0.00  0.00    -0.004 A 
ENDROOT
TORSDOF 0
ENDMDL
