MODEL 1
REMARK minimizedAffinity 3.1176722
REMARK minimizedRMSD -1
REMARK  1 active torsions:
REMARK  status: ('A' for Active; 'I' for Inactive)
REMARK    1  A    between atoms: C1_2  and  C2_3 
ROOT
ATOM      1  C2  UNL d   1       2.830  -0.336  -0.263  0.00  0.00    -0.076 A 
ATOM      2  C3  UNL d   1       1.727  -0.188  -1.122  0.00  0.00     0.004 A 
ATOM      3  C4  UNL d   1       1.496   1.013  -1.792  0.00  0.00    -0.003 A 
ATOM      4  C5  UNL d   1       2.364   2.084  -1.615  0.00  0.00     0.000 A 
ATOM      5  C6  UNL d   1       3.473   1.949  -0.780  0.00  0.00     0.000 A 
ATOM      6  C7  UNL d   1       3.730   0.740  -0.110  0.00  0.00    -0.073 A 
ATOM      7  C8  UNL d   1       4.937   0.652   0.783  0.00  0.00     0.078 C 
ENDROOT
BRANCH   1   8
ATOM      8  C1  UNL d   1       3.015  -1.652   0.457  0.00  0.00     0.053 C 
ATOM      9  C   UNL d   1       1.736  -2.136   1.124  0.00  0.00     0.018 C 
ENDBRANCH   1   8
TORSDOF 1
ENDMDL
