MODEL 1
REMARK minimizedAffinity 5.61178255
REMARK minimizedRMSD -1
REMARK  1 active torsions:
REMARK  status: ('A' for Active; 'I' for Inactive)
REMARK    1  A    between atoms: C1_2  and  C2_3 
ROOT
ATOM      1  C2  UNL d   1       1.042  -1.269   2.451  0.00  0.00    -0.076 A 
ATOM      2  C3  UNL d   1       1.756  -2.130   1.599  0.00  0.00     0.004 A 
ATOM      3  C4  UNL d   1       1.176  -3.300   1.112  0.00  0.00    -0.003 A 
ATOM      4  C5  UNL d   1      -0.127  -3.629   1.468  0.00  0.00     0.000 A 
ATOM      5  C6  UNL d   1      -0.856  -2.778   2.298  0.00  0.00     0.000 A 
ATOM      6  C7  UNL d   1      -0.292  -1.586   2.785  0.00  0.00    -0.073 A 
ATOM      7  C8  UNL d   1      -1.122  -0.708   3.681  0.00  0.00     0.078 C 
ENDROOT
BRANCH   1   8
ATOM      8  C1  UNL d   1       1.731  -0.028   2.969  0.00  0.00     0.053 C 
ATOM      9  C   UNL d   1       1.634   1.141   2.001  0.00  0.00     0.018 C 
ENDBRANCH   1   8
TORSDOF 1
ENDMDL
