MODEL 1
REMARK minimizedAffinity 13.6978016
REMARK minimizedRMSD -1
REMARK  1 active torsions:
REMARK  status: ('A' for Active; 'I' for Inactive)
REMARK    1  A    between atoms: C1_2  and  C2_3 
ROOT
ATOM      1  C2  UNL d   1       1.396  -2.696   0.446  0.00  0.00    -0.076 A 
ATOM      2  C3  UNL d   1       0.090  -2.877   0.934  0.00  0.00     0.004 A 
ATOM      3  C4  UNL d   1      -0.415  -2.068   1.950  0.00  0.00    -0.003 A 
ATOM      4  C5  UNL d   1       0.377  -1.064   2.495  0.00  0.00     0.000 A 
ATOM      5  C6  UNL d   1       1.669  -0.859   2.012  0.00  0.00     0.000 A 
ATOM      6  C7  UNL d   1       2.188  -1.655   0.976  0.00  0.00    -0.073 A 
ATOM      7  C8  UNL d   1       3.589  -1.393   0.497  0.00  0.00     0.078 C 
ENDROOT
BRANCH   1   8
ATOM      8  C1  UNL d   1       1.899  -3.621  -0.639  0.00  0.00     0.053 C 
ATOM      9  C   UNL d   1       1.763  -5.088  -0.263  0.00  0.00     0.018 C 
ENDBRANCH   1   8
TORSDOF 1
ENDMDL
