MODEL 1
REMARK minimizedAffinity 14.7721777
REMARK minimizedRMSD -1
REMARK  1 active torsions:
REMARK  status: ('A' for Active; 'I' for Inactive)
REMARK    1  A    between atoms: C1_2  and  C2_3 
ROOT
ATOM      1  C2  UNL d   1      -0.835  -1.628   1.828  0.00  0.00    -0.076 A 
ATOM      2  C3  UNL d   1       0.267  -2.290   1.258  0.00  0.00     0.004 A 
ATOM      3  C4  UNL d   1       1.570  -1.873   1.523  0.00  0.00    -0.003 A 
ATOM      4  C5  UNL d   1       1.793  -0.787   2.363  0.00  0.00     0.000 A 
ATOM      5  C6  UNL d   1       0.713  -0.130   2.951  0.00  0.00     0.000 A 
ATOM      6  C7  UNL d   1      -0.607  -0.548   2.707  0.00  0.00    -0.073 A 
ATOM      7  C8  UNL d   1      -1.734   0.201   3.363  0.00  0.00     0.078 C 
ENDROOT
BRANCH   1   8
ATOM      8  C1  UNL d   1      -2.226  -2.109   1.483  0.00  0.00     0.053 C 
ATOM      9  C   UNL d   1      -2.791  -1.421   0.250  0.00  0.00     0.018 C 
ENDBRANCH   1   8
TORSDOF 1
ENDMDL
