MODEL 1
REMARK minimizedAffinity 5.81912756
REMARK minimizedRMSD -1
REMARK  1 active torsions:
REMARK  status: ('A' for Active; 'I' for Inactive)
REMARK    1  A    between atoms: N_2  and  C1_3 
ROOT
ATOM      1  C1  UNL d   1       1.021  -2.732   1.607  0.00  0.00     0.143 A 
ATOM      2  C2  UNL d   1       0.147  -3.753   1.996  0.00  0.00    -0.057 A 
ATOM      3  C3  UNL d   1      -1.017  -3.475   2.722  0.00  0.00     0.033 A 
ATOM      4  C4  UNL d   1      -1.313  -2.169   3.099  0.00  0.00    -0.042 A 
ATOM      5  C5  UNL d   1      -0.446  -1.141   2.745  0.00  0.00     0.033 A 
ATOM      6  C6  UNL d   1       0.711  -1.425   2.014  0.00  0.00    -0.057 A 
ENDROOT
BRANCH   1   7
ATOM      7  N   UNL d   1       2.244  -2.956   0.969  0.00  0.00    -0.732 N 
ATOM      8  C   UNL d   1       3.347  -3.564   1.682  0.00  0.00     0.284 C 
ATOM      9  H3  UNL d   1       2.129  -3.292   0.016  0.00  0.00     0.395 HD
ENDBRANCH   1   7
TORSDOF 1
ENDMDL
