MODEL 1
REMARK minimizedAffinity 13.3736544
REMARK minimizedRMSD -1
REMARK  1 active torsions:
REMARK  status: ('A' for Active; 'I' for Inactive)
REMARK    1  A    between atoms: N_2  and  C1_3 
ROOT
ATOM      1  C1  UNL d   1      -2.858   0.231  -2.105  0.00  0.00     0.143 A 
ATOM      2  C2  UNL d   1      -1.620   0.806  -1.798  0.00  0.00    -0.057 A 
ATOM      3  C3  UNL d   1      -1.235   2.035  -2.346  0.00  0.00     0.033 A 
ATOM      4  C4  UNL d   1      -2.072   2.700  -3.236  0.00  0.00    -0.042 A 
ATOM      5  C5  UNL d   1      -3.297   2.136  -3.574  0.00  0.00     0.033 A 
ATOM      6  C6  UNL d   1      -3.679   0.911  -3.019  0.00  0.00    -0.057 A 
ENDROOT
BRANCH   1   7
ATOM      7  N   UNL d   1      -3.257  -1.035  -1.670  0.00  0.00    -0.732 N 
ATOM      8  C   UNL d   1      -4.317  -1.748  -2.350  0.00  0.00     0.284 C 
ATOM      9  H3  UNL d   1      -2.469  -1.620  -1.401  0.00  0.00     0.395 HD
ENDBRANCH   1   7
TORSDOF 1
ENDMDL
