MODEL 1
REMARK minimizedAffinity 9.93467712
REMARK minimizedRMSD -1
REMARK  1 active torsions:
REMARK  status: ('A' for Active; 'I' for Inactive)
REMARK    1  A    between atoms: N_2  and  C1_3 
ROOT
ATOM      1  C1  UNL d   1      -2.614   0.900  -2.268  0.00  0.00     0.143 A 
ATOM      2  C2  UNL d   1      -3.919   0.440  -2.062  0.00  0.00    -0.057 A 
ATOM      3  C3  UNL d   1      -4.180  -0.661  -1.237  0.00  0.00     0.033 A 
ATOM      4  C4  UNL d   1      -3.133  -1.342  -0.624  0.00  0.00    -0.042 A 
ATOM      5  C5  UNL d   1      -1.825  -0.918  -0.835  0.00  0.00     0.033 A 
ATOM      6  C6  UNL d   1      -1.572   0.186  -1.655  0.00  0.00    -0.057 A 
ENDROOT
BRANCH   1   7
ATOM      7  N   UNL d   1      -2.282   1.927  -3.154  0.00  0.00    -0.732 N 
ATOM      8  C   UNL d   1      -1.199   2.838  -2.854  0.00  0.00     0.284 C 
ATOM      9  H3  UNL d   1      -2.317   1.628  -4.126  0.00  0.00     0.395 HD
ENDBRANCH   1   7
TORSDOF 1
ENDMDL
