MODEL 1
REMARK minimizedAffinity 7.77266169
REMARK minimizedRMSD -1
REMARK  1 active torsions:
REMARK  status: ('A' for Active; 'I' for Inactive)
REMARK    1  A    between atoms: N_2  and  C1_3 
ROOT
ATOM      1  C1  UNL d   1       1.460  -3.171   1.113  0.00  0.00     0.143 A 
ATOM      2  C2  UNL d   1       0.129  -2.868   1.420  0.00  0.00    -0.057 A 
ATOM      3  C3  UNL d   1      -0.192  -1.882   2.360  0.00  0.00     0.033 A 
ATOM      4  C4  UNL d   1       0.816  -1.199   3.034  0.00  0.00    -0.042 A 
ATOM      5  C5  UNL d   1       2.145  -1.501   2.762  0.00  0.00     0.033 A 
ATOM      6  C6  UNL d   1       2.460  -2.482   1.817  0.00  0.00    -0.057 A 
ENDROOT
BRANCH   1   7
ATOM      7  N   UNL d   1       1.845  -4.209   0.260  0.00  0.00    -0.732 N 
ATOM      8  C   UNL d   1       1.832  -5.582   0.717  0.00  0.00     0.284 C 
ATOM      9  H3  UNL d   1       1.495  -4.083  -0.687  0.00  0.00     0.395 HD
ENDBRANCH   1   7
TORSDOF 1
ENDMDL
