MODEL 1
REMARK minimizedAffinity 7.95871305
REMARK minimizedRMSD -1
REMARK  1 active torsions:
REMARK  status: ('A' for Active; 'I' for Inactive)
REMARK    1  A    between atoms: N_2  and  C1_3 
ROOT
ATOM      1  C1  UNL d   1       2.009   4.434  -5.424  0.00  0.00     0.143 A 
ATOM      2  C2  UNL d   1       2.960   3.408  -5.437  0.00  0.00    -0.057 A 
ATOM      3  C3  UNL d   1       4.310   3.673  -5.699  0.00  0.00     0.033 A 
ATOM      4  C4  UNL d   1       4.729   4.968  -5.982  0.00  0.00    -0.042 A 
ATOM      5  C5  UNL d   1       3.797   6.000  -6.000  0.00  0.00     0.033 A 
ATOM      6  C6  UNL d   1       2.452   5.731  -5.731  0.00  0.00    -0.057 A 
ENDROOT
BRANCH   1   7
ATOM      7  N   UNL d   1       0.638   4.222  -5.268  0.00  0.00    -0.732 N 
ATOM      8  C   UNL d   1       0.149   3.141  -4.438  0.00  0.00     0.284 C 
ATOM      9  H3  UNL d   1       0.119   5.091  -5.166  0.00  0.00     0.395 HD
ENDBRANCH   1   7
TORSDOF 1
ENDMDL
