MODEL 1
REMARK minimizedAffinity 9.99474621
REMARK minimizedRMSD -1
REMARK  1 active torsions:
REMARK  status: ('A' for Active; 'I' for Inactive)
REMARK    1  A    between atoms: N_2  and  C1_3 
ROOT
ATOM      1  C1  UNL d   1      -1.595   1.717  -2.371  0.00  0.00     0.143 A 
ATOM      2  C2  UNL d   1      -2.963   1.811  -2.098  0.00  0.00    -0.057 A 
ATOM      3  C3  UNL d   1      -3.653   0.764  -1.474  0.00  0.00     0.033 A 
ATOM      4  C4  UNL d   1      -2.989  -0.411  -1.138  0.00  0.00    -0.042 A 
ATOM      5  C5  UNL d   1      -1.634  -0.536  -1.423  0.00  0.00     0.033 A 
ATOM      6  C6  UNL d   1      -0.949   0.516  -2.040  0.00  0.00    -0.057 A 
ENDROOT
BRANCH   1   7
ATOM      7  N   UNL d   1      -0.874   2.684  -3.077  0.00  0.00    -0.732 N 
ATOM      8  C   UNL d   1      -0.149   2.331  -4.279  0.00  0.00     0.284 C 
ATOM      9  H3  UNL d   1      -1.369   3.571  -3.136  0.00  0.00     0.395 HD
ENDBRANCH   1   7
TORSDOF 1
ENDMDL
