MODEL 1
REMARK minimizedAffinity -2.27290463
REMARK minimizedRMSD -1
REMARK  1 active torsions:
REMARK  status: ('A' for Active; 'I' for Inactive)
REMARK    1  A    between atoms: C3_4  and  O_7 
ROOT
ATOM      1  C   UNL d   1      -0.476  -0.720   0.546  0.00  0.00    -0.033 A 
ATOM      2  C1  UNL d   1       0.101  -1.731   1.317  0.00  0.00     0.039 A 
ATOM      3  C2  UNL d   1       1.489  -1.808   1.444  0.00  0.00    -0.080 A 
ATOM      4  C3  UNL d   1       2.288  -0.869   0.798  0.00  0.00     0.150 A 
ATOM      5  C4  UNL d   1       1.720   0.143   0.031  0.00  0.00    -0.007 A 
ATOM      6  C5  UNL d   1       0.333   0.218  -0.096  0.00  0.00     0.039 A 
ENDROOT
BRANCH   4   7
ATOM      7  O   UNL d   1       3.648  -0.906   0.889  0.00  0.00    -0.526 OA
ATOM      8  H5  UNL d   1       3.899  -1.676   1.427  0.00  0.00     0.418 HD
ENDBRANCH   4   7
TORSDOF 1
ENDMDL
