MODEL 1
REMARK minimizedAffinity -4.63412571
REMARK minimizedRMSD -1
REMARK  1 active torsions:
REMARK  status: ('A' for Active; 'I' for Inactive)
REMARK    1  A    between atoms: C3_4  and  O_7 
ROOT
ATOM      1  C   UNL d   1       0.854   0.688   0.106  0.00  0.00    -0.033 A 
ATOM      2  C1  UNL d   1      -0.013  -0.266   0.641  0.00  0.00     0.039 A 
ATOM      3  C2  UNL d   1       0.490  -1.471   1.135  0.00  0.00    -0.080 A 
ATOM      4  C3  UNL d   1       1.861  -1.708   1.089  0.00  0.00     0.150 A 
ATOM      5  C4  UNL d   1       2.732  -0.760   0.561  0.00  0.00    -0.007 A 
ATOM      6  C5  UNL d   1       2.227   0.442   0.067  0.00  0.00     0.039 A 
ENDROOT
BRANCH   4   7
ATOM      7  O   UNL d   1       2.399  -2.871   1.554  0.00  0.00    -0.526 OA
ATOM      8  H5  UNL d   1       1.676  -3.443   1.863  0.00  0.00     0.418 HD
ENDBRANCH   4   7
TORSDOF 1
ENDMDL
