MODEL 1
REMARK minimizedAffinity -3.83636761
REMARK minimizedRMSD -1
REMARK  1 active torsions:
REMARK  status: ('A' for Active; 'I' for Inactive)
REMARK    1  A    between atoms: C3_4  and  O_7 
ROOT
ATOM      1  C   UNL d   1       1.677   0.804  -0.291  0.00  0.00    -0.033 A 
ATOM      2  C1  UNL d   1       0.484   1.526  -0.223  0.00  0.00     0.039 A 
ATOM      3  C2  UNL d   1      -0.608   1.009   0.478  0.00  0.00    -0.080 A 
ATOM      4  C3  UNL d   1      -0.493  -0.228   1.106  0.00  0.00     0.150 A 
ATOM      5  C4  UNL d   1       0.694  -0.950   1.046  0.00  0.00    -0.007 A 
ATOM      6  C5  UNL d   1       1.783  -0.433   0.344  0.00  0.00     0.039 A 
ENDROOT
BRANCH   4   7
ATOM      7  O   UNL d   1      -1.532  -0.775   1.798  0.00  0.00    -0.526 OA
ATOM      8  H5  UNL d   1      -2.295  -0.178   1.730  0.00  0.00     0.418 HD
ENDBRANCH   4   7
TORSDOF 1
ENDMDL
