MODEL 1
REMARK minimizedAffinity -3.39948273
REMARK minimizedRMSD -1
REMARK  1 active torsions:
REMARK  status: ('A' for Active; 'I' for Inactive)
REMARK    1  A    between atoms: C3_4  and  O_7 
ROOT
ATOM      1  C   UNL d   1      -2.672   2.525  -2.994  0.00  0.00    -0.033 A 
ATOM      2  C1  UNL d   1      -1.452   3.166  -2.773  0.00  0.00     0.039 A 
ATOM      3  C2  UNL d   1      -0.466   2.547  -2.001  0.00  0.00    -0.080 A 
ATOM      4  C3  UNL d   1      -0.714   1.289  -1.457  0.00  0.00     0.150 A 
ATOM      5  C4  UNL d   1      -1.926   0.644  -1.677  0.00  0.00    -0.007 A 
ATOM      6  C5  UNL d   1      -2.909   1.263  -2.448  0.00  0.00     0.039 A 
ENDROOT
BRANCH   4   7
ATOM      7  O   UNL d   1       0.215   0.648  -0.693  0.00  0.00    -0.526 OA
ATOM      8  H5  UNL d   1       0.992   1.226  -0.603  0.00  0.00     0.418 HD
ENDBRANCH   4   7
TORSDOF 1
ENDMDL
