MODEL 1
REMARK minimizedAffinity -4.80705404
REMARK minimizedRMSD -1
REMARK  1 active torsions:
REMARK  status: ('A' for Active; 'I' for Inactive)
REMARK    1  A    between atoms: C3_4  and  O_7 
ROOT
ATOM      1  C   UNL d   1      -0.469   0.543   0.390  0.00  0.00    -0.033 A 
ATOM      2  C1  UNL d   1      -1.085  -0.497   1.089  0.00  0.00     0.039 A 
ATOM      3  C2  UNL d   1      -0.412  -1.705   1.283  0.00  0.00    -0.080 A 
ATOM      4  C3  UNL d   1       0.876  -1.859   0.776  0.00  0.00     0.150 A 
ATOM      5  C4  UNL d   1       1.497  -0.825   0.082  0.00  0.00    -0.007 A 
ATOM      6  C5  UNL d   1       0.823   0.380  -0.112  0.00  0.00     0.039 A 
ENDROOT
BRANCH   4   7
ATOM      7  O   UNL d   1       1.570  -3.021   0.936  0.00  0.00    -0.526 OA
ATOM      8  H5  UNL d   1       1.005  -3.654   1.409  0.00  0.00     0.418 HD
ENDBRANCH   4   7
TORSDOF 1
ENDMDL
