MODEL 1
REMARK minimizedAffinity -4.98632717
REMARK minimizedRMSD -1
REMARK  1 active torsions:
REMARK  status: ('A' for Active; 'I' for Inactive)
REMARK    1  A    between atoms: C3_4  and  O_7 
ROOT
ATOM      1  C   UNL d   1       2.115  -2.029   1.316  0.00  0.00    -0.033 A 
ATOM      2  C1  UNL d   1       2.582  -0.908   0.627  0.00  0.00     0.039 A 
ATOM      3  C2  UNL d   1       1.689  -0.096  -0.076  0.00  0.00    -0.080 A 
ATOM      4  C3  UNL d   1       0.335  -0.416  -0.082  0.00  0.00     0.150 A 
ATOM      5  C4  UNL d   1      -0.138  -1.529   0.605  0.00  0.00    -0.007 A 
ATOM      6  C5  UNL d   1       0.754  -2.339   1.306  0.00  0.00     0.039 A 
ENDROOT
BRANCH   4   7
ATOM      7  O   UNL d   1      -0.574   0.344  -0.757  0.00  0.00    -0.526 OA
ATOM      8  H5  UNL d   1      -0.100   1.062  -1.208  0.00  0.00     0.418 HD
ENDBRANCH   4   7
TORSDOF 1
ENDMDL
