MODEL 1
REMARK minimizedAffinity -3.84840202
REMARK minimizedRMSD -1
REMARK  1 active torsions:
REMARK  status: ('A' for Active; 'I' for Inactive)
REMARK    1  A    between atoms: C3_4  and  O_7 
ROOT
ATOM      1  C   UNL d   1       0.823  -2.770   2.088  0.00  0.00    -0.033 A 
ATOM      2  C1  UNL d   1      -0.393  -2.174   2.427  0.00  0.00     0.039 A 
ATOM      3  C2  UNL d   1      -0.876  -1.097   1.681  0.00  0.00    -0.080 A 
ATOM      4  C3  UNL d   1      -0.135  -0.627   0.600  0.00  0.00     0.150 A 
ATOM      5  C4  UNL d   1       1.076  -1.219   0.255  0.00  0.00    -0.007 A 
ATOM      6  C5  UNL d   1       1.557  -2.293   1.002  0.00  0.00     0.039 A 
ENDROOT
BRANCH   4   7
ATOM      7  O   UNL d   1      -0.563   0.425  -0.154  0.00  0.00    -0.526 OA
ATOM      8  H5  UNL d   1      -1.399   0.750   0.219  0.00  0.00     0.418 HD
ENDBRANCH   4   7
TORSDOF 1
ENDMDL
