MODEL 1
REMARK minimizedAffinity -4.27571964
REMARK minimizedRMSD -1
REMARK  1 active torsions:
REMARK  status: ('A' for Active; 'I' for Inactive)
REMARK    1  A    between atoms: C3_4  and  O_7 
ROOT
ATOM      1  C   UNL d   1       0.122   1.087   0.111  0.00  0.00    -0.033 A 
ATOM      2  C1  UNL d   1      -0.742   0.157   0.692  0.00  0.00     0.039 A 
ATOM      3  C2  UNL d   1      -0.323  -1.160   0.890  0.00  0.00    -0.080 A 
ATOM      4  C3  UNL d   1       0.962  -1.534   0.504  0.00  0.00     0.150 A 
ATOM      5  C4  UNL d   1       1.830  -0.612  -0.071  0.00  0.00    -0.007 A 
ATOM      6  C5  UNL d   1       1.409   0.703  -0.269  0.00  0.00     0.039 A 
ENDROOT
BRANCH   4   7
ATOM      7  O   UNL d   1       1.414  -2.809   0.673  0.00  0.00    -0.526 OA
ATOM      8  H5  UNL d   1       0.697  -3.341   1.055  0.00  0.00     0.418 HD
ENDBRANCH   4   7
TORSDOF 1
ENDMDL
