MODEL 1
REMARK minimizedAffinity -2.10778546
REMARK minimizedRMSD -1
REMARK  1 active torsions:
REMARK  status: ('A' for Active; 'I' for Inactive)
REMARK    1  A    between atoms: C3_4  and  O_7 
ROOT
ATOM      1  C   UNL d   1      -2.640   2.092  -3.361  0.00  0.00    -0.033 A 
ATOM      2  C1  UNL d   1      -3.258   1.023  -2.708  0.00  0.00     0.039 A 
ATOM      3  C2  UNL d   1      -2.736   0.541  -1.507  0.00  0.00    -0.080 A 
ATOM      4  C3  UNL d   1      -1.597   1.135  -0.969  0.00  0.00     0.150 A 
ATOM      5  C4  UNL d   1      -0.979   2.202  -1.612  0.00  0.00    -0.007 A 
ATOM      6  C5  UNL d   1      -1.502   2.682  -2.812  0.00  0.00     0.039 A 
ENDROOT
BRANCH   4   7
ATOM      7  O   UNL d   1      -1.048   0.696   0.199  0.00  0.00    -0.526 OA
ATOM      8  H5  UNL d   1      -1.564  -0.064   0.515  0.00  0.00     0.418 HD
ENDBRANCH   4   7
TORSDOF 1
ENDMDL
