MODEL 1
REMARK minimizedAffinity -4.37255383
REMARK minimizedRMSD -1
REMARK  1 active torsions:
REMARK  status: ('A' for Active; 'I' for Inactive)
REMARK    1  A    between atoms: C3_4  and  O_7 
ROOT
ATOM      1  C   UNL d   1      -1.421   0.980   0.869  0.00  0.00    -0.033 A 
ATOM      2  C1  UNL d   1      -1.808   0.016   1.802  0.00  0.00     0.039 A 
ATOM      3  C2  UNL d   1      -1.199  -1.240   1.804  0.00  0.00    -0.080 A 
ATOM      4  C3  UNL d   1      -0.204  -1.519   0.871  0.00  0.00     0.150 A 
ATOM      5  C4  UNL d   1       0.190  -0.562  -0.059  0.00  0.00    -0.007 A 
ATOM      6  C5  UNL d   1      -0.421   0.692  -0.060  0.00  0.00     0.039 A 
ENDROOT
BRANCH   4   7
ATOM      7  O   UNL d   1       0.416  -2.732   0.831  0.00  0.00    -0.526 OA
ATOM      8  H5  UNL d   1       0.021  -3.302   1.512  0.00  0.00     0.418 HD
ENDBRANCH   4   7
TORSDOF 1
ENDMDL
