MODEL 1
REMARK minimizedAffinity 1.92455304
REMARK minimizedRMSD -1
REMARK  1 active torsions:
REMARK  status: ('A' for Active; 'I' for Inactive)
REMARK    1  A    between atoms: C3_4  and  O_7 
ROOT
ATOM      1  C   UNL d   1      -2.393   2.286  -3.087  0.00  0.00    -0.033 A 
ATOM      2  C1  UNL d   1      -1.201   2.719  -2.504  0.00  0.00     0.039 A 
ATOM      3  C2  UNL d   1      -0.668   2.035  -1.409  0.00  0.00    -0.080 A 
ATOM      4  C3  UNL d   1      -1.335   0.921  -0.909  0.00  0.00     0.150 A 
ATOM      5  C4  UNL d   1      -2.522   0.482  -1.487  0.00  0.00    -0.007 A 
ATOM      6  C5  UNL d   1      -3.053   1.167  -2.579  0.00  0.00     0.039 A 
ENDROOT
BRANCH   4   7
ATOM      7  O   UNL d   1      -0.857   0.224   0.161  0.00  0.00    -0.526 OA
ATOM      8  H5  UNL d   1      -0.046   0.660   0.474  0.00  0.00     0.418 HD
ENDBRANCH   4   7
TORSDOF 1
ENDMDL
