MODEL 1
REMARK minimizedAffinity -4.66640377
REMARK minimizedRMSD -1
REMARK  1 active torsions:
REMARK  status: ('A' for Active; 'I' for Inactive)
REMARK    1  A    between atoms: C3_4  and  O_7 
ROOT
ATOM      1  C   UNL d   1       0.258   0.761  -0.042  0.00  0.00    -0.033 A 
ATOM      2  C1  UNL d   1       1.585   0.495  -0.387  0.00  0.00     0.039 A 
ATOM      3  C2  UNL d   1       2.165  -0.729  -0.047  0.00  0.00    -0.080 A 
ATOM      4  C3  UNL d   1       1.408  -1.677   0.636  0.00  0.00     0.150 A 
ATOM      5  C4  UNL d   1       0.085  -1.421   0.979  0.00  0.00    -0.007 A 
ATOM      6  C5  UNL d   1      -0.492  -0.198   0.640  0.00  0.00     0.039 A 
ENDROOT
BRANCH   4   7
ATOM      7  O   UNL d   1       1.932  -2.884   0.993  0.00  0.00    -0.526 OA
ATOM      8  H5  UNL d   1       2.863  -2.909   0.716  0.00  0.00     0.418 HD
ENDBRANCH   4   7
TORSDOF 1
ENDMDL
