MODEL 1
REMARK minimizedAffinity -4.07617331
REMARK minimizedRMSD -1
REMARK  1 active torsions:
REMARK  status: ('A' for Active; 'I' for Inactive)
REMARK    1  A    between atoms: C3_4  and  O_7 
ROOT
ATOM      1  C   UNL d   1      -0.023   1.034  -0.608  0.00  0.00    -0.033 A 
ATOM      2  C1  UNL d   1      -0.672   0.074   0.172  0.00  0.00     0.039 A 
ATOM      3  C2  UNL d   1       0.004  -1.084   0.561  0.00  0.00    -0.080 A 
ATOM      4  C3  UNL d   1       1.326  -1.270   0.166  0.00  0.00     0.150 A 
ATOM      5  C4  UNL d   1       1.979  -0.316  -0.607  0.00  0.00    -0.007 A 
ATOM      6  C5  UNL d   1       1.303   0.840  -0.996  0.00  0.00     0.039 A 
ENDROOT
BRANCH   4   7
ATOM      7  O   UNL d   1       2.024  -2.386   0.517  0.00  0.00    -0.526 OA
ATOM      8  H5  UNL d   1       1.436  -2.970   1.026  0.00  0.00     0.418 HD
ENDBRANCH   4   7
TORSDOF 1
ENDMDL
