MODEL 1
REMARK minimizedAffinity 3.7054379
REMARK minimizedRMSD -1
REMARK  1 active torsions:
REMARK  status: ('A' for Active; 'I' for Inactive)
REMARK    1  A    between atoms: C1_2  and  C2_3 
ROOT
ATOM      1  C2  UNL d   1       2.176   0.444  -1.784  0.00  0.00    -0.077 A 
ATOM      2  C3  UNL d   1       2.845   0.937  -2.914  0.00  0.00     0.002 A 
ATOM      3  C4  UNL d   1       2.488   2.169  -3.464  0.00  0.00     0.002 A 
ATOM      4  C5  UNL d   1       1.465   2.920  -2.890  0.00  0.00    -0.004 A 
ATOM      5  C6  UNL d   1       0.792   2.438  -1.768  0.00  0.00     0.002 A 
ATOM      6  C7  UNL d   1       1.147   1.206  -1.217  0.00  0.00     0.002 A 
ENDROOT
BRANCH   1   7
ATOM      7  C1  UNL d   1       2.593  -0.862  -1.160  0.00  0.00     0.055 C 
ATOM      8  C   UNL d   1       3.678  -0.654  -0.113  0.00  0.00     0.019 C 
ENDBRANCH   1   7
TORSDOF 1
ENDMDL
