MODEL 1
REMARK minimizedAffinity -1.81045687
REMARK minimizedRMSD -1
REMARK  1 active torsions:
REMARK  status: ('A' for Active; 'I' for Inactive)
REMARK    1  A    between atoms: C1_2  and  C2_3 
ROOT
ATOM      1  C2  UNL d   1       0.247  -1.120  -1.313  0.00  0.00    -0.077 A 
ATOM      2  C3  UNL d   1      -0.626  -0.118  -0.867  0.00  0.00     0.002 A 
ATOM      3  C4  UNL d   1      -1.988  -0.385  -0.715  0.00  0.00     0.002 A 
ATOM      4  C5  UNL d   1      -2.488  -1.653  -1.003  0.00  0.00    -0.004 A 
ATOM      5  C6  UNL d   1      -1.628  -2.656  -1.449  0.00  0.00     0.002 A 
ATOM      6  C7  UNL d   1      -0.266  -2.391  -1.603  0.00  0.00     0.002 A 
ENDROOT
BRANCH   1   7
ATOM      7  C1  UNL d   1       1.724  -0.848  -1.431  0.00  0.00     0.055 C 
ATOM      8  C   UNL d   1       2.005   0.642  -1.551  0.00  0.00     0.019 C 
ENDBRANCH   1   7
TORSDOF 1
ENDMDL
