MODEL 1
REMARK minimizedAffinity 3.41914105
REMARK minimizedRMSD -1
REMARK  1 active torsions:
REMARK  status: ('A' for Active; 'I' for Inactive)
REMARK    1  A    between atoms: C1_2  and  C2_3 
ROOT
ATOM      1  C2  UNL d   1      -0.137   0.859  -1.090  0.00  0.00    -0.077 A 
ATOM      2  C3  UNL d   1      -0.208   2.053  -1.822  0.00  0.00     0.002 A 
ATOM      3  C4  UNL d   1       0.849   2.438  -2.649  0.00  0.00     0.002 A 
ATOM      4  C5  UNL d   1       1.982   1.635  -2.755  0.00  0.00    -0.004 A 
ATOM      5  C6  UNL d   1       2.063   0.447  -2.029  0.00  0.00     0.002 A 
ATOM      6  C7  UNL d   1       1.008   0.060  -1.202  0.00  0.00     0.002 A 
ENDROOT
BRANCH   1   7
ATOM      7  C1  UNL d   1      -1.297   0.417  -0.237  0.00  0.00     0.055 C 
ATOM      8  C   UNL d   1      -1.748  -0.990  -0.601  0.00  0.00     0.019 C 
ENDBRANCH   1   7
TORSDOF 1
ENDMDL
