MODEL 1
REMARK minimizedAffinity 4.55953407
REMARK minimizedRMSD -1
REMARK  1 active torsions:
REMARK  status: ('A' for Active; 'I' for Inactive)
REMARK    1  A    between atoms: C1_2  and  C2_3 
ROOT
ATOM      1  C2  UNL d   1      -4.265  -3.290  -1.332  0.00  0.00    -0.077 A 
ATOM      2  C3  UNL d   1      -4.414  -1.913  -1.554  0.00  0.00     0.002 A 
ATOM      3  C4  UNL d   1      -3.361  -1.037  -1.285  0.00  0.00     0.002 A 
ATOM      4  C5  UNL d   1      -2.151  -1.527  -0.798  0.00  0.00    -0.004 A 
ATOM      5  C6  UNL d   1      -1.994  -2.894  -0.573  0.00  0.00     0.002 A 
ATOM      6  C7  UNL d   1      -3.045  -3.772  -0.839  0.00  0.00     0.002 A 
ENDROOT
BRANCH   1   7
ATOM      7  C1  UNL d   1      -5.383  -4.242  -1.668  0.00  0.00     0.055 C 
ATOM      8  C   UNL d   1      -5.676  -5.182  -0.507  0.00  0.00     0.019 C 
ENDBRANCH   1   7
TORSDOF 1
ENDMDL
