MODEL 1
REMARK minimizedAffinity 3.70216751
REMARK minimizedRMSD -1
REMARK  1 active torsions:
REMARK  status: ('A' for Active; 'I' for Inactive)
REMARK    1  A    between atoms: C1_2  and  C2_3 
ROOT
ATOM      1  C2  UNL d   1      -1.915  -1.424  -0.349  0.00  0.00    -0.077 A 
ATOM      2  C3  UNL d   1      -0.621  -1.263  -0.864  0.00  0.00     0.002 A 
ATOM      3  C4  UNL d   1       0.074  -0.069  -0.666  0.00  0.00     0.002 A 
ATOM      4  C5  UNL d   1      -0.513   0.971   0.051  0.00  0.00    -0.004 A 
ATOM      5  C6  UNL d   1      -1.800   0.822   0.566  0.00  0.00     0.002 A 
ATOM      6  C7  UNL d   1      -2.498  -0.371   0.367  0.00  0.00     0.002 A 
ENDROOT
BRANCH   1   7
ATOM      7  C1  UNL d   1      -2.648  -2.729  -0.520  0.00  0.00     0.055 C 
ATOM      8  C   UNL d   1      -1.943  -3.860   0.214  0.00  0.00     0.019 C 
ENDBRANCH   1   7
TORSDOF 1
ENDMDL
