MODEL 1
REMARK minimizedAffinity 0.569620192
REMARK minimizedRMSD -1
REMARK  1 active torsions:
REMARK  status: ('A' for Active; 'I' for Inactive)
REMARK    1  A    between atoms: C1_2  and  C2_3 
ROOT
ATOM      1  C2  UNL d   1       0.657   1.173  -0.758  0.00  0.00    -0.077 A 
ATOM      2  C3  UNL d   1       1.507   0.060  -0.688  0.00  0.00     0.002 A 
ATOM      3  C4  UNL d   1       2.508  -0.126  -1.643  0.00  0.00     0.002 A 
ATOM      4  C5  UNL d   1       2.672   0.800  -2.672  0.00  0.00    -0.004 A 
ATOM      5  C6  UNL d   1       1.831   1.909  -2.752  0.00  0.00     0.002 A 
ATOM      6  C7  UNL d   1       0.829   2.095  -1.799  0.00  0.00     0.002 A 
ENDROOT
BRANCH   1   7
ATOM      7  C1  UNL d   1      -0.392   1.400   0.299  0.00  0.00     0.055 C 
ATOM      8  C   UNL d   1      -1.483   0.342   0.233  0.00  0.00     0.019 C 
ENDBRANCH   1   7
TORSDOF 1
ENDMDL
