MODEL 1
REMARK minimizedAffinity 8.90392971
REMARK minimizedRMSD -1
REMARK  1 active torsions:
REMARK  status: ('A' for Active; 'I' for Inactive)
REMARK    1  A    between atoms: C1_2  and  C2_3 
ROOT
ATOM      1  C2  UNL d   1       0.867   0.336  -1.322  0.00  0.00    -0.077 A 
ATOM      2  C3  UNL d   1       0.596  -1.031  -1.467  0.00  0.00     0.002 A 
ATOM      3  C4  UNL d   1      -0.624  -1.559  -1.041  0.00  0.00     0.002 A 
ATOM      4  C5  UNL d   1      -1.585  -0.725  -0.472  0.00  0.00    -0.004 A 
ATOM      5  C6  UNL d   1      -1.324   0.636  -0.321  0.00  0.00     0.002 A 
ATOM      6  C7  UNL d   1      -0.104   1.165  -0.745  0.00  0.00     0.002 A 
ENDROOT
BRANCH   1   7
ATOM      7  C1  UNL d   1       2.163   0.916  -1.826  0.00  0.00     0.055 C 
ATOM      8  C   UNL d   1       1.921   1.951  -2.914  0.00  0.00     0.019 C 
ENDBRANCH   1   7
TORSDOF 1
ENDMDL
