MODEL 1
REMARK minimizedAffinity 8.53775692
REMARK minimizedRMSD -1
REMARK  1 active torsions:
REMARK  status: ('A' for Active; 'I' for Inactive)
REMARK    1  A    between atoms: C1_2  and  C2_3 
ROOT
ATOM      1  C2  UNL d   1       1.782   2.512  -2.781  0.00  0.00    -0.077 A 
ATOM      2  C3  UNL d   1       1.022   2.018  -1.712  0.00  0.00     0.002 A 
ATOM      3  C4  UNL d   1       1.380   0.824  -1.083  0.00  0.00     0.002 A 
ATOM      4  C5  UNL d   1       2.500   0.116  -1.513  0.00  0.00    -0.004 A 
ATOM      5  C6  UNL d   1       3.261   0.598  -2.578  0.00  0.00     0.002 A 
ATOM      6  C7  UNL d   1       2.905   1.791  -3.208  0.00  0.00     0.002 A 
ENDROOT
BRANCH   1   7
ATOM      7  C1  UNL d   1       1.427   3.825  -3.428  0.00  0.00     0.055 C 
ATOM      8  C   UNL d   1       2.455   4.899  -3.104  0.00  0.00     0.019 C 
ENDBRANCH   1   7
TORSDOF 1
ENDMDL
