MODEL 1
REMARK minimizedAffinity 2.07495022
REMARK minimizedRMSD -1
REMARK  1 active torsions:
REMARK  status: ('A' for Active; 'I' for Inactive)
REMARK    1  A    between atoms: C1_2  and  C2_3 
ROOT
ATOM      1  C2  UNL d   1       2.024   0.799  -2.633  0.00  0.00    -0.077 A 
ATOM      2  C3  UNL d   1       3.031  -0.176  -2.656  0.00  0.00     0.002 A 
ATOM      3  C4  UNL d   1       3.031  -1.214  -1.721  0.00  0.00     0.002 A 
ATOM      4  C5  UNL d   1       2.024  -1.289  -0.761  0.00  0.00    -0.004 A 
ATOM      5  C6  UNL d   1       1.019  -0.323  -0.730  0.00  0.00     0.002 A 
ATOM      6  C7  UNL d   1       1.018   0.715  -1.662  0.00  0.00     0.002 A 
ENDROOT
BRANCH   1   7
ATOM      7  C1  UNL d   1       1.995   1.891  -3.670  0.00  0.00     0.055 C 
ATOM      8  C   UNL d   1       1.608   1.345  -5.037  0.00  0.00     0.019 C 
ENDBRANCH   1   7
TORSDOF 1
ENDMDL
