MODEL 1
REMARK minimizedAffinity 2.50455356
REMARK minimizedRMSD -1
REMARK  1 active torsions:
REMARK  status: ('A' for Active; 'I' for Inactive)
REMARK    1  A    between atoms: C1_2  and  C2_3 
ROOT
ATOM      1  C2  UNL d   1       0.587   1.418  -1.484  0.00  0.00    -0.077 A 
ATOM      2  C3  UNL d   1       1.029   2.290  -2.489  0.00  0.00     0.002 A 
ATOM      3  C4  UNL d   1       2.171   1.987  -3.234  0.00  0.00     0.002 A 
ATOM      4  C5  UNL d   1       2.876   0.812  -2.985  0.00  0.00    -0.004 A 
ATOM      5  C6  UNL d   1       2.445  -0.061  -1.987  0.00  0.00     0.002 A 
ATOM      6  C7  UNL d   1       1.305   0.240  -1.240  0.00  0.00     0.002 A 
ENDROOT
BRANCH   1   7
ATOM      7  C1  UNL d   1      -0.672   1.718  -0.713  0.00  0.00     0.055 C 
ATOM      8  C   UNL d   1      -1.496   0.459  -0.486  0.00  0.00     0.019 C 
ENDBRANCH   1   7
TORSDOF 1
ENDMDL
