MODEL 1
REMARK minimizedAffinity 10.8956499
REMARK minimizedRMSD -1
REMARK  0 active torsions:
REMARK  status: ('A' for Active; 'I' for Inactive)
ROOT
ATOM      1  O1  BZF d   1       0.831  -2.225  -3.689  0.00  0.00    -0.204 OA
ATOM      2  C2  BZF d   1       2.135  -2.677  -3.757  0.00  0.00     0.174 A 
ATOM      3  C3  BZF d   1       2.860  -2.204  -2.723  0.00  0.00    -0.012 A 
ATOM      4  C3A BZF d   1       1.929  -1.482  -1.911  0.00  0.00    -0.107 A 
ATOM      5  C4  BZF d   1       2.043  -0.796  -0.735  0.00  0.00     0.055 A 
ATOM      6  C5  BZF d   1       0.958  -0.142  -0.244  0.00  0.00    -0.016 A 
ATOM      7  C6  BZF d   1      -0.253  -0.148  -0.903  0.00  0.00     0.022 A 
ATOM      8  C7  BZF d   1      -0.417  -0.818  -2.070  0.00  0.00     0.029 A 
ATOM      9  C7A BZF d   1       0.669  -1.508  -2.552  0.00  0.00     0.058 A 
ENDROOT
TORSDOF 0
ENDMDL
