MODEL 1
REMARK minimizedAffinity 10.6361246
REMARK minimizedRMSD -1
REMARK  0 active torsions:
REMARK  status: ('A' for Active; 'I' for Inactive)
ROOT
ATOM      1  O1  BZF d   1      -5.903   2.552   4.645  0.00  0.00    -0.204 OA
ATOM      2  C2  BZF d   1      -5.373   2.697   5.913  0.00  0.00     0.174 A 
ATOM      3  C3  BZF d   1      -4.617   3.811   5.991  0.00  0.00    -0.012 A 
ATOM      4  C3A BZF d   1      -4.753   4.448   4.717  0.00  0.00    -0.107 A 
ATOM      5  C4  BZF d   1      -4.251   5.602   4.186  0.00  0.00     0.055 A 
ATOM      6  C5  BZF d   1      -4.516   5.901   2.887  0.00  0.00    -0.016 A 
ATOM      7  C6  BZF d   1      -5.272   5.067   2.090  0.00  0.00     0.022 A 
ATOM      8  C7  BZF d   1      -5.795   3.914   2.573  0.00  0.00     0.029 A 
ATOM      9  C7A BZF d   1      -5.557   3.625   3.895  0.00  0.00     0.058 A 
ENDROOT
TORSDOF 0
ENDMDL
