MODEL 1
REMARK minimizedAffinity 9.75461292
REMARK minimizedRMSD -1
REMARK  0 active torsions:
REMARK  status: ('A' for Active; 'I' for Inactive)
ROOT
ATOM      1  O1  BZF d   1       1.810  -3.635   0.452  0.00  0.00    -0.204 OA
ATOM      2  C2  BZF d   1       2.221  -2.330   0.255  0.00  0.00     0.174 A 
ATOM      3  C3  BZF d   1       1.376  -1.683  -0.573  0.00  0.00    -0.012 A 
ATOM      4  C3A BZF d   1       0.324  -2.615  -0.841  0.00  0.00    -0.107 A 
ATOM      5  C4  BZF d   1      -0.819  -2.552  -1.586  0.00  0.00     0.055 A 
ATOM      6  C5  BZF d   1      -1.596  -3.661  -1.700  0.00  0.00    -0.016 A 
ATOM      7  C6  BZF d   1      -1.257  -4.850  -1.088  0.00  0.00     0.022 A 
ATOM      8  C7  BZF d   1      -0.135  -4.960  -0.335  0.00  0.00     0.029 A 
ATOM      9  C7A BZF d   1       0.634  -3.831  -0.191  0.00  0.00     0.058 A 
ENDROOT
TORSDOF 0
ENDMDL
