MODEL 1
REMARK minimizedAffinity 3.80114484
REMARK minimizedRMSD -1
REMARK  0 active torsions:
REMARK  status: ('A' for Active; 'I' for Inactive)
ROOT
ATOM      1  O1  BZF d   1       3.188   3.156   5.212  0.00  0.00    -0.204 OA
ATOM      2  C2  BZF d   1       2.603   2.919   3.983  0.00  0.00     0.174 A 
ATOM      3  C3  BZF d   1       3.118   3.737   3.043  0.00  0.00    -0.012 A 
ATOM      4  C3A BZF d   1       4.151   4.471   3.707  0.00  0.00    -0.107 A 
ATOM      5  C4  BZF d   1       5.035   5.427   3.297  0.00  0.00     0.055 A 
ATOM      6  C5  BZF d   1       5.865   5.995   4.212  0.00  0.00    -0.016 A 
ATOM      7  C6  BZF d   1       5.833   5.635   5.543  0.00  0.00     0.022 A 
ATOM      8  C7  BZF d   1       4.976   4.688   5.996  0.00  0.00     0.029 A 
ATOM      9  C7A BZF d   1       4.159   4.089   5.069  0.00  0.00     0.058 A 
ENDROOT
TORSDOF 0
ENDMDL
