MODEL 1
REMARK minimizedAffinity 13.0755348
REMARK minimizedRMSD -1
REMARK  0 active torsions:
REMARK  status: ('A' for Active; 'I' for Inactive)
ROOT
ATOM      1  O1  BZF d   1       2.140   0.746   0.432  0.00  0.00    -0.204 OA
ATOM      2  C2  BZF d   1       2.244  -0.569   0.022  0.00  0.00     0.174 A 
ATOM      3  C3  BZF d   1       3.501  -0.847  -0.379  0.00  0.00    -0.012 A 
ATOM      4  C3A BZF d   1       4.250   0.345  -0.124  0.00  0.00    -0.107 A 
ATOM      5  C4  BZF d   1       5.561   0.685  -0.297  0.00  0.00     0.055 A 
ATOM      6  C5  BZF d   1       5.957   1.954  -0.015  0.00  0.00    -0.016 A 
ATOM      7  C6  BZF d   1       5.069   2.908   0.436  0.00  0.00     0.022 A 
ATOM      8  C7  BZF d   1       3.760   2.617   0.628  0.00  0.00     0.029 A 
ATOM      9  C7A BZF d   1       3.363   1.326   0.376  0.00  0.00     0.058 A 
ENDROOT
TORSDOF 0
ENDMDL
