MODEL 1
REMARK minimizedAffinity 10.7805386
REMARK minimizedRMSD -1
REMARK  0 active torsions:
REMARK  status: ('A' for Active; 'I' for Inactive)
ROOT
ATOM      1  O1  BZF d   1       1.586  -1.087  -0.087  0.00  0.00    -0.204 OA
ATOM      2  C2  BZF d   1       2.162  -2.336  -0.219  0.00  0.00     0.174 A 
ATOM      3  C3  BZF d   1       3.500  -2.235  -0.347  0.00  0.00    -0.012 A 
ATOM      4  C3A BZF d   1       3.789  -0.842  -0.200  0.00  0.00    -0.107 A 
ATOM      5  C4  BZF d   1       4.945  -0.115  -0.214  0.00  0.00     0.055 A 
ATOM      6  C5  BZF d   1       4.876   1.238  -0.115  0.00  0.00    -0.016 A 
ATOM      7  C6  BZF d   1       3.669   1.898  -0.006  0.00  0.00     0.022 A 
ATOM      8  C7  BZF d   1       2.496   1.220   0.018  0.00  0.00     0.029 A 
ATOM      9  C7A BZF d   1       2.564  -0.150  -0.049  0.00  0.00     0.058 A 
ENDROOT
TORSDOF 0
ENDMDL
