MODEL 1
REMARK minimizedAffinity 14.9462128
REMARK minimizedRMSD -1
REMARK  0 active torsions:
REMARK  status: ('A' for Active; 'I' for Inactive)
ROOT
ATOM      1  O1  BZF d   1      -4.901   3.731   2.879  0.00  0.00    -0.204 OA
ATOM      2  C2  BZF d   1      -5.980   3.227   3.579  0.00  0.00     0.174 A 
ATOM      3  C3  BZF d   1      -5.927   3.601   4.873  0.00  0.00    -0.012 A 
ATOM      4  C3A BZF d   1      -4.790   4.464   4.970  0.00  0.00    -0.107 A 
ATOM      5  C4  BZF d   1      -4.227   5.163   5.998  0.00  0.00     0.055 A 
ATOM      6  C5  BZF d   1      -3.076   5.853   5.777  0.00  0.00    -0.016 A 
ATOM      7  C6  BZF d   1      -2.461   5.860   4.542  0.00  0.00     0.022 A 
ATOM      8  C7  BZF d   1      -2.985   5.185   3.490  0.00  0.00     0.029 A 
ATOM      9  C7A BZF d   1      -4.164   4.515   3.702  0.00  0.00     0.058 A 
ENDROOT
TORSDOF 0
ENDMDL
