MODEL 1
REMARK minimizedAffinity -2.56640625
REMARK minimizedRMSD -1
REMARK  2 active torsions:
REMARK  status: ('A' for Active; 'I' for Inactive)
REMARK    1  A    between atoms: C1_2  and  C2_3 
REMARK    2  A    between atoms: C2_3  and  C3_4 
ROOT
ATOM      1  C3  UNL d   1       0.424  -0.081  -2.033  0.00  0.00    -0.075 A 
ATOM      2  C4  UNL d   1      -0.318  -1.102  -2.645  0.00  0.00     0.002 A 
ATOM      3  C5  UNL d   1       0.071  -1.615  -3.883  0.00  0.00     0.002 A 
ATOM      4  C6  UNL d   1       1.197  -1.108  -4.528  0.00  0.00    -0.004 A 
ATOM      5  C7  UNL d   1       1.932  -0.083  -3.937  0.00  0.00     0.002 A 
ATOM      6  C8  UNL d   1       1.548   0.429  -2.696  0.00  0.00     0.002 A 
ENDROOT
BRANCH   1   7
ATOM      7  C2  UNL d   1       0.026   0.458  -0.680  0.00  0.00     0.056 C 
BRANCH   7   8
ATOM      8  C1  UNL d   1      -0.268  -0.627   0.362  0.00  0.00     0.007 C 
ATOM      9  C   UNL d   1      -1.490  -0.323   1.217  0.00  0.00     0.009 C 
ENDBRANCH   7   8
ENDBRANCH   1   7
TORSDOF 2
ENDMDL
