MODEL 1
REMARK minimizedAffinity -2.70218205
REMARK minimizedRMSD -1
REMARK  2 active torsions:
REMARK  status: ('A' for Active; 'I' for Inactive)
REMARK    1  A    between atoms: C1_2  and  C2_3 
REMARK    2  A    between atoms: C2_3  and  C3_4 
ROOT
ATOM      1  C3  UNL d   1      -0.481   0.425  -0.642  0.00  0.00    -0.075 A 
ATOM      2  C4  UNL d   1      -1.689   0.066  -0.025  0.00  0.00     0.002 A 
ATOM      3  C5  UNL d   1      -1.713  -0.309   1.318  0.00  0.00     0.002 A 
ATOM      4  C6  UNL d   1      -0.533  -0.340   2.058  0.00  0.00    -0.004 A 
ATOM      5  C7  UNL d   1       0.675  -0.001   1.451  0.00  0.00     0.002 A 
ATOM      6  C8  UNL d   1       0.701   0.379   0.108  0.00  0.00     0.002 A 
ENDROOT
BRANCH   1   7
ATOM      7  C2  UNL d   1      -0.452   0.860  -2.088  0.00  0.00     0.056 C 
BRANCH   7   8
ATOM      8  C1  UNL d   1       0.709   0.269  -2.894  0.00  0.00     0.007 C 
ATOM      9  C   UNL d   1       0.276  -0.837  -3.848  0.00  0.00     0.009 C 
ENDBRANCH   7   8
ENDBRANCH   1   7
TORSDOF 2
ENDMDL
