MODEL 1
REMARK minimizedAffinity -5.8646431
REMARK minimizedRMSD -1
REMARK  2 active torsions:
REMARK  status: ('A' for Active; 'I' for Inactive)
REMARK    1  A    between atoms: C1_2  and  C2_3 
REMARK    2  A    between atoms: C2_3  and  C3_4 
ROOT
ATOM      1  C3  UNL d   1       0.318  -0.308   0.197  0.00  0.00    -0.075 A 
ATOM      2  C4  UNL d   1       1.085   0.415   1.123  0.00  0.00     0.002 A 
ATOM      3  C5  UNL d   1       0.803   0.340   2.487  0.00  0.00     0.002 A 
ATOM      4  C6  UNL d   1      -0.252  -0.449   2.941  0.00  0.00    -0.004 A 
ATOM      5  C7  UNL d   1      -1.030  -1.158   2.029  0.00  0.00     0.002 A 
ATOM      6  C8  UNL d   1      -0.748  -1.088   0.664  0.00  0.00     0.002 A 
ENDROOT
BRANCH   1   7
ATOM      7  C2  UNL d   1       0.636  -0.254  -1.278  0.00  0.00     0.056 C 
BRANCH   7   8
ATOM      8  C1  UNL d   1       0.499  -1.601  -1.996  0.00  0.00     0.007 C 
ATOM      9  C   UNL d   1       1.524  -1.799  -3.104  0.00  0.00     0.009 C 
ENDBRANCH   7   8
ENDBRANCH   1   7
TORSDOF 2
ENDMDL
