MODEL 1
REMARK minimizedAffinity 1.26658213
REMARK minimizedRMSD -1
REMARK  2 active torsions:
REMARK  status: ('A' for Active; 'I' for Inactive)
REMARK    1  A    between atoms: C1_2  and  C2_3 
REMARK    2  A    between atoms: C2_3  and  C3_4 
ROOT
ATOM      1  C3  UNL d   1      -0.032  -0.148  -1.270  0.00  0.00    -0.075 A 
ATOM      2  C4  UNL d   1      -1.199   0.609  -1.094  0.00  0.00     0.002 A 
ATOM      3  C5  UNL d   1      -2.093   0.305  -0.067  0.00  0.00     0.002 A 
ATOM      4  C6  UNL d   1      -1.836  -0.764   0.790  0.00  0.00    -0.004 A 
ATOM      5  C7  UNL d   1      -0.688  -1.533   0.614  0.00  0.00     0.002 A 
ATOM      6  C8  UNL d   1       0.210  -1.228  -0.411  0.00  0.00     0.002 A 
ENDROOT
BRANCH   1   7
ATOM      7  C2  UNL d   1       0.954   0.194  -2.362  0.00  0.00     0.056 C 
BRANCH   7   8
ATOM      8  C1  UNL d   1       1.396  -1.008  -3.203  0.00  0.00     0.007 C 
ATOM      9  C   UNL d   1       2.899  -1.053  -3.443  0.00  0.00     0.009 C 
ENDBRANCH   7   8
ENDBRANCH   1   7
TORSDOF 2
ENDMDL
