MODEL 1
REMARK minimizedAffinity -5.55175495
REMARK minimizedRMSD -1
REMARK  2 active torsions:
REMARK  status: ('A' for Active; 'I' for Inactive)
REMARK    1  A    between atoms: C1_2  and  C2_3 
REMARK    2  A    between atoms: C2_3  and  C3_4 
ROOT
ATOM      1  C3  UNL d   1       0.192  -0.391  -0.918  0.00  0.00    -0.075 A 
ATOM      2  C4  UNL d   1      -0.033  -1.679  -1.426  0.00  0.00     0.002 A 
ATOM      3  C5  UNL d   1       0.580  -2.092  -2.609  0.00  0.00     0.002 A 
ATOM      4  C6  UNL d   1       1.416  -1.221  -3.304  0.00  0.00    -0.004 A 
ATOM      5  C7  UNL d   1       1.634   0.066  -2.818  0.00  0.00     0.002 A 
ATOM      6  C8  UNL d   1       1.026   0.480  -1.632  0.00  0.00     0.002 A 
ENDROOT
BRANCH   1   7
ATOM      7  C2  UNL d   1      -0.445   0.051   0.378  0.00  0.00     0.056 C 
BRANCH   7   8
ATOM      8  C1  UNL d   1       0.431  -0.179   1.614  0.00  0.00     0.007 C 
ATOM      9  C   UNL d   1      -0.192  -1.137   2.621  0.00  0.00     0.009 C 
ENDBRANCH   7   8
ENDBRANCH   1   7
TORSDOF 2
ENDMDL
