MODEL 1
REMARK minimizedAffinity -3.73035502
REMARK minimizedRMSD -1
REMARK  2 active torsions:
REMARK  status: ('A' for Active; 'I' for Inactive)
REMARK    1  A    between atoms: C1_2  and  C2_3 
REMARK    2  A    between atoms: C2_3  and  C3_4 
ROOT
ATOM      1  C3  UNL d   1      -1.102  -0.436   0.989  0.00  0.00    -0.075 A 
ATOM      2  C4  UNL d   1       0.125  -0.075   0.415  0.00  0.00     0.002 A 
ATOM      3  C5  UNL d   1       0.166   0.753  -0.708  0.00  0.00     0.002 A 
ATOM      4  C6  UNL d   1      -1.017   1.221  -1.275  0.00  0.00    -0.004 A 
ATOM      5  C7  UNL d   1      -2.242   0.855  -0.723  0.00  0.00     0.002 A 
ATOM      6  C8  UNL d   1      -2.286   0.031   0.403  0.00  0.00     0.002 A 
ENDROOT
BRANCH   1   7
ATOM      7  C2  UNL d   1      -1.152  -1.308   2.221  0.00  0.00     0.056 C 
BRANCH   7   8
ATOM      8  C1  UNL d   1      -1.088  -0.529   3.539  0.00  0.00     0.007 C 
ATOM      9  C   UNL d   1      -0.394   0.820   3.406  0.00  0.00     0.009 C 
ENDBRANCH   7   8
ENDBRANCH   1   7
TORSDOF 2
ENDMDL
