MODEL 1
REMARK minimizedAffinity -2.30617452
REMARK minimizedRMSD -1
REMARK  2 active torsions:
REMARK  status: ('A' for Active; 'I' for Inactive)
REMARK    1  A    between atoms: C1_2  and  C2_3 
REMARK    2  A    between atoms: C2_3  and  C3_4 
ROOT
ATOM      1  C3  UNL d   1       0.006  -0.199  -1.111  0.00  0.00    -0.075 A 
ATOM      2  C4  UNL d   1       1.137   0.028  -0.314  0.00  0.00     0.002 A 
ATOM      3  C5  UNL d   1       1.056  -0.074   1.075  0.00  0.00     0.002 A 
ATOM      4  C6  UNL d   1      -0.156  -0.392   1.684  0.00  0.00    -0.004 A 
ATOM      5  C7  UNL d   1      -1.290  -0.603   0.902  0.00  0.00     0.002 A 
ATOM      6  C8  UNL d   1      -1.211  -0.507  -0.488  0.00  0.00     0.002 A 
ENDROOT
BRANCH   1   7
ATOM      7  C2  UNL d   1       0.093  -0.119  -2.617  0.00  0.00     0.056 C 
BRANCH   7   8
ATOM      8  C1  UNL d   1       0.454  -1.447  -3.292  0.00  0.00     0.007 C 
ATOM      9  C   UNL d   1       1.896  -1.502  -3.777  0.00  0.00     0.009 C 
ENDBRANCH   7   8
ENDBRANCH   1   7
TORSDOF 2
ENDMDL
