MODEL 1
REMARK minimizedAffinity -5.37252092
REMARK minimizedRMSD -1
REMARK  2 active torsions:
REMARK  status: ('A' for Active; 'I' for Inactive)
REMARK    1  A    between atoms: C1_2  and  C2_3 
REMARK    2  A    between atoms: C2_3  and  C3_4 
ROOT
ATOM      1  C3  UNL d   1      -0.238  -0.367   0.923  0.00  0.00    -0.075 A 
ATOM      2  C4  UNL d   1       0.305   0.546   1.839  0.00  0.00     0.002 A 
ATOM      3  C5  UNL d   1      -0.101   0.537   3.173  0.00  0.00     0.002 A 
ATOM      4  C6  UNL d   1      -1.061  -0.376   3.606  0.00  0.00    -0.004 A 
ATOM      5  C7  UNL d   1      -1.619  -1.276   2.702  0.00  0.00     0.002 A 
ATOM      6  C8  UNL d   1      -1.212  -1.272   1.367  0.00  0.00     0.002 A 
ENDROOT
BRANCH   1   7
ATOM      7  C2  UNL d   1       0.218  -0.382  -0.516  0.00  0.00     0.056 C 
BRANCH   7   8
ATOM      8  C1  UNL d   1      -0.249   0.828  -1.332  0.00  0.00     0.007 C 
ATOM      9  C   UNL d   1      -1.716   1.171  -1.110  0.00  0.00     0.009 C 
ENDBRANCH   7   8
ENDBRANCH   1   7
TORSDOF 2
ENDMDL
