MODEL 1
REMARK minimizedAffinity -4.91460609
REMARK minimizedRMSD -1
REMARK  2 active torsions:
REMARK  status: ('A' for Active; 'I' for Inactive)
REMARK    1  A    between atoms: C1_2  and  C2_3 
REMARK    2  A    between atoms: C2_3  and  C3_4 
ROOT
ATOM      1  C3  UNL d   1       0.346   0.181   0.018  0.00  0.00    -0.075 A 
ATOM      2  C4  UNL d   1       1.336   0.315   1.002  0.00  0.00     0.002 A 
ATOM      3  C5  UNL d   1       1.018   0.155   2.352  0.00  0.00     0.002 A 
ATOM      4  C6  UNL d   1      -0.291  -0.129   2.734  0.00  0.00    -0.004 A 
ATOM      5  C7  UNL d   1      -1.285  -0.248   1.765  0.00  0.00     0.002 A 
ATOM      6  C8  UNL d   1      -0.970  -0.093   0.414  0.00  0.00     0.002 A 
ENDROOT
BRANCH   1   7
ATOM      7  C2  UNL d   1       0.689   0.323  -1.446  0.00  0.00     0.056 C 
BRANCH   7   8
ATOM      8  C1  UNL d   1       0.675  -0.999  -2.221  0.00  0.00     0.007 C 
ATOM      9  C   UNL d   1       1.780  -1.095  -3.264  0.00  0.00     0.009 C 
ENDBRANCH   7   8
ENDBRANCH   1   7
TORSDOF 2
ENDMDL
