MODEL 1
REMARK minimizedAffinity -3.64973783
REMARK minimizedRMSD -1
REMARK  2 active torsions:
REMARK  status: ('A' for Active; 'I' for Inactive)
REMARK    1  A    between atoms: C1_2  and  C2_3 
REMARK    2  A    between atoms: C2_3  and  C3_4 
ROOT
ATOM      1  C3  UNL d   1       0.018   0.121   0.619  0.00  0.00    -0.075 A 
ATOM      2  C4  UNL d   1       0.545   0.460  -0.635  0.00  0.00     0.002 A 
ATOM      3  C5  UNL d   1      -0.300   0.834  -1.681  0.00  0.00     0.002 A 
ATOM      4  C6  UNL d   1      -1.680   0.863  -1.490  0.00  0.00    -0.004 A 
ATOM      5  C7  UNL d   1      -2.215   0.511  -0.252  0.00  0.00     0.002 A 
ATOM      6  C8  UNL d   1      -1.372   0.141   0.797  0.00  0.00     0.002 A 
ENDROOT
BRANCH   1   7
ATOM      7  C2  UNL d   1       0.928  -0.256   1.763  0.00  0.00     0.056 C 
BRANCH   7   8
ATOM      8  C1  UNL d   1       0.446   0.237   3.132  0.00  0.00     0.007 C 
ATOM      9  C   UNL d   1      -0.637  -0.645   3.740  0.00  0.00     0.009 C 
ENDBRANCH   7   8
ENDBRANCH   1   7
TORSDOF 2
ENDMDL
