MODEL 1
REMARK minimizedAffinity -5.75835705
REMARK minimizedRMSD -1
REMARK  0 active torsions:
REMARK  status: ('A' for Active; 'I' for Inactive)
ROOT
ATOM      1  C   UNL d   1       1.025   1.331   0.094  0.00  0.00     0.077 C 
ATOM      2  C1  UNL d   1       0.408  -0.026   0.256  0.00  0.00    -0.074 A 
ATOM      3  C2  UNL d   1      -0.277  -0.370   1.426  0.00  0.00    -0.005 A 
ATOM      4  C3  UNL d   1      -0.854  -1.633   1.558  0.00  0.00     0.006 A 
ATOM      5  C4  UNL d   1      -0.752  -2.564   0.524  0.00  0.00    -0.005 A 
ATOM      6  C5  UNL d   1      -0.072  -2.238  -0.654  0.00  0.00    -0.074 A 
ATOM      7  C6  UNL d   1       0.038  -3.223  -1.780  0.00  0.00     0.077 C 
ATOM      8  C7  UNL d   1       0.499  -0.964  -0.782  0.00  0.00    -0.001 A 
ENDROOT
TORSDOF 0
ENDMDL
