MODEL 1
REMARK minimizedAffinity -2.92723775
REMARK minimizedRMSD -1
REMARK  0 active torsions:
REMARK  status: ('A' for Active; 'I' for Inactive)
ROOT
ATOM      1  C   UNL d   1       0.522  -2.015  -0.416  0.00  0.00     0.077 C 
ATOM      2  C1  UNL d   1       0.154  -0.588  -0.140  0.00  0.00    -0.074 A 
ATOM      3  C2  UNL d   1      -1.143  -0.243   0.255  0.00  0.00    -0.005 A 
ATOM      4  C3  UNL d   1      -1.468   1.087   0.516  0.00  0.00     0.006 A 
ATOM      5  C4  UNL d   1      -0.502   2.086   0.386  0.00  0.00    -0.005 A 
ATOM      6  C5  UNL d   1       0.800   1.760  -0.007  0.00  0.00    -0.074 A 
ATOM      7  C6  UNL d   1       1.853   2.819  -0.143  0.00  0.00     0.077 C 
ATOM      8  C7  UNL d   1       1.121   0.420  -0.262  0.00  0.00    -0.001 A 
ENDROOT
TORSDOF 0
ENDMDL
