MODEL 1
REMARK minimizedAffinity -3.46098232
REMARK minimizedRMSD -1
REMARK  0 active torsions:
REMARK  status: ('A' for Active; 'I' for Inactive)
ROOT
ATOM      1  C   UNL d   1      -1.962  -0.626   2.572  0.00  0.00     0.077 C 
ATOM      2  C1  UNL d   1      -1.138  -1.131   1.424  0.00  0.00    -0.074 A 
ATOM      3  C2  UNL d   1      -0.995  -2.503   1.191  0.00  0.00    -0.005 A 
ATOM      4  C3  UNL d   1      -0.233  -2.957   0.115  0.00  0.00     0.006 A 
ATOM      5  C4  UNL d   1       0.391  -2.047  -0.738  0.00  0.00    -0.005 A 
ATOM      6  C5  UNL d   1       0.259  -0.672  -0.522  0.00  0.00    -0.074 A 
ATOM      7  C6  UNL d   1       0.915   0.321  -1.434  0.00  0.00     0.077 C 
ATOM      8  C7  UNL d   1      -0.514  -0.223   0.558  0.00  0.00    -0.001 A 
ENDROOT
TORSDOF 0
ENDMDL
