MODEL 1
REMARK minimizedAffinity -3.97362876
REMARK minimizedRMSD -1
REMARK  0 active torsions:
REMARK  status: ('A' for Active; 'I' for Inactive)
ROOT
ATOM      1  C   UNL d   1      -1.492  -0.376   2.659  0.00  0.00     0.077 C 
ATOM      2  C1  UNL d   1      -0.970  -0.828   1.328  0.00  0.00    -0.074 A 
ATOM      3  C2  UNL d   1      -0.962  -2.183   0.982  0.00  0.00    -0.005 A 
ATOM      4  C3  UNL d   1      -0.483  -2.588  -0.264  0.00  0.00     0.006 A 
ATOM      5  C4  UNL d   1      -0.008  -1.644  -1.175  0.00  0.00    -0.005 A 
ATOM      6  C5  UNL d   1      -0.009  -0.284  -0.847  0.00  0.00    -0.074 A 
ATOM      7  C6  UNL d   1       0.489   0.745  -1.818  0.00  0.00     0.077 C 
ATOM      8  C7  UNL d   1      -0.499   0.115   0.404  0.00  0.00    -0.001 A 
ENDROOT
TORSDOF 0
ENDMDL
