MODEL 1
REMARK minimizedAffinity -5.17641878
REMARK minimizedRMSD -1
REMARK  0 active torsions:
REMARK  status: ('A' for Active; 'I' for Inactive)
ROOT
ATOM      1  C   UNL d   1      -1.139  -0.720   3.473  0.00  0.00     0.077 C 
ATOM      2  C1  UNL d   1      -0.624  -0.778   2.066  0.00  0.00    -0.074 A 
ATOM      3  C2  UNL d   1      -0.493  -2.001   1.399  0.00  0.00    -0.005 A 
ATOM      4  C3  UNL d   1      -0.021  -2.039   0.087  0.00  0.00     0.006 A 
ATOM      5  C4  UNL d   1       0.324  -0.857  -0.570  0.00  0.00    -0.005 A 
ATOM      6  C5  UNL d   1       0.200   0.375   0.081  0.00  0.00    -0.074 A 
ATOM      7  C6  UNL d   1       0.557   1.655  -0.614  0.00  0.00     0.077 C 
ATOM      8  C7  UNL d   1      -0.282   0.405   1.397  0.00  0.00    -0.001 A 
ENDROOT
TORSDOF 0
ENDMDL
