MODEL 1
REMARK minimizedAffinity -5.43359518
REMARK minimizedRMSD -1
REMARK  0 active torsions:
REMARK  status: ('A' for Active; 'I' for Inactive)
ROOT
ATOM      1  C   UNL d   1      -0.065  -3.526   0.334  0.00  0.00     0.077 C 
ATOM      2  C1  UNL d   1      -0.393  -2.089   0.615  0.00  0.00    -0.074 A 
ATOM      3  C2  UNL d   1      -0.988  -1.711   1.822  0.00  0.00    -0.005 A 
ATOM      4  C3  UNL d   1      -1.279  -0.370   2.073  0.00  0.00     0.006 A 
ATOM      5  C4  UNL d   1      -0.977   0.605   1.120  0.00  0.00    -0.005 A 
ATOM      6  C5  UNL d   1      -0.381   0.245  -0.093  0.00  0.00    -0.074 A 
ATOM      7  C6  UNL d   1      -0.042   1.280  -1.123  0.00  0.00     0.077 C 
ATOM      8  C7  UNL d   1      -0.086  -1.104  -0.334  0.00  0.00    -0.001 A 
ENDROOT
TORSDOF 0
ENDMDL
