MODEL 1
REMARK minimizedAffinity -2.37268615
REMARK minimizedRMSD -1
REMARK  0 active torsions:
REMARK  status: ('A' for Active; 'I' for Inactive)
ROOT
ATOM      1  C   UNL d   1       0.829   1.346  -0.335  0.00  0.00     0.077 C 
ATOM      2  C1  UNL d   1       0.252  -0.021  -0.117  0.00  0.00    -0.074 A 
ATOM      3  C2  UNL d   1      -0.268  -0.392   1.127  0.00  0.00    -0.005 A 
ATOM      4  C3  UNL d   1      -0.810  -1.664   1.312  0.00  0.00     0.006 A 
ATOM      5  C4  UNL d   1      -0.838  -2.576   0.257  0.00  0.00    -0.005 A 
ATOM      6  C5  UNL d   1      -0.324  -2.223  -0.995  0.00  0.00    -0.074 A 
ATOM      7  C6  UNL d   1      -0.355  -3.188  -2.143  0.00  0.00     0.077 C 
ATOM      8  C7  UNL d   1       0.213  -0.941  -1.175  0.00  0.00    -0.001 A 
ENDROOT
TORSDOF 0
ENDMDL
