MODEL 1
REMARK minimizedAffinity -5.27626228
REMARK minimizedRMSD -1
REMARK  0 active torsions:
REMARK  status: ('A' for Active; 'I' for Inactive)
ROOT
ATOM      1  C   UNL d   1       0.144  -4.602  -0.984  0.00  0.00     0.077 C 
ATOM      2  C1  UNL d   1       0.018  -3.109  -0.906  0.00  0.00    -0.074 A 
ATOM      3  C2  UNL d   1       0.408  -2.298  -1.976  0.00  0.00    -0.005 A 
ATOM      4  C3  UNL d   1       0.276  -0.912  -1.892  0.00  0.00     0.006 A 
ATOM      5  C4  UNL d   1      -0.247  -0.324  -0.739  0.00  0.00    -0.005 A 
ATOM      6  C5  UNL d   1      -0.643  -1.120   0.341  0.00  0.00    -0.074 A 
ATOM      7  C6  UNL d   1      -1.216  -0.505   1.583  0.00  0.00     0.077 C 
ATOM      8  C7  UNL d   1      -0.514  -2.512   0.246  0.00  0.00    -0.001 A 
ENDROOT
TORSDOF 0
ENDMDL
