MODEL 1
REMARK minimizedAffinity -5.18009996
REMARK minimizedRMSD -1
REMARK  0 active torsions:
REMARK  status: ('A' for Active; 'I' for Inactive)
ROOT
ATOM      1  C   UNL d   1      -0.171  -3.295   0.225  0.00  0.00     0.077 C 
ATOM      2  C1  UNL d   1      -0.380  -1.900   0.734  0.00  0.00    -0.074 A 
ATOM      3  C2  UNL d   1      -0.926  -1.671   2.001  0.00  0.00    -0.005 A 
ATOM      4  C3  UNL d   1      -1.105  -0.368   2.465  0.00  0.00     0.006 A 
ATOM      5  C4  UNL d   1      -0.741   0.718   1.668  0.00  0.00    -0.005 A 
ATOM      6  C5  UNL d   1      -0.193   0.509   0.399  0.00  0.00    -0.074 A 
ATOM      7  C6  UNL d   1       0.212   1.665  -0.467  0.00  0.00     0.077 C 
ATOM      8  C7  UNL d   1      -0.010  -0.803  -0.058  0.00  0.00    -0.001 A 
ENDROOT
TORSDOF 0
ENDMDL
