MODEL 1
REMARK minimizedAffinity -3.12802672
REMARK minimizedRMSD -1
REMARK  0 active torsions:
REMARK  status: ('A' for Active; 'I' for Inactive)
ROOT
ATOM      1  C   UNL d   1       0.815   2.954   0.735  0.00  0.00     0.077 C 
ATOM      2  C1  UNL d   1       0.536   1.672   0.008  0.00  0.00    -0.074 A 
ATOM      3  C2  UNL d   1       0.060   1.680  -1.307  0.00  0.00    -0.005 A 
ATOM      4  C3  UNL d   1      -0.186   0.480  -1.974  0.00  0.00     0.006 A 
ATOM      5  C4  UNL d   1       0.042  -0.739  -1.333  0.00  0.00    -0.005 A 
ATOM      6  C5  UNL d   1       0.518  -0.767  -0.019  0.00  0.00    -0.074 A 
ATOM      7  C6  UNL d   1       0.777  -2.068   0.681  0.00  0.00     0.077 C 
ATOM      8  C7  UNL d   1       0.770   0.444   0.642  0.00  0.00    -0.001 A 
ENDROOT
TORSDOF 0
ENDMDL
