MODEL 1
REMARK minimizedAffinity -2.77593327
REMARK minimizedRMSD -1
REMARK  0 active torsions:
REMARK  status: ('A' for Active; 'I' for Inactive)
ROOT
ATOM      1  C   UNL d   1       0.322   0.320  -2.197  0.00  0.00     0.077 C 
ATOM      2  C1  UNL d   1       0.159  -0.570  -1.000  0.00  0.00    -0.074 A 
ATOM      3  C2  UNL d   1       0.625  -1.888  -1.016  0.00  0.00    -0.005 A 
ATOM      4  C3  UNL d   1       0.475  -2.701   0.108  0.00  0.00     0.006 A 
ATOM      5  C4  UNL d   1      -0.141  -2.204   1.257  0.00  0.00    -0.005 A 
ATOM      6  C5  UNL d   1      -0.612  -0.887   1.292  0.00  0.00    -0.074 A 
ATOM      7  C6  UNL d   1      -1.267  -0.334   2.523  0.00  0.00     0.077 C 
ATOM      8  C7  UNL d   1      -0.451  -0.075   0.161  0.00  0.00    -0.001 A 
ENDROOT
TORSDOF 0
ENDMDL
