MODEL 1
REMARK minimizedAffinity -2.7701962
REMARK minimizedRMSD -1
REMARK  0 active torsions:
REMARK  status: ('A' for Active; 'I' for Inactive)
ROOT
ATOM      1  C   UNL d   1      -0.072  -3.876   0.241  0.00  0.00     0.077 C 
ATOM      2  C1  UNL d   1      -0.013  -2.378   0.292  0.00  0.00    -0.074 A 
ATOM      3  C2  UNL d   1       0.612  -1.648  -0.724  0.00  0.00    -0.005 A 
ATOM      4  C3  UNL d   1       0.650  -0.255  -0.668  0.00  0.00     0.006 A 
ATOM      5  C4  UNL d   1       0.064   0.421   0.403  0.00  0.00    -0.005 A 
ATOM      6  C5  UNL d   1      -0.567  -0.292   1.428  0.00  0.00    -0.074 A 
ATOM      7  C6  UNL d   1      -1.210   0.420   2.581  0.00  0.00     0.077 C 
ATOM      8  C7  UNL d   1      -0.607  -1.691   1.361  0.00  0.00    -0.001 A 
ENDROOT
TORSDOF 0
ENDMDL
