MODEL 1
REMARK minimizedAffinity -2.67863894
REMARK minimizedRMSD -1
REMARK  0 active torsions:
REMARK  status: ('A' for Active; 'I' for Inactive)
ROOT
ATOM      1  C   UNL d   1       0.520   2.564   0.346  0.00  0.00     0.077 C 
ATOM      2  C1  UNL d   1       0.370   1.184  -0.221  0.00  0.00    -0.074 A 
ATOM      3  C2  UNL d   1       0.640   0.927  -1.569  0.00  0.00    -0.005 A 
ATOM      4  C3  UNL d   1       0.505  -0.363  -2.081  0.00  0.00     0.006 A 
ATOM      5  C4  UNL d   1       0.098  -1.409  -1.251  0.00  0.00    -0.005 A 
ATOM      6  C5  UNL d   1      -0.176  -1.172   0.100  0.00  0.00    -0.074 A 
ATOM      7  C6  UNL d   1      -0.604  -2.286   1.008  0.00  0.00     0.077 C 
ATOM      8  C7  UNL d   1      -0.031   0.127   0.608  0.00  0.00    -0.001 A 
ENDROOT
TORSDOF 0
ENDMDL
