MODEL 1
REMARK minimizedAffinity -3.83649755
REMARK minimizedRMSD -1
REMARK  0 active torsions:
REMARK  status: ('A' for Active; 'I' for Inactive)
ROOT
ATOM      1  C   UNL d   1      -0.484  -3.491   0.385  0.00  0.00     0.077 C 
ATOM      2  C1  UNL d   1      -0.248  -2.071   0.807  0.00  0.00    -0.074 A 
ATOM      3  C2  UNL d   1      -0.193  -1.723   2.160  0.00  0.00    -0.005 A 
ATOM      4  C3  UNL d   1       0.037  -0.400   2.537  0.00  0.00     0.006 A 
ATOM      5  C4  UNL d   1       0.214   0.587   1.566  0.00  0.00    -0.005 A 
ATOM      6  C5  UNL d   1       0.163   0.257   0.208  0.00  0.00    -0.074 A 
ATOM      7  C6  UNL d   1       0.361   1.303  -0.848  0.00  0.00     0.077 C 
ATOM      8  C7  UNL d   1      -0.061  -1.076  -0.163  0.00  0.00    -0.001 A 
ENDROOT
TORSDOF 0
ENDMDL
