MODEL 1
REMARK minimizedAffinity 10.2114182
REMARK minimizedRMSD -1
REMARK  3 active torsions:
REMARK  status: ('A' for Active; 'I' for Inactive)
REMARK    1  A    between atoms: C3'_2  and  C2'_3 
REMARK    2  A    between atoms: C2'_3  and  C1'_4 
REMARK    3  A    between atoms: C1'_4  and  C1_5 
ROOT
ATOM      1  C1  N4B d   1       1.843  -1.843   3.740  0.00  0.00    -0.075 A 
ATOM      2  C2  N4B d   1       2.600  -3.001   3.452  0.00  0.00     0.002 A 
ATOM      3  C3  N4B d   1       2.870  -3.909   4.447  0.00  0.00     0.002 A 
ATOM      4  C4  N4B d   1       2.412  -3.672   5.734  0.00  0.00    -0.004 A 
ATOM      5  C5  N4B d   1       1.660  -2.565   5.998  0.00  0.00     0.002 A 
ATOM      6  C6  N4B d   1       1.378  -1.646   5.008  0.00  0.00     0.002 A 
ENDROOT
BRANCH   1   7
ATOM      7  C1' N4B d   1       1.595  -0.780   2.705  0.00  0.00     0.057 C 
BRANCH   7   8
ATOM      8  C2' N4B d   1       1.770  -1.383   1.315  0.00  0.00     0.009 C 
BRANCH   8   9
ATOM      9  C3' N4B d   1       3.224  -1.708   1.016  0.00  0.00     0.004 C 
ATOM     10  C4' N4B d   1       3.377  -2.842   0.046  0.00  0.00     0.003 C 
ENDBRANCH   8   9
ENDBRANCH   7   8
ENDBRANCH   1   7
TORSDOF 3
ENDMDL
