MODEL 1
REMARK minimizedAffinity 17.5056744
REMARK minimizedRMSD -1
REMARK  3 active torsions:
REMARK  status: ('A' for Active; 'I' for Inactive)
REMARK    1  A    between atoms: C3'_2  and  C2'_3 
REMARK    2  A    between atoms: C2'_3  and  C1'_4 
REMARK    3  A    between atoms: C1'_4  and  C1_5 
ROOT
ATOM      1  C1  N4B d   1      -4.208   3.294  -4.055  0.00  0.00    -0.075 A 
ATOM      2  C2  N4B d   1      -5.331   3.858  -3.412  0.00  0.00     0.002 A 
ATOM      3  C3  N4B d   1      -6.000   4.908  -3.993  0.00  0.00     0.002 A 
ATOM      4  C4  N4B d   1      -5.554   5.419  -5.203  0.00  0.00    -0.004 A 
ATOM      5  C5  N4B d   1      -4.484   4.852  -5.830  0.00  0.00     0.002 A 
ATOM      6  C6  N4B d   1      -3.805   3.794  -5.259  0.00  0.00     0.002 A 
ENDROOT
BRANCH   1   7
ATOM      7  C1' N4B d   1      -3.393   2.202  -3.417  0.00  0.00     0.057 C 
BRANCH   7   8
ATOM      8  C2' N4B d   1      -4.177   0.894  -3.473  0.00  0.00     0.009 C 
BRANCH   8   9
ATOM      9  C3' N4B d   1      -3.467  -0.226  -2.733  0.00  0.00     0.004 C 
ATOM     10  C4' N4B d   1      -2.396   0.274  -1.811  0.00  0.00     0.003 C 
ENDBRANCH   8   9
ENDBRANCH   7   8
ENDBRANCH   1   7
TORSDOF 3
ENDMDL
