MODEL 1
REMARK minimizedAffinity 17.2445107
REMARK minimizedRMSD -1
REMARK  3 active torsions:
REMARK  status: ('A' for Active; 'I' for Inactive)
REMARK    1  A    between atoms: C3'_2  and  C2'_3 
REMARK    2  A    between atoms: C2'_3  and  C1'_4 
REMARK    3  A    between atoms: C1'_4  and  C1_5 
ROOT
ATOM      1  C1  N4B d   1       1.156  -1.694   2.576  0.00  0.00    -0.075 A 
ATOM      2  C2  N4B d   1       1.285  -0.435   1.949  0.00  0.00     0.002 A 
ATOM      3  C3  N4B d   1       2.053  -0.307   0.818  0.00  0.00     0.002 A 
ATOM      4  C4  N4B d   1       2.713  -1.414   0.308  0.00  0.00    -0.004 A 
ATOM      5  C5  N4B d   1       2.564  -2.632   0.905  0.00  0.00     0.002 A 
ATOM      6  C6  N4B d   1       1.792  -2.776   2.041  0.00  0.00     0.002 A 
ENDROOT
BRANCH   1   7
ATOM      7  C1' N4B d   1       0.398  -1.866   3.864  0.00  0.00     0.057 C 
BRANCH   7   8
ATOM      8  C2' N4B d   1       1.347  -1.646   5.038  0.00  0.00     0.009 C 
BRANCH   8   9
ATOM      9  C3' N4B d   1       1.347  -2.823   5.997  0.00  0.00     0.004 C 
ATOM     10  C4' N4B d   1       2.645  -3.573   5.997  0.00  0.00     0.003 C 
ENDBRANCH   8   9
ENDBRANCH   7   8
ENDBRANCH   1   7
TORSDOF 3
ENDMDL
