MODEL 1
REMARK minimizedAffinity -2.58046889
REMARK minimizedRMSD -1
REMARK  0 active torsions:
REMARK  status: ('A' for Active; 'I' for Inactive)
ROOT
ATOM      1  C1  BNZ d   1       1.521  -1.185  -0.172  0.00  0.00     0.000 A 
ATOM      2  C2  BNZ d   1       0.886  -0.200  -0.880  0.00  0.00     0.000 A 
ATOM      3  C3  BNZ d   1      -0.149   0.503  -0.328  0.00  0.00     0.000 A 
ATOM      4  C4  BNZ d   1      -0.573   0.193   0.914  0.00  0.00     0.000 A 
ATOM      5  C5  BNZ d   1       0.051  -0.804   1.637  0.00  0.00     0.000 A 
ATOM      6  C6  BNZ d   1       1.117  -1.483   1.093  0.00  0.00     0.000 A 
ENDROOT
TORSDOF 0
ENDMDL
