MODEL 1
REMARK minimizedAffinity -0.524279714
REMARK minimizedRMSD -1
REMARK  0 active torsions:
REMARK  status: ('A' for Active; 'I' for Inactive)
ROOT
ATOM      1  C1  BNZ d   1       3.517  -1.823  -1.465  0.00  0.00     0.000 A 
ATOM      2  C2  BNZ d   1       3.161  -3.024  -0.911  0.00  0.00     0.000 A 
ATOM      3  C3  BNZ d   1       3.065  -4.149  -1.680  0.00  0.00     0.000 A 
ATOM      4  C4  BNZ d   1       3.285  -4.065  -3.008  0.00  0.00     0.000 A 
ATOM      5  C5  BNZ d   1       3.635  -2.860  -3.584  0.00  0.00     0.000 A 
ATOM      6  C6  BNZ d   1       3.769  -1.737  -2.800  0.00  0.00     0.000 A 
ENDROOT
TORSDOF 0
ENDMDL
