MODEL 1
REMARK minimizedAffinity 0.214620158
REMARK minimizedRMSD -1
REMARK  0 active torsions:
REMARK  status: ('A' for Active; 'I' for Inactive)
ROOT
ATOM      1  C1  BNZ d   1       5.342  -3.896  -0.412  0.00  0.00     0.000 A 
ATOM      2  C2  BNZ d   1       5.202  -5.112  -1.027  0.00  0.00     0.000 A 
ATOM      3  C3  BNZ d   1       4.158  -5.351  -1.876  0.00  0.00     0.000 A 
ATOM      4  C4  BNZ d   1       3.235  -4.389  -2.078  0.00  0.00     0.000 A 
ATOM      5  C5  BNZ d   1       3.357  -3.161  -1.459  0.00  0.00     0.000 A 
ATOM      6  C6  BNZ d   1       4.430  -2.911  -0.635  0.00  0.00     0.000 A 
ENDROOT
TORSDOF 0
ENDMDL
