MODEL 1
REMARK minimizedAffinity -4.95480585
REMARK minimizedRMSD -1
REMARK  0 active torsions:
REMARK  status: ('A' for Active; 'I' for Inactive)
ROOT
ATOM      1  C1  BNZ d   1       3.850  -3.257  -3.060  0.00  0.00     0.000 A 
ATOM      2  C2  BNZ d   1       4.371  -4.457  -2.655  0.00  0.00     0.000 A 
ATOM      3  C3  BNZ d   1       4.937  -4.592  -1.418  0.00  0.00     0.000 A 
ATOM      4  C4  BNZ d   1       5.017  -3.519  -0.605  0.00  0.00     0.000 A 
ATOM      5  C5  BNZ d   1       4.506  -2.300  -1.003  0.00  0.00     0.000 A 
ATOM      6  C6  BNZ d   1       3.902  -2.178  -2.234  0.00  0.00     0.000 A 
ENDROOT
TORSDOF 0
ENDMDL
