MODEL 1
REMARK minimizedAffinity -2.90941978
REMARK minimizedRMSD -1
REMARK  0 active torsions:
REMARK  status: ('A' for Active; 'I' for Inactive)
ROOT
ATOM      1  C1  BNZ d   1       3.604  -1.873   0.650  0.00  0.00     0.000 A 
ATOM      2  C2  BNZ d   1       3.418  -3.226   0.743  0.00  0.00     0.000 A 
ATOM      3  C3  BNZ d   1       4.177  -4.089   0.002  0.00  0.00     0.000 A 
ATOM      4  C4  BNZ d   1       5.092  -3.597  -0.858  0.00  0.00     0.000 A 
ATOM      5  C5  BNZ d   1       5.284  -2.235  -0.970  0.00  0.00     0.000 A 
ATOM      6  C6  BNZ d   1       4.545  -1.370  -0.195  0.00  0.00     0.000 A 
ENDROOT
TORSDOF 0
ENDMDL
