MODEL 1
REMARK minimizedAffinity -2.14968729
REMARK minimizedRMSD -1
REMARK  0 active torsions:
REMARK  status: ('A' for Active; 'I' for Inactive)
ROOT
ATOM      1  C1  BNZ d   1       3.714  -2.577  -2.393  0.00  0.00     0.000 A 
ATOM      2  C2  BNZ d   1       3.495  -3.709  -3.132  0.00  0.00     0.000 A 
ATOM      3  C3  BNZ d   1       4.086  -4.893  -2.791  0.00  0.00     0.000 A 
ATOM      4  C4  BNZ d   1       4.927  -4.935  -1.737  0.00  0.00     0.000 A 
ATOM      5  C5  BNZ d   1       5.166  -3.801  -0.988  0.00  0.00     0.000 A 
ATOM      6  C6  BNZ d   1       4.538  -2.619  -1.311  0.00  0.00     0.000 A 
ENDROOT
TORSDOF 0
ENDMDL
