MODEL 1
REMARK minimizedAffinity -3.24817276
REMARK minimizedRMSD -1
REMARK  0 active torsions:
REMARK  status: ('A' for Active; 'I' for Inactive)
ROOT
ATOM      1  C1  BNZ d   1       4.580  -4.660  -1.164  0.00  0.00     0.000 A 
ATOM      2  C2  BNZ d   1       3.601  -4.368  -0.253  0.00  0.00     0.000 A 
ATOM      3  C3  BNZ d   1       3.116  -3.096  -0.128  0.00  0.00     0.000 A 
ATOM      4  C4  BNZ d   1       3.638  -2.111  -0.887  0.00  0.00     0.000 A 
ATOM      5  C5  BNZ d   1       4.632  -2.387  -1.804  0.00  0.00     0.000 A 
ATOM      6  C6  BNZ d   1       5.091  -3.676  -1.954  0.00  0.00     0.000 A 
ENDROOT
TORSDOF 0
ENDMDL
