MODEL 1
REMARK minimizedAffinity -1.37535262
REMARK minimizedRMSD -1
REMARK  0 active torsions:
REMARK  status: ('A' for Active; 'I' for Inactive)
ROOT
ATOM      1  C1  BNZ d   1       3.671  -2.613  -2.002  0.00  0.00     0.000 A 
ATOM      2  C2  BNZ d   1       3.479  -3.597  -2.935  0.00  0.00     0.000 A 
ATOM      3  C3  BNZ d   1       4.118  -4.800  -2.825  0.00  0.00     0.000 A 
ATOM      4  C4  BNZ d   1       4.979  -5.003  -1.807  0.00  0.00     0.000 A 
ATOM      5  C5  BNZ d   1       5.191  -4.018  -0.863  0.00  0.00     0.000 A 
ATOM      6  C6  BNZ d   1       4.515  -2.822  -0.955  0.00  0.00     0.000 A 
ENDROOT
TORSDOF 0
ENDMDL
