MODEL 1
REMARK minimizedAffinity -3.98890567
REMARK minimizedRMSD -1
REMARK  3 active torsions:
REMARK  status: ('A' for Active; 'I' for Inactive)
REMARK    1  A    between atoms: C3'_2  and  C2'_3 
REMARK    2  A    between atoms: C2'_3  and  C1'_4 
REMARK    3  A    between atoms: C1'_4  and  C1_5 
ROOT
ATOM      1  C1  N4B d   1       5.570  -3.963   3.591  0.00  0.00    -0.075 A 
ATOM      2  C2  N4B d   1       4.901  -4.625   4.645  0.00  0.00     0.002 A 
ATOM      3  C3  N4B d   1       4.600  -3.946   5.800  0.00  0.00     0.002 A 
ATOM      4  C4  N4B d   1       4.973  -2.616   5.932  0.00  0.00    -0.004 A 
ATOM      5  C5  N4B d   1       5.596  -1.978   4.899  0.00  0.00     0.002 A 
ATOM      6  C6  N4B d   1       5.902  -2.647   3.731  0.00  0.00     0.002 A 
ENDROOT
BRANCH   1   7
ATOM      7  C1' N4B d   1       5.997  -4.687   2.344  0.00  0.00     0.057 C 
BRANCH   7   8
ATOM      8  C2' N4B d   1       5.420  -3.970   1.127  0.00  0.00     0.009 C 
BRANCH   8   9
ATOM      9  C3' N4B d   1       6.000  -4.501  -0.173  0.00  0.00     0.004 C 
ATOM     10  C4' N4B d   1       5.218  -4.068  -1.377  0.00  0.00     0.003 C 
ENDBRANCH   8   9
ENDBRANCH   7   8
ENDBRANCH   1   7
TORSDOF 3
ENDMDL
