MODEL 1
REMARK minimizedAffinity -1.11448812
REMARK minimizedRMSD -1
REMARK  3 active torsions:
REMARK  status: ('A' for Active; 'I' for Inactive)
REMARK    1  A    between atoms: C3'_2  and  C2'_3 
REMARK    2  A    between atoms: C2'_3  and  C1'_4 
REMARK    3  A    between atoms: C1'_4  and  C1_5 
ROOT
ATOM      1  C1  N4B d   1       5.546  -3.784  -3.591  0.00  0.00    -0.075 A 
ATOM      2  C2  N4B d   1       5.351  -3.115  -4.819  0.00  0.00     0.002 A 
ATOM      3  C3  N4B d   1       5.360  -3.823  -5.996  0.00  0.00     0.002 A 
ATOM      4  C4  N4B d   1       5.581  -5.192  -5.970  0.00  0.00    -0.004 A 
ATOM      5  C5  N4B d   1       5.743  -5.834  -4.778  0.00  0.00     0.002 A 
ATOM      6  C6  N4B d   1       5.732  -5.136  -3.587  0.00  0.00     0.002 A 
ENDROOT
BRANCH   1   7
ATOM      7  C1' N4B d   1       5.629  -3.040  -2.286  0.00  0.00     0.057 C 
BRANCH   7   8
ATOM      8  C2' N4B d   1       6.000  -4.018  -1.175  0.00  0.00     0.009 C 
BRANCH   8   9
ATOM      9  C3' N4B d   1       5.774  -3.423   0.205  0.00  0.00     0.004 C 
ATOM     10  C4' N4B d   1       5.986  -4.417   1.307  0.00  0.00     0.003 C 
ENDBRANCH   8   9
ENDBRANCH   7   8
ENDBRANCH   1   7
TORSDOF 3
ENDMDL
