MODEL 1
REMARK minimizedAffinity -3.03112078
REMARK minimizedRMSD -1
REMARK  3 active torsions:
REMARK  status: ('A' for Active; 'I' for Inactive)
REMARK    1  A    between atoms: C3'_2  and  C2'_3 
REMARK    2  A    between atoms: C2'_3  and  C1'_4 
REMARK    3  A    between atoms: C1'_4  and  C1_5 
ROOT
ATOM      1  C1  N4B d   1       5.307  -4.100   2.658  0.00  0.00    -0.075 A 
ATOM      2  C2  N4B d   1       5.999  -4.032   3.887  0.00  0.00     0.002 A 
ATOM      3  C3  N4B d   1       5.348  -3.609   5.019  0.00  0.00     0.002 A 
ATOM      4  C4  N4B d   1       4.015  -3.232   4.944  0.00  0.00    -0.004 A 
ATOM      5  C5  N4B d   1       3.347  -3.325   3.758  0.00  0.00     0.002 A 
ATOM      6  C6  N4B d   1       3.988  -3.753   2.613  0.00  0.00     0.002 A 
ENDROOT
BRANCH   1   7
ATOM      7  C1' N4B d   1       5.999  -4.475   1.376  0.00  0.00     0.057 C 
BRANCH   7   8
ATOM      8  C2' N4B d   1       5.096  -4.123   0.198  0.00  0.00     0.009 C 
BRANCH   8   9
ATOM      9  C3' N4B d   1       5.875  -3.505  -0.951  0.00  0.00     0.004 C 
ATOM     10  C4' N4B d   1       5.225  -3.732  -2.283  0.00  0.00     0.003 C 
ENDBRANCH   8   9
ENDBRANCH   7   8
ENDBRANCH   1   7
TORSDOF 3
ENDMDL
