MODEL 1
REMARK minimizedAffinity 3.15479374
REMARK minimizedRMSD -1
REMARK  3 active torsions:
REMARK  status: ('A' for Active; 'I' for Inactive)
REMARK    1  A    between atoms: C3'_2  and  C2'_3 
REMARK    2  A    between atoms: C2'_3  and  C1'_4 
REMARK    3  A    between atoms: C1'_4  and  C1_5 
ROOT
ATOM      1  C1  N4B d   1       5.803  -3.771  -3.067  0.00  0.00    -0.075 A 
ATOM      2  C2  N4B d   1       5.658  -3.029  -4.259  0.00  0.00     0.002 A 
ATOM      3  C3  N4B d   1       5.692  -3.668  -5.475  0.00  0.00     0.002 A 
ATOM      4  C4  N4B d   1       5.886  -5.040  -5.523  0.00  0.00    -0.004 A 
ATOM      5  C5  N4B d   1       6.000  -5.753  -4.366  0.00  0.00     0.002 A 
ATOM      6  C6  N4B d   1       5.964  -5.125  -3.137  0.00  0.00     0.002 A 
ENDROOT
BRANCH   1   7
ATOM      7  C1' N4B d   1       5.859  -3.106  -1.719  0.00  0.00     0.057 C 
BRANCH   7   8
ATOM      8  C2' N4B d   1       4.470  -2.590  -1.357  0.00  0.00     0.009 C 
BRANCH   8   9
ATOM      9  C3' N4B d   1       4.385  -1.076  -1.446  0.00  0.00     0.004 C 
ATOM     10  C4' N4B d   1       3.010  -0.590  -1.794  0.00  0.00     0.003 C 
ENDBRANCH   8   9
ENDBRANCH   7   8
ENDBRANCH   1   7
TORSDOF 3
ENDMDL
