MODEL 1
REMARK minimizedAffinity -4.21565771
REMARK minimizedRMSD -1
REMARK  3 active torsions:
REMARK  status: ('A' for Active; 'I' for Inactive)
REMARK    1  A    between atoms: C3'_2  and  C2'_3 
REMARK    2  A    between atoms: C2'_3  and  C1'_4 
REMARK    3  A    between atoms: C1'_4  and  C1_5 
ROOT
ATOM      1  C1  N4B d   1       5.876  -5.176  -1.126  0.00  0.00    -0.075 A 
ATOM      2  C2  N4B d   1       5.986  -5.987  -2.277  0.00  0.00     0.002 A 
ATOM      3  C3  N4B d   1       5.787  -5.443  -3.522  0.00  0.00     0.002 A 
ATOM      4  C4  N4B d   1       5.459  -4.101  -3.640  0.00  0.00    -0.004 A 
ATOM      5  C5  N4B d   1       5.380  -3.318  -2.525  0.00  0.00     0.002 A 
ATOM      6  C6  N4B d   1       5.581  -3.850  -1.267  0.00  0.00     0.002 A 
ENDROOT
BRANCH   1   7
ATOM      7  C1' N4B d   1       6.000  -5.744   0.261  0.00  0.00     0.057 C 
BRANCH   7   8
ATOM      8  C2' N4B d   1       5.220  -4.864   1.234  0.00  0.00     0.009 C 
BRANCH   8   9
ATOM      9  C3' N4B d   1       5.997  -4.607   2.515  0.00  0.00     0.004 C 
ATOM     10  C4' N4B d   1       5.130  -4.095   3.626  0.00  0.00     0.003 C 
ENDBRANCH   8   9
ENDBRANCH   7   8
ENDBRANCH   1   7
TORSDOF 3
ENDMDL
