MODEL 1
REMARK minimizedAffinity -1.47239494
REMARK minimizedRMSD -1
REMARK  3 active torsions:
REMARK  status: ('A' for Active; 'I' for Inactive)
REMARK    1  A    between atoms: C3'_2  and  C2'_3 
REMARK    2  A    between atoms: C2'_3  and  C1'_4 
REMARK    3  A    between atoms: C1'_4  and  C1_5 
ROOT
ATOM      1  C1  N4B d   1       5.437  -4.561   3.513  0.00  0.00    -0.075 A 
ATOM      2  C2  N4B d   1       4.887  -5.348   4.548  0.00  0.00     0.002 A 
ATOM      3  C3  N4B d   1       4.633  -4.787   5.776  0.00  0.00     0.002 A 
ATOM      4  C4  N4B d   1       4.937  -3.452   5.996  0.00  0.00    -0.004 A 
ATOM      5  C5  N4B d   1       5.444  -2.693   4.982  0.00  0.00     0.002 A 
ATOM      6  C6  N4B d   1       5.701  -3.242   3.743  0.00  0.00     0.002 A 
ENDROOT
BRANCH   1   7
ATOM      7  C1' N4B d   1       5.811  -5.152   2.181  0.00  0.00     0.057 C 
BRANCH   7   8
ATOM      8  C2' N4B d   1       5.944  -4.029   1.155  0.00  0.00     0.009 C 
BRANCH   8   9
ATOM      9  C3' N4B d   1       5.998  -4.562  -0.266  0.00  0.00     0.004 C 
ATOM     10  C4' N4B d   1       5.997  -3.471  -1.296  0.00  0.00     0.003 C 
ENDBRANCH   8   9
ENDBRANCH   7   8
ENDBRANCH   1   7
TORSDOF 3
ENDMDL
