MODEL 1
REMARK minimizedAffinity 6.06215858
REMARK minimizedRMSD -1
REMARK  3 active torsions:
REMARK  status: ('A' for Active; 'I' for Inactive)
REMARK    1  A    between atoms: C3'_2  and  C2'_3 
REMARK    2  A    between atoms: C2'_3  and  C1'_4 
REMARK    3  A    between atoms: C1'_4  and  C1_5 
ROOT
ATOM      1  C1  N4B d   1       5.729  -3.884  -2.430  0.00  0.00    -0.075 A 
ATOM      2  C2  N4B d   1       5.271  -3.028  -3.455  0.00  0.00     0.002 A 
ATOM      3  C3  N4B d   1       5.113  -3.509  -4.731  0.00  0.00     0.002 A 
ATOM      4  C4  N4B d   1       5.422  -4.832  -5.009  0.00  0.00    -0.004 A 
ATOM      5  C5  N4B d   1       5.839  -5.659  -4.008  0.00  0.00     0.002 A 
ATOM      6  C6  N4B d   1       5.999  -5.190  -2.719  0.00  0.00     0.002 A 
ENDROOT
BRANCH   1   7
ATOM      7  C1' N4B d   1       5.999  -3.383  -1.037  0.00  0.00     0.057 C 
BRANCH   7   8
ATOM      8  C2' N4B d   1       5.207  -4.222  -0.040  0.00  0.00     0.009 C 
BRANCH   8   9
ATOM      9  C3' N4B d   1       5.999  -4.496   1.227  0.00  0.00     0.004 C 
ATOM     10  C4' N4B d   1       5.405  -3.838   2.437  0.00  0.00     0.003 C 
ENDBRANCH   8   9
ENDBRANCH   7   8
ENDBRANCH   1   7
TORSDOF 3
ENDMDL
