MODEL 1
REMARK minimizedAffinity -3.27673554
REMARK minimizedRMSD -1
REMARK  3 active torsions:
REMARK  status: ('A' for Active; 'I' for Inactive)
REMARK    1  A    between atoms: C3'_2  and  C2'_3 
REMARK    2  A    between atoms: C2'_3  and  C1'_4 
REMARK    3  A    between atoms: C1'_4  and  C1_5 
ROOT
ATOM      1  C1  N4B d   1       5.983  -3.914   3.761  0.00  0.00    -0.075 A 
ATOM      2  C2  N4B d   1       5.998  -4.950   2.801  0.00  0.00     0.002 A 
ATOM      3  C3  N4B d   1       5.985  -4.645   1.462  0.00  0.00     0.002 A 
ATOM      4  C4  N4B d   1       5.938  -3.318   1.060  0.00  0.00    -0.004 A 
ATOM      5  C5  N4B d   1       5.949  -2.323   1.993  0.00  0.00     0.002 A 
ATOM      6  C6  N4B d   1       5.966  -2.614   3.343  0.00  0.00     0.002 A 
ENDROOT
BRANCH   1   7
ATOM      7  C1' N4B d   1       5.909  -4.199   5.236  0.00  0.00     0.057 C 
BRANCH   7   8
ATOM      8  C2' N4B d   1       4.979  -3.186   5.896  0.00  0.00     0.009 C 
BRANCH   8   9
ATOM      9  C3' N4B d   1       3.555  -3.705   5.999  0.00  0.00     0.004 C 
ATOM     10  C4' N4B d   1       3.481  -5.203   6.000  0.00  0.00     0.003 C 
ENDBRANCH   8   9
ENDBRANCH   7   8
ENDBRANCH   1   7
TORSDOF 3
ENDMDL
