MODEL 1
REMARK minimizedAffinity 6.47747374
REMARK minimizedRMSD -1
REMARK  3 active torsions:
REMARK  status: ('A' for Active; 'I' for Inactive)
REMARK    1  A    between atoms: C3'_2  and  C2'_3 
REMARK    2  A    between atoms: C2'_3  and  C1'_4 
REMARK    3  A    between atoms: C1'_4  and  C1_5 
ROOT
ATOM      1  C1  N4B d   1       5.156  -3.619   4.863  0.00  0.00    -0.075 A 
ATOM      2  C2  N4B d   1       5.919  -4.708   5.340  0.00  0.00     0.002 A 
ATOM      3  C3  N4B d   1       5.290  -5.799   5.889  0.00  0.00     0.002 A 
ATOM      4  C4  N4B d   1       3.907  -5.815   5.989  0.00  0.00    -0.004 A 
ATOM      5  C5  N4B d   1       3.176  -4.770   5.503  0.00  0.00     0.002 A 
ATOM      6  C6  N4B d   1       3.794  -3.670   4.945  0.00  0.00     0.002 A 
ENDROOT
BRANCH   1   7
ATOM      7  C1' N4B d   1       5.802  -2.368   4.333  0.00  0.00     0.057 C 
BRANCH   7   8
ATOM      8  C2' N4B d   1       5.031  -1.888   3.107  0.00  0.00     0.009 C 
BRANCH   8   9
ATOM      9  C3' N4B d   1       4.512  -3.046   2.273  0.00  0.00     0.004 C 
ATOM     10  C4' N4B d   1       3.067  -2.891   1.900  0.00  0.00     0.003 C 
ENDBRANCH   8   9
ENDBRANCH   7   8
ENDBRANCH   1   7
TORSDOF 3
ENDMDL
