MODEL 1
REMARK minimizedAffinity 0.166751236
REMARK minimizedRMSD -1
REMARK  3 active torsions:
REMARK  status: ('A' for Active; 'I' for Inactive)
REMARK    1  A    between atoms: C3'_2  and  C2'_3 
REMARK    2  A    between atoms: C2'_3  and  C1'_4 
REMARK    3  A    between atoms: C1'_4  and  C1_5 
ROOT
ATOM      1  C1  N4B d   1       5.874  -4.392   4.565  0.00  0.00    -0.075 A 
ATOM      2  C2  N4B d   1       5.992  -3.997   3.215  0.00  0.00     0.002 A 
ATOM      3  C3  N4B d   1       6.000  -2.663   2.888  0.00  0.00     0.002 A 
ATOM      4  C4  N4B d   1       5.872  -1.711   3.889  0.00  0.00    -0.004 A 
ATOM      5  C5  N4B d   1       5.784  -2.101   5.193  0.00  0.00     0.002 A 
ATOM      6  C6  N4B d   1       5.779  -3.438   5.536  0.00  0.00     0.002 A 
ENDROOT
BRANCH   1   7
ATOM      7  C1' N4B d   1       5.774  -5.840   4.963  0.00  0.00     0.057 C 
BRANCH   7   8
ATOM      8  C2' N4B d   1       4.667  -5.999   6.000  0.00  0.00     0.009 C 
BRANCH   8   9
ATOM      9  C3' N4B d   1       3.287  -5.990   5.364  0.00  0.00     0.004 C 
ATOM     10  C4' N4B d   1       3.324  -5.659   3.902  0.00  0.00     0.003 C 
ENDBRANCH   8   9
ENDBRANCH   7   8
ENDBRANCH   1   7
TORSDOF 3
ENDMDL
