MODEL 1
REMARK minimizedAffinity 5.88234949
REMARK minimizedRMSD -1
REMARK  3 active torsions:
REMARK  status: ('A' for Active; 'I' for Inactive)
REMARK    1  A    between atoms: C3'_2  and  C2'_3 
REMARK    2  A    between atoms: C2'_3  and  C1'_4 
REMARK    3  A    between atoms: C1'_4  and  C1_5 
ROOT
ATOM      1  C1  N4B d   1       5.918  -3.847   3.859  0.00  0.00    -0.075 A 
ATOM      2  C2  N4B d   1       5.972  -2.520   3.377  0.00  0.00     0.002 A 
ATOM      3  C3  N4B d   1       5.998  -2.281   2.025  0.00  0.00     0.002 A 
ATOM      4  C4  N4B d   1       5.990  -3.349   1.140  0.00  0.00    -0.004 A 
ATOM      5  C5  N4B d   1       5.912  -4.626   1.613  0.00  0.00     0.002 A 
ATOM      6  C6  N4B d   1       5.881  -4.881   2.969  0.00  0.00     0.002 A 
ENDROOT
BRANCH   1   7
ATOM      7  C1' N4B d   1       5.974  -4.160   5.329  0.00  0.00     0.057 C 
BRANCH   7   8
ATOM      8  C2' N4B d   1       4.702  -3.650   5.999  0.00  0.00     0.009 C 
BRANCH   8   9
ATOM      9  C3' N4B d   1       3.457  -4.027   5.216  0.00  0.00     0.004 C 
ATOM     10  C4' N4B d   1       2.725  -5.192   5.814  0.00  0.00     0.003 C 
ENDBRANCH   8   9
ENDBRANCH   7   8
ENDBRANCH   1   7
TORSDOF 3
ENDMDL
