MODEL 1
REMARK minimizedAffinity -4.53770065
REMARK minimizedRMSD -1
REMARK  3 active torsions:
REMARK  status: ('A' for Active; 'I' for Inactive)
REMARK    1  A    between atoms: C3'_2  and  C2'_3 
REMARK    2  A    between atoms: C2'_3  and  C1'_4 
REMARK    3  A    between atoms: C1'_4  and  C1_5 
ROOT
ATOM      1  C1  N4B d   1       5.438  -4.296   2.056  0.00  0.00    -0.075 A 
ATOM      2  C2  N4B d   1       4.855  -4.865   3.209  0.00  0.00     0.002 A 
ATOM      3  C3  N4B d   1       4.862  -4.174   4.395  0.00  0.00     0.002 A 
ATOM      4  C4  N4B d   1       5.461  -2.924   4.457  0.00  0.00    -0.004 A 
ATOM      5  C5  N4B d   1       6.000  -2.370   3.333  0.00  0.00     0.002 A 
ATOM      6  C6  N4B d   1       5.996  -3.052   2.133  0.00  0.00     0.002 A 
ENDROOT
BRANCH   1   7
ATOM      7  C1' N4B d   1       5.531  -5.049   0.757  0.00  0.00     0.057 C 
BRANCH   7   8
ATOM      8  C2' N4B d   1       5.721  -4.057  -0.386  0.00  0.00     0.009 C 
BRANCH   8   9
ATOM      9  C3' N4B d   1       4.549  -4.072  -1.352  0.00  0.00     0.004 C 
ATOM     10  C4' N4B d   1       4.949  -4.461  -2.744  0.00  0.00     0.003 C 
ENDBRANCH   8   9
ENDBRANCH   7   8
ENDBRANCH   1   7
TORSDOF 3
ENDMDL
