MODEL 1
REMARK minimizedAffinity 4.00846386
REMARK minimizedRMSD -1
REMARK  0 active torsions:
REMARK  status: ('A' for Active; 'I' for Inactive)
ROOT
ATOM      1  O1  BZF d   1      -0.137  -1.012  -1.610  0.00  0.00    -0.204 OA
ATOM      2  C2  BZF d   1       0.375   0.008  -0.831  0.00  0.00     0.174 A 
ATOM      3  C3  BZF d   1      -0.476   0.322   0.167  0.00  0.00    -0.012 A 
ATOM      4  C3A BZF d   1      -1.548  -0.619   0.057  0.00  0.00    -0.107 A 
ATOM      5  C4  BZF d   1      -2.690  -0.829   0.776  0.00  0.00     0.055 A 
ATOM      6  C5  BZF d   1      -3.564  -1.785   0.363  0.00  0.00    -0.016 A 
ATOM      7  C6  BZF d   1      -3.330  -2.544  -0.764  0.00  0.00     0.022 A 
ATOM      8  C7  BZF d   1      -2.208  -2.376  -1.506  0.00  0.00     0.029 A 
ATOM      9  C7A BZF d   1      -1.308  -1.434  -1.073  0.00  0.00     0.058 A 
ENDROOT
TORSDOF 0
ENDMDL
