MODEL 1
REMARK minimizedAffinity -0.139208406
REMARK minimizedRMSD -1
REMARK  0 active torsions:
REMARK  status: ('A' for Active; 'I' for Inactive)
ROOT
ATOM      1  O1  BZF d   1      -0.923  -1.504  -1.709  0.00  0.00    -0.204 OA
ATOM      2  C2  BZF d   1       0.002  -0.656  -1.131  0.00  0.00     0.174 A 
ATOM      3  C3  BZF d   1      -0.465  -0.162   0.034  0.00  0.00    -0.012 A 
ATOM      4  C3A BZF d   1      -1.725  -0.809   0.239  0.00  0.00    -0.107 A 
ATOM      5  C4  BZF d   1      -2.663  -0.745   1.230  0.00  0.00     0.055 A 
ATOM      6  C5  BZF d   1      -3.817  -1.449   1.093  0.00  0.00    -0.016 A 
ATOM      7  C6  BZF d   1      -4.068  -2.221  -0.023  0.00  0.00     0.022 A 
ATOM      8  C7  BZF d   1      -3.166  -2.319  -1.029  0.00  0.00     0.029 A 
ATOM      9  C7A BZF d   1      -1.985  -1.635  -0.878  0.00  0.00     0.058 A 
ENDROOT
TORSDOF 0
ENDMDL
