MODEL 1
REMARK minimizedAffinity 3.20121598
REMARK minimizedRMSD -1
REMARK  0 active torsions:
REMARK  status: ('A' for Active; 'I' for Inactive)
ROOT
ATOM      1  O1  BZF d   1      -1.201  -2.520   0.452  0.00  0.00    -0.204 OA
ATOM      2  C2  BZF d   1      -1.823  -3.623  -0.100  0.00  0.00     0.174 A 
ATOM      3  C3  BZF d   1      -2.118  -3.407  -1.398  0.00  0.00    -0.012 A 
ATOM      4  C3A BZF d   1      -1.568  -2.122  -1.700  0.00  0.00    -0.107 A 
ATOM      5  C4  BZF d   1      -1.523  -1.363  -2.834  0.00  0.00     0.055 A 
ATOM      6  C5  BZF d   1      -0.975  -0.120  -2.776  0.00  0.00    -0.016 A 
ATOM      7  C6  BZF d   1      -0.469   0.396  -1.601  0.00  0.00     0.022 A 
ATOM      8  C7  BZF d   1      -0.487  -0.321  -0.452  0.00  0.00     0.029 A 
ATOM      9  C7A BZF d   1      -1.010  -1.590  -0.515  0.00  0.00     0.058 A 
ENDROOT
TORSDOF 0
ENDMDL
