MODEL 1
REMARK minimizedAffinity 3.29537511
REMARK minimizedRMSD -1
REMARK  0 active torsions:
REMARK  status: ('A' for Active; 'I' for Inactive)
ROOT
ATOM      1  O1  BZF d   1      -1.506  -0.108   0.384  0.00  0.00    -0.204 OA
ATOM      2  C2  BZF d   1      -0.344   0.133  -0.324  0.00  0.00     0.174 A 
ATOM      3  C3  BZF d   1      -0.050  -0.908  -1.129  0.00  0.00    -0.012 A 
ATOM      4  C3A BZF d   1      -1.142  -1.820  -0.979  0.00  0.00    -0.107 A 
ATOM      5  C4  BZF d   1      -1.434  -3.033  -1.534  0.00  0.00     0.055 A 
ATOM      6  C5  BZF d   1      -2.545  -3.698  -1.120  0.00  0.00    -0.016 A 
ATOM      7  C6  BZF d   1      -3.381  -3.182  -0.151  0.00  0.00     0.022 A 
ATOM      8  C7  BZF d   1      -3.135  -1.980   0.424  0.00  0.00     0.029 A 
ATOM      9  C7A BZF d   1      -2.031  -1.291  -0.016  0.00  0.00     0.058 A 
ENDROOT
TORSDOF 0
ENDMDL
