MODEL 1
REMARK minimizedAffinity 1.43853545
REMARK minimizedRMSD -1
REMARK  0 active torsions:
REMARK  status: ('A' for Active; 'I' for Inactive)
ROOT
ATOM      1  O1  BZF d   1      -1.871   0.077   0.357  0.00  0.00    -0.204 OA
ATOM      2  C2  BZF d   1      -0.572   0.154  -0.107  0.00  0.00     0.174 A 
ATOM      3  C3  BZF d   1      -0.244  -0.958  -0.795  0.00  0.00    -0.012 A 
ATOM      4  C3A BZF d   1      -1.441  -1.741  -0.838  0.00  0.00    -0.107 A 
ATOM      5  C4  BZF d   1      -1.753  -2.948  -1.396  0.00  0.00     0.055 A 
ATOM      6  C5  BZF d   1      -2.993  -3.468  -1.193  0.00  0.00    -0.016 A 
ATOM      7  C6  BZF d   1      -3.940  -2.811  -0.435  0.00  0.00     0.022 A 
ATOM      8  C7  BZF d   1      -3.678  -1.609   0.133  0.00  0.00     0.029 A 
ATOM      9  C7A BZF d   1      -2.438  -1.066  -0.097  0.00  0.00     0.058 A 
ENDROOT
TORSDOF 0
ENDMDL
