MODEL 1
REMARK minimizedAffinity -1.15667939
REMARK minimizedRMSD -1
REMARK  0 active torsions:
REMARK  status: ('A' for Active; 'I' for Inactive)
ROOT
ATOM      1  O1  BZF d   1      -1.271  -2.773  -2.260  0.00  0.00    -0.204 OA
ATOM      2  C2  BZF d   1      -2.001  -3.946  -2.268  0.00  0.00     0.174 A 
ATOM      3  C3  BZF d   1      -2.779  -4.033  -1.170  0.00  0.00    -0.012 A 
ATOM      4  C3A BZF d   1      -2.589  -2.796  -0.475  0.00  0.00    -0.107 A 
ATOM      5  C4  BZF d   1      -3.104  -2.278   0.678  0.00  0.00     0.055 A 
ATOM      6  C5  BZF d   1      -2.657  -1.073   1.119  0.00  0.00    -0.016 A 
ATOM      7  C6  BZF d   1      -1.693  -0.362   0.435  0.00  0.00     0.022 A 
ATOM      8  C7  BZF d   1      -1.156  -0.832  -0.717  0.00  0.00     0.029 A 
ATOM      9  C7A BZF d   1      -1.629  -2.035  -1.182  0.00  0.00     0.058 A 
ENDROOT
TORSDOF 0
ENDMDL
