MODEL 1
REMARK minimizedAffinity -4.243855
REMARK minimizedRMSD -1
REMARK  0 active torsions:
REMARK  status: ('A' for Active; 'I' for Inactive)
ROOT
ATOM      1  O1  BZF d   1      -4.227   5.623   2.789  0.00  0.00    -0.204 OA
ATOM      2  C2  BZF d   1      -5.188   5.496   1.805  0.00  0.00     0.174 A 
ATOM      3  C3  BZF d   1      -5.999   4.449   2.060  0.00  0.00    -0.012 A 
ATOM      4  C3A BZF d   1      -5.572   3.942   3.328  0.00  0.00    -0.107 A 
ATOM      5  C4  BZF d   1      -5.999   2.917   4.122  0.00  0.00     0.055 A 
ATOM      6  C5  BZF d   1      -5.320   2.640   5.266  0.00  0.00    -0.016 A 
ATOM      7  C6  BZF d   1      -4.208   3.363   5.644  0.00  0.00     0.022 A 
ATOM      8  C7  BZF d   1      -3.749   4.393   4.891  0.00  0.00     0.029 A 
ATOM      9  C7A BZF d   1      -4.452   4.696   3.751  0.00  0.00     0.058 A 
ENDROOT
TORSDOF 0
ENDMDL
