MODEL 1
REMARK minimizedAffinity -4.30223894
REMARK minimizedRMSD -1
REMARK  0 active torsions:
REMARK  status: ('A' for Active; 'I' for Inactive)
ROOT
ATOM      1  O1  BZF d   1      -4.606   2.485   3.731  0.00  0.00    -0.204 OA
ATOM      2  C2  BZF d   1      -4.543   1.759   4.905  0.00  0.00     0.174 A 
ATOM      3  C3  BZF d   1      -4.904   2.519   5.958  0.00  0.00    -0.012 A 
ATOM      4  C3A BZF d   1      -5.302   3.774   5.397  0.00  0.00    -0.107 A 
ATOM      5  C4  BZF d   1      -5.777   4.935   5.937  0.00  0.00     0.055 A 
ATOM      6  C5  BZF d   1      -6.000   6.000   5.122  0.00  0.00    -0.016 A 
ATOM      7  C6  BZF d   1      -5.754   5.939   3.766  0.00  0.00     0.022 A 
ATOM      8  C7  BZF d   1      -5.288   4.808   3.184  0.00  0.00     0.029 A 
ATOM      9  C7A BZF d   1      -5.092   3.720   4.000  0.00  0.00     0.058 A 
ENDROOT
TORSDOF 0
ENDMDL
