MODEL 1
REMARK minimizedAffinity 2.4451685
REMARK minimizedRMSD -1
REMARK  0 active torsions:
REMARK  status: ('A' for Active; 'I' for Inactive)
ROOT
ATOM      1  O1  BZF d   1      -0.859  -2.398  -2.791  0.00  0.00    -0.204 OA
ATOM      2  C2  BZF d   1      -0.751  -1.074  -3.169  0.00  0.00     0.174 A 
ATOM      3  C3  BZF d   1      -1.406  -0.275  -2.302  0.00  0.00    -0.012 A 
ATOM      4  C3A BZF d   1      -1.880  -1.146  -1.272  0.00  0.00    -0.107 A 
ATOM      5  C4  BZF d   1      -2.589  -0.942  -0.122  0.00  0.00     0.055 A 
ATOM      6  C5  BZF d   1      -2.954  -2.015   0.628  0.00  0.00    -0.016 A 
ATOM      7  C6  BZF d   1      -2.633  -3.304   0.256  0.00  0.00     0.022 A 
ATOM      8  C7  BZF d   1      -1.927  -3.556  -0.873  0.00  0.00     0.029 A 
ATOM      9  C7A BZF d   1      -1.528  -2.472  -1.616  0.00  0.00     0.058 A 
ENDROOT
TORSDOF 0
ENDMDL
