MODEL 1
REMARK minimizedAffinity -4.28173304
REMARK minimizedRMSD -1
REMARK  0 active torsions:
REMARK  status: ('A' for Active; 'I' for Inactive)
ROOT
ATOM      1  O1  BZF d   1      -4.471   5.431   2.600  0.00  0.00    -0.204 OA
ATOM      2  C2  BZF d   1      -5.234   4.869   1.595  0.00  0.00     0.174 A 
ATOM      3  C3  BZF d   1      -5.907   3.793   2.050  0.00  0.00    -0.012 A 
ATOM      4  C3A BZF d   1      -5.613   3.729   3.449  0.00  0.00    -0.107 A 
ATOM      5  C4  BZF d   1      -6.000   2.888   4.452  0.00  0.00     0.055 A 
ATOM      6  C5  BZF d   1      -5.475   3.056   5.694  0.00  0.00    -0.016 A 
ATOM      7  C6  BZF d   1      -4.558   4.050   5.967  0.00  0.00     0.022 A 
ATOM      8  C7  BZF d   1      -4.147   4.912   5.005  0.00  0.00     0.029 A 
ATOM      9  C7A BZF d   1      -4.701   4.766   3.757  0.00  0.00     0.058 A 
ENDROOT
TORSDOF 0
ENDMDL
