MODEL 1
REMARK minimizedAffinity -2.46898866
REMARK minimizedRMSD -1
REMARK  0 active torsions:
REMARK  status: ('A' for Active; 'I' for Inactive)
ROOT
ATOM      1  O1  BZF d   1      -5.807   5.985   3.174  0.00  0.00    -0.204 OA
ATOM      2  C2  BZF d   1      -5.343   5.980   1.873  0.00  0.00     0.174 A 
ATOM      3  C3  BZF d   1      -4.873   4.762   1.537  0.00  0.00    -0.012 A 
ATOM      4  C3A BZF d   1      -5.139   3.930   2.670  0.00  0.00    -0.107 A 
ATOM      5  C4  BZF d   1      -4.919   2.609   2.938  0.00  0.00     0.055 A 
ATOM      6  C5  BZF d   1      -5.231   2.124   4.169  0.00  0.00    -0.016 A 
ATOM      7  C6  BZF d   1      -5.759   2.931   5.155  0.00  0.00     0.022 A 
ATOM      8  C7  BZF d   1      -6.000   4.246   4.935  0.00  0.00     0.029 A 
ATOM      9  C7A BZF d   1      -5.717   4.732   3.682  0.00  0.00     0.058 A 
ENDROOT
TORSDOF 0
ENDMDL
