MODEL 1
REMARK minimizedAffinity -3.84967208
REMARK minimizedRMSD -1
REMARK  0 active torsions:
REMARK  status: ('A' for Active; 'I' for Inactive)
ROOT
ATOM      1  O1  BZF d   1      -3.944   5.194   1.956  0.00  0.00    -0.204 OA
ATOM      2  C2  BZF d   1      -5.015   5.910   1.456  0.00  0.00     0.174 A 
ATOM      3  C3  BZF d   1      -6.000   6.000   2.372  0.00  0.00    -0.012 A 
ATOM      4  C3A BZF d   1      -5.478   5.375   3.549  0.00  0.00    -0.107 A 
ATOM      5  C4  BZF d   1      -5.979   5.165   4.801  0.00  0.00     0.055 A 
ATOM      6  C5  BZF d   1      -5.242   4.458   5.698  0.00  0.00    -0.016 A 
ATOM      7  C6  BZF d   1      -4.004   3.943   5.374  0.00  0.00     0.022 A 
ATOM      8  C7  BZF d   1      -3.462   4.130   4.146  0.00  0.00     0.029 A 
ATOM      9  C7A BZF d   1      -4.191   4.872   3.248  0.00  0.00     0.058 A 
ENDROOT
TORSDOF 0
ENDMDL
