MODEL 1
REMARK minimizedAffinity -3.24118423
REMARK minimizedRMSD -1
REMARK  0 active torsions:
REMARK  status: ('A' for Active; 'I' for Inactive)
ROOT
ATOM      1  O1  BZF d   1      -5.565   4.514   5.780  0.00  0.00    -0.204 OA
ATOM      2  C2  BZF d   1      -4.885   3.331   5.996  0.00  0.00     0.174 A 
ATOM      3  C3  BZF d   1      -4.363   2.862   4.844  0.00  0.00    -0.012 A 
ATOM      4  C3A BZF d   1      -4.663   3.859   3.862  0.00  0.00    -0.107 A 
ATOM      5  C4  BZF d   1      -4.393   3.975   2.528  0.00  0.00     0.055 A 
ATOM      6  C5  BZF d   1      -4.890   5.038   1.843  0.00  0.00    -0.016 A 
ATOM      7  C6  BZF d   1      -5.664   6.000   2.458  0.00  0.00     0.022 A 
ATOM      8  C7  BZF d   1      -5.955   5.931   3.780  0.00  0.00     0.029 A 
ATOM      9  C7A BZF d   1      -5.426   4.875   4.482  0.00  0.00     0.058 A 
ENDROOT
TORSDOF 0
ENDMDL
