MODEL 1
REMARK minimizedAffinity 2.52692699
REMARK minimizedRMSD -1
REMARK  0 active torsions:
REMARK  status: ('A' for Active; 'I' for Inactive)
ROOT
ATOM      1  O1  BZF d   1      -5.997   5.871   1.825  0.00  0.00    -0.204 OA
ATOM      2  C2  BZF d   1      -5.463   4.980   0.915  0.00  0.00     0.174 A 
ATOM      3  C3  BZF d   1      -4.775   4.006   1.545  0.00  0.00    -0.012 A 
ATOM      4  C3A BZF d   1      -4.964   4.255   2.941  0.00  0.00    -0.107 A 
ATOM      5  C4  BZF d   1      -4.541   3.621   4.074  0.00  0.00     0.055 A 
ATOM      6  C5  BZF d   1      -4.838   4.162   5.285  0.00  0.00    -0.016 A 
ATOM      7  C6  BZF d   1      -5.552   5.337   5.399  0.00  0.00     0.022 A 
ATOM      8  C7  BZF d   1      -5.998   6.000   4.304  0.00  0.00     0.029 A 
ATOM      9  C7A BZF d   1      -5.727   5.438   3.080  0.00  0.00     0.058 A 
ENDROOT
TORSDOF 0
ENDMDL
