MODEL 1
REMARK minimizedAffinity 0.299739927
REMARK minimizedRMSD -1
REMARK  0 active torsions:
REMARK  status: ('A' for Active; 'I' for Inactive)
ROOT
ATOM      1  O1  BZF d   1      -4.993   2.836   3.742  0.00  0.00    -0.204 OA
ATOM      2  C2  BZF d   1      -5.564   3.305   4.908  0.00  0.00     0.174 A 
ATOM      3  C3  BZF d   1      -6.000   4.572   4.752  0.00  0.00    -0.012 A 
ATOM      4  C3A BZF d   1      -5.764   4.884   3.375  0.00  0.00    -0.107 A 
ATOM      5  C4  BZF d   1      -5.999   5.990   2.609  0.00  0.00     0.055 A 
ATOM      6  C5  BZF d   1      -5.584   5.998   1.316  0.00  0.00    -0.016 A 
ATOM      7  C6  BZF d   1      -4.926   4.921   0.758  0.00  0.00     0.022 A 
ATOM      8  C7  BZF d   1      -4.674   3.800   1.477  0.00  0.00     0.029 A 
ATOM      9  C7A BZF d   1      -5.123   3.776   2.775  0.00  0.00     0.058 A 
ENDROOT
TORSDOF 0
ENDMDL
