MODEL 1
REMARK minimizedAffinity -1.29412138
REMARK minimizedRMSD -1
REMARK  0 active torsions:
REMARK  status: ('A' for Active; 'I' for Inactive)
ROOT
ATOM      1  O1  BZF d   1      -6.000   4.883   5.447  0.00  0.00    -0.204 OA
ATOM      2  C2  BZF d   1      -5.618   3.630   5.887  0.00  0.00     0.174 A 
ATOM      3  C3  BZF d   1      -5.192   2.870   4.858  0.00  0.00    -0.012 A 
ATOM      4  C3A BZF d   1      -5.228   3.731   3.715  0.00  0.00    -0.107 A 
ATOM      5  C4  BZF d   1      -4.906   3.559   2.399  0.00  0.00     0.055 A 
ATOM      6  C5  BZF d   1      -5.125   4.577   1.527  0.00  0.00    -0.016 A 
ATOM      7  C6  BZF d   1      -5.669   5.778   1.934  0.00  0.00     0.022 A 
ATOM      8  C7  BZF d   1      -6.000   5.997   3.230  0.00  0.00     0.029 A 
ATOM      9  C7A BZF d   1      -5.749   4.982   4.120  0.00  0.00     0.058 A 
ENDROOT
TORSDOF 0
ENDMDL
