MODEL 1
REMARK minimizedAffinity -2.97574496
REMARK minimizedRMSD -1
REMARK  0 active torsions:
REMARK  status: ('A' for Active; 'I' for Inactive)
ROOT
ATOM      1  O1  BZF d   1      -5.999   5.001   5.370  0.00  0.00    -0.204 OA
ATOM      2  C2  BZF d   1      -5.612   3.784   5.894  0.00  0.00     0.174 A 
ATOM      3  C3  BZF d   1      -5.118   2.982   4.928  0.00  0.00    -0.012 A 
ATOM      4  C3A BZF d   1      -5.117   3.781   3.741  0.00  0.00    -0.107 A 
ATOM      5  C4  BZF d   1      -4.726   3.548   2.453  0.00  0.00     0.055 A 
ATOM      6  C5  BZF d   1      -4.925   4.514   1.518  0.00  0.00    -0.016 A 
ATOM      7  C6  BZF d   1      -5.516   5.719   1.834  0.00  0.00     0.022 A 
ATOM      8  C7  BZF d   1      -5.916   5.998   3.098  0.00  0.00     0.029 A 
ATOM      9  C7A BZF d   1      -5.685   5.037   4.053  0.00  0.00     0.058 A 
ENDROOT
TORSDOF 0
ENDMDL
