MODEL 1
REMARK minimizedAffinity -3.9760592
REMARK minimizedRMSD -1
REMARK  0 active torsions:
REMARK  status: ('A' for Active; 'I' for Inactive)
ROOT
ATOM      1  O1  BZF d   1      -5.047   4.596   5.221  0.00  0.00    -0.204 OA
ATOM      2  C2  BZF d   1      -5.619   3.349   5.383  0.00  0.00     0.174 A 
ATOM      3  C3  BZF d   1      -5.984   2.832   4.192  0.00  0.00    -0.012 A 
ATOM      4  C3A BZF d   1      -5.534   3.778   3.217  0.00  0.00    -0.107 A 
ATOM      5  C4  BZF d   1      -5.588   3.819   1.853  0.00  0.00     0.055 A 
ATOM      6  C5  BZF d   1      -5.122   4.919   1.206  0.00  0.00    -0.016 A 
ATOM      7  C6  BZF d   1      -4.599   5.997   1.891  0.00  0.00     0.022 A 
ATOM      8  C7  BZF d   1      -4.519   6.000   3.244  0.00  0.00     0.029 A 
ATOM      9  C7A BZF d   1      -4.960   4.876   3.899  0.00  0.00     0.058 A 
ENDROOT
TORSDOF 0
ENDMDL
