MODEL 1
REMARK minimizedAffinity -3.089921
REMARK minimizedRMSD -1
REMARK  0 active torsions:
REMARK  status: ('A' for Active; 'I' for Inactive)
ROOT
ATOM      1  O1  BZF d   1      -5.298   5.977   2.436  0.00  0.00    -0.204 OA
ATOM      2  C2  BZF d   1      -5.701   5.021   1.523  0.00  0.00     0.174 A 
ATOM      3  C3  BZF d   1      -5.988   3.858   2.143  0.00  0.00    -0.012 A 
ATOM      4  C3A BZF d   1      -5.838   4.129   3.540  0.00  0.00    -0.107 A 
ATOM      5  C4  BZF d   1      -6.000   3.374   4.665  0.00  0.00     0.055 A 
ATOM      6  C5  BZF d   1      -5.702   3.917   5.875  0.00  0.00    -0.016 A 
ATOM      7  C6  BZF d   1      -5.235   5.210   5.994  0.00  0.00     0.022 A 
ATOM      8  C7  BZF d   1      -5.062   6.000   4.906  0.00  0.00     0.029 A 
ATOM      9  C7A BZF d   1      -5.394   5.464   3.686  0.00  0.00     0.058 A 
ENDROOT
TORSDOF 0
ENDMDL
