MODEL 1
REMARK minimizedAffinity 4.74681616
REMARK minimizedRMSD -1
REMARK  2 active torsions:
REMARK  status: ('A' for Active; 'I' for Inactive)
REMARK    1  A    between atoms: C1_2  and  C2_3 
REMARK    2  A    between atoms: C2_3  and  C3_4 
ROOT
ATOM      1  C3  UNL d   1      -1.076   2.367   0.532  0.00  0.00    -0.075 A 
ATOM      2  C4  UNL d   1      -1.107   3.769   0.487  0.00  0.00     0.002 A 
ATOM      3  C5  UNL d   1      -0.335   4.464  -0.444  0.00  0.00     0.002 A 
ATOM      4  C6  UNL d   1       0.482   3.771  -1.333  0.00  0.00    -0.004 A 
ATOM      5  C7  UNL d   1       0.533   2.379  -1.287  0.00  0.00     0.002 A 
ATOM      6  C8  UNL d   1      -0.241   1.680  -0.359  0.00  0.00     0.002 A 
ENDROOT
BRANCH   1   7
ATOM      7  C2  UNL d   1      -1.931   1.607   1.517  0.00  0.00     0.056 C 
BRANCH   7   8
ATOM      8  C1  UNL d   1      -1.143   0.652   2.420  0.00  0.00     0.007 C 
ATOM      9  C   UNL d   1      -2.012  -0.420   3.064  0.00  0.00     0.009 C 
ENDBRANCH   7   8
ENDBRANCH   1   7
TORSDOF 2
ENDMDL
