MODEL 1
REMARK minimizedAffinity 2.84301186
REMARK minimizedRMSD -1
REMARK  2 active torsions:
REMARK  status: ('A' for Active; 'I' for Inactive)
REMARK    1  A    between atoms: C1_2  and  C2_3 
REMARK    2  A    between atoms: C2_3  and  C3_4 
ROOT
ATOM      1  C3  UNL d   1      -0.211   1.562   1.308  0.00  0.00    -0.075 A 
ATOM      2  C4  UNL d   1      -0.265   1.873   2.674  0.00  0.00     0.002 A 
ATOM      3  C5  UNL d   1       0.386   1.069   3.610  0.00  0.00     0.002 A 
ATOM      4  C6  UNL d   1       1.090  -0.060   3.193  0.00  0.00    -0.004 A 
ATOM      5  C7  UNL d   1       1.136  -0.387   1.840  0.00  0.00     0.002 A 
ATOM      6  C8  UNL d   1       0.489   0.418   0.901  0.00  0.00     0.002 A 
ENDROOT
BRANCH   1   7
ATOM      7  C2  UNL d   1      -0.890   2.445   0.287  0.00  0.00     0.056 C 
BRANCH   7   8
ATOM      8  C1  UNL d   1      -0.425   3.905   0.319  0.00  0.00     0.007 C 
ATOM      9  C   UNL d   1       0.442   4.285  -0.875  0.00  0.00     0.009 C 
ENDBRANCH   7   8
ENDBRANCH   1   7
TORSDOF 2
ENDMDL
