MODEL 1
REMARK minimizedAffinity 4.61120653
REMARK minimizedRMSD -1
REMARK  2 active torsions:
REMARK  status: ('A' for Active; 'I' for Inactive)
REMARK    1  A    between atoms: C1_2  and  C2_3 
REMARK    2  A    between atoms: C2_3  and  C3_4 
ROOT
ATOM      1  C3  UNL d   1      -0.459   3.436   0.180  0.00  0.00    -0.075 A 
ATOM      2  C4  UNL d   1       0.537   3.930   1.034  0.00  0.00     0.002 A 
ATOM      3  C5  UNL d   1       1.371   4.970   0.623  0.00  0.00     0.002 A 
ATOM      4  C6  UNL d   1       1.226   5.522  -0.648  0.00  0.00    -0.004 A 
ATOM      5  C7  UNL d   1       0.251   5.028  -1.511  0.00  0.00     0.002 A 
ATOM      6  C8  UNL d   1      -0.588   3.990  -1.101  0.00  0.00     0.002 A 
ENDROOT
BRANCH   1   7
ATOM      7  C2  UNL d   1      -1.384   2.330   0.629  0.00  0.00     0.056 C 
BRANCH   7   8
ATOM      8  C1  UNL d   1      -0.906   1.588   1.882  0.00  0.00     0.007 C 
ATOM      9  C   UNL d   1      -1.960   0.657   2.467  0.00  0.00     0.009 C 
ENDBRANCH   7   8
ENDBRANCH   1   7
TORSDOF 2
ENDMDL
