MODEL 1
REMARK minimizedAffinity 1.53562462
REMARK minimizedRMSD -1
REMARK  2 active torsions:
REMARK  status: ('A' for Active; 'I' for Inactive)
REMARK    1  A    between atoms: C1_2  and  C2_3 
REMARK    2  A    between atoms: C2_3  and  C3_4 
ROOT
ATOM      1  C3  UNL d   1      -2.219   1.674   1.845  0.00  0.00    -0.075 A 
ATOM      2  C4  UNL d   1      -0.988   1.749   1.177  0.00  0.00     0.002 A 
ATOM      3  C5  UNL d   1      -0.711   2.816   0.322  0.00  0.00     0.002 A 
ATOM      4  C6  UNL d   1      -1.662   3.813   0.115  0.00  0.00    -0.004 A 
ATOM      5  C7  UNL d   1      -2.894   3.739   0.760  0.00  0.00     0.002 A 
ATOM      6  C8  UNL d   1      -3.173   2.675   1.620  0.00  0.00     0.002 A 
ENDROOT
BRANCH   1   7
ATOM      7  C2  UNL d   1      -2.515   0.538   2.795  0.00  0.00     0.056 C 
BRANCH   7   8
ATOM      8  C1  UNL d   1      -1.404  -0.515   2.873  0.00  0.00     0.007 C 
ATOM      9  C   UNL d   1      -1.810  -1.761   3.648  0.00  0.00     0.009 C 
ENDBRANCH   7   8
ENDBRANCH   1   7
TORSDOF 2
ENDMDL
