MODEL 1
REMARK minimizedAffinity 1.31108356
REMARK minimizedRMSD -1
REMARK  2 active torsions:
REMARK  status: ('A' for Active; 'I' for Inactive)
REMARK    1  A    between atoms: C1_2  and  C2_3 
REMARK    2  A    between atoms: C2_3  and  C3_4 
ROOT
ATOM      1  C3  UNL d   1      -0.296   1.576   1.054  0.00  0.00    -0.075 A 
ATOM      2  C4  UNL d   1      -0.378   2.046  -0.265  0.00  0.00     0.002 A 
ATOM      3  C5  UNL d   1       0.653   1.797  -1.171  0.00  0.00     0.002 A 
ATOM      4  C6  UNL d   1       1.781   1.085  -0.769  0.00  0.00    -0.004 A 
ATOM      5  C7  UNL d   1       1.880   0.627   0.543  0.00  0.00     0.002 A 
ATOM      6  C8  UNL d   1       0.848   0.872   1.451  0.00  0.00     0.002 A 
ENDROOT
BRANCH   1   7
ATOM      7  C2  UNL d   1      -1.422   1.818   2.031  0.00  0.00     0.056 C 
BRANCH   7   8
ATOM      8  C1  UNL d   1      -2.439   0.674   2.106  0.00  0.00     0.007 C 
ATOM      9  C   UNL d   1      -1.930  -0.532   2.885  0.00  0.00     0.009 C 
ENDBRANCH   7   8
ENDBRANCH   1   7
TORSDOF 2
ENDMDL
