MODEL 1
REMARK minimizedAffinity 0.0717409998
REMARK minimizedRMSD -1
REMARK  2 active torsions:
REMARK  status: ('A' for Active; 'I' for Inactive)
REMARK    1  A    between atoms: C1_2  and  C2_3 
REMARK    2  A    between atoms: C2_3  and  C3_4 
ROOT
ATOM      1  C3  UNL d   1      -1.398   1.185   1.524  0.00  0.00    -0.075 A 
ATOM      2  C4  UNL d   1      -0.496   1.753   0.612  0.00  0.00     0.002 A 
ATOM      3  C5  UNL d   1      -0.824   2.924  -0.072  0.00  0.00     0.002 A 
ATOM      4  C6  UNL d   1      -2.058   3.535   0.138  0.00  0.00    -0.004 A 
ATOM      5  C7  UNL d   1      -2.968   2.971   1.029  0.00  0.00     0.002 A 
ATOM      6  C8  UNL d   1      -2.641   1.802   1.718  0.00  0.00     0.002 A 
ENDROOT
BRANCH   1   7
ATOM      7  C2  UNL d   1      -1.038  -0.065   2.290  0.00  0.00     0.056 C 
BRANCH   7   8
ATOM      8  C1  UNL d   1      -2.194  -0.652   3.105  0.00  0.00     0.007 C 
ATOM      9  C   UNL d   1      -1.940  -2.081   3.566  0.00  0.00     0.009 C 
ENDBRANCH   7   8
ENDBRANCH   1   7
TORSDOF 2
ENDMDL
