MODEL 1
REMARK minimizedAffinity 6.69026089
REMARK minimizedRMSD -1
REMARK  2 active torsions:
REMARK  status: ('A' for Active; 'I' for Inactive)
REMARK    1  A    between atoms: C1_2  and  C2_3 
REMARK    2  A    between atoms: C2_3  and  C3_4 
ROOT
ATOM      1  C3  UNL d   1      -1.184   2.616   0.716  0.00  0.00    -0.075 A 
ATOM      2  C4  UNL d   1      -0.858   3.980   0.717  0.00  0.00     0.002 A 
ATOM      3  C5  UNL d   1      -0.131   4.535  -0.336  0.00  0.00     0.002 A 
ATOM      4  C6  UNL d   1       0.287   3.734  -1.396  0.00  0.00    -0.004 A 
ATOM      5  C7  UNL d   1      -0.017   2.374  -1.400  0.00  0.00     0.002 A 
ATOM      6  C8  UNL d   1      -0.748   1.817  -0.349  0.00  0.00     0.002 A 
ENDROOT
BRANCH   1   7
ATOM      7  C2  UNL d   1      -1.996   2.015   1.838  0.00  0.00     0.056 C 
BRANCH   7   8
ATOM      8  C1  UNL d   1      -2.414   0.560   1.597  0.00  0.00     0.007 C 
ATOM      9  C   UNL d   1      -1.987  -0.381   2.716  0.00  0.00     0.009 C 
ENDBRANCH   7   8
ENDBRANCH   1   7
TORSDOF 2
ENDMDL
