MODEL 1
REMARK minimizedAffinity 6.06011009
REMARK minimizedRMSD -1
REMARK  2 active torsions:
REMARK  status: ('A' for Active; 'I' for Inactive)
REMARK    1  A    between atoms: C1_2  and  C2_3 
REMARK    2  A    between atoms: C2_3  and  C3_4 
ROOT
ATOM      1  C3  UNL d   1      -2.982  -3.072   4.999  0.00  0.00    -0.075 A 
ATOM      2  C4  UNL d   1      -3.883  -3.661   4.101  0.00  0.00     0.002 A 
ATOM      3  C5  UNL d   1      -5.240  -3.340   4.145  0.00  0.00     0.002 A 
ATOM      4  C6  UNL d   1      -5.713  -2.434   5.092  0.00  0.00    -0.004 A 
ATOM      5  C7  UNL d   1      -4.830  -1.855   6.000  0.00  0.00     0.002 A 
ATOM      6  C8  UNL d   1      -3.471  -2.172   5.955  0.00  0.00     0.002 A 
ENDROOT
BRANCH   1   7
ATOM      7  C2  UNL d   1      -1.507  -3.393   4.938  0.00  0.00     0.056 C 
BRANCH   7   8
ATOM      8  C1  UNL d   1      -1.043  -4.396   6.000  0.00  0.00     0.007 C 
ATOM      9  C   UNL d   1       0.377  -4.897   5.771  0.00  0.00     0.009 C 
ENDBRANCH   7   8
ENDBRANCH   1   7
TORSDOF 2
ENDMDL
