MODEL 1
REMARK minimizedAffinity 3.45981383
REMARK minimizedRMSD -1
REMARK  2 active torsions:
REMARK  status: ('A' for Active; 'I' for Inactive)
REMARK    1  A    between atoms: C1_2  and  C2_3 
REMARK    2  A    between atoms: C2_3  and  C3_4 
ROOT
ATOM      1  C3  UNL d   1      -1.626  -1.974   3.571  0.00  0.00    -0.075 A 
ATOM      2  C4  UNL d   1      -2.931  -2.130   4.061  0.00  0.00     0.002 A 
ATOM      3  C5  UNL d   1      -3.244  -3.183   4.921  0.00  0.00     0.002 A 
ATOM      4  C6  UNL d   1      -2.261  -4.097   5.295  0.00  0.00    -0.004 A 
ATOM      5  C7  UNL d   1      -0.965  -3.961   4.801  0.00  0.00     0.002 A 
ATOM      6  C8  UNL d   1      -0.648  -2.906   3.944  0.00  0.00     0.002 A 
ENDROOT
BRANCH   1   7
ATOM      7  C2  UNL d   1      -1.274  -0.820   2.663  0.00  0.00     0.056 C 
BRANCH   7   8
ATOM      8  C1  UNL d   1      -2.374   0.241   2.549  0.00  0.00     0.007 C 
ATOM      9  C   UNL d   1      -1.952   1.457   1.735  0.00  0.00     0.009 C 
ENDBRANCH   7   8
ENDBRANCH   1   7
TORSDOF 2
ENDMDL
