MODEL 1
REMARK minimizedAffinity 6.40886927
REMARK minimizedRMSD -1
REMARK  2 active torsions:
REMARK  status: ('A' for Active; 'I' for Inactive)
REMARK    1  A    between atoms: C1_2  and  C2_3 
REMARK    2  A    between atoms: C2_3  and  C3_4 
ROOT
ATOM      1  C3  UNL d   1      -0.187   2.049   0.185  0.00  0.00    -0.075 A 
ATOM      2  C4  UNL d   1       0.360   1.166   1.127  0.00  0.00     0.002 A 
ATOM      3  C5  UNL d   1       0.265   1.439   2.492  0.00  0.00     0.002 A 
ATOM      4  C6  UNL d   1      -0.368   2.600   2.931  0.00  0.00    -0.004 A 
ATOM      5  C7  UNL d   1      -0.900   3.492   2.003  0.00  0.00     0.002 A 
ATOM      6  C8  UNL d   1      -0.810   3.220   0.637  0.00  0.00     0.002 A 
ENDROOT
BRANCH   1   7
ATOM      7  C2  UNL d   1      -0.113   1.745  -1.292  0.00  0.00     0.056 C 
BRANCH   7   8
ATOM      8  C1  UNL d   1       0.668   0.470  -1.628  0.00  0.00     0.007 C 
ATOM      9  C   UNL d   1      -0.027  -0.406  -2.662  0.00  0.00     0.009 C 
ENDBRANCH   7   8
ENDBRANCH   1   7
TORSDOF 2
ENDMDL
