MODEL 1
REMARK minimizedAffinity 5.77477694
REMARK minimizedRMSD -1
REMARK  2 active torsions:
REMARK  status: ('A' for Active; 'I' for Inactive)
REMARK    1  A    between atoms: C1_2  and  C2_3 
REMARK    2  A    between atoms: C2_3  and  C3_4 
ROOT
ATOM      1  C3  UNL d   1       0.333   1.143  -0.113  0.00  0.00    -0.075 A 
ATOM      2  C4  UNL d   1       1.437   0.351   0.233  0.00  0.00     0.002 A 
ATOM      3  C5  UNL d   1       1.774   0.153   1.572  0.00  0.00     0.002 A 
ATOM      4  C6  UNL d   1       1.021   0.752   2.580  0.00  0.00    -0.004 A 
ATOM      5  C7  UNL d   1      -0.068   1.554   2.246  0.00  0.00     0.002 A 
ATOM      6  C8  UNL d   1      -0.411   1.750   0.907  0.00  0.00     0.002 A 
ENDROOT
BRANCH   1   7
ATOM      7  C2  UNL d   1      -0.056   1.337  -1.560  0.00  0.00     0.056 C 
BRANCH   7   8
ATOM      8  C1  UNL d   1       0.743   2.430  -2.279  0.00  0.00     0.007 C 
ATOM      9  C   UNL d   1       0.061   3.791  -2.247  0.00  0.00     0.009 C 
ENDBRANCH   7   8
ENDBRANCH   1   7
TORSDOF 2
ENDMDL
