MODEL 1
REMARK minimizedAffinity 6.83362389
REMARK minimizedRMSD -1
REMARK  2 active torsions:
REMARK  status: ('A' for Active; 'I' for Inactive)
REMARK    1  A    between atoms: C1_2  and  C2_3 
REMARK    2  A    between atoms: C2_3  and  C3_4 
ROOT
ATOM      1  C3  UNL d   1      -0.064   1.162   1.660  0.00  0.00    -0.075 A 
ATOM      2  C4  UNL d   1       1.020   0.431   2.165  0.00  0.00     0.002 A 
ATOM      3  C5  UNL d   1       1.838  -0.307   1.308  0.00  0.00     0.002 A 
ATOM      4  C6  UNL d   1       1.576  -0.331  -0.060  0.00  0.00    -0.004 A 
ATOM      5  C7  UNL d   1       0.492   0.379  -0.571  0.00  0.00     0.002 A 
ATOM      6  C8  UNL d   1      -0.325   1.122   0.284  0.00  0.00     0.002 A 
ENDROOT
BRANCH   1   7
ATOM      7  C2  UNL d   1      -0.935   1.986   2.578  0.00  0.00     0.056 C 
BRANCH   7   8
ATOM      8  C1  UNL d   1      -0.159   2.982   3.446  0.00  0.00     0.007 C 
ATOM      9  C   UNL d   1      -0.226   2.661   4.933  0.00  0.00     0.009 C 
ENDBRANCH   7   8
ENDBRANCH   1   7
TORSDOF 2
ENDMDL
