MODEL 1
REMARK minimizedAffinity 13.4549847
REMARK minimizedRMSD -1
REMARK  2 active torsions:
REMARK  status: ('A' for Active; 'I' for Inactive)
REMARK    1  A    between atoms: C1_2  and  C2_3 
REMARK    2  A    between atoms: C2_3  and  C3_4 
ROOT
ATOM      1  C3  UNL d   1       0.576   0.906   1.671  0.00  0.00    -0.075 A 
ATOM      2  C4  UNL d   1       1.053   2.150   2.109  0.00  0.00     0.002 A 
ATOM      3  C5  UNL d   1       0.236   3.000   2.854  0.00  0.00     0.002 A 
ATOM      4  C6  UNL d   1      -1.070   2.623   3.161  0.00  0.00    -0.004 A 
ATOM      5  C7  UNL d   1      -1.560   1.396   2.717  0.00  0.00     0.002 A 
ATOM      6  C8  UNL d   1      -0.742   0.542   1.975  0.00  0.00     0.002 A 
ENDROOT
BRANCH   1   7
ATOM      7  C2  UNL d   1       1.466  -0.031   0.889  0.00  0.00     0.056 C 
BRANCH   7   8
ATOM      8  C1  UNL d   1       2.944   0.032   1.290  0.00  0.00     0.007 C 
ATOM      9  C   UNL d   1       3.784  -1.072   0.663  0.00  0.00     0.009 C 
ENDBRANCH   7   8
ENDBRANCH   1   7
TORSDOF 2
ENDMDL
