MODEL 1
REMARK minimizedAffinity 7.45399094
REMARK minimizedRMSD -1
REMARK  0 active torsions:
REMARK  status: ('A' for Active; 'I' for Inactive)
ROOT
ATOM      1  C   UNL d   1       4.511  -4.501  -0.370  0.00  0.00     0.124 A 
ATOM      2  C1  UNL d   1       4.927  -3.250   0.064  0.00  0.00     0.062 A 
ATOM      3  C2  UNL d   1       4.235  -2.108  -0.328  0.00  0.00     0.162 A 
ATOM      4  C3  UNL d   1       3.120  -2.211  -1.160  0.00  0.00    -0.034 A 
ATOM      5  C4  UNL d   1       2.708  -3.472  -1.593  0.00  0.00     0.162 A 
ATOM      6  C5  UNL d   1       3.403  -4.611  -1.198  0.00  0.00     0.062 A 
ATOM      7  F   UNL d   1       3.000  -5.819  -1.619  0.00  0.00    -0.097 F 
ATOM      8  F1  UNL d   1       1.640  -3.608  -2.393  0.00  0.00    -0.096 F 
ATOM      9  I   UNL d   1       2.083  -0.505  -1.749  0.00  0.00    -0.060 I 
ATOM     10  F2  UNL d   1       4.659  -0.912   0.106  0.00  0.00    -0.096 F 
ATOM     11  F3  UNL d   1       5.998  -3.141   0.863  0.00  0.00    -0.097 F 
ATOM     12  F4  UNL d   1       5.179  -5.599   0.008  0.00  0.00    -0.092 F 
ENDROOT
TORSDOF 0
ENDMDL
