MODEL 1
REMARK minimizedAffinity 3.15847731
REMARK minimizedRMSD -1
REMARK  0 active torsions:
REMARK  status: ('A' for Active; 'I' for Inactive)
ROOT
ATOM      1  C   UNL d   1       3.849  -4.775  -1.953  0.00  0.00     0.124 A 
ATOM      2  C1  UNL d   1       3.558  -3.985  -0.850  0.00  0.00     0.062 A 
ATOM      3  C2  UNL d   1       3.019  -2.713  -1.022  0.00  0.00     0.162 A 
ATOM      4  C3  UNL d   1       2.766  -2.224  -2.304  0.00  0.00    -0.034 A 
ATOM      5  C4  UNL d   1       3.062  -3.024  -3.409  0.00  0.00     0.162 A 
ATOM      6  C5  UNL d   1       3.600  -4.294  -3.231  0.00  0.00     0.062 A 
ATOM      7  F   UNL d   1       3.880  -5.057  -4.298  0.00  0.00    -0.097 F 
ATOM      8  F1  UNL d   1       2.831  -2.585  -4.655  0.00  0.00    -0.096 F 
ATOM      9  I   UNL d   1       1.960  -0.323  -2.566  0.00  0.00    -0.060 I 
ATOM     10  F2  UNL d   1       2.748  -1.971   0.062  0.00  0.00    -0.096 F 
ATOM     11  F3  UNL d   1       3.798  -4.447   0.386  0.00  0.00    -0.097 F 
ATOM     12  F4  UNL d   1       4.368  -5.998  -1.785  0.00  0.00    -0.092 F 
ENDROOT
TORSDOF 0
ENDMDL
