MODEL 1
REMARK minimizedAffinity 15.8409472
REMARK minimizedRMSD -1
REMARK  0 active torsions:
REMARK  status: ('A' for Active; 'I' for Inactive)
ROOT
ATOM      1  C   UNL d   1       2.799  -2.958  -1.070  0.00  0.00     0.124 A 
ATOM      2  C1  UNL d   1       3.966  -3.522  -0.572  0.00  0.00     0.062 A 
ATOM      3  C2  UNL d   1       4.881  -4.115  -1.436  0.00  0.00     0.162 A 
ATOM      4  C3  UNL d   1       4.634  -4.147  -2.809  0.00  0.00    -0.034 A 
ATOM      5  C4  UNL d   1       3.458  -3.579  -3.302  0.00  0.00     0.162 A 
ATOM      6  C5  UNL d   1       2.546  -2.987  -2.434  0.00  0.00     0.062 A 
ATOM      7  F   UNL d   1       1.420  -2.443  -2.917  0.00  0.00    -0.097 F 
ATOM      8  F1  UNL d   1       3.189  -3.593  -4.616  0.00  0.00    -0.096 F 
ATOM      9  I   UNL d   1       6.000  -5.034  -4.105  0.00  0.00    -0.060 I 
ATOM     10  F2  UNL d   1       6.000  -4.652  -0.927  0.00  0.00    -0.096 F 
ATOM     11  F3  UNL d   1       4.212  -3.496   0.746  0.00  0.00    -0.097 F 
ATOM     12  F4  UNL d   1       1.920  -2.389  -0.235  0.00  0.00    -0.092 F 
ENDROOT
TORSDOF 0
ENDMDL
