MODEL 1
REMARK minimizedAffinity 0.348372519
REMARK minimizedRMSD -1
REMARK  0 active torsions:
REMARK  status: ('A' for Active; 'I' for Inactive)
ROOT
ATOM      1  C   UNL d   1       3.419  -4.688  -2.070  0.00  0.00     0.124 A 
ATOM      2  C1  UNL d   1       3.494  -4.068  -0.831  0.00  0.00     0.062 A 
ATOM      3  C2  UNL d   1       3.229  -2.707  -0.712  0.00  0.00     0.162 A 
ATOM      4  C3  UNL d   1       2.884  -1.956  -1.836  0.00  0.00    -0.034 A 
ATOM      5  C4  UNL d   1       2.812  -2.587  -3.080  0.00  0.00     0.162 A 
ATOM      6  C5  UNL d   1       3.079  -3.947  -3.193  0.00  0.00     0.062 A 
ATOM      7  F   UNL d   1       3.006  -4.545  -4.391  0.00  0.00    -0.097 F 
ATOM      8  F1  UNL d   1       2.484  -1.895  -4.181  0.00  0.00    -0.096 F 
ATOM      9  I   UNL d   1       2.486   0.079  -1.663  0.00  0.00    -0.060 I 
ATOM     10  F2  UNL d   1       3.309  -2.134   0.498  0.00  0.00    -0.096 F 
ATOM     11  F3  UNL d   1       3.825  -4.781   0.256  0.00  0.00    -0.097 F 
ATOM     12  F4  UNL d   1       3.677  -5.998  -2.182  0.00  0.00    -0.092 F 
ENDROOT
TORSDOF 0
ENDMDL
