MODEL 1
REMARK minimizedAffinity 4.44161081
REMARK minimizedRMSD -1
REMARK  0 active torsions:
REMARK  status: ('A' for Active; 'I' for Inactive)
ROOT
ATOM      1  C   UNL d   1       3.894  -4.428  -2.988  0.00  0.00     0.124 A 
ATOM      2  C1  UNL d   1       2.999  -3.492  -3.488  0.00  0.00     0.062 A 
ATOM      3  C2  UNL d   1       2.473  -2.511  -2.653  0.00  0.00     0.162 A 
ATOM      4  C3  UNL d   1       2.841  -2.459  -1.308  0.00  0.00    -0.034 A 
ATOM      5  C4  UNL d   1       3.741  -3.405  -0.812  0.00  0.00     0.162 A 
ATOM      6  C5  UNL d   1       4.264  -4.383  -1.651  0.00  0.00     0.062 A 
ATOM      7  F   UNL d   1       5.129  -5.286  -1.166  0.00  0.00    -0.097 F 
ATOM      8  F1  UNL d   1       4.116  -3.384   0.476  0.00  0.00    -0.096 F 
ATOM      9  I   UNL d   1       2.056  -0.994  -0.056  0.00  0.00    -0.060 I 
ATOM     10  F2  UNL d   1       1.610  -1.620  -3.163  0.00  0.00    -0.096 F 
ATOM     11  F3  UNL d   1       2.640  -3.533  -4.779  0.00  0.00    -0.097 F 
ATOM     12  F4  UNL d   1       4.399  -5.371  -3.793  0.00  0.00    -0.092 F 
ENDROOT
TORSDOF 0
ENDMDL
