MODEL 1
REMARK minimizedAffinity 7.61986876
REMARK minimizedRMSD -1
REMARK  0 active torsions:
REMARK  status: ('A' for Active; 'I' for Inactive)
ROOT
ATOM      1  C   UNL d   1       3.498  -4.666  -2.271  0.00  0.00     0.124 A 
ATOM      2  C1  UNL d   1       2.821  -3.662  -2.950  0.00  0.00     0.062 A 
ATOM      3  C2  UNL d   1       2.520  -2.464  -2.309  0.00  0.00     0.162 A 
ATOM      4  C3  UNL d   1       2.897  -2.263  -0.980  0.00  0.00    -0.034 A 
ATOM      5  C4  UNL d   1       3.576  -3.278  -0.304  0.00  0.00     0.162 A 
ATOM      6  C5  UNL d   1       3.874  -4.473  -0.950  0.00  0.00     0.062 A 
ATOM      7  F   UNL d   1       4.528  -5.442  -0.292  0.00  0.00    -0.097 F 
ATOM      8  F1  UNL d   1       3.952  -3.117   0.973  0.00  0.00    -0.096 F 
ATOM      9  I   UNL d   1       2.448  -0.473  -0.018  0.00  0.00    -0.060 I 
ATOM     10  F2  UNL d   1       1.866  -1.511  -2.989  0.00  0.00    -0.096 F 
ATOM     11  F3  UNL d   1       2.456  -3.846  -4.227  0.00  0.00    -0.097 F 
ATOM     12  F4  UNL d   1       3.785  -5.818  -2.890  0.00  0.00    -0.092 F 
ENDROOT
TORSDOF 0
ENDMDL
