MODEL 1
REMARK minimizedAffinity 11.1352262
REMARK minimizedRMSD -1
REMARK  0 active torsions:
REMARK  status: ('A' for Active; 'I' for Inactive)
ROOT
ATOM      1  C   UNL d   1       2.355  -2.970  -2.187  0.00  0.00     0.124 A 
ATOM      2  C1  UNL d   1       3.023  -2.634  -1.017  0.00  0.00     0.062 A 
ATOM      3  C2  UNL d   1       4.063  -3.433  -0.550  0.00  0.00     0.162 A 
ATOM      4  C3  UNL d   1       4.443  -4.576  -1.254  0.00  0.00    -0.034 A 
ATOM      5  C4  UNL d   1       3.766  -4.908  -2.429  0.00  0.00     0.162 A 
ATOM      6  C5  UNL d   1       2.727  -4.106  -2.891  0.00  0.00     0.062 A 
ATOM      7  F   UNL d   1       2.083  -4.433  -4.021  0.00  0.00    -0.097 F 
ATOM      8  F1  UNL d   1       4.105  -6.000  -3.130  0.00  0.00    -0.096 F 
ATOM      9  I   UNL d   1       5.997  -5.773  -0.560  0.00  0.00    -0.060 I 
ATOM     10  F2  UNL d   1       4.690  -3.084   0.583  0.00  0.00    -0.096 F 
ATOM     11  F3  UNL d   1       2.665  -1.538  -0.334  0.00  0.00    -0.097 F 
ATOM     12  F4  UNL d   1       1.354  -2.200  -2.633  0.00  0.00    -0.092 F 
ENDROOT
TORSDOF 0
ENDMDL
