MODEL 1
REMARK minimizedAffinity 20.786541
REMARK minimizedRMSD -1
REMARK  0 active torsions:
REMARK  status: ('A' for Active; 'I' for Inactive)
ROOT
ATOM      1  C   UNL d   1       1.856   1.597   2.438  0.00  0.00     0.124 A 
ATOM      2  C1  UNL d   1       1.333   1.954   3.673  0.00  0.00     0.062 A 
ATOM      3  C2  UNL d   1      -0.033   1.838   3.915  0.00  0.00     0.162 A 
ATOM      4  C3  UNL d   1      -0.886   1.361   2.920  0.00  0.00    -0.034 A 
ATOM      5  C4  UNL d   1      -0.353   1.005   1.680  0.00  0.00     0.162 A 
ATOM      6  C5  UNL d   1       1.012   1.123   1.443  0.00  0.00     0.062 A 
ATOM      7  F   UNL d   1       1.515   0.777   0.249  0.00  0.00    -0.097 F 
ATOM      8  F1  UNL d   1      -1.145   0.543   0.701  0.00  0.00    -0.096 F 
ATOM      9  I   UNL d   1      -2.929   1.186   3.279  0.00  0.00    -0.060 I 
ATOM     10  F2  UNL d   1      -0.510   2.191   5.118  0.00  0.00    -0.096 F 
ATOM     11  F3  UNL d   1       2.146   2.413   4.635  0.00  0.00    -0.097 F 
ATOM     12  F4  UNL d   1       3.170   1.711   2.207  0.00  0.00    -0.092 F 
ENDROOT
TORSDOF 0
ENDMDL
