MODEL 1
REMARK minimizedAffinity 7.33592415
REMARK minimizedRMSD -1
REMARK  0 active torsions:
REMARK  status: ('A' for Active; 'I' for Inactive)
ROOT
ATOM      1  C   UNL d   1      -3.280   2.100   3.624  0.00  0.00     0.124 A 
ATOM      2  C1  UNL d   1      -2.286   2.456   4.525  0.00  0.00     0.062 A 
ATOM      3  C2  UNL d   1      -1.509   1.474   5.133  0.00  0.00     0.162 A 
ATOM      4  C3  UNL d   1      -1.722   0.127   4.842  0.00  0.00    -0.034 A 
ATOM      5  C4  UNL d   1      -2.725  -0.223   3.935  0.00  0.00     0.162 A 
ATOM      6  C5  UNL d   1      -3.499   0.762   3.330  0.00  0.00     0.062 A 
ATOM      7  F   UNL d   1      -4.459   0.416   2.460  0.00  0.00    -0.097 F 
ATOM      8  F1  UNL d   1      -2.956  -1.509   3.632  0.00  0.00    -0.096 F 
ATOM      9  I   UNL d   1      -0.562  -1.344   5.749  0.00  0.00    -0.060 I 
ATOM     10  F2  UNL d   1      -0.555   1.847   6.000  0.00  0.00    -0.096 F 
ATOM     11  F3  UNL d   1      -2.074   3.749   4.811  0.00  0.00    -0.097 F 
ATOM     12  F4  UNL d   1      -4.027   3.047   3.041  0.00  0.00    -0.092 F 
ENDROOT
TORSDOF 0
ENDMDL
