MODEL 1
REMARK minimizedAffinity 7.89055443
REMARK minimizedRMSD -1
REMARK  0 active torsions:
REMARK  status: ('A' for Active; 'I' for Inactive)
ROOT
ATOM      1  C   UNL d   1       0.873  -2.240  -0.834  0.00  0.00     0.124 A 
ATOM      2  C1  UNL d   1      -0.245  -3.043  -1.016  0.00  0.00     0.062 A 
ATOM      3  C2  UNL d   1      -1.046  -3.383   0.070  0.00  0.00     0.162 A 
ATOM      4  C3  UNL d   1      -0.733  -2.921   1.348  0.00  0.00    -0.034 A 
ATOM      5  C4  UNL d   1       0.393  -2.115   1.524  0.00  0.00     0.162 A 
ATOM      6  C5  UNL d   1       1.191  -1.777   0.435  0.00  0.00     0.062 A 
ATOM      7  F   UNL d   1       2.270  -1.002   0.613  0.00  0.00    -0.097 F 
ATOM      8  F1  UNL d   1       0.723  -1.653   2.739  0.00  0.00    -0.096 F 
ATOM      9  I   UNL d   1      -1.929  -3.428   2.975  0.00  0.00    -0.060 I 
ATOM     10  F2  UNL d   1      -2.121  -4.160  -0.135  0.00  0.00    -0.096 F 
ATOM     11  F3  UNL d   1      -0.554  -3.492  -2.241  0.00  0.00    -0.097 F 
ATOM     12  F4  UNL d   1       1.642  -1.914  -1.880  0.00  0.00    -0.092 F 
ENDROOT
TORSDOF 0
ENDMDL
