MODEL 1
REMARK minimizedAffinity 7.25525904
REMARK minimizedRMSD -1
REMARK  0 active torsions:
REMARK  status: ('A' for Active; 'I' for Inactive)
ROOT
ATOM      1  C   UNL d   1      -1.795   0.655   4.746  0.00  0.00     0.124 A 
ATOM      2  C1  UNL d   1      -2.443   1.392   3.764  0.00  0.00     0.062 A 
ATOM      3  C2  UNL d   1      -1.727   1.902   2.685  0.00  0.00     0.162 A 
ATOM      4  C3  UNL d   1      -0.355   1.676   2.581  0.00  0.00    -0.034 A 
ATOM      5  C4  UNL d   1       0.290   0.934   3.573  0.00  0.00     0.162 A 
ATOM      6  C5  UNL d   1      -0.430   0.426   4.649  0.00  0.00     0.062 A 
ATOM      7  F   UNL d   1       0.197  -0.286   5.597  0.00  0.00    -0.097 F 
ATOM      8  F1  UNL d   1       1.609   0.698   3.504  0.00  0.00    -0.096 F 
ATOM      9  I   UNL d   1       0.720   2.437   0.969  0.00  0.00    -0.060 I 
ATOM     10  F2  UNL d   1      -2.379   2.611   1.751  0.00  0.00    -0.096 F 
ATOM     11  F3  UNL d   1      -3.762   1.614   3.856  0.00  0.00    -0.097 F 
ATOM     12  F4  UNL d   1      -2.487   0.166   5.783  0.00  0.00    -0.092 F 
ENDROOT
TORSDOF 0
ENDMDL
