MODEL 1
REMARK minimizedAffinity 21.8875923
REMARK minimizedRMSD -1
REMARK  0 active torsions:
REMARK  status: ('A' for Active; 'I' for Inactive)
ROOT
ATOM      1  C   UNL d   1      -0.237   2.442  -2.873  0.00  0.00     0.124 A 
ATOM      2  C1  UNL d   1       1.063   2.161  -2.476  0.00  0.00     0.062 A 
ATOM      3  C2  UNL d   1       1.879   3.175  -1.983  0.00  0.00     0.162 A 
ATOM      4  C3  UNL d   1       1.397   4.481  -1.884  0.00  0.00    -0.034 A 
ATOM      5  C4  UNL d   1       0.089   4.756  -2.286  0.00  0.00     0.162 A 
ATOM      6  C5  UNL d   1      -0.723   3.739  -2.778  0.00  0.00     0.062 A 
ATOM      7  F   UNL d   1      -1.978   4.012  -3.161  0.00  0.00    -0.097 F 
ATOM      8  F1  UNL d   1      -0.406   5.999  -2.204  0.00  0.00    -0.096 F 
ATOM      9  I   UNL d   1       2.614   6.000  -1.148  0.00  0.00    -0.060 I 
ATOM     10  F2  UNL d   1       3.131   2.875  -1.607  0.00  0.00    -0.096 F 
ATOM     11  F3  UNL d   1       1.535   0.909  -2.568  0.00  0.00    -0.097 F 
ATOM     12  F4  UNL d   1      -1.020   1.464  -3.347  0.00  0.00    -0.092 F 
ENDROOT
TORSDOF 0
ENDMDL
