MODEL 1
REMARK minimizedAffinity 2.5083127
REMARK minimizedRMSD -1
REMARK  0 active torsions:
REMARK  status: ('A' for Active; 'I' for Inactive)
ROOT
ATOM      1  C   UNL d   1      -3.305  -2.809   3.151  0.00  0.00     0.124 A 
ATOM      2  C1  UNL d   1      -2.109  -2.207   3.515  0.00  0.00     0.062 A 
ATOM      3  C2  UNL d   1      -1.971  -0.823   3.443  0.00  0.00     0.162 A 
ATOM      4  C3  UNL d   1      -3.033  -0.032   3.007  0.00  0.00    -0.034 A 
ATOM      5  C4  UNL d   1      -4.234  -0.645   2.643  0.00  0.00     0.162 A 
ATOM      6  C5  UNL d   1      -4.366  -2.027   2.716  0.00  0.00     0.062 A 
ATOM      7  F   UNL d   1      -5.523  -2.607   2.365  0.00  0.00    -0.097 F 
ATOM      8  F1  UNL d   1      -5.275   0.087   2.220  0.00  0.00    -0.096 F 
ATOM      9  I   UNL d   1      -2.831   2.037   2.899  0.00  0.00    -0.060 I 
ATOM     10  F2  UNL d   1      -0.803  -0.269   3.800  0.00  0.00    -0.096 F 
ATOM     11  F3  UNL d   1      -1.082  -2.959   3.935  0.00  0.00    -0.097 F 
ATOM     12  F4  UNL d   1      -3.435  -4.140   3.220  0.00  0.00    -0.092 F 
ENDROOT
TORSDOF 0
ENDMDL
