MODEL 1
REMARK minimizedAffinity 8.03952885
REMARK minimizedRMSD -1
REMARK  0 active torsions:
REMARK  status: ('A' for Active; 'I' for Inactive)
ROOT
ATOM      1  C   UNL d   1       1.294   3.755  -1.343  0.00  0.00     0.124 A 
ATOM      2  C1  UNL d   1       1.447   3.490   0.011  0.00  0.00     0.062 A 
ATOM      3  C2  UNL d   1       1.876   2.236   0.435  0.00  0.00     0.162 A 
ATOM      4  C3  UNL d   1       2.156   1.236  -0.496  0.00  0.00    -0.034 A 
ATOM      5  C4  UNL d   1       1.998   1.509  -1.856  0.00  0.00     0.162 A 
ATOM      6  C5  UNL d   1       1.570   2.764  -2.275  0.00  0.00     0.062 A 
ATOM      7  F   UNL d   1       1.422   3.017  -3.583  0.00  0.00    -0.097 F 
ATOM      8  F1  UNL d   1       2.259   0.570  -2.778  0.00  0.00    -0.096 F 
ATOM      9  I   UNL d   1       2.797  -0.641   0.134  0.00  0.00    -0.060 I 
ATOM     10  F2  UNL d   1       2.015   2.009   1.750  0.00  0.00    -0.096 F 
ATOM     11  F3  UNL d   1       1.181   4.446   0.913  0.00  0.00    -0.097 F 
ATOM     12  F4  UNL d   1       0.880   4.962  -1.749  0.00  0.00    -0.092 F 
ENDROOT
TORSDOF 0
ENDMDL
