MODEL 1
REMARK minimizedAffinity 11.6716337
REMARK minimizedRMSD -1
REMARK  0 active torsions:
REMARK  status: ('A' for Active; 'I' for Inactive)
ROOT
ATOM      1  C   UNL d   1       1.349   2.835  -0.152  0.00  0.00     0.124 A 
ATOM      2  C1  UNL d   1       1.430   1.924  -1.195  0.00  0.00     0.062 A 
ATOM      3  C2  UNL d   1       2.166   0.752  -1.045  0.00  0.00     0.162 A 
ATOM      4  C3  UNL d   1       2.825   0.483   0.154  0.00  0.00    -0.034 A 
ATOM      5  C4  UNL d   1       2.739   1.405   1.199  0.00  0.00     0.162 A 
ATOM      6  C5  UNL d   1       2.003   2.575   1.044  0.00  0.00     0.062 A 
ATOM      7  F   UNL d   1       1.925   3.454   2.054  0.00  0.00    -0.097 F 
ATOM      8  F1  UNL d   1       3.360   1.178   2.366  0.00  0.00    -0.096 F 
ATOM      9  I   UNL d   1       3.926  -1.268   0.383  0.00  0.00    -0.060 I 
ATOM     10  F2  UNL d   1       2.228  -0.111  -2.071  0.00  0.00    -0.096 F 
ATOM     11  F3  UNL d   1       0.800   2.173  -2.352  0.00  0.00    -0.097 F 
ATOM     12  F4  UNL d   1       0.641   3.962  -0.299  0.00  0.00    -0.092 F 
ENDROOT
TORSDOF 0
ENDMDL
