MODEL 1
REMARK minimizedAffinity 7.0679493
REMARK minimizedRMSD -1
REMARK  0 active torsions:
REMARK  status: ('A' for Active; 'I' for Inactive)
ROOT
ATOM      1  C   UNL d   1       1.880   3.765  -1.132  0.00  0.00     0.124 A 
ATOM      2  C1  UNL d   1       1.108   4.878  -1.437  0.00  0.00     0.062 A 
ATOM      3  C2  UNL d   1       0.201   4.833  -2.492  0.00  0.00     0.162 A 
ATOM      4  C3  UNL d   1       0.060   3.670  -3.250  0.00  0.00    -0.034 A 
ATOM      5  C4  UNL d   1       0.841   2.556  -2.938  0.00  0.00     0.162 A 
ATOM      6  C5  UNL d   1       1.746   2.606  -1.882  0.00  0.00     0.062 A 
ATOM      7  F   UNL d   1       2.490   1.530  -1.589  0.00  0.00    -0.097 F 
ATOM      8  F1  UNL d   1       0.731   1.422  -3.646  0.00  0.00    -0.096 F 
ATOM      9  I   UNL d   1      -1.295   3.599  -4.828  0.00  0.00    -0.060 I 
ATOM     10  F2  UNL d   1      -0.532   5.923  -2.764  0.00  0.00    -0.096 F 
ATOM     11  F3  UNL d   1       1.236   6.000  -0.714  0.00  0.00    -0.097 F 
ATOM     12  F4  UNL d   1       2.752   3.812  -0.117  0.00  0.00    -0.092 F 
ENDROOT
TORSDOF 0
ENDMDL
