MODEL 1
REMARK minimizedAffinity 20.0750542
REMARK minimizedRMSD -1
REMARK  0 active torsions:
REMARK  status: ('A' for Active; 'I' for Inactive)
ROOT
ATOM      1  C   UNL d   1      -1.466  -2.705   3.926  0.00  0.00     0.124 A 
ATOM      2  C1  UNL d   1      -1.707  -3.671   2.959  0.00  0.00     0.062 A 
ATOM      3  C2  UNL d   1      -2.999  -4.145   2.751  0.00  0.00     0.162 A 
ATOM      4  C3  UNL d   1      -4.060  -3.653   3.511  0.00  0.00    -0.034 A 
ATOM      5  C4  UNL d   1      -3.809  -2.682   4.483  0.00  0.00     0.162 A 
ATOM      6  C5  UNL d   1      -2.516  -2.212   4.686  0.00  0.00     0.062 A 
ATOM      7  F   UNL d   1      -2.284  -1.278   5.621  0.00  0.00    -0.097 F 
ATOM      8  F1  UNL d   1      -4.806  -2.188   5.231  0.00  0.00    -0.096 F 
ATOM      9  I   UNL d   1      -5.994  -4.360   3.204  0.00  0.00    -0.060 I 
ATOM     10  F2  UNL d   1      -3.204  -5.079   1.810  0.00  0.00    -0.096 F 
ATOM     11  F3  UNL d   1      -0.694  -4.150   2.223  0.00  0.00    -0.097 F 
ATOM     12  F4  UNL d   1      -0.221  -2.251   4.124  0.00  0.00    -0.092 F 
ENDROOT
TORSDOF 0
ENDMDL
