MODEL 1
REMARK minimizedAffinity -1.52603364
REMARK minimizedRMSD -1
REMARK  0 active torsions:
REMARK  status: ('A' for Active; 'I' for Inactive)
ROOT
ATOM      1  O1  BZF d   1      -2.630   0.775   0.592  0.00  0.00    -0.204 OA
ATOM      2  C2  BZF d   1      -3.072   0.965   1.887  0.00  0.00     0.174 A 
ATOM      3  C3  BZF d   1      -2.062   0.804   2.766  0.00  0.00    -0.012 A 
ATOM      4  C3A BZF d   1      -0.897   0.585   1.964  0.00  0.00    -0.107 A 
ATOM      5  C4  BZF d   1       0.419   0.374   2.259  0.00  0.00     0.055 A 
ATOM      6  C5  BZF d   1       1.291   0.122   1.248  0.00  0.00    -0.016 A 
ATOM      7  C6  BZF d   1       0.880   0.068  -0.068  0.00  0.00     0.022 A 
ATOM      8  C7  BZF d   1      -0.415   0.275  -0.410  0.00  0.00     0.029 A 
ATOM      9  C7A BZF d   1      -1.292   0.563   0.607  0.00  0.00     0.058 A 
ENDROOT
TORSDOF 0
ENDMDL
