MODEL 1
REMARK minimizedAffinity -2.50966096
REMARK minimizedRMSD -1
REMARK  0 active torsions:
REMARK  status: ('A' for Active; 'I' for Inactive)
ROOT
ATOM      1  O1  BZF d   1      -2.277   1.023   0.234  0.00  0.00    -0.204 OA
ATOM      2  C2  BZF d   1      -2.853   1.026   1.490  0.00  0.00     0.174 A 
ATOM      3  C3  BZF d   1      -1.944   0.709   2.434  0.00  0.00    -0.012 A 
ATOM      4  C3A BZF d   1      -0.702   0.584   1.734  0.00  0.00    -0.107 A 
ATOM      5  C4  BZF d   1       0.573   0.299   2.129  0.00  0.00     0.055 A 
ATOM      6  C5  BZF d   1       1.545   0.180   1.186  0.00  0.00    -0.016 A 
ATOM      7  C6  BZF d   1       1.276   0.336  -0.158  0.00  0.00     0.022 A 
ATOM      8  C7  BZF d   1       0.027   0.625  -0.597  0.00  0.00     0.029 A 
ATOM      9  C7A BZF d   1      -0.951   0.778   0.355  0.00  0.00     0.058 A 
ENDROOT
TORSDOF 0
ENDMDL
