MODEL 1
REMARK minimizedAffinity -5.45274258
REMARK minimizedRMSD -1
REMARK  0 active torsions:
REMARK  status: ('A' for Active; 'I' for Inactive)
ROOT
ATOM      1  O1  BZF d   1      -0.874  -1.132  -0.455  0.00  0.00    -0.204 OA
ATOM      2  C2  BZF d   1      -1.268   0.177  -0.259  0.00  0.00     0.174 A 
ATOM      3  C3  BZF d   1      -0.618   1.004  -1.103  0.00  0.00    -0.012 A 
ATOM      4  C3A BZF d   1       0.168   0.148  -1.937  0.00  0.00    -0.107 A 
ATOM      5  C4  BZF d   1       1.020   0.378  -2.980  0.00  0.00     0.055 A 
ATOM      6  C5  BZF d   1       1.686  -0.670  -3.532  0.00  0.00    -0.016 A 
ATOM      7  C6  BZF d   1       1.528  -1.958  -3.063  0.00  0.00     0.022 A 
ATOM      8  C7  BZF d   1       0.691  -2.236  -2.034  0.00  0.00     0.029 A 
ATOM      9  C7A BZF d   1      -0.009  -1.183  -1.496  0.00  0.00     0.058 A 
ENDROOT
TORSDOF 0
ENDMDL
