MODEL 1
REMARK minimizedAffinity -0.570660114
REMARK minimizedRMSD -1
REMARK  0 active torsions:
REMARK  status: ('A' for Active; 'I' for Inactive)
ROOT
ATOM      1  O1  BZF d   1      -0.492  -0.783  -0.613  0.00  0.00    -0.204 OA
ATOM      2  C2  BZF d   1      -0.083   0.437  -0.110  0.00  0.00     0.174 A 
ATOM      3  C3  BZF d   1       1.039   0.858  -0.728  0.00  0.00    -0.012 A 
ATOM      4  C3A BZF d   1       1.300  -0.118  -1.741  0.00  0.00    -0.107 A 
ATOM      5  C4  BZF d   1       2.269  -0.246  -2.694  0.00  0.00     0.055 A 
ATOM      6  C5  BZF d   1       2.281  -1.355  -3.480  0.00  0.00    -0.016 A 
ATOM      7  C6  BZF d   1       1.344  -2.357  -3.335  0.00  0.00     0.022 A 
ATOM      8  C7  BZF d   1       0.361  -2.273  -2.406  0.00  0.00     0.029 A 
ATOM      9  C7A BZF d   1       0.326  -1.138  -1.634  0.00  0.00     0.058 A 
ENDROOT
TORSDOF 0
ENDMDL
