MODEL 1
REMARK minimizedAffinity 1.73380923
REMARK minimizedRMSD -1
REMARK  0 active torsions:
REMARK  status: ('A' for Active; 'I' for Inactive)
ROOT
ATOM      1  O1  BZF d   1      -2.267   0.865   0.658  0.00  0.00    -0.204 OA
ATOM      2  C2  BZF d   1      -2.278   0.852  -0.724  0.00  0.00     0.174 A 
ATOM      3  C3  BZF d   1      -1.030   0.697  -1.211  0.00  0.00    -0.012 A 
ATOM      4  C3A BZF d   1      -0.197   0.516  -0.062  0.00  0.00    -0.107 A 
ATOM      5  C4  BZF d   1       1.141   0.299   0.103  0.00  0.00     0.055 A 
ATOM      6  C5  BZF d   1       1.650   0.239   1.361  0.00  0.00    -0.016 A 
ATOM      7  C6  BZF d   1       0.853   0.397   2.476  0.00  0.00     0.022 A 
ATOM      8  C7  BZF d   1      -0.481   0.609   2.363  0.00  0.00     0.029 A 
ATOM      9  C7A BZF d   1      -1.004   0.637   1.093  0.00  0.00     0.058 A 
ENDROOT
TORSDOF 0
ENDMDL
