MODEL 1
REMARK minimizedAffinity 7.8388443
REMARK minimizedRMSD -1
REMARK  0 active torsions:
REMARK  status: ('A' for Active; 'I' for Inactive)
ROOT
ATOM      1  O1  BZF d   1       0.538  -1.189   2.823  0.00  0.00    -0.204 OA
ATOM      2  C2  BZF d   1       0.724  -2.165   1.862  0.00  0.00     0.174 A 
ATOM      3  C3  BZF d   1       1.104  -1.616   0.691  0.00  0.00    -0.012 A 
ATOM      4  C3A BZF d   1       1.249  -0.219   0.959  0.00  0.00    -0.107 A 
ATOM      5  C4  BZF d   1       1.621   0.851   0.195  0.00  0.00     0.055 A 
ATOM      6  C5  BZF d   1       1.590   2.095   0.740  0.00  0.00    -0.016 A 
ATOM      7  C6  BZF d   1       1.188   2.307   2.043  0.00  0.00     0.022 A 
ATOM      8  C7  BZF d   1       0.815   1.277   2.841  0.00  0.00     0.029 A 
ATOM      9  C7A BZF d   1       0.877   0.015   2.303  0.00  0.00     0.058 A 
ENDROOT
TORSDOF 0
ENDMDL
