MODEL 1
REMARK minimizedAffinity -0.188603163
REMARK minimizedRMSD -1
REMARK  0 active torsions:
REMARK  status: ('A' for Active; 'I' for Inactive)
ROOT
ATOM      1  O1  BZF d   1      -1.116  -0.906  -1.223  0.00  0.00    -0.204 OA
ATOM      2  C2  BZF d   1      -0.838   0.136  -0.361  0.00  0.00     0.174 A 
ATOM      3  C3  BZF d   1       0.402   0.619  -0.578  0.00  0.00    -0.012 A 
ATOM      4  C3A BZF d   1       0.898  -0.110  -1.705  0.00  0.00    -0.107 A 
ATOM      5  C4  BZF d   1       2.069  -0.073  -2.407  0.00  0.00     0.055 A 
ATOM      6  C5  BZF d   1       2.267  -0.969  -3.409  0.00  0.00    -0.016 A 
ATOM      7  C6  BZF d   1       1.320  -1.917  -3.733  0.00  0.00     0.022 A 
ATOM      8  C7  BZF d   1       0.141  -1.990  -3.069  0.00  0.00     0.029 A 
ATOM      9  C7A BZF d   1      -0.077  -1.065  -2.077  0.00  0.00     0.058 A 
ENDROOT
TORSDOF 0
ENDMDL
