MODEL 1
REMARK minimizedAffinity -2.72116327
REMARK minimizedRMSD -1
REMARK  0 active torsions:
REMARK  status: ('A' for Active; 'I' for Inactive)
ROOT
ATOM      1  O1  BZF d   1      -0.671  -1.301  -0.755  0.00  0.00    -0.204 OA
ATOM      2  C2  BZF d   1      -0.457  -0.145  -0.030  0.00  0.00     0.174 A 
ATOM      3  C3  BZF d   1       0.519   0.597  -0.591  0.00  0.00    -0.012 A 
ATOM      4  C3A BZF d   1       0.878  -0.097  -1.790  0.00  0.00    -0.107 A 
ATOM      5  C4  BZF d   1       1.780   0.152  -2.785  0.00  0.00     0.055 A 
ATOM      6  C5  BZF d   1       1.936  -0.762  -3.778  0.00  0.00    -0.016 A 
ATOM      7  C6  BZF d   1       1.213  -1.936  -3.805  0.00  0.00     0.022 A 
ATOM      8  C7  BZF d   1       0.303  -2.225  -2.843  0.00  0.00     0.029 A 
ATOM      9  C7A BZF d   1       0.119  -1.288  -1.855  0.00  0.00     0.058 A 
ENDROOT
TORSDOF 0
ENDMDL
