MODEL 1
REMARK minimizedAffinity -1.4221952
REMARK minimizedRMSD -1
REMARK  0 active torsions:
REMARK  status: ('A' for Active; 'I' for Inactive)
ROOT
ATOM      1  O1  BZF d   1       1.059  -0.476  -1.454  0.00  0.00    -0.204 OA
ATOM      2  C2  BZF d   1       0.508   0.607  -2.112  0.00  0.00     0.174 A 
ATOM      3  C3  BZF d   1      -0.178   1.390  -1.255  0.00  0.00    -0.012 A 
ATOM      4  C3A BZF d   1       0.028   0.806   0.035  0.00  0.00    -0.107 A 
ATOM      5  C4  BZF d   1      -0.386   1.138   1.293  0.00  0.00     0.055 A 
ATOM      6  C5  BZF d   1      -0.071   0.319   2.330  0.00  0.00    -0.016 A 
ATOM      7  C6  BZF d   1       0.651  -0.842   2.145  0.00  0.00     0.022 A 
ATOM      8  C7  BZF d   1       1.089  -1.210   0.917  0.00  0.00     0.029 A 
ATOM      9  C7A BZF d   1       0.800  -0.367  -0.129  0.00  0.00     0.058 A 
ENDROOT
TORSDOF 0
ENDMDL
