MODEL 1
REMARK minimizedAffinity -2.56506944
REMARK minimizedRMSD -1
REMARK  0 active torsions:
REMARK  status: ('A' for Active; 'I' for Inactive)
ROOT
ATOM      1  O1  BZF d   1      -1.702   0.869  -0.236  0.00  0.00    -0.204 OA
ATOM      2  C2  BZF d   1      -0.989   0.666  -1.401  0.00  0.00     0.174 A 
ATOM      3  C3  BZF d   1       0.299   0.374  -1.129  0.00  0.00    -0.012 A 
ATOM      4  C3A BZF d   1       0.376   0.306   0.298  0.00  0.00    -0.107 A 
ATOM      5  C4  BZF d   1       1.390   0.037   1.173  0.00  0.00     0.055 A 
ATOM      6  C5  BZF d   1       1.151   0.123   2.508  0.00  0.00    -0.016 A 
ATOM      7  C6  BZF d   1      -0.086   0.479   3.003  0.00  0.00     0.022 A 
ATOM      8  C7  BZF d   1      -1.124   0.750   2.175  0.00  0.00     0.029 A 
ATOM      9  C7A BZF d   1      -0.895   0.632   0.825  0.00  0.00     0.058 A 
ENDROOT
TORSDOF 0
ENDMDL
