MODEL 1
REMARK minimizedAffinity -2.28328156
REMARK minimizedRMSD -1
REMARK  0 active torsions:
REMARK  status: ('A' for Active; 'I' for Inactive)
ROOT
ATOM      1  O1  BZF d   1      -0.775  -2.311  -2.903  0.00  0.00    -0.204 OA
ATOM      2  C2  BZF d   1       0.534  -2.591  -3.244  0.00  0.00     0.174 A 
ATOM      3  C3  BZF d   1       1.378  -1.717  -2.660  0.00  0.00    -0.012 A 
ATOM      4  C3A BZF d   1       0.552  -0.892  -1.833  0.00  0.00    -0.107 A 
ATOM      5  C4  BZF d   1       0.811   0.151  -0.990  0.00  0.00     0.055 A 
ATOM      6  C5  BZF d   1      -0.227   0.788  -0.388  0.00  0.00    -0.016 A 
ATOM      7  C6  BZF d   1      -1.536   0.412  -0.610  0.00  0.00     0.022 A 
ATOM      8  C7  BZF d   1      -1.843  -0.619  -1.434  0.00  0.00     0.029 A 
ATOM      9  C7A BZF d   1      -0.793  -1.286  -2.018  0.00  0.00     0.058 A 
ENDROOT
TORSDOF 0
ENDMDL
