MODEL 1
REMARK minimizedAffinity -4.63664961
REMARK minimizedRMSD -1
REMARK  0 active torsions:
REMARK  status: ('A' for Active; 'I' for Inactive)
ROOT
ATOM      1  O1  BZF d   1      -2.411   0.289   2.595  0.00  0.00    -0.204 OA
ATOM      2  C2  BZF d   1      -1.530   0.079   3.638  0.00  0.00     0.174 A 
ATOM      3  C3  BZF d   1      -0.257   0.058   3.192  0.00  0.00    -0.012 A 
ATOM      4  C3A BZF d   1      -0.343   0.359   1.796  0.00  0.00    -0.107 A 
ATOM      5  C4  BZF d   1       0.588   0.498   0.806  0.00  0.00     0.055 A 
ATOM      6  C5  BZF d   1       0.170   0.722  -0.467  0.00  0.00    -0.016 A 
ATOM      7  C6  BZF d   1      -1.169   0.807  -0.787  0.00  0.00     0.022 A 
ATOM      8  C7  BZF d   1      -2.129   0.681   0.161  0.00  0.00     0.029 A 
ATOM      9  C7A BZF d   1      -1.709   0.488   1.454  0.00  0.00     0.058 A 
ENDROOT
TORSDOF 0
ENDMDL
