MODEL 1
REMARK minimizedAffinity -5.49924564
REMARK minimizedRMSD -1
REMARK  0 active torsions:
REMARK  status: ('A' for Active; 'I' for Inactive)
ROOT
ATOM      1  O1  BZF d   1      -0.245   0.835  -0.908  0.00  0.00    -0.204 OA
ATOM      2  C2  BZF d   1       1.068   0.623  -0.536  0.00  0.00     0.174 A 
ATOM      3  C3  BZF d   1       1.152   0.321   0.776  0.00  0.00    -0.012 A 
ATOM      4  C3A BZF d   1      -0.202   0.255   1.233  0.00  0.00    -0.107 A 
ATOM      5  C4  BZF d   1      -0.772  -0.020   2.444  0.00  0.00     0.055 A 
ATOM      6  C5  BZF d   1      -2.121   0.071   2.575  0.00  0.00    -0.016 A 
ATOM      7  C6  BZF d   1      -2.930   0.438   1.519  0.00  0.00     0.022 A 
ATOM      8  C7  BZF d   1      -2.411   0.716   0.298  0.00  0.00     0.029 A 
ATOM      9  C7A BZF d   1      -1.051   0.593   0.154  0.00  0.00     0.058 A 
ENDROOT
TORSDOF 0
ENDMDL
