MODEL 1
REMARK minimizedAffinity 3.26772904
REMARK minimizedRMSD -1
REMARK  0 active torsions:
REMARK  status: ('A' for Active; 'I' for Inactive)
ROOT
ATOM      1  O1  BZF d   1      -2.127   0.723   0.989  0.00  0.00    -0.204 OA
ATOM      2  C2  BZF d   1      -2.424   0.718  -0.360  0.00  0.00     0.174 A 
ATOM      3  C3  BZF d   1      -1.305   0.565  -1.096  0.00  0.00    -0.012 A 
ATOM      4  C3A BZF d   1      -0.252   0.375  -0.146  0.00  0.00    -0.107 A 
ATOM      5  C4  BZF d   1       1.090   0.155  -0.264  0.00  0.00     0.055 A 
ATOM      6  C5  BZF d   1       1.849   0.086   0.861  0.00  0.00    -0.016 A 
ATOM      7  C6  BZF d   1       1.301   0.238   2.118  0.00  0.00     0.022 A 
ATOM      8  C7  BZF d   1      -0.027   0.453   2.285  0.00  0.00     0.029 A 
ATOM      9  C7A BZF d   1      -0.802   0.490   1.152  0.00  0.00     0.058 A 
ENDROOT
TORSDOF 0
ENDMDL
