MODEL 1
REMARK minimizedAffinity -1.20252478
REMARK minimizedRMSD -1
REMARK  0 active torsions:
REMARK  status: ('A' for Active; 'I' for Inactive)
ROOT
ATOM      1  O1  BZF d   1       0.610   0.594   3.108  0.00  0.00    -0.204 OA
ATOM      2  C2  BZF d   1       1.503   0.428   2.067  0.00  0.00     0.174 A 
ATOM      3  C3  BZF d   1       0.907  -0.171   1.017  0.00  0.00    -0.012 A 
ATOM      4  C3A BZF d   1      -0.467  -0.311   1.393  0.00  0.00    -0.107 A 
ATOM      5  C4  BZF d   1      -1.566  -0.819   0.762  0.00  0.00     0.055 A 
ATOM      6  C5  BZF d   1      -2.747  -0.873   1.433  0.00  0.00    -0.016 A 
ATOM      7  C6  BZF d   1      -2.863  -0.433   2.735  0.00  0.00     0.022 A 
ATOM      8  C7  BZF d   1      -1.801   0.084   3.400  0.00  0.00     0.029 A 
ATOM      9  C7A BZF d   1      -0.615   0.170   2.714  0.00  0.00     0.058 A 
ENDROOT
TORSDOF 0
ENDMDL
