MODEL 1
REMARK minimizedAffinity -3.98807311
REMARK minimizedRMSD -1
REMARK  0 active torsions:
REMARK  status: ('A' for Active; 'I' for Inactive)
ROOT
ATOM      1  O1  BZF d   1       0.875  -0.183   3.162  0.00  0.00    -0.204 OA
ATOM      2  C2  BZF d   1       1.869   0.198   2.281  0.00  0.00     0.174 A 
ATOM      3  C3  BZF d   1       1.381   0.316   1.030  0.00  0.00    -0.012 A 
ATOM      4  C3A BZF d   1      -0.025   0.078   1.151  0.00  0.00    -0.107 A 
ATOM      5  C4  BZF d   1      -1.057   0.070   0.256  0.00  0.00     0.055 A 
ATOM      6  C5  BZF d   1      -2.300  -0.272   0.684  0.00  0.00    -0.016 A 
ATOM      7  C6  BZF d   1      -2.547  -0.616   1.997  0.00  0.00     0.022 A 
ATOM      8  C7  BZF d   1      -1.556  -0.619   2.922  0.00  0.00     0.029 A 
ATOM      9  C7A BZF d   1      -0.305  -0.242   2.500  0.00  0.00     0.058 A 
ENDROOT
TORSDOF 0
ENDMDL
