MODEL 1
REMARK minimizedAffinity -5.73185682
REMARK minimizedRMSD -1
REMARK  0 active torsions:
REMARK  status: ('A' for Active; 'I' for Inactive)
ROOT
ATOM      1  O1  BZF d   1      -0.650  -0.201  -0.480  0.00  0.00    -0.204 OA
ATOM      2  C2  BZF d   1       0.725  -0.294  -0.377  0.00  0.00     0.174 A 
ATOM      3  C3  BZF d   1       1.106  -0.330   0.917  0.00  0.00    -0.012 A 
ATOM      4  C3A BZF d   1      -0.112  -0.348   1.667  0.00  0.00    -0.107 A 
ATOM      5  C4  BZF d   1      -0.391  -0.399   3.003  0.00  0.00     0.055 A 
ATOM      6  C5  BZF d   1      -1.686  -0.328   3.411  0.00  0.00    -0.016 A 
ATOM      7  C6  BZF d   1      -2.724  -0.200   2.512  0.00  0.00     0.022 A 
ATOM      8  C7  BZF d   1      -2.497  -0.151   1.177  0.00  0.00     0.029 A 
ATOM      9  C7A BZF d   1      -1.193  -0.256   0.760  0.00  0.00     0.058 A 
ENDROOT
TORSDOF 0
ENDMDL
