MODEL 1
REMARK minimizedAffinity -1.99393523
REMARK minimizedRMSD -1
REMARK  0 active torsions:
REMARK  status: ('A' for Active; 'I' for Inactive)
ROOT
ATOM      1  O1  BZF d   1       0.312  -1.204  -0.490  0.00  0.00    -0.204 OA
ATOM      2  C2  BZF d   1       1.644  -1.431  -0.203  0.00  0.00     0.174 A 
ATOM      3  C3  BZF d   1       1.998  -0.816   0.944  0.00  0.00    -0.012 A 
ATOM      4  C3A BZF d   1       0.789  -0.240   1.450  0.00  0.00    -0.107 A 
ATOM      5  C4  BZF d   1       0.492   0.485   2.569  0.00  0.00     0.055 A 
ATOM      6  C5  BZF d   1      -0.771   0.960   2.731  0.00  0.00    -0.016 A 
ATOM      7  C6  BZF d   1      -1.758   0.733   1.794  0.00  0.00     0.022 A 
ATOM      8  C7  BZF d   1      -1.512   0.015   0.671  0.00  0.00     0.029 A 
ATOM      9  C7A BZF d   1      -0.245  -0.494   0.520  0.00  0.00     0.058 A 
ENDROOT
TORSDOF 0
ENDMDL
