MODEL 1
REMARK minimizedAffinity -1.98035371
REMARK minimizedRMSD -1
REMARK  0 active torsions:
REMARK  status: ('A' for Active; 'I' for Inactive)
ROOT
ATOM      1  N1  IND d   1       1.777  -1.188   1.396  0.00  0.00    -0.196 N 
ATOM      2  C2  IND d   1       2.709  -0.190   1.463  0.00  0.00     0.054 A 
ATOM      3  C3  IND d   1       2.233   0.938   0.890  0.00  0.00    -0.031 A 
ATOM      4  C4  IND d   1      -0.084   1.401  -0.132  0.00  0.00     0.051 A 
ATOM      5  C5  IND d   1      -1.261   0.787  -0.455  0.00  0.00    -0.031 A 
ATOM      6  C6  IND d   1      -1.491  -0.544  -0.170  0.00  0.00     0.015 A 
ATOM      7  C7  IND d   1      -0.553  -1.309   0.463  0.00  0.00    -0.016 A 
ATOM      8  C8  IND d   1       0.646  -0.690   0.786  0.00  0.00    -0.047 A 
ATOM      9  C9  IND d   1       0.902   0.648   0.461  0.00  0.00    -0.096 A 
ATOM     10  HN1 IND d   1       1.880  -1.991   1.685  0.00  0.00     0.298 HD
ENDROOT
TORSDOF 0
ENDMDL
