MODEL 1
REMARK minimizedAffinity 7.2317152
REMARK minimizedRMSD -1
REMARK  0 active torsions:
REMARK  status: ('A' for Active; 'I' for Inactive)
ROOT
ATOM      1  N1  IND d   1       0.427   2.002   2.598  0.00  0.00    -0.196 N 
ATOM      2  C2  IND d   1       1.437   1.898   3.514  0.00  0.00     0.054 A 
ATOM      3  C3  IND d   1       2.581   1.506   2.910  0.00  0.00    -0.031 A 
ATOM      4  C4  IND d   1       3.050   1.079   0.415  0.00  0.00     0.051 A 
ATOM      5  C5  IND d   1       2.430   1.010  -0.801  0.00  0.00    -0.031 A 
ATOM      6  C6  IND d   1       1.084   1.277  -0.950  0.00  0.00     0.015 A 
ATOM      7  C7  IND d   1       0.307   1.635   0.115  0.00  0.00    -0.016 A 
ATOM      8  C8  IND d   1       0.932   1.698   1.353  0.00  0.00    -0.047 A 
ATOM      9  C9  IND d   1       2.288   1.387   1.517  0.00  0.00    -0.096 A 
ATOM     10  HN1 IND d   1      -0.386   2.220   2.771  0.00  0.00     0.298 HD
ENDROOT
TORSDOF 0
ENDMDL
