MODEL 1
REMARK minimizedAffinity 4.47167158
REMARK minimizedRMSD -1
REMARK  0 active torsions:
REMARK  status: ('A' for Active; 'I' for Inactive)
ROOT
ATOM      1  N1  IND d   1       0.874   4.730  -0.188  0.00  0.00    -0.196 N 
ATOM      2  C2  IND d   1      -0.147   5.032   0.669  0.00  0.00     0.054 A 
ATOM      3  C3  IND d   1      -0.669   3.901   1.195  0.00  0.00    -0.031 A 
ATOM      4  C4  IND d   1       0.064   1.455   0.868  0.00  0.00     0.051 A 
ATOM      5  C5  IND d   1       0.928   0.676   0.151  0.00  0.00    -0.031 A 
ATOM      6  C6  IND d   1       1.838   1.220  -0.732  0.00  0.00     0.015 A 
ATOM      7  C7  IND d   1       1.926   2.570  -0.923  0.00  0.00    -0.016 A 
ATOM      8  C8  IND d   1       1.046   3.363  -0.201  0.00  0.00    -0.047 A 
ATOM      9  C9  IND d   1       0.092   2.814   0.665  0.00  0.00    -0.096 A 
ATOM     10  HN1 IND d   1       1.332   5.298  -0.643  0.00  0.00     0.298 HD
ENDROOT
TORSDOF 0
ENDMDL
