MODEL 1
REMARK minimizedAffinity -5.56338978
REMARK minimizedRMSD -1
REMARK  0 active torsions:
REMARK  status: ('A' for Active; 'I' for Inactive)
ROOT
ATOM      1  N1  IND d   1      -0.580  -1.807   1.736  0.00  0.00    -0.196 N 
ATOM      2  C2  IND d   1      -1.456  -0.981   1.089  0.00  0.00     0.054 A 
ATOM      3  C3  IND d   1      -0.785  -0.024   0.409  0.00  0.00    -0.031 A 
ATOM      4  C4  IND d   1       1.752   0.315   0.138  0.00  0.00     0.051 A 
ATOM      5  C5  IND d   1       2.956  -0.166   0.572  0.00  0.00    -0.031 A 
ATOM      6  C6  IND d   1       3.044  -1.242   1.432  0.00  0.00     0.015 A 
ATOM      7  C7  IND d   1       1.927  -1.887   1.882  0.00  0.00    -0.016 A 
ATOM      8  C8  IND d   1       0.703  -1.397   1.449  0.00  0.00    -0.047 A 
ATOM      9  C9  IND d   1       0.606  -0.279   0.611  0.00  0.00    -0.096 A 
ATOM     10  HN1 IND d   1      -0.795  -2.471   2.239  0.00  0.00     0.298 HD
ENDROOT
TORSDOF 0
ENDMDL
