MODEL 1
REMARK minimizedAffinity -2.69295788
REMARK minimizedRMSD -1
REMARK  0 active torsions:
REMARK  status: ('A' for Active; 'I' for Inactive)
ROOT
ATOM      1  N1  IND d   1      -0.645  -1.275  -0.581  0.00  0.00    -0.196 N 
ATOM      2  C2  IND d   1      -1.801  -0.694  -1.023  0.00  0.00     0.054 A 
ATOM      3  C3  IND d   1      -1.751   0.646  -0.848  0.00  0.00    -0.031 A 
ATOM      4  C4  IND d   1       0.167   2.108   0.050  0.00  0.00     0.051 A 
ATOM      5  C5  IND d   1       1.411   2.027   0.613  0.00  0.00    -0.031 A 
ATOM      6  C6  IND d   1       2.046   0.818   0.807  0.00  0.00     0.015 A 
ATOM      7  C7  IND d   1       1.464  -0.361   0.434  0.00  0.00    -0.016 A 
ATOM      8  C8  IND d   1       0.199  -0.283  -0.130  0.00  0.00    -0.047 A 
ATOM      9  C9  IND d   1      -0.469   0.938  -0.291  0.00  0.00    -0.096 A 
ATOM     10  HN1 IND d   1      -0.474  -2.117  -0.584  0.00  0.00     0.298 HD
ENDROOT
TORSDOF 0
ENDMDL
