MODEL 1
REMARK minimizedAffinity -5.5650506
REMARK minimizedRMSD -1
REMARK  0 active torsions:
REMARK  status: ('A' for Active; 'I' for Inactive)
ROOT
ATOM      1  N1  IND d   1      -2.597   0.120  -2.221  0.00  0.00    -0.196 N 
ATOM      2  C2  IND d   1      -2.488  -0.268  -3.528  0.00  0.00     0.054 A 
ATOM      3  C3  IND d   1      -1.206  -0.584  -3.819  0.00  0.00    -0.031 A 
ATOM      4  C4  IND d   1       0.856  -0.637  -2.279  0.00  0.00     0.051 A 
ATOM      5  C5  IND d   1       1.261  -0.331  -1.010  0.00  0.00    -0.031 A 
ATOM      6  C6  IND d   1       0.383   0.148  -0.060  0.00  0.00     0.015 A 
ATOM      7  C7  IND d   1      -0.942   0.329  -0.342  0.00  0.00    -0.016 A 
ATOM      8  C8  IND d   1      -1.355   0.026  -1.631  0.00  0.00    -0.047 A 
ATOM      9  C9  IND d   1      -0.460  -0.420  -2.612  0.00  0.00    -0.096 A 
ATOM     10  HN1 IND d   1      -3.319   0.379  -1.833  0.00  0.00     0.298 HD
ENDROOT
TORSDOF 0
ENDMDL
