MODEL 1
REMARK minimizedAffinity -5.39670038
REMARK minimizedRMSD -1
REMARK  0 active torsions:
REMARK  status: ('A' for Active; 'I' for Inactive)
ROOT
ATOM      1  N1  IND d   1      -0.590  -0.397  -1.051  0.00  0.00    -0.196 N 
ATOM      2  C2  IND d   1      -1.204   0.730  -0.580  0.00  0.00     0.054 A 
ATOM      3  C3  IND d   1      -0.357   1.434   0.204  0.00  0.00    -0.031 A 
ATOM      4  C4  IND d   1       2.112   0.975   0.770  0.00  0.00     0.051 A 
ATOM      5  C5  IND d   1       3.101   0.047   0.602  0.00  0.00    -0.031 A 
ATOM      6  C6  IND d   1       2.907  -1.099  -0.142  0.00  0.00     0.015 A 
ATOM      7  C7  IND d   1       1.715  -1.354  -0.759  0.00  0.00    -0.016 A 
ATOM      8  C8  IND d   1       0.707  -0.417  -0.585  0.00  0.00    -0.047 A 
ATOM      9  C9  IND d   1       0.884   0.727   0.204  0.00  0.00    -0.096 A 
ATOM     10  HN1 IND d   1      -0.953  -0.993  -1.553  0.00  0.00     0.298 HD
ENDROOT
TORSDOF 0
ENDMDL
