MODEL 1
REMARK minimizedAffinity -3.94885468
REMARK minimizedRMSD -1
REMARK  1 active torsions:
REMARK  status: ('A' for Active; 'I' for Inactive)
REMARK    1  A    between atoms: C3_4  and  O_7 
ROOT
ATOM      1  C   UNL d   1       0.894  -0.275   0.280  0.00  0.00    -0.033 A 
ATOM      2  C1  UNL d   1       0.353  -1.263   1.104  0.00  0.00     0.039 A 
ATOM      3  C2  UNL d   1      -0.999  -1.597   1.003  0.00  0.00    -0.080 A 
ATOM      4  C3  UNL d   1      -1.797  -0.937   0.073  0.00  0.00     0.150 A 
ATOM      5  C4  UNL d   1      -1.264   0.046  -0.755  0.00  0.00    -0.007 A 
ATOM      6  C5  UNL d   1       0.086   0.378  -0.651  0.00  0.00     0.039 A 
ENDROOT
BRANCH   4   7
ATOM      7  O   UNL d   1      -3.123  -1.225  -0.060  0.00  0.00    -0.526 OA
ATOM      8  H5  UNL d   1      -3.358  -1.903   0.596  0.00  0.00     0.418 HD
ENDBRANCH   4   7
TORSDOF 1
ENDMDL
