MODEL 1
REMARK minimizedAffinity -1.05229807
REMARK minimizedRMSD -1
REMARK  1 active torsions:
REMARK  status: ('A' for Active; 'I' for Inactive)
REMARK    1  A    between atoms: C3_4  and  O_7 
ROOT
ATOM      1  C   UNL d   1       5.999   3.257  -2.013  0.00  0.00    -0.033 A 
ATOM      2  C1  UNL d   1       5.879   4.498  -1.384  0.00  0.00     0.039 A 
ATOM      3  C2  UNL d   1       4.933   4.682  -0.373  0.00  0.00    -0.080 A 
ATOM      4  C3  UNL d   1       4.116   3.619  -0.001  0.00  0.00     0.150 A 
ATOM      5  C4  UNL d   1       4.233   2.379  -0.620  0.00  0.00    -0.007 A 
ATOM      6  C5  UNL d   1       5.177   2.197  -1.630  0.00  0.00     0.039 A 
ENDROOT
BRANCH   4   7
ATOM      7  O   UNL d   1       3.175   3.752   0.977  0.00  0.00    -0.526 OA
ATOM      8  H5  UNL d   1       3.189   4.670   1.294  0.00  0.00     0.418 HD
ENDBRANCH   4   7
TORSDOF 1
ENDMDL
