MODEL 1
REMARK minimizedAffinity -0.713715792
REMARK minimizedRMSD -1
REMARK  1 active torsions:
REMARK  status: ('A' for Active; 'I' for Inactive)
REMARK    1  A    between atoms: C3_4  and  O_7 
ROOT
ATOM      1  C   UNL d   1       5.084   3.306  -1.519  0.00  0.00    -0.033 A 
ATOM      2  C1  UNL d   1       5.035   4.683  -1.290  0.00  0.00     0.039 A 
ATOM      3  C2  UNL d   1       4.401   5.180  -0.150  0.00  0.00    -0.080 A 
ATOM      4  C3  UNL d   1       3.822   4.293   0.752  0.00  0.00     0.150 A 
ATOM      5  C4  UNL d   1       3.870   2.920   0.532  0.00  0.00    -0.007 A 
ATOM      6  C5  UNL d   1       4.503   2.425  -0.607  0.00  0.00     0.039 A 
ENDROOT
BRANCH   4   7
ATOM      7  O   UNL d   1       3.188   4.731   1.876  0.00  0.00    -0.526 OA
ATOM      8  H5  UNL d   1       3.208   5.703   1.882  0.00  0.00     0.418 HD
ENDBRANCH   4   7
TORSDOF 1
ENDMDL
