MODEL 1
REMARK minimizedAffinity 0.249660909
REMARK minimizedRMSD -1
REMARK  1 active torsions:
REMARK  status: ('A' for Active; 'I' for Inactive)
REMARK    1  A    between atoms: C3_4  and  O_7 
ROOT
ATOM      1  C   UNL d   1       0.605   0.869   0.653  0.00  0.00    -0.033 A 
ATOM      2  C1  UNL d   1       0.386   0.872   2.032  0.00  0.00     0.039 A 
ATOM      3  C2  UNL d   1       0.373  -0.330   2.741  0.00  0.00    -0.080 A 
ATOM      4  C3  UNL d   1       0.583  -1.527   2.061  0.00  0.00     0.150 A 
ATOM      5  C4  UNL d   1       0.806  -1.537   0.688  0.00  0.00    -0.007 A 
ATOM      6  C5  UNL d   1       0.817  -0.335  -0.019  0.00  0.00     0.039 A 
ENDROOT
BRANCH   4   7
ATOM      7  O   UNL d   1       0.575  -2.726   2.710  0.00  0.00    -0.526 OA
ATOM      8  H5  UNL d   1       0.380  -2.567   3.649  0.00  0.00     0.418 HD
ENDBRANCH   4   7
TORSDOF 1
ENDMDL
