MODEL 1
REMARK minimizedAffinity -4.80016279
REMARK minimizedRMSD -1
REMARK  1 active torsions:
REMARK  status: ('A' for Active; 'I' for Inactive)
REMARK    1  A    between atoms: C3_4  and  O_7 
ROOT
ATOM      1  C   UNL d   1      -3.085  -2.365   0.115  0.00  0.00    -0.033 A 
ATOM      2  C1  UNL d   1      -2.165  -2.540   1.152  0.00  0.00     0.039 A 
ATOM      3  C2  UNL d   1      -1.044  -1.713   1.239  0.00  0.00    -0.080 A 
ATOM      4  C3  UNL d   1      -0.854  -0.716   0.287  0.00  0.00     0.150 A 
ATOM      5  C4  UNL d   1      -1.768  -0.533  -0.746  0.00  0.00    -0.007 A 
ATOM      6  C5  UNL d   1      -2.887  -1.361  -0.833  0.00  0.00     0.039 A 
ENDROOT
BRANCH   4   7
ATOM      7  O   UNL d   1       0.228   0.113   0.328  0.00  0.00    -0.526 OA
ATOM      8  H5  UNL d   1       0.787  -0.149   1.078  0.00  0.00     0.418 HD
ENDBRANCH   4   7
TORSDOF 1
ENDMDL
