MODEL 1
REMARK minimizedAffinity -5.56093931
REMARK minimizedRMSD -1
REMARK  1 active torsions:
REMARK  status: ('A' for Active; 'I' for Inactive)
REMARK    1  A    between atoms: C3_4  and  O_7 
ROOT
ATOM      1  C   UNL d   1      -3.300  -2.174   0.321  0.00  0.00    -0.033 A 
ATOM      2  C1  UNL d   1      -2.148  -2.566   1.005  0.00  0.00     0.039 A 
ATOM      3  C2  UNL d   1      -1.008  -1.760   0.975  0.00  0.00    -0.080 A 
ATOM      4  C3  UNL d   1      -1.034  -0.566   0.259  0.00  0.00     0.150 A 
ATOM      5  C4  UNL d   1      -2.180  -0.168  -0.422  0.00  0.00    -0.007 A 
ATOM      6  C5  UNL d   1      -3.317  -0.975  -0.391  0.00  0.00     0.039 A 
ENDROOT
BRANCH   4   7
ATOM      7  O   UNL d   1       0.055   0.251   0.197  0.00  0.00    -0.526 OA
ATOM      8  H5  UNL d   1       0.782  -0.166   0.690  0.00  0.00     0.418 HD
ENDBRANCH   4   7
TORSDOF 1
ENDMDL
