MODEL 1
REMARK minimizedAffinity -3.02925038
REMARK minimizedRMSD -1
REMARK  1 active torsions:
REMARK  status: ('A' for Active; 'I' for Inactive)
REMARK    1  A    between atoms: C3_4  and  O_7 
ROOT
ATOM      1  C   UNL d   1       0.369  -0.339  -0.138  0.00  0.00    -0.033 A 
ATOM      2  C1  UNL d   1      -0.277   0.883   0.061  0.00  0.00     0.039 A 
ATOM      3  C2  UNL d   1       0.414   1.955   0.631  0.00  0.00    -0.080 A 
ATOM      4  C3  UNL d   1       1.747   1.792   0.997  0.00  0.00     0.150 A 
ATOM      5  C4  UNL d   1       2.397   0.578   0.799  0.00  0.00    -0.007 A 
ATOM      6  C5  UNL d   1       1.706  -0.491   0.230  0.00  0.00     0.039 A 
ENDROOT
BRANCH   4   7
ATOM      7  O   UNL d   1       2.460   2.807   1.562  0.00  0.00    -0.526 OA
ATOM      8  H5  UNL d   1       1.874   3.575   1.664  0.00  0.00     0.418 HD
ENDBRANCH   4   7
TORSDOF 1
ENDMDL
