MODEL 1
REMARK minimizedAffinity -5.3245163
REMARK minimizedRMSD -1
REMARK  1 active torsions:
REMARK  status: ('A' for Active; 'I' for Inactive)
REMARK    1  A    between atoms: C3_4  and  O_7 
ROOT
ATOM      1  C   UNL d   1      -3.230  -0.317  -0.760  0.00  0.00    -0.033 A 
ATOM      2  C1  UNL d   1      -1.982   0.128  -0.318  0.00  0.00     0.039 A 
ATOM      3  C2  UNL d   1      -1.181  -0.704   0.467  0.00  0.00    -0.080 A 
ATOM      4  C3  UNL d   1      -1.637  -1.976   0.801  0.00  0.00     0.150 A 
ATOM      5  C4  UNL d   1      -2.877  -2.427   0.360  0.00  0.00    -0.007 A 
ATOM      6  C5  UNL d   1      -3.677  -1.594  -0.422  0.00  0.00     0.039 A 
ENDROOT
BRANCH   4   7
ATOM      7  O   UNL d   1      -0.893  -2.821   1.568  0.00  0.00    -0.526 OA
ATOM      8  H5  UNL d   1      -0.074  -2.365   1.823  0.00  0.00     0.418 HD
ENDBRANCH   4   7
TORSDOF 1
ENDMDL
