MODEL 1
REMARK minimizedAffinity -2.84370351
REMARK minimizedRMSD -1
REMARK  1 active torsions:
REMARK  status: ('A' for Active; 'I' for Inactive)
REMARK    1  A    between atoms: C3_4  and  O_7 
ROOT
ATOM      1  C   UNL d   1       1.511  -0.642   0.380  0.00  0.00    -0.033 A 
ATOM      2  C1  UNL d   1       0.649  -1.442   1.133  0.00  0.00     0.039 A 
ATOM      3  C2  UNL d   1      -0.672  -1.628   0.721  0.00  0.00    -0.080 A 
ATOM      4  C3  UNL d   1      -1.118  -1.010  -0.445  0.00  0.00     0.150 A 
ATOM      5  C4  UNL d   1      -0.263  -0.215  -1.202  0.00  0.00    -0.007 A 
ATOM      6  C5  UNL d   1       1.055  -0.030  -0.788  0.00  0.00     0.039 A 
ENDROOT
BRANCH   4   7
ATOM      7  O   UNL d   1      -2.399  -1.158  -0.885  0.00  0.00    -0.526 OA
ATOM      8  H5  UNL d   1      -2.882  -1.710  -0.247  0.00  0.00     0.418 HD
ENDBRANCH   4   7
TORSDOF 1
ENDMDL
