MODEL 1
REMARK minimizedAffinity -3.45617342
REMARK minimizedRMSD -1
REMARK  1 active torsions:
REMARK  status: ('A' for Active; 'I' for Inactive)
REMARK    1  A    between atoms: C3_4  and  O_7 
ROOT
ATOM      1  C   UNL d   1       2.208   1.089   0.856  0.00  0.00    -0.033 A 
ATOM      2  C1  UNL d   1       1.062   1.867   0.676  0.00  0.00     0.039 A 
ATOM      3  C2  UNL d   1      -0.114   1.281   0.204  0.00  0.00    -0.080 A 
ATOM      4  C3  UNL d   1      -0.133  -0.081  -0.083  0.00  0.00     0.150 A 
ATOM      5  C4  UNL d   1       1.004  -0.863   0.098  0.00  0.00    -0.007 A 
ATOM      6  C5  UNL d   1       2.178  -0.276   0.569  0.00  0.00     0.039 A 
ENDROOT
BRANCH   4   7
ATOM      7  O   UNL d   1      -1.256  -0.696  -0.550  0.00  0.00    -0.526 OA
ATOM      8  H5  UNL d   1      -1.953  -0.027  -0.652  0.00  0.00     0.418 HD
ENDBRANCH   4   7
TORSDOF 1
ENDMDL
