MODEL 1
REMARK minimizedAffinity 4.19503736
REMARK minimizedRMSD -1
REMARK  1 active torsions:
REMARK  status: ('A' for Active; 'I' for Inactive)
REMARK    1  A    between atoms: C3_4  and  O_7 
ROOT
ATOM      1  C   UNL d   1       0.889  -1.997   1.961  0.00  0.00    -0.033 A 
ATOM      2  C1  UNL d   1       1.657  -1.182   2.794  0.00  0.00     0.039 A 
ATOM      3  C2  UNL d   1       1.129   0.016   3.282  0.00  0.00    -0.080 A 
ATOM      4  C3  UNL d   1      -0.166   0.385   2.930  0.00  0.00     0.150 A 
ATOM      5  C4  UNL d   1      -0.938  -0.424   2.103  0.00  0.00    -0.007 A 
ATOM      6  C5  UNL d   1      -0.409  -1.619   1.616  0.00  0.00     0.039 A 
ENDROOT
BRANCH   4   7
ATOM      7  O   UNL d   1      -0.722   1.547   3.378  0.00  0.00    -0.526 OA
ATOM      8  H5  UNL d   1      -0.063   2.016   3.915  0.00  0.00     0.418 HD
ENDBRANCH   4   7
TORSDOF 1
ENDMDL
