MODEL 1
REMARK minimizedAffinity -2.76297951
REMARK minimizedRMSD -1
REMARK  1 active torsions:
REMARK  status: ('A' for Active; 'I' for Inactive)
REMARK    1  A    between atoms: C3_4  and  O_7 
ROOT
ATOM      1  C   UNL d   1      -0.360  -0.634   2.004  0.00  0.00    -0.033 A 
ATOM      2  C1  UNL d   1      -0.568   0.528   2.751  0.00  0.00     0.039 A 
ATOM      3  C2  UNL d   1       0.420   1.513   2.803  0.00  0.00    -0.080 A 
ATOM      4  C3  UNL d   1       1.610   1.325   2.105  0.00  0.00     0.150 A 
ATOM      5  C4  UNL d   1       1.822   0.172   1.356  0.00  0.00    -0.007 A 
ATOM      6  C5  UNL d   1       0.834  -0.811   1.305  0.00  0.00     0.039 A 
ENDROOT
BRANCH   4   7
ATOM      7  O   UNL d   1       2.605   2.256   2.129  0.00  0.00    -0.526 OA
ATOM      8  H5  UNL d   1       2.330   2.985   2.710  0.00  0.00     0.418 HD
ENDBRANCH   4   7
TORSDOF 1
ENDMDL
