MODEL 1
REMARK minimizedAffinity -2.85955667
REMARK minimizedRMSD -1
REMARK  1 active torsions:
REMARK  status: ('A' for Active; 'I' for Inactive)
REMARK    1  A    between atoms: C3_4  and  O_7 
ROOT
ATOM      1  C   UNL d   1       0.704  -0.140  -0.185  0.00  0.00    -0.033 A 
ATOM      2  C1  UNL d   1       0.054   1.058   0.119  0.00  0.00     0.039 A 
ATOM      3  C2  UNL d   1       0.772   2.126   0.661  0.00  0.00    -0.080 A 
ATOM      4  C3  UNL d   1       2.137   1.984   0.891  0.00  0.00     0.150 A 
ATOM      5  C4  UNL d   1       2.792   0.796   0.587  0.00  0.00    -0.007 A 
ATOM      6  C5  UNL d   1       2.074  -0.270   0.047  0.00  0.00     0.039 A 
ENDROOT
BRANCH   4   7
ATOM      7  O   UNL d   1       2.879   2.998   1.423  0.00  0.00    -0.526 OA
ATOM      8  H5  UNL d   1       2.288   3.746   1.609  0.00  0.00     0.418 HD
ENDBRANCH   4   7
TORSDOF 1
ENDMDL
