MODEL 1
REMARK minimizedAffinity -1.45201504
REMARK minimizedRMSD -1
REMARK  1 active torsions:
REMARK  status: ('A' for Active; 'I' for Inactive)
REMARK    1  A    between atoms: C3_4  and  O_7 
ROOT
ATOM      1  C   UNL d   1       0.416   0.217  -0.091  0.00  0.00    -0.033 A 
ATOM      2  C1  UNL d   1       1.751  -0.005   0.255  0.00  0.00     0.039 A 
ATOM      3  C2  UNL d   1       2.479   0.991   0.909  0.00  0.00    -0.080 A 
ATOM      4  C3  UNL d   1       1.863   2.201   1.212  0.00  0.00     0.150 A 
ATOM      5  C4  UNL d   1       0.533   2.428   0.874  0.00  0.00    -0.007 A 
ATOM      6  C5  UNL d   1      -0.193   1.433   0.220  0.00  0.00     0.039 A 
ENDROOT
BRANCH   4   7
ATOM      7  O   UNL d   1       2.534   3.205   1.845  0.00  0.00    -0.526 OA
ATOM      8  H5  UNL d   1       3.451   2.917   1.991  0.00  0.00     0.418 HD
ENDBRANCH   4   7
TORSDOF 1
ENDMDL
