MODEL 1
REMARK minimizedAffinity -4.46388388
REMARK minimizedRMSD -1
REMARK  1 active torsions:
REMARK  status: ('A' for Active; 'I' for Inactive)
REMARK    1  A    between atoms: C3_4  and  O_7 
ROOT
ATOM      1  C   UNL d   1       0.779   0.105   0.315  0.00  0.00    -0.033 A 
ATOM      2  C1  UNL d   1       0.588   0.793  -0.884  0.00  0.00     0.039 A 
ATOM      3  C2  UNL d   1      -0.607   0.646  -1.593  0.00  0.00    -0.080 A 
ATOM      4  C3  UNL d   1      -1.600  -0.190  -1.091  0.00  0.00     0.150 A 
ATOM      5  C4  UNL d   1      -1.417  -0.876   0.105  0.00  0.00    -0.007 A 
ATOM      6  C5  UNL d   1      -0.224  -0.729   0.811  0.00  0.00     0.039 A 
ENDROOT
BRANCH   4   7
ATOM      7  O   UNL d   1      -2.780  -0.369  -1.749  0.00  0.00    -0.526 OA
ATOM      8  H5  UNL d   1      -2.754   0.144  -2.574  0.00  0.00     0.418 HD
ENDBRANCH   4   7
TORSDOF 1
ENDMDL
