MODEL 1
REMARK minimizedAffinity -1.56104279
REMARK minimizedRMSD -1
REMARK  1 active torsions:
REMARK  status: ('A' for Active; 'I' for Inactive)
REMARK    1  A    between atoms: C3_4  and  O_7 
ROOT
ATOM      1  C   UNL d   1       3.145   3.473   1.430  0.00  0.00    -0.033 A 
ATOM      2  C1  UNL d   1       3.421   3.040   0.131  0.00  0.00     0.039 A 
ATOM      3  C2  UNL d   1       2.854   1.856  -0.347  0.00  0.00    -0.080 A 
ATOM      4  C3  UNL d   1       2.015   1.117   0.482  0.00  0.00     0.150 A 
ATOM      5  C4  UNL d   1       1.733   1.545   1.775  0.00  0.00    -0.007 A 
ATOM      6  C5  UNL d   1       2.300   2.726   2.251  0.00  0.00     0.039 A 
ENDROOT
BRANCH   4   7
ATOM      7  O   UNL d   1       1.443  -0.047   0.061  0.00  0.00    -0.526 OA
ATOM      8  H5  UNL d   1       1.750  -0.232  -0.842  0.00  0.00     0.418 HD
ENDBRANCH   4   7
TORSDOF 1
ENDMDL
