MODEL 1
REMARK minimizedAffinity -2.97829175
REMARK minimizedRMSD -1
REMARK  1 active torsions:
REMARK  status: ('A' for Active; 'I' for Inactive)
REMARK    1  A    between atoms: C1_2  and  C2_3 
ROOT
ATOM      1  C2  UNL d   1       0.466   0.100   0.374  0.00  0.00    -0.076 A 
ATOM      2  C3  UNL d   1       1.766   0.423   0.802  0.00  0.00     0.004 A 
ATOM      3  C4  UNL d   1       2.213   0.064   2.072  0.00  0.00    -0.003 A 
ATOM      4  C5  UNL d   1       1.369  -0.625   2.935  0.00  0.00     0.000 A 
ATOM      5  C6  UNL d   1       0.082  -0.969   2.522  0.00  0.00     0.000 A 
ATOM      6  C7  UNL d   1      -0.379  -0.629   1.238  0.00  0.00    -0.073 A 
ATOM      7  C8  UNL d   1      -1.777  -1.020   0.847  0.00  0.00     0.078 C 
ENDROOT
BRANCH   1   8
ATOM      8  C1  UNL d   1       0.027   0.540  -1.004  0.00  0.00     0.053 C 
ATOM      9  C   UNL d   1       0.002   2.053  -1.153  0.00  0.00     0.018 C 
ENDBRANCH   1   8
TORSDOF 1
ENDMDL
