MODEL 1
REMARK minimizedAffinity -5.15066481
REMARK minimizedRMSD -1
REMARK  1 active torsions:
REMARK  status: ('A' for Active; 'I' for Inactive)
REMARK    1  A    between atoms: C1_2  and  C2_3 
ROOT
ATOM      1  C2  UNL d   1       0.224  -0.762   0.240  0.00  0.00    -0.076 A 
ATOM      2  C3  UNL d   1       1.309  -1.423  -0.361  0.00  0.00     0.004 A 
ATOM      3  C4  UNL d   1       2.242  -2.117   0.408  0.00  0.00    -0.003 A 
ATOM      4  C5  UNL d   1       2.104  -2.162   1.790  0.00  0.00     0.000 A 
ATOM      5  C6  UNL d   1       1.024  -1.526   2.402  0.00  0.00     0.000 A 
ATOM      6  C7  UNL d   1       0.066  -0.836   1.640  0.00  0.00    -0.073 A 
ATOM      7  C8  UNL d   1      -1.075  -0.163   2.353  0.00  0.00     0.078 C 
ENDROOT
BRANCH   1   8
ATOM      8  C1  UNL d   1      -0.740  -0.002  -0.643  0.00  0.00     0.053 C 
ATOM      9  C   UNL d   1      -0.121   1.254  -1.237  0.00  0.00     0.018 C 
ENDBRANCH   1   8
TORSDOF 1
ENDMDL
