MODEL 1
REMARK minimizedAffinity -3.94684577
REMARK minimizedRMSD -1
REMARK  1 active torsions:
REMARK  status: ('A' for Active; 'I' for Inactive)
REMARK    1  A    between atoms: C1_2  and  C2_3 
ROOT
ATOM      1  C2  UNL d   1      -0.191  -0.679   0.598  0.00  0.00    -0.076 A 
ATOM      2  C3  UNL d   1      -0.567  -0.340   1.909  0.00  0.00     0.004 A 
ATOM      3  C4  UNL d   1       0.364  -0.345   2.947  0.00  0.00    -0.003 A 
ATOM      4  C5  UNL d   1       1.687  -0.687   2.689  0.00  0.00     0.000 A 
ATOM      5  C6  UNL d   1       2.082  -1.008   1.391  0.00  0.00     0.000 A 
ATOM      6  C7  UNL d   1       1.159  -0.993   0.331  0.00  0.00    -0.073 A 
ATOM      7  C8  UNL d   1       1.638  -1.354  -1.049  0.00  0.00     0.078 C 
ENDROOT
BRANCH   1   8
ATOM      8  C1  UNL d   1      -1.250  -0.683  -0.481  0.00  0.00     0.053 C 
ATOM      9  C   UNL d   1      -2.620  -1.075   0.049  0.00  0.00     0.018 C 
ENDBRANCH   1   8
TORSDOF 1
ENDMDL
