MODEL 1
REMARK minimizedAffinity -1.50443029
REMARK minimizedRMSD -1
REMARK  1 active torsions:
REMARK  status: ('A' for Active; 'I' for Inactive)
REMARK    1  A    between atoms: C1_2  and  C2_3 
ROOT
ATOM      1  C2  UNL d   1       0.575  -0.622   1.667  0.00  0.00    -0.076 A 
ATOM      2  C3  UNL d   1       1.654  -0.890   0.807  0.00  0.00     0.004 A 
ATOM      3  C4  UNL d   1       1.549  -0.669  -0.566  0.00  0.00    -0.003 A 
ATOM      4  C5  UNL d   1       0.364  -0.177  -1.100  0.00  0.00     0.000 A 
ATOM      5  C6  UNL d   1      -0.711   0.110  -0.259  0.00  0.00     0.000 A 
ATOM      6  C7  UNL d   1      -0.616  -0.091   1.129  0.00  0.00    -0.073 A 
ATOM      7  C8  UNL d   1      -1.808   0.230   1.988  0.00  0.00     0.078 C 
ENDROOT
BRANCH   1   8
ATOM      8  C1  UNL d   1       0.738  -0.907   3.143  0.00  0.00     0.053 C 
ATOM      9  C   UNL d   1       2.192  -0.862   3.588  0.00  0.00     0.018 C 
ENDBRANCH   1   8
TORSDOF 1
ENDMDL
