MODEL 1
REMARK minimizedAffinity -4.34429932
REMARK minimizedRMSD -1
REMARK  1 active torsions:
REMARK  status: ('A' for Active; 'I' for Inactive)
REMARK    1  A    between atoms: C1_2  and  C2_3 
ROOT
ATOM      1  C2  UNL d   1      -0.849  -0.887   0.018  0.00  0.00    -0.076 A 
ATOM      2  C3  UNL d   1      -1.227  -0.724   1.362  0.00  0.00     0.004 A 
ATOM      3  C4  UNL d   1      -0.269  -0.620   2.369  0.00  0.00    -0.003 A 
ATOM      4  C5  UNL d   1       1.083  -0.677   2.048  0.00  0.00     0.000 A 
ATOM      5  C6  UNL d   1       1.476  -0.821   0.718  0.00  0.00     0.000 A 
ATOM      6  C7  UNL d   1       0.523  -0.910  -0.311  0.00  0.00    -0.073 A 
ATOM      7  C8  UNL d   1       1.004  -1.070  -1.728  0.00  0.00     0.078 C 
ENDROOT
BRANCH   1   8
ATOM      8  C1  UNL d   1      -1.932  -1.021  -1.028  0.00  0.00     0.053 C 
ATOM      9  C   UNL d   1      -3.169  -1.730  -0.499  0.00  0.00     0.018 C 
ENDBRANCH   1   8
TORSDOF 1
ENDMDL
