MODEL 1
REMARK minimizedAffinity -3.87968326
REMARK minimizedRMSD -1
REMARK  1 active torsions:
REMARK  status: ('A' for Active; 'I' for Inactive)
REMARK    1  A    between atoms: C1_2  and  C2_3 
ROOT
ATOM      1  C2  UNL d   1       0.719  -0.697   0.726  0.00  0.00    -0.076 A 
ATOM      2  C3  UNL d   1       1.777  -1.017  -0.143  0.00  0.00     0.004 A 
ATOM      3  C4  UNL d   1       1.604  -0.985  -1.526  0.00  0.00    -0.003 A 
ATOM      4  C5  UNL d   1       0.371  -0.633  -2.062  0.00  0.00     0.000 A 
ATOM      5  C6  UNL d   1      -0.685  -0.296  -1.216  0.00  0.00     0.000 A 
ATOM      6  C7  UNL d   1      -0.523  -0.307   0.180  0.00  0.00    -0.073 A 
ATOM      7  C8  UNL d   1      -1.697   0.060   1.046  0.00  0.00     0.078 C 
ENDROOT
BRANCH   1   8
ATOM      8  C1  UNL d   1       0.957  -0.775   2.217  0.00  0.00     0.053 C 
ATOM      9  C   UNL d   1       0.251  -1.959   2.859  0.00  0.00     0.018 C 
ENDBRANCH   1   8
TORSDOF 1
ENDMDL
