MODEL 1
REMARK minimizedAffinity -1.9618293
REMARK minimizedRMSD -1
REMARK  3 active torsions:
REMARK  status: ('A' for Active; 'I' for Inactive)
REMARK    1  A    between atoms: C3'_2  and  C2'_3 
REMARK    2  A    between atoms: C2'_3  and  C1'_4 
REMARK    3  A    between atoms: C1'_4  and  C1_5 
ROOT
ATOM      1  C1  N4B d   1      -0.311   0.222  -0.853  0.00  0.00    -0.075 A 
ATOM      2  C2  N4B d   1       0.030   0.232   0.518  0.00  0.00     0.002 A 
ATOM      3  C3  N4B d   1       1.294  -0.133   0.913  0.00  0.00     0.002 A 
ATOM      4  C4  N4B d   1       2.223  -0.528  -0.037  0.00  0.00    -0.004 A 
ATOM      5  C5  N4B d   1       1.893  -0.510  -1.361  0.00  0.00     0.002 A 
ATOM      6  C6  N4B d   1       0.629  -0.142  -1.774  0.00  0.00     0.002 A 
ENDROOT
BRANCH   1   7
ATOM      7  C1' N4B d   1      -1.705   0.531  -1.327  0.00  0.00     0.057 C 
BRANCH   7   8
ATOM      8  C2' N4B d   1      -1.630   1.475  -2.523  0.00  0.00     0.009 C 
BRANCH   8   9
ATOM      9  C3' N4B d   1      -1.664   2.933  -2.099  0.00  0.00     0.004 C 
ATOM     10  C4' N4B d   1      -0.588   3.752  -2.748  0.00  0.00     0.003 C 
ENDBRANCH   8   9
ENDBRANCH   7   8
ENDBRANCH   1   7
TORSDOF 3
ENDMDL
