MODEL 1
REMARK minimizedAffinity 8.47096634
REMARK minimizedRMSD -1
REMARK  0 active torsions:
REMARK  status: ('A' for Active; 'I' for Inactive)
ROOT
ATOM      1  N1  IND d   1       2.155   3.885  -5.047  0.00  0.00    -0.196 N 
ATOM      2  C2  IND d   1       1.430   4.925  -5.559  0.00  0.00     0.054 A 
ATOM      3  C3  IND d   1       2.253   5.915  -5.971  0.00  0.00    -0.031 A 
ATOM      4  C4  IND d   1       4.826   5.998  -5.995  0.00  0.00     0.051 A 
ATOM      5  C5  IND d   1       5.930   5.298  -5.596  0.00  0.00    -0.031 A 
ATOM      6  C6  IND d   1       5.831   4.066  -4.984  0.00  0.00     0.015 A 
ATOM      7  C7  IND d   1       4.618   3.479  -4.757  0.00  0.00    -0.016 A 
ATOM      8  C8  IND d   1       3.494   4.190  -5.155  0.00  0.00    -0.047 A 
ATOM      9  C9  IND d   1       3.587   5.460  -5.738  0.00  0.00    -0.096 A 
ATOM     10  HN1 IND d   1       1.829   3.162  -4.714  0.00  0.00     0.298 HD
ENDROOT
TORSDOF 0
ENDMDL
