MODEL 1
REMARK minimizedAffinity -3.78461933
REMARK minimizedRMSD -1
REMARK  0 active torsions:
REMARK  status: ('A' for Active; 'I' for Inactive)
ROOT
ATOM      1  N1  IND d   1      -3.056   5.999  -2.380  0.00  0.00    -0.196 N 
ATOM      2  C2  IND d   1      -4.216   5.994  -3.104  0.00  0.00     0.054 A 
ATOM      3  C3  IND d   1      -3.944   6.000  -4.428  0.00  0.00    -0.031 A 
ATOM      4  C4  IND d   1      -1.669   5.914  -5.631  0.00  0.00     0.051 A 
ATOM      5  C5  IND d   1      -0.324   5.943  -5.394  0.00  0.00    -0.031 A 
ATOM      6  C6  IND d   1       0.191   5.991  -4.114  0.00  0.00     0.015 A 
ATOM      7  C7  IND d   1      -0.626   6.000  -3.019  0.00  0.00    -0.016 A 
ATOM      8  C8  IND d   1      -1.993   5.977  -3.256  0.00  0.00    -0.047 A 
ATOM      9  C9  IND d   1      -2.521   5.972  -4.553  0.00  0.00    -0.096 A 
ATOM     10  HN1 IND d   1      -3.000   6.014  -1.522  0.00  0.00     0.298 HD
ENDROOT
TORSDOF 0
ENDMDL
