MODEL 1
REMARK minimizedAffinity -3.73428822
REMARK minimizedRMSD -1
REMARK  0 active torsions:
REMARK  status: ('A' for Active; 'I' for Inactive)
ROOT
ATOM      1  N1  IND d   1      -0.884   5.980  -2.205  0.00  0.00    -0.196 N 
ATOM      2  C2  IND d   1      -2.226   5.988  -2.465  0.00  0.00     0.054 A 
ATOM      3  C3  IND d   1      -2.446   6.000  -3.799  0.00  0.00    -0.031 A 
ATOM      4  C4  IND d   1      -0.754   5.906  -5.737  0.00  0.00     0.051 A 
ATOM      5  C5  IND d   1       0.587   5.924  -5.997  0.00  0.00    -0.031 A 
ATOM      6  C6  IND d   1       1.526   5.960  -4.986  0.00  0.00     0.015 A 
ATOM      7  C7  IND d   1       1.157   5.968  -3.671  0.00  0.00    -0.016 A 
ATOM      8  C8  IND d   1      -0.205   5.956  -3.403  0.00  0.00    -0.047 A 
ATOM      9  C9  IND d   1      -1.163   5.963  -4.425  0.00  0.00    -0.096 A 
ATOM     10  HN1 IND d   1      -0.524   5.988  -1.423  0.00  0.00     0.298 HD
ENDROOT
TORSDOF 0
ENDMDL
