MODEL 1
REMARK minimizedAffinity -0.137120917
REMARK minimizedRMSD -1
REMARK  0 active torsions:
REMARK  status: ('A' for Active; 'I' for Inactive)
ROOT
ATOM      1  N1  IND d   1       0.509   5.992  -2.906  0.00  0.00    -0.196 N 
ATOM      2  C2  IND d   1       0.935   5.964  -4.204  0.00  0.00     0.054 A 
ATOM      3  C3  IND d   1      -0.123   5.923  -5.046  0.00  0.00    -0.031 A 
ATOM      4  C4  IND d   1      -2.640   5.996  -4.513  0.00  0.00     0.051 A 
ATOM      5  C5  IND d   1      -3.521   5.987  -3.467  0.00  0.00    -0.031 A 
ATOM      6  C6  IND d   1      -3.095   5.982  -2.155  0.00  0.00     0.015 A 
ATOM      7  C7  IND d   1      -1.766   5.997  -1.838  0.00  0.00    -0.016 A 
ATOM      8  C8  IND d   1      -0.869   5.999  -2.896  0.00  0.00    -0.047 A 
ATOM      9  C9  IND d   1      -1.295   5.961  -4.230  0.00  0.00    -0.096 A 
ATOM     10  HN1 IND d   1       1.016   6.003  -2.211  0.00  0.00     0.298 HD
ENDROOT
TORSDOF 0
ENDMDL
