MODEL 1
REMARK minimizedAffinity -1.98819733
REMARK minimizedRMSD -1
REMARK  0 active torsions:
REMARK  status: ('A' for Active; 'I' for Inactive)
ROOT
ATOM      1  N1  IND d   1      -0.168   5.324  -5.997  0.00  0.00    -0.196 N 
ATOM      2  C2  IND d   1       1.159   5.641  -5.911  0.00  0.00     0.054 A 
ATOM      3  C3  IND d   1       1.478   5.985  -4.643  0.00  0.00    -0.031 A 
ATOM      4  C4  IND d   1       0.005   6.000  -2.532  0.00  0.00     0.051 A 
ATOM      5  C5  IND d   1      -1.285   5.822  -2.117  0.00  0.00    -0.031 A 
ATOM      6  C6  IND d   1      -2.289   5.459  -2.992  0.00  0.00     0.015 A 
ATOM      7  C7  IND d   1      -2.036   5.249  -4.318  0.00  0.00    -0.016 A 
ATOM      8  C8  IND d   1      -0.729   5.435  -4.744  0.00  0.00    -0.047 A 
ATOM      9  C9  IND d   1       0.286   5.845  -3.869  0.00  0.00    -0.096 A 
ATOM     10  HN1 IND d   1      -0.583   5.094  -6.715  0.00  0.00     0.298 HD
ENDROOT
TORSDOF 0
ENDMDL
