MODEL 1
REMARK minimizedAffinity -0.440970123
REMARK minimizedRMSD -1
REMARK  0 active torsions:
REMARK  status: ('A' for Active; 'I' for Inactive)
ROOT
ATOM      1  N1  IND d   1       2.004   5.952  -5.978  0.00  0.00    -0.196 N 
ATOM      2  C2  IND d   1       2.943   5.950  -4.985  0.00  0.00     0.054 A 
ATOM      3  C3  IND d   1       2.344   5.979  -3.773  0.00  0.00    -0.031 A 
ATOM      4  C4  IND d   1      -0.161   5.932  -3.183  0.00  0.00     0.051 A 
ATOM      5  C5  IND d   1      -1.403   5.969  -3.754  0.00  0.00    -0.031 A 
ATOM      6  C6  IND d   1      -1.576   5.999  -5.122  0.00  0.00     0.015 A 
ATOM      7  C7  IND d   1      -0.509   5.983  -5.976  0.00  0.00    -0.016 A 
ATOM      8  C8  IND d   1       0.753   5.953  -5.400  0.00  0.00    -0.047 A 
ATOM      9  C9  IND d   1       0.936   5.965  -4.011  0.00  0.00    -0.096 A 
ATOM     10  HN1 IND d   1       2.167   5.953  -6.823  0.00  0.00     0.298 HD
ENDROOT
TORSDOF 0
ENDMDL
