MODEL 1
REMARK minimizedAffinity 2.35704374
REMARK minimizedRMSD -1
REMARK  0 active torsions:
REMARK  status: ('A' for Active; 'I' for Inactive)
ROOT
ATOM      1  N1  IND d   1      -2.839   5.990  -1.773  0.00  0.00    -0.196 N 
ATOM      2  C2  IND d   1      -4.110   5.985  -2.276  0.00  0.00     0.054 A 
ATOM      3  C3  IND d   1      -4.081   5.994  -3.628  0.00  0.00    -0.031 A 
ATOM      4  C4  IND d   1      -2.060   5.914  -5.221  0.00  0.00     0.051 A 
ATOM      5  C5  IND d   1      -0.694   5.944  -5.230  0.00  0.00    -0.031 A 
ATOM      6  C6  IND d   1       0.042   5.990  -4.063  0.00  0.00     0.015 A 
ATOM      7  C7  IND d   1      -0.564   5.995  -2.839  0.00  0.00    -0.016 A 
ATOM      8  C8  IND d   1      -1.951   5.971  -2.826  0.00  0.00    -0.047 A 
ATOM      9  C9  IND d   1      -2.704   5.968  -4.007  0.00  0.00    -0.096 A 
ATOM     10  HN1 IND d   1      -2.630   6.003  -0.939  0.00  0.00     0.298 HD
ENDROOT
TORSDOF 0
ENDMDL
