MODEL 1
REMARK minimizedAffinity 1.34963107
REMARK minimizedRMSD -1
REMARK  0 active torsions:
REMARK  status: ('A' for Active; 'I' for Inactive)
ROOT
ATOM      1  N1  IND d   1      -1.097   5.935  -5.988  0.00  0.00    -0.196 N 
ATOM      2  C2  IND d   1       0.227   5.949  -5.649  0.00  0.00     0.054 A 
ATOM      3  C3  IND d   1       0.368   6.000  -4.305  0.00  0.00    -0.031 A 
ATOM      4  C4  IND d   1      -1.437   5.965  -2.469  0.00  0.00     0.051 A 
ATOM      5  C5  IND d   1      -2.791   5.992  -2.289  0.00  0.00    -0.031 A 
ATOM      6  C6  IND d   1      -3.668   5.999  -3.355  0.00  0.00     0.015 A 
ATOM      7  C7  IND d   1      -3.221   5.967  -4.645  0.00  0.00    -0.016 A 
ATOM      8  C8  IND d   1      -1.846   5.947  -4.832  0.00  0.00    -0.047 A 
ATOM      9  C9  IND d   1      -0.951   5.982  -3.755  0.00  0.00    -0.096 A 
ATOM     10  HN1 IND d   1      -1.410   5.921  -6.789  0.00  0.00     0.298 HD
ENDROOT
TORSDOF 0
ENDMDL
