MODEL 1
REMARK minimizedAffinity 7.01016426
REMARK minimizedRMSD -1
REMARK  0 active torsions:
REMARK  status: ('A' for Active; 'I' for Inactive)
ROOT
ATOM      1  N1  IND d   1       1.079   3.375   1.245  0.00  0.00    -0.196 N 
ATOM      2  C2  IND d   1       1.539   3.385  -0.043  0.00  0.00     0.054 A 
ATOM      3  C3  IND d   1       1.405   2.161  -0.600  0.00  0.00    -0.031 A 
ATOM      4  C4  IND d   1       0.363   0.022   0.383  0.00  0.00     0.051 A 
ATOM      5  C5  IND d   1      -0.162  -0.488   1.538  0.00  0.00    -0.031 A 
ATOM      6  C6  IND d   1      -0.306   0.279   2.675  0.00  0.00     0.015 A 
ATOM      7  C7  IND d   1       0.062   1.595   2.698  0.00  0.00    -0.016 A 
ATOM      8  C8  IND d   1       0.601   2.115   1.530  0.00  0.00    -0.047 A 
ATOM      9  C9  IND d   1       0.789   1.329   0.385  0.00  0.00    -0.096 A 
ATOM     10  HN1 IND d   1       1.086   4.044   1.785  0.00  0.00     0.298 HD
ENDROOT
TORSDOF 0
ENDMDL
