MODEL 1
REMARK minimizedAffinity -2.94021821
REMARK minimizedRMSD -1
REMARK  0 active torsions:
REMARK  status: ('A' for Active; 'I' for Inactive)
ROOT
ATOM      1  N1  IND d   1      -0.510   5.994  -2.387  0.00  0.00    -0.196 N 
ATOM      2  C2  IND d   1      -1.798   5.990  -2.844  0.00  0.00     0.054 A 
ATOM      3  C3  IND d   1      -1.818   6.000  -4.195  0.00  0.00    -0.031 A 
ATOM      4  C4  IND d   1       0.144   5.922  -5.860  0.00  0.00     0.051 A 
ATOM      5  C5  IND d   1       1.509   5.952  -5.919  0.00  0.00    -0.031 A 
ATOM      6  C6  IND d   1       2.287   5.996  -4.780  0.00  0.00     0.015 A 
ATOM      7  C7  IND d   1       1.726   6.000  -3.534  0.00  0.00    -0.016 A 
ATOM      8  C8  IND d   1       0.340   5.976  -3.471  0.00  0.00    -0.047 A 
ATOM      9  C9  IND d   1      -0.456   5.974  -4.624  0.00  0.00    -0.096 A 
ATOM     10  HN1 IND d   1      -0.271   6.005  -1.561  0.00  0.00     0.298 HD
ENDROOT
TORSDOF 0
ENDMDL
