MODEL 1
REMARK minimizedAffinity 7.42210007
REMARK minimizedRMSD -1
REMARK  0 active torsions:
REMARK  status: ('A' for Active; 'I' for Inactive)
ROOT
ATOM      1  N1  IND d   1       0.646  -0.207   1.462  0.00  0.00    -0.196 N 
ATOM      2  C2  IND d   1      -0.087   0.281   2.507  0.00  0.00     0.054 A 
ATOM      3  C3  IND d   1      -0.141   1.631   2.454  0.00  0.00    -0.031 A 
ATOM      4  C4  IND d   1       0.815   3.238   0.685  0.00  0.00     0.051 A 
ATOM      5  C5  IND d   1       1.594   3.264  -0.438  0.00  0.00    -0.031 A 
ATOM      6  C6  IND d   1       2.104   2.111  -0.998  0.00  0.00     0.015 A 
ATOM      7  C7  IND d   1       1.844   0.882  -0.460  0.00  0.00    -0.016 A 
ATOM      8  C8  IND d   1       1.060   0.853   0.685  0.00  0.00    -0.047 A 
ATOM      9  C9  IND d   1       0.575   2.023   1.282  0.00  0.00    -0.096 A 
ATOM     10  HN1 IND d   1       0.820  -1.036   1.315  0.00  0.00     0.298 HD
ENDROOT
TORSDOF 0
ENDMDL
