MODEL 1
REMARK minimizedAffinity -2.29448843
REMARK minimizedRMSD -1
REMARK  0 active torsions:
REMARK  status: ('A' for Active; 'I' for Inactive)
ROOT
ATOM      1  N1  IND d   1      -1.263   5.973  -4.797  0.00  0.00    -0.196 N 
ATOM      2  C2  IND d   1      -0.095   5.974  -4.086  0.00  0.00     0.054 A 
ATOM      3  C3  IND d   1      -0.353   5.999  -2.759  0.00  0.00    -0.031 A 
ATOM      4  C4  IND d   1      -2.614   5.937  -1.530  0.00  0.00     0.051 A 
ATOM      5  C5  IND d   1      -3.962   5.967  -1.753  0.00  0.00    -0.031 A 
ATOM      6  C6  IND d   1      -4.490   5.999  -3.027  0.00  0.00     0.015 A 
ATOM      7  C7  IND d   1      -3.686   5.990  -4.132  0.00  0.00    -0.016 A 
ATOM      8  C8  IND d   1      -2.316   5.966  -3.910  0.00  0.00    -0.047 A 
ATOM      9  C9  IND d   1      -1.774   5.977  -2.618  0.00  0.00    -0.096 A 
ATOM     10  HN1 IND d   1      -1.328   5.975  -5.654  0.00  0.00     0.298 HD
ENDROOT
TORSDOF 0
ENDMDL
