MODEL 1
REMARK minimizedAffinity -0.394373536
REMARK minimizedRMSD -1
REMARK  0 active torsions:
REMARK  status: ('A' for Active; 'I' for Inactive)
ROOT
ATOM      1  N1  IND d   1       0.824  -0.507   0.116  0.00  0.00    -0.196 N 
ATOM      2  C2  IND d   1       1.316  -0.368  -1.152  0.00  0.00     0.054 A 
ATOM      3  C3  IND d   1       1.621   0.926  -1.399  0.00  0.00    -0.031 A 
ATOM      4  C4  IND d   1       1.489   2.965   0.167  0.00  0.00     0.051 A 
ATOM      5  C5  IND d   1       1.067   3.342   1.412  0.00  0.00    -0.031 A 
ATOM      6  C6  IND d   1       0.535   2.436   2.307  0.00  0.00     0.015 A 
ATOM      7  C7  IND d   1       0.414   1.112   1.993  0.00  0.00    -0.016 A 
ATOM      8  C8  IND d   1       0.835   0.727   0.728  0.00  0.00    -0.047 A 
ATOM      9  C9  IND d   1       1.336   1.648  -0.200  0.00  0.00    -0.096 A 
ATOM     10  HN1 IND d   1       0.553  -1.242   0.471  0.00  0.00     0.298 HD
ENDROOT
TORSDOF 0
ENDMDL
