MODEL 1
REMARK minimizedAffinity -2.2295959
REMARK minimizedRMSD -1
REMARK  0 active torsions:
REMARK  status: ('A' for Active; 'I' for Inactive)
ROOT
ATOM      1  N1  IND d   1       0.201   5.389  -3.510  0.00  0.00    -0.196 N 
ATOM      2  C2  IND d   1       0.107   5.270  -4.869  0.00  0.00     0.054 A 
ATOM      3  C3  IND d   1      -1.182   5.378  -5.262  0.00  0.00    -0.031 A 
ATOM      4  C4  IND d   1      -3.286   5.852  -3.857  0.00  0.00     0.051 A 
ATOM      5  C5  IND d   1      -3.709   6.000  -2.566  0.00  0.00    -0.031 A 
ATOM      6  C6  IND d   1      -2.831   5.953  -1.502  0.00  0.00     0.015 A 
ATOM      7  C7  IND d   1      -1.491   5.767  -1.691  0.00  0.00    -0.016 A 
ATOM      8  C8  IND d   1      -1.059   5.610  -3.001  0.00  0.00    -0.047 A 
ATOM      9  C9  IND d   1      -1.951   5.614  -4.082  0.00  0.00    -0.096 A 
ATOM     10  HN1 IND d   1       0.926   5.334  -3.051  0.00  0.00     0.298 HD
ENDROOT
TORSDOF 0
ENDMDL
