MODEL 1
REMARK minimizedAffinity 1.75757253
REMARK minimizedRMSD -1
REMARK  0 active torsions:
REMARK  status: ('A' for Active; 'I' for Inactive)
ROOT
ATOM      1  N1  IND d   1       0.744   3.447   1.729  0.00  0.00    -0.196 N 
ATOM      2  C2  IND d   1       1.254   3.672   0.481  0.00  0.00     0.054 A 
ATOM      3  C3  IND d   1       1.228   2.535  -0.249  0.00  0.00    -0.031 A 
ATOM      4  C4  IND d   1       0.297   0.215   0.369  0.00  0.00     0.051 A 
ATOM      5  C5  IND d   1      -0.237  -0.488   1.412  0.00  0.00    -0.031 A 
ATOM      6  C6  IND d   1      -0.479   0.097   2.638  0.00  0.00     0.015 A 
ATOM      7  C7  IND d   1      -0.205   1.416   2.864  0.00  0.00    -0.016 A 
ATOM      8  C8  IND d   1       0.344   2.132   1.809  0.00  0.00    -0.047 A 
ATOM      9  C9  IND d   1       0.631   1.533   0.576  0.00  0.00    -0.096 A 
ATOM     10  HN1 IND d   1       0.684   4.030   2.359  0.00  0.00     0.298 HD
ENDROOT
TORSDOF 0
ENDMDL
