MODEL 1
REMARK minimizedAffinity 5.81153011
REMARK minimizedRMSD -1
REMARK  0 active torsions:
REMARK  status: ('A' for Active; 'I' for Inactive)
ROOT
ATOM      1  N1  IND d   1      -4.096   5.962  -1.765  0.00  0.00    -0.196 N 
ATOM      2  C2  IND d   1      -5.034   5.979  -2.760  0.00  0.00     0.054 A 
ATOM      3  C3  IND d   1      -4.434   5.997  -3.971  0.00  0.00    -0.031 A 
ATOM      4  C4  IND d   1      -1.929   5.901  -4.558  0.00  0.00     0.051 A 
ATOM      5  C5  IND d   1      -0.688   5.913  -3.987  0.00  0.00    -0.031 A 
ATOM      6  C6  IND d   1      -0.515   5.940  -2.618  0.00  0.00     0.015 A 
ATOM      7  C7  IND d   1      -1.583   5.944  -1.766  0.00  0.00    -0.016 A 
ATOM      8  C8  IND d   1      -2.845   5.939  -2.342  0.00  0.00    -0.047 A 
ATOM      9  C9  IND d   1      -3.026   5.955  -3.731  0.00  0.00    -0.096 A 
ATOM     10  HN1 IND d   1      -4.260   5.966  -0.921  0.00  0.00     0.298 HD
ENDROOT
TORSDOF 0
ENDMDL
