MODEL 1
REMARK minimizedAffinity 11.4673157
REMARK minimizedRMSD -1
REMARK  0 active torsions:
REMARK  status: ('A' for Active; 'I' for Inactive)
ROOT
ATOM      1  N1  IND d   1      -0.051  -0.137   0.863  0.00  0.00    -0.196 N 
ATOM      2  C2  IND d   1      -0.101   0.274   2.166  0.00  0.00     0.054 A 
ATOM      3  C3  IND d   1       0.504   1.476   2.303  0.00  0.00    -0.031 A 
ATOM      4  C4  IND d   1       1.553   2.993   0.508  0.00  0.00     0.051 A 
ATOM      5  C5  IND d   1       1.870   3.030  -0.821  0.00  0.00    -0.031 A 
ATOM      6  C6  IND d   1       1.554   1.992  -1.675  0.00  0.00     0.015 A 
ATOM      7  C7  IND d   1       0.896   0.880  -1.231  0.00  0.00    -0.016 A 
ATOM      8  C8  IND d   1       0.579   0.837   0.119  0.00  0.00    -0.047 A 
ATOM      9  C9  IND d   1       0.935   1.868   0.999  0.00  0.00    -0.096 A 
ATOM     10  HN1 IND d   1      -0.360  -0.879   0.559  0.00  0.00     0.298 HD
ENDROOT
TORSDOF 0
ENDMDL
