MODEL 1
REMARK minimizedAffinity 11.8647413
REMARK minimizedRMSD -1
REMARK  3 active torsions:
REMARK  status: ('A' for Active; 'I' for Inactive)
REMARK    1  A    between atoms: C3'_2  and  C2'_3 
REMARK    2  A    between atoms: C2'_3  and  C1'_4 
REMARK    3  A    between atoms: C1'_4  and  C1_5 
ROOT
ATOM      1  C1  N4B d   1       2.946  -0.752   2.551  0.00  0.00    -0.075 A 
ATOM      2  C2  N4B d   1       4.010  -1.636   2.833  0.00  0.00     0.002 A 
ATOM      3  C3  N4B d   1       3.930  -2.484   3.911  0.00  0.00     0.002 A 
ATOM      4  C4  N4B d   1       2.810  -2.452   4.728  0.00  0.00    -0.004 A 
ATOM      5  C5  N4B d   1       1.776  -1.613   4.434  0.00  0.00     0.002 A 
ATOM      6  C6  N4B d   1       1.840  -0.758   3.352  0.00  0.00     0.002 A 
ENDROOT
BRANCH   1   7
ATOM      7  C1' N4B d   1       3.023   0.254   1.435  0.00  0.00     0.057 C 
BRANCH   7   8
ATOM      8  C2' N4B d   1       4.024  -0.233   0.391  0.00  0.00     0.009 C 
BRANCH   8   9
ATOM      9  C3' N4B d   1       3.765   0.380  -0.974  0.00  0.00     0.004 C 
ATOM     10  C4' N4B d   1       3.457  -0.646  -2.023  0.00  0.00     0.003 C 
ENDBRANCH   8   9
ENDBRANCH   7   8
ENDBRANCH   1   7
TORSDOF 3
ENDMDL
