MODEL 1
REMARK minimizedAffinity 6.2065258
REMARK minimizedRMSD -1
REMARK  3 active torsions:
REMARK  status: ('A' for Active; 'I' for Inactive)
REMARK    1  A    between atoms: C3'_2  and  C2'_3 
REMARK    2  A    between atoms: C2'_3  and  C1'_4 
REMARK    3  A    between atoms: C1'_4  and  C1_5 
ROOT
ATOM      1  C1  N4B d   1       2.857  -1.831   3.671  0.00  0.00    -0.075 A 
ATOM      2  C2  N4B d   1       4.256  -2.025   3.658  0.00  0.00     0.002 A 
ATOM      3  C3  N4B d   1       4.915  -2.355   4.817  0.00  0.00     0.002 A 
ATOM      4  C4  N4B d   1       4.202  -2.477   6.000  0.00  0.00    -0.004 A 
ATOM      5  C5  N4B d   1       2.847  -2.313   6.000  0.00  0.00     0.002 A 
ATOM      6  C6  N4B d   1       2.172  -1.985   4.841  0.00  0.00     0.002 A 
ENDROOT
BRANCH   1   7
ATOM      7  C1' N4B d   1       2.105  -1.385   2.447  0.00  0.00     0.057 C 
BRANCH   7   8
ATOM      8  C2' N4B d   1       2.597  -0.002   2.033  0.00  0.00     0.009 C 
BRANCH   8   9
ATOM      9  C3' N4B d   1       2.180   1.070   3.025  0.00  0.00     0.004 C 
ATOM     10  C4' N4B d   1       2.608   2.446   2.609  0.00  0.00     0.003 C 
ENDBRANCH   8   9
ENDBRANCH   7   8
ENDBRANCH   1   7
TORSDOF 3
ENDMDL
