MODEL 1
REMARK minimizedAffinity 3.97234631
REMARK minimizedRMSD -1
REMARK  3 active torsions:
REMARK  status: ('A' for Active; 'I' for Inactive)
REMARK    1  A    between atoms: C3'_2  and  C2'_3 
REMARK    2  A    between atoms: C2'_3  and  C1'_4 
REMARK    3  A    between atoms: C1'_4  and  C1_5 
ROOT
ATOM      1  C1  N4B d   1       2.167  -1.389   3.837  0.00  0.00    -0.075 A 
ATOM      2  C2  N4B d   1       1.942  -2.291   2.773  0.00  0.00     0.002 A 
ATOM      3  C3  N4B d   1       1.805  -1.819   1.491  0.00  0.00     0.002 A 
ATOM      4  C4  N4B d   1       1.871  -0.455   1.251  0.00  0.00    -0.004 A 
ATOM      5  C5  N4B d   1       2.114   0.407   2.280  0.00  0.00     0.002 A 
ATOM      6  C6  N4B d   1       2.257  -0.053   3.574  0.00  0.00     0.002 A 
ENDROOT
BRANCH   1   7
ATOM      7  C1' N4B d   1       2.238  -1.850   5.267  0.00  0.00     0.057 C 
BRANCH   7   8
ATOM      8  C2' N4B d   1       3.611  -1.508   5.836  0.00  0.00     0.009 C 
BRANCH   8   9
ATOM      9  C3' N4B d   1       4.736  -2.075   4.987  0.00  0.00     0.004 C 
ATOM     10  C4' N4B d   1       5.999  -2.292   5.765  0.00  0.00     0.003 C 
ENDBRANCH   8   9
ENDBRANCH   7   8
ENDBRANCH   1   7
TORSDOF 3
ENDMDL
