MODEL 1
REMARK minimizedAffinity 3.99590087
REMARK minimizedRMSD -1
REMARK  3 active torsions:
REMARK  status: ('A' for Active; 'I' for Inactive)
REMARK    1  A    between atoms: C3'_2  and  C2'_3 
REMARK    2  A    between atoms: C2'_3  and  C1'_4 
REMARK    3  A    between atoms: C1'_4  and  C1_5 
ROOT
ATOM      1  C1  N4B d   1       3.340  -2.231   4.378  0.00  0.00    -0.075 A 
ATOM      2  C2  N4B d   1       4.309  -2.360   3.359  0.00  0.00     0.002 A 
ATOM      3  C3  N4B d   1       5.627  -2.567   3.687  0.00  0.00     0.002 A 
ATOM      4  C4  N4B d   1       6.000  -2.628   5.021  0.00  0.00    -0.004 A 
ATOM      5  C5  N4B d   1       5.054  -2.527   5.999  0.00  0.00     0.002 A 
ATOM      6  C6  N4B d   1       3.725  -2.324   5.684  0.00  0.00     0.002 A 
ENDROOT
BRANCH   1   7
ATOM      7  C1' N4B d   1       1.901  -1.918   4.070  0.00  0.00     0.057 C 
BRANCH   7   8
ATOM      8  C2' N4B d   1       1.832  -1.086   2.793  0.00  0.00     0.009 C 
BRANCH   8   9
ATOM      9  C3' N4B d   1       2.063   0.391   3.064  0.00  0.00     0.004 C 
ATOM     10  C4' N4B d   1       2.870   1.058   1.991  0.00  0.00     0.003 C 
ENDBRANCH   8   9
ENDBRANCH   7   8
ENDBRANCH   1   7
TORSDOF 3
ENDMDL
