MODEL 1
REMARK minimizedAffinity 7.60452747
REMARK minimizedRMSD -1
REMARK  3 active torsions:
REMARK  status: ('A' for Active; 'I' for Inactive)
REMARK    1  A    between atoms: C3'_2  and  C2'_3 
REMARK    2  A    between atoms: C2'_3  and  C1'_4 
REMARK    3  A    between atoms: C1'_4  and  C1_5 
ROOT
ATOM      1  C1  N4B d   1       3.966  -2.400   3.683  0.00  0.00    -0.075 A 
ATOM      2  C2  N4B d   1       4.424  -1.886   4.916  0.00  0.00     0.002 A 
ATOM      3  C3  N4B d   1       4.559  -2.719   6.000  0.00  0.00     0.002 A 
ATOM      4  C4  N4B d   1       4.227  -4.060   5.880  0.00  0.00    -0.004 A 
ATOM      5  C5  N4B d   1       3.810  -4.554   4.678  0.00  0.00     0.002 A 
ATOM      6  C6  N4B d   1       3.673  -3.729   3.580  0.00  0.00     0.002 A 
ENDROOT
BRANCH   1   7
ATOM      7  C1' N4B d   1       3.720  -1.512   2.494  0.00  0.00     0.057 C 
BRANCH   7   8
ATOM      8  C2' N4B d   1       2.220  -1.273   2.349  0.00  0.00     0.009 C 
BRANCH   8   9
ATOM      9  C3' N4B d   1       1.767  -0.034   3.101  0.00  0.00     0.004 C 
ATOM     10  C4' N4B d   1       2.164   1.239   2.415  0.00  0.00     0.003 C 
ENDBRANCH   8   9
ENDBRANCH   7   8
ENDBRANCH   1   7
TORSDOF 3
ENDMDL
