MODEL 1
REMARK minimizedAffinity 4.98915768
REMARK minimizedRMSD -1
REMARK  3 active torsions:
REMARK  status: ('A' for Active; 'I' for Inactive)
REMARK    1  A    between atoms: C3'_2  and  C2'_3 
REMARK    2  A    between atoms: C2'_3  and  C1'_4 
REMARK    3  A    between atoms: C1'_4  and  C1_5 
ROOT
ATOM      1  C1  N4B d   1       2.606  -2.030   2.718  0.00  0.00    -0.075 A 
ATOM      2  C2  N4B d   1       3.042  -3.135   1.953  0.00  0.00     0.002 A 
ATOM      3  C3  N4B d   1       2.975  -4.402   2.478  0.00  0.00     0.002 A 
ATOM      4  C4  N4B d   1       2.496  -4.586   3.767  0.00  0.00    -0.004 A 
ATOM      5  C5  N4B d   1       2.053  -3.517   4.489  0.00  0.00     0.002 A 
ATOM      6  C6  N4B d   1       2.110  -2.238   3.972  0.00  0.00     0.002 A 
ENDROOT
BRANCH   1   7
ATOM      7  C1' N4B d   1       2.739  -0.617   2.219  0.00  0.00     0.057 C 
BRANCH   7   8
ATOM      8  C2' N4B d   1       1.351   0.002   2.090  0.00  0.00     0.009 C 
BRANCH   8   9
ATOM      9  C3' N4B d   1       0.547  -0.635   0.970  0.00  0.00     0.004 C 
ATOM     10  C4' N4B d   1      -0.806  -0.010   0.798  0.00  0.00     0.003 C 
ENDBRANCH   8   9
ENDBRANCH   7   8
ENDBRANCH   1   7
TORSDOF 3
ENDMDL
