MODEL 1
REMARK minimizedAffinity -3.07011938
REMARK minimizedRMSD -1
REMARK  0 active torsions:
REMARK  status: ('A' for Active; 'I' for Inactive)
ROOT
ATOM      1  C1  DEN d   1       1.691   1.608   0.737  0.00  0.00     0.130 A 
ATOM      2  C2  DEN d   1       1.034   2.808   0.226  0.00  0.00    -0.031 A 
ATOM      3  C3  DEN d   1      -0.398   2.500   0.041  0.00  0.00     0.027 A 
ATOM      4  C4  DEN d   1      -1.657   0.296   0.499  0.00  0.00     0.027 A 
ATOM      5  C5  DEN d   1      -1.522  -1.006   0.928  0.00  0.00    -0.003 A 
ATOM      6  C6  DEN d   1      -0.310  -1.533   1.288  0.00  0.00     0.001 A 
ATOM      7  C7  DEN d   1       0.808  -0.742   1.269  0.00  0.00     0.017 A 
ATOM      8  C8  DEN d   1       0.680   0.570   0.830  0.00  0.00    -0.094 A 
ATOM      9  C9  DEN d   1      -0.555   1.088   0.482  0.00  0.00    -0.072 A 
ENDROOT
TORSDOF 0
ENDMDL
