MODEL 1
REMARK minimizedAffinity 7.9847784
REMARK minimizedRMSD -1
REMARK  0 active torsions:
REMARK  status: ('A' for Active; 'I' for Inactive)
ROOT
ATOM      1  C1  DEN d   1      -1.268  -2.014  -0.745  0.00  0.00     0.130 A 
ATOM      2  C2  DEN d   1      -1.777  -3.158   0.006  0.00  0.00    -0.031 A 
ATOM      3  C3  DEN d   1      -2.100  -2.700   1.373  0.00  0.00     0.027 A 
ATOM      4  C4  DEN d   1      -1.867  -0.342   2.391  0.00  0.00     0.027 A 
ATOM      5  C5  DEN d   1      -1.469   0.953   2.144  0.00  0.00    -0.003 A 
ATOM      6  C6  DEN d   1      -0.948   1.339   0.937  0.00  0.00     0.001 A 
ATOM      7  C7  DEN d   1      -0.854   0.431  -0.083  0.00  0.00     0.017 A 
ATOM      8  C8  DEN d   1      -1.246  -0.879   0.161  0.00  0.00    -0.094 A 
ATOM      9  C9  DEN d   1      -1.781  -1.247   1.383  0.00  0.00    -0.072 A 
ENDROOT
TORSDOF 0
ENDMDL
