MODEL 1
REMARK minimizedAffinity -1.25556374
REMARK minimizedRMSD -1
REMARK  0 active torsions:
REMARK  status: ('A' for Active; 'I' for Inactive)
ROOT
ATOM      1  C1  DEN d   1       1.796   2.414   1.608  0.00  0.00     0.130 A 
ATOM      2  C2  DEN d   1       2.049   3.506   0.672  0.00  0.00    -0.031 A 
ATOM      3  C3  DEN d   1       1.266   3.248  -0.553  0.00  0.00     0.027 A 
ATOM      4  C4  DEN d   1      -0.308   1.276  -1.088  0.00  0.00     0.027 A 
ATOM      5  C5  DEN d   1      -0.832   0.096  -0.607  0.00  0.00    -0.003 A 
ATOM      6  C6  DEN d   1      -0.494  -0.407   0.621  0.00  0.00     0.001 A 
ATOM      7  C7  DEN d   1       0.359   0.295   1.430  0.00  0.00     0.017 A 
ATOM      8  C8  DEN d   1       0.898   1.482   0.950  0.00  0.00    -0.094 A 
ATOM      9  C9  DEN d   1       0.534   1.980  -0.289  0.00  0.00    -0.072 A 
ENDROOT
TORSDOF 0
ENDMDL
