MODEL 1
REMARK minimizedAffinity -5.19445515
REMARK minimizedRMSD -1
REMARK  0 active torsions:
REMARK  status: ('A' for Active; 'I' for Inactive)
ROOT
ATOM      1  C1  DEN d   1       0.010  -2.995  -1.708  0.00  0.00     0.130 A 
ATOM      2  C2  DEN d   1       0.288  -3.844  -0.553  0.00  0.00    -0.031 A 
ATOM      3  C3  DEN d   1       0.466  -2.968   0.623  0.00  0.00     0.027 A 
ATOM      4  C4  DEN d   1       0.334  -0.397   0.767  0.00  0.00     0.027 A 
ATOM      5  C5  DEN d   1       0.134   0.759   0.045  0.00  0.00    -0.003 A 
ATOM      6  C6  DEN d   1      -0.086   0.747  -1.307  0.00  0.00     0.001 A 
ATOM      7  C7  DEN d   1      -0.156  -0.449  -1.972  0.00  0.00     0.017 A 
ATOM      8  C8  DEN d   1       0.052  -1.618  -1.252  0.00  0.00    -0.094 A 
ATOM      9  C9  DEN d   1       0.261  -1.585   0.116  0.00  0.00    -0.072 A 
ENDROOT
TORSDOF 0
ENDMDL
