MODEL 1
REMARK minimizedAffinity -2.3278842
REMARK minimizedRMSD -1
REMARK  0 active torsions:
REMARK  status: ('A' for Active; 'I' for Inactive)
ROOT
ATOM      1  C1  DEN d   1       0.416  -0.728   1.892  0.00  0.00     0.130 A 
ATOM      2  C2  DEN d   1      -0.518  -1.701   1.332  0.00  0.00    -0.031 A 
ATOM      3  C3  DEN d   1      -1.228  -1.057   0.209  0.00  0.00     0.027 A 
ATOM      4  C4  DEN d   1      -0.970   1.337  -0.716  0.00  0.00     0.027 A 
ATOM      5  C5  DEN d   1      -0.309   2.535  -0.560  0.00  0.00    -0.003 A 
ATOM      6  C6  DEN d   1       0.607   2.740   0.437  0.00  0.00     0.001 A 
ATOM      7  C7  DEN d   1       0.922   1.715   1.290  0.00  0.00     0.017 A 
ATOM      8  C8  DEN d   1       0.255   0.506   1.144  0.00  0.00    -0.094 A 
ATOM      9  C9  DEN d   1      -0.660   0.315   0.121  0.00  0.00    -0.072 A 
ENDROOT
TORSDOF 0
ENDMDL
