MODEL 1
REMARK minimizedAffinity 4.24137735
REMARK minimizedRMSD -1
REMARK  0 active torsions:
REMARK  status: ('A' for Active; 'I' for Inactive)
ROOT
ATOM      1  C1  DEN d   1      -3.286  -4.816  -2.053  0.00  0.00     0.130 A 
ATOM      2  C2  DEN d   1      -4.158  -3.760  -1.547  0.00  0.00    -0.031 A 
ATOM      3  C3  DEN d   1      -3.595  -3.275  -0.271  0.00  0.00     0.027 A 
ATOM      4  C4  DEN d   1      -1.465  -4.050   0.961  0.00  0.00     0.027 A 
ATOM      5  C5  DEN d   1      -0.405  -4.929   0.925  0.00  0.00    -0.003 A 
ATOM      6  C6  DEN d   1      -0.250  -5.846  -0.080  0.00  0.00     0.001 A 
ATOM      7  C7  DEN d   1      -1.147  -5.877  -1.115  0.00  0.00     0.017 A 
ATOM      8  C8  DEN d   1      -2.223  -4.999  -1.082  0.00  0.00    -0.094 A 
ATOM      9  C9  DEN d   1      -2.355  -4.071  -0.064  0.00  0.00    -0.072 A 
ENDROOT
TORSDOF 0
ENDMDL
