MODEL 1
REMARK minimizedAffinity 2.11871552
REMARK minimizedRMSD -1
REMARK  0 active torsions:
REMARK  status: ('A' for Active; 'I' for Inactive)
ROOT
ATOM      1  C1  DEN d   1      -0.159  -0.523  -1.328  0.00  0.00     0.130 A 
ATOM      2  C2  DEN d   1       0.279   0.867  -1.236  0.00  0.00    -0.031 A 
ATOM      3  C3  DEN d   1      -0.197   1.411   0.052  0.00  0.00     0.027 A 
ATOM      4  C4  DEN d   1      -1.556   0.240   1.905  0.00  0.00     0.027 A 
ATOM      5  C5  DEN d   1      -2.170  -0.937   2.273  0.00  0.00    -0.003 A 
ATOM      6  C6  DEN d   1      -2.185  -2.038   1.459  0.00  0.00     0.001 A 
ATOM      7  C7  DEN d   1      -1.536  -2.001   0.253  0.00  0.00     0.017 A 
ATOM      8  C8  DEN d   1      -0.922  -0.815  -0.128  0.00  0.00    -0.094 A 
ATOM      9  C9  DEN d   1      -0.907   0.283   0.714  0.00  0.00    -0.072 A 
ENDROOT
TORSDOF 0
ENDMDL
