MODEL 1
REMARK minimizedAffinity -1.41721547
REMARK minimizedRMSD -1
REMARK  0 active torsions:
REMARK  status: ('A' for Active; 'I' for Inactive)
ROOT
ATOM      1  C1  DEN d   1       0.101   1.736   0.940  0.00  0.00     0.130 A 
ATOM      2  C2  DEN d   1       0.212   2.151  -0.455  0.00  0.00    -0.031 A 
ATOM      3  C3  DEN d   1      -0.086   0.980  -1.305  0.00  0.00     0.027 A 
ATOM      4  C4  DEN d   1      -0.708  -1.421  -0.599  0.00  0.00     0.027 A 
ATOM      5  C5  DEN d   1      -0.914  -2.257   0.476  0.00  0.00    -0.003 A 
ATOM      6  C6  DEN d   1      -0.764  -1.833   1.770  0.00  0.00     0.001 A 
ATOM      7  C7  DEN d   1      -0.441  -0.526   2.023  0.00  0.00     0.017 A 
ATOM      8  C8  DEN d   1      -0.225   0.321   0.944  0.00  0.00    -0.094 A 
ATOM      9  C9  DEN d   1      -0.393  -0.123  -0.356  0.00  0.00    -0.072 A 
ENDROOT
TORSDOF 0
ENDMDL
