MODEL 1
REMARK minimizedAffinity 0.223386794
REMARK minimizedRMSD -1
REMARK  0 active torsions:
REMARK  status: ('A' for Active; 'I' for Inactive)
ROOT
ATOM      1  C1  DEN d   1       0.390  -0.007  -2.107  0.00  0.00     0.130 A 
ATOM      2  C2  DEN d   1       0.266  -1.160  -2.994  0.00  0.00    -0.031 A 
ATOM      3  C3  DEN d   1      -0.446  -2.226  -2.260  0.00  0.00     0.027 A 
ATOM      4  C4  DEN d   1      -1.368  -2.199   0.149  0.00  0.00     0.027 A 
ATOM      5  C5  DEN d   1      -1.492  -1.445   1.295  0.00  0.00    -0.003 A 
ATOM      6  C6  DEN d   1      -0.972  -0.182   1.398  0.00  0.00     0.001 A 
ATOM      7  C7  DEN d   1      -0.343   0.383   0.321  0.00  0.00     0.017 A 
ATOM      8  C8  DEN d   1      -0.207  -0.374  -0.836  0.00  0.00    -0.094 A 
ATOM      9  C9  DEN d   1      -0.750  -1.644  -0.924  0.00  0.00    -0.072 A 
ENDROOT
TORSDOF 0
ENDMDL
