MODEL 1
REMARK minimizedAffinity -2.09212613
REMARK minimizedRMSD -1
REMARK  0 active torsions:
REMARK  status: ('A' for Active; 'I' for Inactive)
ROOT
ATOM      1  C1  DEN d   1       1.470   2.619   2.031  0.00  0.00     0.130 A 
ATOM      2  C2  DEN d   1       1.522   3.567   0.923  0.00  0.00    -0.031 A 
ATOM      3  C3  DEN d   1       0.861   2.945  -0.242  0.00  0.00     0.027 A 
ATOM      4  C4  DEN d   1      -0.236   0.619  -0.434  0.00  0.00     0.027 A 
ATOM      5  C5  DEN d   1      -0.517  -0.549   0.241  0.00  0.00    -0.003 A 
ATOM      6  C6  DEN d   1      -0.128  -0.754   1.538  0.00  0.00     0.001 A 
ATOM      7  C7  DEN d   1       0.524   0.241   2.217  0.00  0.00     0.017 A 
ATOM      8  C8  DEN d   1       0.817   1.418   1.541  0.00  0.00    -0.094 A 
ATOM      9  C9  DEN d   1       0.405   1.612   0.234  0.00  0.00    -0.072 A 
ENDROOT
TORSDOF 0
ENDMDL
