MODEL 1
REMARK minimizedAffinity -3.09298587
REMARK minimizedRMSD -1
REMARK  0 active torsions:
REMARK  status: ('A' for Active; 'I' for Inactive)
ROOT
ATOM      1  C1  DEN d   1       0.704  -0.759   2.172  0.00  0.00     0.130 A 
ATOM      2  C2  DEN d   1      -0.345  -1.602   1.606  0.00  0.00    -0.031 A 
ATOM      3  C3  DEN d   1      -0.900  -0.909   0.426  0.00  0.00     0.027 A 
ATOM      4  C4  DEN d   1      -0.238   1.373  -0.576  0.00  0.00     0.027 A 
ATOM      5  C5  DEN d   1       0.593   2.463  -0.434  0.00  0.00    -0.003 A 
ATOM      6  C6  DEN d   1       1.488   2.569   0.597  0.00  0.00     0.001 A 
ATOM      7  C7  DEN d   1       1.605   1.548   1.502  0.00  0.00     0.017 A 
ATOM      8  C8  DEN d   1       0.766   0.450   1.371  0.00  0.00    -0.094 A 
ATOM      9  C9  DEN d   1      -0.124   0.355   0.314  0.00  0.00    -0.072 A 
ENDROOT
TORSDOF 0
ENDMDL
