MODEL 1
REMARK minimizedAffinity -3.68948364
REMARK minimizedRMSD -1
REMARK  0 active torsions:
REMARK  status: ('A' for Active; 'I' for Inactive)
ROOT
ATOM      1  C1  DEN d   1       1.555   3.194  -0.778  0.00  0.00     0.130 A 
ATOM      2  C2  DEN d   1       2.398   3.661   0.320  0.00  0.00    -0.031 A 
ATOM      3  C3  DEN d   1       2.279   2.694   1.429  0.00  0.00     0.027 A 
ATOM      4  C4  DEN d   1       0.883   0.528   1.553  0.00  0.00     0.027 A 
ATOM      5  C5  DEN d   1      -0.002  -0.276   0.871  0.00  0.00    -0.003 A 
ATOM      6  C6  DEN d   1      -0.454   0.034  -0.385  0.00  0.00     0.001 A 
ATOM      7  C7  DEN d   1       0.015   1.156  -1.016  0.00  0.00     0.017 A 
ATOM      8  C8  DEN d   1       0.902   1.977  -0.332  0.00  0.00    -0.094 A 
ATOM      9  C9  DEN d   1       1.356   1.639   0.932  0.00  0.00    -0.072 A 
ENDROOT
TORSDOF 0
ENDMDL
