MODEL 1
REMARK minimizedAffinity -4.14717674
REMARK minimizedRMSD -1
REMARK  0 active torsions:
REMARK  status: ('A' for Active; 'I' for Inactive)
ROOT
ATOM      1  C1  DEN d   1       0.209   0.679  -2.096  0.00  0.00     0.130 A 
ATOM      2  C2  DEN d   1       0.608   1.938  -1.473  0.00  0.00    -0.031 A 
ATOM      3  C3  DEN d   1       0.563   1.758  -0.008  0.00  0.00     0.027 A 
ATOM      4  C4  DEN d   1      -0.079  -0.340   1.349  0.00  0.00     0.027 A 
ATOM      5  C5  DEN d   1      -0.501  -1.648   1.261  0.00  0.00    -0.003 A 
ATOM      6  C6  DEN d   1      -0.746  -2.257   0.059  0.00  0.00     0.001 A 
ATOM      7  C7  DEN d   1      -0.528  -1.571  -1.107  0.00  0.00     0.017 A 
ATOM      8  C8  DEN d   1      -0.110  -0.249  -1.026  0.00  0.00    -0.094 A 
ATOM      9  C9  DEN d   1       0.144   0.345   0.199  0.00  0.00    -0.072 A 
ENDROOT
TORSDOF 0
ENDMDL
