MODEL 1
REMARK minimizedAffinity -1.8854239
REMARK minimizedRMSD -1
REMARK  0 active torsions:
REMARK  status: ('A' for Active; 'I' for Inactive)
ROOT
ATOM      1  C1  DEN d   1      -0.641  -2.933  -1.508  0.00  0.00     0.130 A 
ATOM      2  C2  DEN d   1      -0.310  -2.296  -2.780  0.00  0.00    -0.031 A 
ATOM      3  C3  DEN d   1      -0.074  -0.861  -2.524  0.00  0.00     0.027 A 
ATOM      4  C4  DEN d   1      -0.183   0.429  -0.293  0.00  0.00     0.027 A 
ATOM      5  C5  DEN d   1      -0.436   0.318   1.057  0.00  0.00    -0.003 A 
ATOM      6  C6  DEN d   1      -0.804  -0.867   1.636  0.00  0.00     0.001 A 
ATOM      7  C7  DEN d   1      -0.887  -2.000   0.870  0.00  0.00     0.017 A 
ATOM      8  C8  DEN d   1      -0.641  -1.895  -0.493  0.00  0.00    -0.094 A 
ATOM      9  C9  DEN d   1      -0.258  -0.690  -1.057  0.00  0.00    -0.072 A 
ENDROOT
TORSDOF 0
ENDMDL
