MODEL 1
REMARK minimizedAffinity -3.26570368
REMARK minimizedRMSD -1
REMARK  0 active torsions:
REMARK  status: ('A' for Active; 'I' for Inactive)
ROOT
ATOM      1  C1  DEN d   1      -0.079  -0.829   1.503  0.00  0.00     0.130 A 
ATOM      2  C2  DEN d   1      -0.470  -1.350   0.196  0.00  0.00    -0.031 A 
ATOM      3  C3  DEN d   1      -0.110  -0.343  -0.823  0.00  0.00     0.027 A 
ATOM      4  C4  DEN d   1       1.013   1.957  -0.505  0.00  0.00     0.027 A 
ATOM      5  C5  DEN d   1       1.520   2.841   0.423  0.00  0.00    -0.003 A 
ATOM      6  C6  DEN d   1       1.498   2.580   1.767  0.00  0.00     0.001 A 
ATOM      7  C7  DEN d   1       1.000   1.386   2.219  0.00  0.00     0.017 A 
ATOM      8  C8  DEN d   1       0.481   0.494   1.290  0.00  0.00    -0.094 A 
ATOM      9  C9  DEN d   1       0.522   0.771  -0.066  0.00  0.00    -0.072 A 
ENDROOT
TORSDOF 0
ENDMDL
