MODEL 1
REMARK minimizedAffinity -3.0497694
REMARK minimizedRMSD -1
REMARK  0 active torsions:
REMARK  status: ('A' for Active; 'I' for Inactive)
ROOT
ATOM      1  C1  DEN d   1      -0.222   1.006   0.841  0.00  0.00     0.130 A 
ATOM      2  C2  DEN d   1       0.140   1.802  -0.329  0.00  0.00    -0.031 A 
ATOM      3  C3  DEN d   1       0.213   0.895  -1.492  0.00  0.00     0.027 A 
ATOM      4  C4  DEN d   1      -0.200  -1.648  -1.596  0.00  0.00     0.027 A 
ATOM      5  C5  DEN d   1      -0.521  -2.765  -0.856  0.00  0.00    -0.003 A 
ATOM      6  C6  DEN d   1      -0.730  -2.709   0.497  0.00  0.00     0.001 A 
ATOM      7  C7  DEN d   1      -0.664  -1.504   1.144  0.00  0.00     0.017 A 
ATOM      8  C8  DEN d   1      -0.334  -0.375   0.406  0.00  0.00    -0.094 A 
ATOM      9  C9  DEN d   1      -0.139  -0.450  -0.963  0.00  0.00    -0.072 A 
ENDROOT
TORSDOF 0
ENDMDL
