MODEL 1
REMARK minimizedAffinity -2.12031889
REMARK minimizedRMSD -1
REMARK  0 active torsions:
REMARK  status: ('A' for Active; 'I' for Inactive)
ROOT
ATOM      1  C1  DEN d   1      -0.081   0.791  -1.031  0.00  0.00     0.130 A 
ATOM      2  C2  DEN d   1       0.743   1.732  -0.277  0.00  0.00    -0.031 A 
ATOM      3  C3  DEN d   1       0.836   1.244   1.114  0.00  0.00     0.027 A 
ATOM      4  C4  DEN d   1      -0.206  -0.868   2.166  0.00  0.00     0.027 A 
ATOM      5  C5  DEN d   1      -0.997  -1.969   1.924  0.00  0.00    -0.003 A 
ATOM      6  C6  DEN d   1      -1.561  -2.208   0.699  0.00  0.00     0.001 A 
ATOM      7  C7  DEN d   1      -1.305  -1.357  -0.343  0.00  0.00     0.017 A 
ATOM      8  C8  DEN d   1      -0.515  -0.240  -0.105  0.00  0.00    -0.094 A 
ATOM      9  C9  DEN d   1       0.056  -0.023   1.137  0.00  0.00    -0.072 A 
ENDROOT
TORSDOF 0
ENDMDL
