MODEL 1
REMARK minimizedAffinity 11.8041344
REMARK minimizedRMSD -1
REMARK  0 active torsions:
REMARK  status: ('A' for Active; 'I' for Inactive)
ROOT
ATOM      1  N1  IND d   1      -2.522  -5.714  -5.288  0.00  0.00    -0.196 N 
ATOM      2  C2  IND d   1      -1.390  -6.000  -6.000  0.00  0.00     0.054 A 
ATOM      3  C3  IND d   1      -0.379  -5.187  -5.621  0.00  0.00    -0.031 A 
ATOM      4  C4  IND d   1      -0.328  -3.386  -3.783  0.00  0.00     0.051 A 
ATOM      5  C5  IND d   1      -1.132  -2.738  -2.887  0.00  0.00    -0.031 A 
ATOM      6  C6  IND d   1      -2.466  -3.058  -2.740  0.00  0.00     0.015 A 
ATOM      7  C7  IND d   1      -3.046  -4.050  -3.480  0.00  0.00    -0.016 A 
ATOM      8  C8  IND d   1      -2.235  -4.704  -4.396  0.00  0.00    -0.047 A 
ATOM      9  C9  IND d   1      -0.891  -4.355  -4.579  0.00  0.00    -0.096 A 
ATOM     10  HN1 IND d   1      -3.284  -6.100  -5.382  0.00  0.00     0.298 HD
ENDROOT
TORSDOF 0
ENDMDL
