MODEL 1
REMARK minimizedAffinity -0.18546477
REMARK minimizedRMSD -1
REMARK  0 active torsions:
REMARK  status: ('A' for Active; 'I' for Inactive)
ROOT
ATOM      1  N1  IND d   1      -3.089  -0.338  -0.333  0.00  0.00    -0.196 N 
ATOM      2  C2  IND d   1      -4.256   0.364  -0.446  0.00  0.00     0.054 A 
ATOM      3  C3  IND d   1      -4.569   0.949   0.732  0.00  0.00    -0.031 A 
ATOM      4  C4  IND d   1      -3.255   0.971   2.946  0.00  0.00     0.051 A 
ATOM      5  C5  IND d   1      -2.148   0.440   3.547  0.00  0.00    -0.031 A 
ATOM      6  C6  IND d   1      -1.279  -0.391   2.871  0.00  0.00     0.015 A 
ATOM      7  C7  IND d   1      -1.480  -0.716   1.559  0.00  0.00    -0.016 A 
ATOM      8  C8  IND d   1      -2.607  -0.185   0.948  0.00  0.00    -0.047 A 
ATOM      9  C9  IND d   1      -3.515   0.626   1.641  0.00  0.00    -0.096 A 
ATOM     10  HN1 IND d   1      -2.718  -0.799  -0.958  0.00  0.00     0.298 HD
ENDROOT
TORSDOF 0
ENDMDL
