MODEL 1
REMARK minimizedAffinity 10.0503464
REMARK minimizedRMSD -1
REMARK  0 active torsions:
REMARK  status: ('A' for Active; 'I' for Inactive)
ROOT
ATOM      1  N1  IND d   1      -2.774   1.556   2.131  0.00  0.00    -0.196 N 
ATOM      2  C2  IND d   1      -1.813   0.597   2.290  0.00  0.00     0.054 A 
ATOM      3  C3  IND d   1      -1.818   0.131   3.559  0.00  0.00    -0.031 A 
ATOM      4  C4  IND d   1      -3.383   0.727   5.514  0.00  0.00     0.051 A 
ATOM      5  C5  IND d   1      -4.395   1.576   5.863  0.00  0.00    -0.031 A 
ATOM      6  C6  IND d   1      -4.931   2.479   4.968  0.00  0.00     0.015 A 
ATOM      7  C7  IND d   1      -4.481   2.558   3.680  0.00  0.00    -0.016 A 
ATOM      8  C8  IND d   1      -3.449   1.702   3.324  0.00  0.00    -0.047 A 
ATOM      9  C9  IND d   1      -2.872   0.813   4.241  0.00  0.00    -0.096 A 
ATOM     10  HN1 IND d   1      -2.931   1.994   1.409  0.00  0.00     0.298 HD
ENDROOT
TORSDOF 0
ENDMDL
