MODEL 1
REMARK minimizedAffinity 4.33998013
REMARK minimizedRMSD -1
REMARK  0 active torsions:
REMARK  status: ('A' for Active; 'I' for Inactive)
ROOT
ATOM      1  N1  IND d   1      -5.747  -5.521   2.024  0.00  0.00    -0.196 N 
ATOM      2  C2  IND d   1      -5.741  -4.368   1.291  0.00  0.00     0.054 A 
ATOM      3  C3  IND d   1      -5.843  -3.293   2.104  0.00  0.00    -0.031 A 
ATOM      4  C4  IND d   1      -5.929  -3.189   4.675  0.00  0.00     0.051 A 
ATOM      5  C5  IND d   1      -5.999  -3.985   5.783  0.00  0.00    -0.031 A 
ATOM      6  C6  IND d   1      -5.985  -5.362   5.694  0.00  0.00     0.015 A 
ATOM      7  C7  IND d   1      -5.889  -5.997   4.488  0.00  0.00    -0.016 A 
ATOM      8  C8  IND d   1      -5.825  -5.191   3.360  0.00  0.00    -0.047 A 
ATOM      9  C9  IND d   1      -5.882  -3.794   3.441  0.00  0.00    -0.096 A 
ATOM     10  HN1 IND d   1      -5.708  -6.319   1.706  0.00  0.00     0.298 HD
ENDROOT
TORSDOF 0
ENDMDL
