MODEL 1
REMARK minimizedAffinity 12.0533419
REMARK minimizedRMSD -1
REMARK  0 active torsions:
REMARK  status: ('A' for Active; 'I' for Inactive)
ROOT
ATOM      1  N1  IND d   1      -5.458  -4.684   1.850  0.00  0.00    -0.196 N 
ATOM      2  C2  IND d   1      -5.996  -5.631   2.676  0.00  0.00     0.054 A 
ATOM      3  C3  IND d   1      -6.000  -5.192   3.955  0.00  0.00    -0.031 A 
ATOM      4  C4  IND d   1      -5.267  -2.914   4.905  0.00  0.00     0.051 A 
ATOM      5  C5  IND d   1      -4.675  -1.736   4.543  0.00  0.00    -0.031 A 
ATOM      6  C6  IND d   1      -4.309  -1.475   3.239  0.00  0.00     0.015 A 
ATOM      7  C7  IND d   1      -4.533  -2.380   2.241  0.00  0.00    -0.016 A 
ATOM      8  C8  IND d   1      -5.127  -3.580   2.605  0.00  0.00    -0.047 A 
ATOM      9  C9  IND d   1      -5.462  -3.869   3.934  0.00  0.00    -0.096 A 
ATOM     10  HN1 IND d   1      -5.345  -4.764   1.001  0.00  0.00     0.298 HD
ENDROOT
TORSDOF 0
ENDMDL
