MODEL 1
REMARK minimizedAffinity 2.57784367
REMARK minimizedRMSD -1
REMARK  0 active torsions:
REMARK  status: ('A' for Active; 'I' for Inactive)
ROOT
ATOM      1  N1  IND d   1      -2.623   0.154   3.967  0.00  0.00    -0.196 N 
ATOM      2  C2  IND d   1      -2.148  -0.220   2.741  0.00  0.00     0.054 A 
ATOM      3  C3  IND d   1      -2.724  -1.379   2.348  0.00  0.00    -0.031 A 
ATOM      4  C4  IND d   1      -4.544  -2.778   3.511  0.00  0.00     0.051 A 
ATOM      5  C5  IND d   1      -5.267  -2.858   4.669  0.00  0.00    -0.031 A 
ATOM      6  C6  IND d   1      -5.144  -1.917   5.671  0.00  0.00     0.015 A 
ATOM      7  C7  IND d   1      -4.300  -0.850   5.547  0.00  0.00    -0.016 A 
ATOM      8  C8  IND d   1      -3.559  -0.770   4.376  0.00  0.00    -0.047 A 
ATOM      9  C9  IND d   1      -3.648  -1.745   3.374  0.00  0.00    -0.096 A 
ATOM     10  HN1 IND d   1      -2.379   0.850   4.408  0.00  0.00     0.298 HD
ENDROOT
TORSDOF 0
ENDMDL
