MODEL 1
REMARK minimizedAffinity 8.58520222
REMARK minimizedRMSD -1
REMARK  0 active torsions:
REMARK  status: ('A' for Active; 'I' for Inactive)
ROOT
ATOM      1  N1  IND d   1      -2.059  -4.368   0.299  0.00  0.00    -0.196 N 
ATOM      2  C2  IND d   1      -3.329  -3.941   0.024  0.00  0.00     0.054 A 
ATOM      3  C3  IND d   1      -3.507  -2.677   0.470  0.00  0.00    -0.031 A 
ATOM      4  C4  IND d   1      -1.821  -1.084   1.587  0.00  0.00     0.051 A 
ATOM      5  C5  IND d   1      -0.547  -1.037   2.079  0.00  0.00    -0.031 A 
ATOM      6  C6  IND d   1       0.306  -2.118   1.999  0.00  0.00     0.015 A 
ATOM      7  C7  IND d   1      -0.081  -3.289   1.411  0.00  0.00    -0.016 A 
ATOM      8  C8  IND d   1      -1.376  -3.343   0.916  0.00  0.00    -0.047 A 
ATOM      9  C9  IND d   1      -2.261  -2.263   1.033  0.00  0.00    -0.096 A 
ATOM     10  HN1 IND d   1      -1.741  -5.146   0.117  0.00  0.00     0.298 HD
ENDROOT
TORSDOF 0
ENDMDL
