MODEL 1
REMARK minimizedAffinity 9.64340591
REMARK minimizedRMSD -1
REMARK  0 active torsions:
REMARK  status: ('A' for Active; 'I' for Inactive)
ROOT
ATOM      1  N1  IND d   1       1.074   2.918   0.142  0.00  0.00    -0.196 N 
ATOM      2  C2  IND d   1       1.934   1.985   0.653  0.00  0.00     0.054 A 
ATOM      3  C3  IND d   1       2.875   1.662  -0.263  0.00  0.00    -0.031 A 
ATOM      4  C4  IND d   1       3.255   2.614  -2.624  0.00  0.00     0.051 A 
ATOM      5  C5  IND d   1       2.706   3.462  -3.545  0.00  0.00    -0.031 A 
ATOM      6  C6  IND d   1       1.563   4.188  -3.277  0.00  0.00     0.015 A 
ATOM      7  C7  IND d   1       0.931   4.101  -2.069  0.00  0.00    -0.016 A 
ATOM      8  C8  IND d   1       1.481   3.237  -1.134  0.00  0.00    -0.047 A 
ATOM      9  C9  IND d   1       2.617   2.465  -1.415  0.00  0.00    -0.096 A 
ATOM     10  HN1 IND d   1       0.394   3.249   0.550  0.00  0.00     0.298 HD
ENDROOT
TORSDOF 0
ENDMDL
