MODEL 1
REMARK minimizedAffinity 13.9789848
REMARK minimizedRMSD -1
REMARK  0 active torsions:
REMARK  status: ('A' for Active; 'I' for Inactive)
ROOT
ATOM      1  N1  IND d   1       3.910   4.905  -5.450  0.00  0.00    -0.196 N 
ATOM      2  C2  IND d   1       5.230   4.561  -5.540  0.00  0.00     0.054 A 
ATOM      3  C3  IND d   1       5.506   3.533  -4.706  0.00  0.00    -0.031 A 
ATOM      4  C4  IND d   1       3.923   2.195  -3.180  0.00  0.00     0.051 A 
ATOM      5  C5  IND d   1       2.632   2.161  -2.732  0.00  0.00    -0.031 A 
ATOM      6  C6  IND d   1       1.682   3.056  -3.178  0.00  0.00     0.015 A 
ATOM      7  C7  IND d   1       1.985   4.016  -4.102  0.00  0.00    -0.016 A 
ATOM      8  C8  IND d   1       3.297   4.058  -4.553  0.00  0.00    -0.047 A 
ATOM      9  C9  IND d   1       4.276   3.179  -4.072  0.00  0.00    -0.096 A 
ATOM     10  HN1 IND d   1       3.528   5.543  -5.881  0.00  0.00     0.298 HD
ENDROOT
TORSDOF 0
ENDMDL
