MODEL 1
REMARK minimizedAffinity 9.59662437
REMARK minimizedRMSD -1
REMARK  0 active torsions:
REMARK  status: ('A' for Active; 'I' for Inactive)
ROOT
ATOM      1  N1  IND d   1       4.018   3.610   2.129  0.00  0.00    -0.196 N 
ATOM      2  C2  IND d   1       5.257   4.012   1.717  0.00  0.00     0.054 A 
ATOM      3  C3  IND d   1       5.489   3.598   0.451  0.00  0.00    -0.031 A 
ATOM      4  C4  IND d   1       3.935   2.337  -1.168  0.00  0.00     0.051 A 
ATOM      5  C5  IND d   1       2.716   1.723  -1.232  0.00  0.00    -0.031 A 
ATOM      6  C6  IND d   1       1.849   1.708  -0.157  0.00  0.00     0.015 A 
ATOM      7  C7  IND d   1       2.167   2.320   1.022  0.00  0.00    -0.016 A 
ATOM      8  C8  IND d   1       3.407   2.938   1.093  0.00  0.00    -0.047 A 
ATOM      9  C9  IND d   1       4.308   2.920   0.020  0.00  0.00    -0.096 A 
ATOM     10  HN1 IND d   1       3.677   3.752   2.906  0.00  0.00     0.298 HD
ENDROOT
TORSDOF 0
ENDMDL
