MODEL 1
REMARK minimizedAffinity 2.31201482
REMARK minimizedRMSD -1
REMARK  0 active torsions:
REMARK  status: ('A' for Active; 'I' for Inactive)
ROOT
ATOM      1  N1  IND d   1       0.085  -0.779   4.192  0.00  0.00    -0.196 N 
ATOM      2  C2  IND d   1       0.739  -1.936   3.872  0.00  0.00     0.054 A 
ATOM      3  C3  IND d   1       0.095  -2.579   2.872  0.00  0.00    -0.031 A 
ATOM      4  C4  IND d   1      -1.991  -1.863   1.544  0.00  0.00     0.051 A 
ATOM      5  C5  IND d   1      -2.960  -0.900   1.497  0.00  0.00    -0.031 A 
ATOM      6  C6  IND d   1      -2.961   0.176   2.361  0.00  0.00     0.015 A 
ATOM      7  C7  IND d   1      -1.984   0.335   3.302  0.00  0.00    -0.016 A 
ATOM      8  C8  IND d   1      -1.002  -0.644   3.357  0.00  0.00    -0.047 A 
ATOM      9  C9  IND d   1      -1.019  -1.761   2.511  0.00  0.00    -0.096 A 
ATOM     10  HN1 IND d   1       0.315  -0.228   4.811  0.00  0.00     0.298 HD
ENDROOT
TORSDOF 0
ENDMDL
