MODEL 1
REMARK minimizedAffinity 15.150424
REMARK minimizedRMSD -1
REMARK  0 active torsions:
REMARK  status: ('A' for Active; 'I' for Inactive)
ROOT
ATOM      1  N1  IND d   1      -5.988  -6.000   4.855  0.00  0.00    -0.196 N 
ATOM      2  C2  IND d   1      -6.000  -5.251   5.999  0.00  0.00     0.054 A 
ATOM      3  C3  IND d   1      -5.336  -4.089   5.807  0.00  0.00    -0.031 A 
ATOM      4  C4  IND d   1      -4.240  -3.165   3.669  0.00  0.00     0.051 A 
ATOM      5  C5  IND d   1      -3.941  -3.503   2.379  0.00  0.00    -0.031 A 
ATOM      6  C6  IND d   1      -4.319  -4.715   1.837  0.00  0.00     0.015 A 
ATOM      7  C7  IND d   1      -5.023  -5.632   2.564  0.00  0.00    -0.016 A 
ATOM      8  C8  IND d   1      -5.322  -5.295   3.876  0.00  0.00    -0.047 A 
ATOM      9  C9  IND d   1      -4.905  -4.084   4.445  0.00  0.00    -0.096 A 
ATOM     10  HN1 IND d   1      -6.337  -6.780   4.762  0.00  0.00     0.298 HD
ENDROOT
TORSDOF 0
ENDMDL
