MODEL 1
REMARK minimizedAffinity 12.9015732
REMARK minimizedRMSD -1
REMARK  0 active torsions:
REMARK  status: ('A' for Active; 'I' for Inactive)
ROOT
ATOM      1  N1  IND d   1      -1.878   0.645   2.954  0.00  0.00    -0.196 N 
ATOM      2  C2  IND d   1      -3.137   0.919   2.499  0.00  0.00     0.054 A 
ATOM      3  C3  IND d   1      -3.584  -0.087   1.714  0.00  0.00    -0.031 A 
ATOM      4  C4  IND d   1      -2.457  -2.326   1.126  0.00  0.00     0.051 A 
ATOM      5  C5  IND d   1      -1.287  -3.015   1.278  0.00  0.00    -0.031 A 
ATOM      6  C6  IND d   1      -0.233  -2.511   2.013  0.00  0.00     0.015 A 
ATOM      7  C7  IND d   1      -0.316  -1.298   2.636  0.00  0.00    -0.016 A 
ATOM      8  C8  IND d   1      -1.500  -0.592   2.479  0.00  0.00    -0.047 A 
ATOM      9  C9  IND d   1      -2.557  -1.080   1.699  0.00  0.00    -0.096 A 
ATOM     10  HN1 IND d   1      -1.402   1.158   3.454  0.00  0.00     0.298 HD
ENDROOT
TORSDOF 0
ENDMDL
