MODEL 1
REMARK minimizedAffinity 20.9833965
REMARK minimizedRMSD -1
REMARK  0 active torsions:
REMARK  status: ('A' for Active; 'I' for Inactive)
ROOT
ATOM      1  N1  IND d   1      -5.162  -4.241   5.885  0.00  0.00    -0.196 N 
ATOM      2  C2  IND d   1      -5.852  -5.421   5.898  0.00  0.00     0.054 A 
ATOM      3  C3  IND d   1      -5.818  -5.999   4.676  0.00  0.00    -0.031 A 
ATOM      4  C4  IND d   1      -4.602  -5.236   2.539  0.00  0.00     0.051 A 
ATOM      5  C5  IND d   1      -3.871  -4.201   2.027  0.00  0.00    -0.031 A 
ATOM      6  C6  IND d   1      -3.523  -3.106   2.791  0.00  0.00     0.015 A 
ATOM      7  C7  IND d   1      -3.886  -3.010   4.105  0.00  0.00    -0.016 A 
ATOM      8  C8  IND d   1      -4.634  -4.055   4.626  0.00  0.00    -0.047 A 
ATOM      9  C9  IND d   1      -5.027  -5.149   3.844  0.00  0.00    -0.096 A 
ATOM     10  HN1 IND d   1      -5.072  -3.705   6.552  0.00  0.00     0.298 HD
ENDROOT
TORSDOF 0
ENDMDL
