MODEL 1
REMARK minimizedAffinity 16.118433
REMARK minimizedRMSD -1
REMARK  0 active torsions:
REMARK  status: ('A' for Active; 'I' for Inactive)
ROOT
ATOM      1  N1  IND d   1      -4.231  -4.656   2.122  0.00  0.00    -0.196 N 
ATOM      2  C2  IND d   1      -3.541  -3.477   2.180  0.00  0.00     0.054 A 
ATOM      3  C3  IND d   1      -3.587  -2.966   3.430  0.00  0.00    -0.031 A 
ATOM      4  C4  IND d   1      -4.651  -3.946   5.560  0.00  0.00     0.051 A 
ATOM      5  C5  IND d   1      -5.423  -4.986   5.998  0.00  0.00    -0.031 A 
ATOM      6  C6  IND d   1      -5.844  -5.990   5.150  0.00  0.00     0.015 A 
ATOM      7  C7  IND d   1      -5.496  -5.998   3.829  0.00  0.00    -0.016 A 
ATOM      8  C8  IND d   1      -4.718  -4.941   3.379  0.00  0.00    -0.047 A 
ATOM      9  C9  IND d   1      -4.324  -3.897   4.225  0.00  0.00    -0.096 A 
ATOM     10  HN1 IND d   1      -4.342  -5.139   1.419  0.00  0.00     0.298 HD
ENDROOT
TORSDOF 0
ENDMDL
