MODEL 1
REMARK minimizedAffinity 9.89430237
REMARK minimizedRMSD -1
REMARK  0 active torsions:
REMARK  status: ('A' for Active; 'I' for Inactive)
ROOT
ATOM      1  N1  IND d   1      -3.155  -3.560   3.126  0.00  0.00    -0.196 N 
ATOM      2  C2  IND d   1      -3.178  -4.192   1.914  0.00  0.00     0.054 A 
ATOM      3  C3  IND d   1      -4.065  -5.213   1.933  0.00  0.00    -0.031 A 
ATOM      4  C4  IND d   1      -5.657  -5.961   3.813  0.00  0.00     0.051 A 
ATOM      5  C5  IND d   1      -5.974  -5.713   5.119  0.00  0.00    -0.031 A 
ATOM      6  C6  IND d   1      -5.356  -4.713   5.841  0.00  0.00     0.015 A 
ATOM      7  C7  IND d   1      -4.403  -3.913   5.279  0.00  0.00    -0.016 A 
ATOM      8  C8  IND d   1      -4.074  -4.166   3.954  0.00  0.00    -0.047 A 
ATOM      9  C9  IND d   1      -4.667  -5.207   3.229  0.00  0.00    -0.096 A 
ATOM     10  HN1 IND d   1      -2.650  -2.896   3.336  0.00  0.00     0.298 HD
ENDROOT
TORSDOF 0
ENDMDL
