MODEL 1
REMARK minimizedAffinity 15.2887878
REMARK minimizedRMSD -1
REMARK  0 active torsions:
REMARK  status: ('A' for Active; 'I' for Inactive)
ROOT
ATOM      1  N1  IND d   1       2.638   2.786  -4.018  0.00  0.00    -0.196 N 
ATOM      2  C2  IND d   1       1.910   2.624  -2.872  0.00  0.00     0.054 A 
ATOM      3  C3  IND d   1       2.612   3.062  -1.803  0.00  0.00    -0.031 A 
ATOM      4  C4  IND d   1       4.931   4.176  -1.714  0.00  0.00     0.051 A 
ATOM      5  C5  IND d   1       5.999   4.506  -2.501  0.00  0.00    -0.031 A 
ATOM      6  C6  IND d   1       6.000   4.277  -3.861  0.00  0.00     0.015 A 
ATOM      7  C7  IND d   1       4.924   3.718  -4.490  0.00  0.00    -0.016 A 
ATOM      8  C8  IND d   1       3.841   3.376  -3.693  0.00  0.00    -0.047 A 
ATOM      9  C9  IND d   1       3.851   3.566  -2.306  0.00  0.00    -0.096 A 
ATOM     10  HN1 IND d   1       2.387   2.559  -4.808  0.00  0.00     0.298 HD
ENDROOT
TORSDOF 0
ENDMDL
