MODEL 1
REMARK minimizedAffinity -5.39199448
REMARK minimizedRMSD -1
REMARK  1 active torsions:
REMARK  status: ('A' for Active; 'I' for Inactive)
REMARK    1  A    between atoms: C1_2  and  C2_3 
ROOT
ATOM      1  C2  UNL d   1       0.205   0.274  -0.374  0.00  0.00    -0.073 A 
ATOM      2  C3  UNL d   1       1.054   0.065   0.719  0.00  0.00    -0.002 A 
ATOM      3  C4  UNL d   1       0.574   0.205   2.021  0.00  0.00     0.004 A 
ATOM      4  C5  UNL d   1      -0.760   0.548   2.245  0.00  0.00    -0.004 A 
ATOM      5  C6  UNL d   1      -1.627   0.749   1.166  0.00  0.00    -0.075 A 
ATOM      6  C7  UNL d   1      -3.063   1.120   1.389  0.00  0.00     0.076 C 
ATOM      7  C8  UNL d   1      -1.136   0.609  -0.140  0.00  0.00     0.001 A 
ENDROOT
BRANCH   1   8
ATOM      8  C1  UNL d   1       0.718   0.118  -1.783  0.00  0.00     0.053 C 
ATOM      9  C   UNL d   1       0.333  -1.225  -2.383  0.00  0.00     0.018 C 
ENDBRANCH   1   8
TORSDOF 1
ENDMDL
