MODEL 1
REMARK minimizedAffinity -2.47064066
REMARK minimizedRMSD -1
REMARK  1 active torsions:
REMARK  status: ('A' for Active; 'I' for Inactive)
REMARK    1  A    between atoms: C1_2  and  C2_3 
ROOT
ATOM      1  C2  UNL d   1       0.236   0.259  -0.473  0.00  0.00    -0.073 A 
ATOM      2  C3  UNL d   1       1.272   0.016   0.437  0.00  0.00    -0.002 A 
ATOM      3  C4  UNL d   1       1.008  -0.040   1.806  0.00  0.00     0.004 A 
ATOM      4  C5  UNL d   1      -0.291   0.139   2.279  0.00  0.00    -0.004 A 
ATOM      5  C6  UNL d   1      -1.342   0.372   1.385  0.00  0.00    -0.075 A 
ATOM      6  C7  UNL d   1      -2.745   0.569   1.878  0.00  0.00     0.076 C 
ATOM      7  C8  UNL d   1      -1.069   0.429   0.011  0.00  0.00     0.001 A 
ENDROOT
BRANCH   1   8
ATOM      8  C1  UNL d   1       0.514   0.314  -1.953  0.00  0.00     0.053 C 
ATOM      9  C   UNL d   1      -0.014  -0.913  -2.678  0.00  0.00     0.018 C 
ENDBRANCH   1   8
TORSDOF 1
ENDMDL
