MODEL 1
REMARK minimizedAffinity -1.82530558
REMARK minimizedRMSD -1
REMARK  1 active torsions:
REMARK  status: ('A' for Active; 'I' for Inactive)
REMARK    1  A    between atoms: C1_2  and  C2_3 
ROOT
ATOM      1  C2  UNL d   1       0.231   0.388  -0.067  0.00  0.00    -0.073 A 
ATOM      2  C3  UNL d   1       0.885   0.375   1.170  0.00  0.00    -0.002 A 
ATOM      3  C4  UNL d   1       0.151   0.439   2.355  0.00  0.00     0.004 A 
ATOM      4  C5  UNL d   1      -1.241   0.510   2.316  0.00  0.00    -0.004 A 
ATOM      5  C6  UNL d   1      -1.913   0.513   1.090  0.00  0.00    -0.075 A 
ATOM      6  C7  UNL d   1      -3.410   0.591   1.031  0.00  0.00     0.076 C 
ATOM      7  C8  UNL d   1      -1.169   0.450  -0.096  0.00  0.00     0.001 A 
ENDROOT
BRANCH   1   8
ATOM      8  C1  UNL d   1       1.019   0.312  -1.350  0.00  0.00     0.053 C 
ATOM      9  C   UNL d   1       0.500  -0.778  -2.274  0.00  0.00     0.018 C 
ENDBRANCH   1   8
TORSDOF 1
ENDMDL
