MODEL 1
REMARK minimizedAffinity -3.4267838
REMARK minimizedRMSD -1
REMARK  1 active torsions:
REMARK  status: ('A' for Active; 'I' for Inactive)
REMARK    1  A    between atoms: C1_2  and  C2_3 
ROOT
ATOM      1  C2  UNL d   1      -0.443   0.448   0.953  0.00  0.00    -0.073 A 
ATOM      2  C3  UNL d   1      -1.715   0.789   0.479  0.00  0.00    -0.002 A 
ATOM      3  C4  UNL d   1      -1.964   0.843  -0.893  0.00  0.00     0.004 A 
ATOM      4  C5  UNL d   1      -0.949   0.552  -1.803  0.00  0.00    -0.004 A 
ATOM      5  C6  UNL d   1       0.326   0.197  -1.349  0.00  0.00    -0.075 A 
ATOM      6  C7  UNL d   1       1.430  -0.117  -2.315  0.00  0.00     0.076 C 
ATOM      7  C8  UNL d   1       0.569   0.147   0.030  0.00  0.00     0.001 A 
ENDROOT
BRANCH   1   8
ATOM      8  C1  UNL d   1      -0.170   0.381   2.434  0.00  0.00     0.053 C 
ATOM      9  C   UNL d   1      -1.378   0.803   3.255  0.00  0.00     0.018 C 
ENDBRANCH   1   8
TORSDOF 1
ENDMDL
