MODEL 1
REMARK minimizedAffinity -3.01242661
REMARK minimizedRMSD -1
REMARK  1 active torsions:
REMARK  status: ('A' for Active; 'I' for Inactive)
REMARK    1  A    between atoms: C1_2  and  C2_3 
ROOT
ATOM      1  C2  UNL d   1      -1.183   0.594   2.248  0.00  0.00    -0.073 A 
ATOM      2  C3  UNL d   1      -0.008   0.287   2.943  0.00  0.00    -0.002 A 
ATOM      3  C4  UNL d   1       1.169   0.007   2.247  0.00  0.00     0.004 A 
ATOM      4  C5  UNL d   1       1.185   0.037   0.853  0.00  0.00    -0.004 A 
ATOM      5  C6  UNL d   1       0.023   0.352   0.141  0.00  0.00    -0.075 A 
ATOM      6  C7  UNL d   1       0.023   0.387  -1.359  0.00  0.00     0.076 C 
ATOM      7  C8  UNL d   1      -1.156   0.630   0.846  0.00  0.00     0.001 A 
ENDROOT
BRANCH   1   8
ATOM      8  C1  UNL d   1      -2.455   0.903   2.994  0.00  0.00     0.053 C 
ATOM      9  C   UNL d   1      -3.506   1.532   2.094  0.00  0.00     0.018 C 
ENDBRANCH   1   8
TORSDOF 1
ENDMDL
