MODEL 1
REMARK minimizedAffinity -0.98708564
REMARK minimizedRMSD -1
REMARK  1 active torsions:
REMARK  status: ('A' for Active; 'I' for Inactive)
REMARK    1  A    between atoms: C1_2  and  C2_3 
ROOT
ATOM      1  C2  UNL d   1       0.491  -0.196  -2.134  0.00  0.00    -0.073 A 
ATOM      2  C3  UNL d   1      -0.247  -1.217  -2.742  0.00  0.00    -0.002 A 
ATOM      3  C4  UNL d   1       0.343  -2.038  -3.703  0.00  0.00     0.004 A 
ATOM      4  C5  UNL d   1       1.678  -1.851  -4.061  0.00  0.00    -0.004 A 
ATOM      5  C6  UNL d   1       2.437  -0.844  -3.456  0.00  0.00    -0.075 A 
ATOM      6  C7  UNL d   1       3.874  -0.629  -3.831  0.00  0.00     0.076 C 
ATOM      7  C8  UNL d   1       1.836  -0.022  -2.493  0.00  0.00     0.001 A 
ENDROOT
BRANCH   1   8
ATOM      8  C1  UNL d   1      -0.140   0.689  -1.090  0.00  0.00     0.053 C 
ATOM      9  C   UNL d   1       0.627   0.660   0.222  0.00  0.00     0.018 C 
ENDBRANCH   1   8
TORSDOF 1
ENDMDL
