MODEL 1
REMARK minimizedAffinity -2.72788024
REMARK minimizedRMSD -1
REMARK  1 active torsions:
REMARK  status: ('A' for Active; 'I' for Inactive)
REMARK    1  A    between atoms: C1_2  and  C2_3 
ROOT
ATOM      1  C2  UNL d   1      -1.281   0.589   0.378  0.00  0.00    -0.073 A 
ATOM      2  C3  UNL d   1      -1.907   0.736   1.620  0.00  0.00    -0.002 A 
ATOM      3  C4  UNL d   1      -1.150   0.769   2.792  0.00  0.00     0.004 A 
ATOM      4  C5  UNL d   1       0.240   0.662   2.733  0.00  0.00    -0.004 A 
ATOM      5  C6  UNL d   1       0.885   0.526   1.499  0.00  0.00    -0.075 A 
ATOM      6  C7  UNL d   1       2.379   0.408   1.419  0.00  0.00     0.076 C 
ATOM      7  C8  UNL d   1       0.117   0.492   0.328  0.00  0.00     0.001 A 
ENDROOT
BRANCH   1   8
ATOM      8  C1  UNL d   1      -2.094   0.560  -0.891  0.00  0.00     0.053 C 
ATOM      9  C   UNL d   1      -3.588   0.607  -0.611  0.00  0.00     0.018 C 
ENDBRANCH   1   8
TORSDOF 1
ENDMDL
