MODEL 1
REMARK minimizedAffinity -0.326848209
REMARK minimizedRMSD -1
REMARK  1 active torsions:
REMARK  status: ('A' for Active; 'I' for Inactive)
REMARK    1  A    between atoms: C1_2  and  C2_3 
ROOT
ATOM      1  C2  UNL d   1      -0.001   0.086  -0.201  0.00  0.00    -0.073 A 
ATOM      2  C3  UNL d   1       1.322   0.264   0.219  0.00  0.00    -0.002 A 
ATOM      3  C4  UNL d   1       1.609   0.499   1.564  0.00  0.00     0.004 A 
ATOM      4  C5  UNL d   1       0.579   0.551   2.503  0.00  0.00    -0.004 A 
ATOM      5  C6  UNL d   1      -0.748   0.363   2.105  0.00  0.00    -0.075 A 
ATOM      6  C7  UNL d   1      -1.868   0.418   3.103  0.00  0.00     0.076 C 
ATOM      7  C8  UNL d   1      -1.029   0.131   0.752  0.00  0.00     0.001 A 
ENDROOT
BRANCH   1   8
ATOM      8  C1  UNL d   1      -0.316  -0.173  -1.651  0.00  0.00     0.053 C 
ATOM      9  C   UNL d   1       0.930  -0.126  -2.522  0.00  0.00     0.018 C 
ENDBRANCH   1   8
TORSDOF 1
ENDMDL
