MODEL 1
REMARK minimizedAffinity -4.10441589
REMARK minimizedRMSD -1
REMARK  1 active torsions:
REMARK  status: ('A' for Active; 'I' for Inactive)
REMARK    1  A    between atoms: C1_2  and  C2_3 
ROOT
ATOM      1  C2  UNL d   1       0.371   0.391  -0.596  0.00  0.00    -0.073 A 
ATOM      2  C3  UNL d   1       1.296   0.197   0.436  0.00  0.00    -0.002 A 
ATOM      3  C4  UNL d   1       0.884   0.230   1.769  0.00  0.00     0.004 A 
ATOM      4  C5  UNL d   1      -0.457   0.451   2.083  0.00  0.00    -0.004 A 
ATOM      5  C6  UNL d   1      -1.399   0.635   1.065  0.00  0.00    -0.075 A 
ATOM      6  C7  UNL d   1      -2.845   0.876   1.386  0.00  0.00     0.076 C 
ATOM      7  C8  UNL d   1      -0.976   0.603  -0.270  0.00  0.00     0.001 A 
ENDROOT
BRANCH   1   8
ATOM      8  C1  UNL d   1       0.811   0.350  -2.036  0.00  0.00     0.053 C 
ATOM      9  C   UNL d   1       0.839  -1.069  -2.583  0.00  0.00     0.018 C 
ENDBRANCH   1   8
TORSDOF 1
ENDMDL
