MODEL 1
REMARK minimizedAffinity -3.54534769
REMARK minimizedRMSD -1
REMARK  1 active torsions:
REMARK  status: ('A' for Active; 'I' for Inactive)
REMARK    1  A    between atoms: C1_2  and  C2_3 
ROOT
ATOM      1  C2  UNL d   1      -0.458   0.257  -0.129  0.00  0.00    -0.073 A 
ATOM      2  C3  UNL d   1       0.657  -0.042   0.662  0.00  0.00    -0.002 A 
ATOM      3  C4  UNL d   1       0.550  -0.057   2.054  0.00  0.00     0.004 A 
ATOM      4  C5  UNL d   1      -0.672   0.219   2.667  0.00  0.00    -0.004 A 
ATOM      5  C6  UNL d   1      -1.801   0.508   1.893  0.00  0.00    -0.075 A 
ATOM      6  C7  UNL d   1      -3.122   0.809   2.537  0.00  0.00     0.076 C 
ATOM      7  C8  UNL d   1      -1.685   0.524   0.496  0.00  0.00     0.001 A 
ENDROOT
BRANCH   1   8
ATOM      8  C1  UNL d   1      -0.349   0.268  -1.632  0.00  0.00     0.053 C 
ATOM      9  C   UNL d   1       1.062   0.591  -2.099  0.00  0.00     0.018 C 
ENDBRANCH   1   8
TORSDOF 1
ENDMDL
