MODEL 1
REMARK minimizedAffinity -3.62721753
REMARK minimizedRMSD -1
REMARK  1 active torsions:
REMARK  status: ('A' for Active; 'I' for Inactive)
REMARK    1  A    between atoms: C1_2  and  C2_3 
ROOT
ATOM      1  C2  UNL d   1      -1.582   0.466   0.811  0.00  0.00    -0.073 A 
ATOM      2  C3  UNL d   1      -0.648   0.628   1.840  0.00  0.00    -0.002 A 
ATOM      3  C4  UNL d   1       0.710   0.420   1.598  0.00  0.00     0.004 A 
ATOM      4  C5  UNL d   1       1.149   0.055   0.326  0.00  0.00    -0.004 A 
ATOM      5  C6  UNL d   1       0.232  -0.101  -0.719  0.00  0.00    -0.075 A 
ATOM      6  C7  UNL d   1       0.688  -0.495  -2.093  0.00  0.00     0.076 C 
ATOM      7  C8  UNL d   1      -1.131   0.108  -0.468  0.00  0.00     0.001 A 
ENDROOT
BRANCH   1   8
ATOM      8  C1  UNL d   1      -3.050   0.696   1.065  0.00  0.00     0.053 C 
ATOM      9  C   UNL d   1      -3.313   1.183   2.481  0.00  0.00     0.018 C 
ENDBRANCH   1   8
TORSDOF 1
ENDMDL
