MODEL 1
REMARK minimizedAffinity -2.29620242
REMARK minimizedRMSD -1
REMARK  1 active torsions:
REMARK  status: ('A' for Active; 'I' for Inactive)
REMARK    1  A    between atoms: C1_2  and  C2_3 
ROOT
ATOM      1  C2  UNL d   1       0.320  -0.587  -1.274  0.00  0.00    -0.073 A 
ATOM      2  C3  UNL d   1       1.154   0.522  -1.458  0.00  0.00    -0.002 A 
ATOM      3  C4  UNL d   1       1.522   1.316  -0.371  0.00  0.00     0.004 A 
ATOM      4  C5  UNL d   1       1.067   1.006   0.910  0.00  0.00    -0.004 A 
ATOM      5  C6  UNL d   1       0.243  -0.105   1.117  0.00  0.00    -0.075 A 
ATOM      6  C7  UNL d   1      -0.256  -0.451   2.489  0.00  0.00     0.076 C 
ATOM      7  C8  UNL d   1      -0.124  -0.896   0.020  0.00  0.00     0.001 A 
ENDROOT
BRANCH   1   8
ATOM      8  C1  UNL d   1      -0.075  -1.451  -2.443  0.00  0.00     0.053 C 
ATOM      9  C   UNL d   1       0.996  -1.474  -3.523  0.00  0.00     0.018 C 
ENDBRANCH   1   8
TORSDOF 1
ENDMDL
