MODEL 1
REMARK minimizedAffinity 0.243936062
REMARK minimizedRMSD -1
REMARK  2 active torsions:
REMARK  status: ('A' for Active; 'I' for Inactive)
REMARK    1  A    between atoms: C2'_3  and  C1'_4 
REMARK    2  A    between atoms: C1'_4  and  C1_5 
ROOT
ATOM      1  C1  I4B d   1      -1.088  -5.959  -3.351  0.00  0.00    -0.075 A 
ATOM      2  C2  I4B d   1       0.284  -5.943  -3.303  0.00  0.00     0.003 A 
ATOM      3  C3  I4B d   1       1.039  -5.935  -4.501  0.00  0.00     0.002 A 
ATOM      4  C4  I4B d   1       0.387  -5.994  -5.716  0.00  0.00    -0.004 A 
ATOM      5  C5  I4B d   1      -1.004  -5.987  -5.762  0.00  0.00     0.002 A 
ATOM      6  C6  I4B d   1      -1.747  -5.957  -4.573  0.00  0.00     0.003 A 
ENDROOT
BRANCH   1   7
ATOM      7  C1' I4B d   1      -1.853  -6.000  -2.066  0.00  0.00     0.060 C 
BRANCH   7   8
ATOM      8  C2' I4B d   1      -3.255  -5.496  -2.342  0.00  0.00    -0.013 C 
ATOM      9  C4' I4B d   1      -3.765  -5.998  -3.667  0.00  0.00     0.013 C 
ATOM     10  C3' I4B d   1      -4.139  -5.945  -1.217  0.00  0.00     0.013 C 
ENDBRANCH   7   8
ENDBRANCH   1   7
TORSDOF 2
ENDMDL
