MODEL 1
REMARK minimizedAffinity 2.43331313
REMARK minimizedRMSD -1
REMARK  2 active torsions:
REMARK  status: ('A' for Active; 'I' for Inactive)
REMARK    1  A    between atoms: C2'_3  and  C1'_4 
REMARK    2  A    between atoms: C1'_4  and  C1_5 
ROOT
ATOM      1  C1  I4B d   1       1.525  -0.904   0.841  0.00  0.00    -0.075 A 
ATOM      2  C2  I4B d   1       2.649  -0.445   0.200  0.00  0.00     0.003 A 
ATOM      3  C3  I4B d   1       2.648   0.828  -0.419  0.00  0.00     0.002 A 
ATOM      4  C4  I4B d   1       1.493   1.583  -0.417  0.00  0.00    -0.004 A 
ATOM      5  C5  I4B d   1       0.361   1.127   0.252  0.00  0.00     0.002 A 
ATOM      6  C6  I4B d   1       0.380  -0.119   0.896  0.00  0.00     0.003 A 
ENDROOT
BRANCH   1   7
ATOM      7  C1' I4B d   1       1.551  -2.267   1.455  0.00  0.00     0.060 C 
BRANCH   7   8
ATOM      8  C2' I4B d   1       0.238  -2.951   1.131  0.00  0.00    -0.013 C 
ATOM      9  C4' I4B d   1       0.356  -3.794  -0.111  0.00  0.00     0.013 C 
ATOM     10  C3' I4B d   1      -0.156  -3.782   2.315  0.00  0.00     0.013 C 
ENDBRANCH   7   8
ENDBRANCH   1   7
TORSDOF 2
ENDMDL
