MODEL 1
REMARK minimizedAffinity 2.07763553
REMARK minimizedRMSD -1
REMARK  2 active torsions:
REMARK  status: ('A' for Active; 'I' for Inactive)
REMARK    1  A    between atoms: C2'_3  and  C1'_4 
REMARK    2  A    between atoms: C1'_4  and  C1_5 
ROOT
ATOM      1  C1  I4B d   1      -2.492  -5.958  -2.382  0.00  0.00    -0.075 A 
ATOM      2  C2  I4B d   1      -1.237  -5.997  -1.828  0.00  0.00     0.003 A 
ATOM      3  C3  I4B d   1      -0.090  -5.991  -2.660  0.00  0.00     0.002 A 
ATOM      4  C4  I4B d   1      -0.245  -5.997  -4.031  0.00  0.00    -0.004 A 
ATOM      5  C5  I4B d   1      -1.518  -5.934  -4.590  0.00  0.00     0.002 A 
ATOM      6  C6  I4B d   1      -2.649  -5.902  -3.761  0.00  0.00     0.003 A 
ENDROOT
BRANCH   1   7
ATOM      7  C1' I4B d   1      -3.681  -5.998  -1.475  0.00  0.00     0.060 C 
BRANCH   7   8
ATOM      8  C2' I4B d   1      -3.230  -5.570  -0.094  0.00  0.00    -0.013 C 
ATOM      9  C4' I4B d   1      -2.976  -4.086  -0.039  0.00  0.00     0.013 C 
ATOM     10  C3' I4B d   1      -4.291  -5.974   0.886  0.00  0.00     0.013 C 
ENDBRANCH   7   8
ENDBRANCH   1   7
TORSDOF 2
ENDMDL
