MODEL 1
REMARK minimizedAffinity 2.83023548
REMARK minimizedRMSD -1
REMARK  2 active torsions:
REMARK  status: ('A' for Active; 'I' for Inactive)
REMARK    1  A    between atoms: C2'_3  and  C1'_4 
REMARK    2  A    between atoms: C1'_4  and  C1_5 
ROOT
ATOM      1  C1  I4B d   1      -1.691  -5.972  -2.761  0.00  0.00    -0.075 A 
ATOM      2  C2  I4B d   1      -1.864  -5.994  -4.122  0.00  0.00     0.003 A 
ATOM      3  C3  I4B d   1      -0.742  -5.952  -4.985  0.00  0.00     0.002 A 
ATOM      4  C4  I4B d   1       0.524  -5.838  -4.447  0.00  0.00    -0.004 A 
ATOM      5  C5  I4B d   1       0.699  -5.839  -3.066  0.00  0.00     0.002 A 
ATOM      6  C6  I4B d   1      -0.415  -5.919  -2.217  0.00  0.00     0.003 A 
ENDROOT
BRANCH   1   7
ATOM      7  C1' I4B d   1      -2.901  -5.985  -1.880  0.00  0.00     0.060 C 
BRANCH   7   8
ATOM      8  C2' I4B d   1      -4.090  -5.556  -2.715  0.00  0.00    -0.013 C 
ATOM      9  C4' I4B d   1      -5.385  -5.998  -2.086  0.00  0.00     0.013 C 
ATOM     10  C3' I4B d   1      -4.040  -4.064  -2.859  0.00  0.00     0.013 C 
ENDBRANCH   7   8
ENDBRANCH   1   7
TORSDOF 2
ENDMDL
