MODEL 1
REMARK minimizedAffinity 3.9833715
REMARK minimizedRMSD -1
REMARK  2 active torsions:
REMARK  status: ('A' for Active; 'I' for Inactive)
REMARK    1  A    between atoms: C2'_3  and  C1'_4 
REMARK    2  A    between atoms: C1'_4  and  C1_5 
ROOT
ATOM      1  C1  I4B d   1       1.092  -0.860   0.860  0.00  0.00    -0.075 A 
ATOM      2  C2  I4B d   1       2.414  -1.195   0.703  0.00  0.00     0.003 A 
ATOM      3  C3  I4B d   1       3.287  -0.338  -0.009  0.00  0.00     0.002 A 
ATOM      4  C4  I4B d   1       2.789   0.812  -0.587  0.00  0.00    -0.004 A 
ATOM      5  C5  I4B d   1       1.453   1.162  -0.408  0.00  0.00     0.002 A 
ATOM      6  C6  I4B d   1       0.602   0.327   0.331  0.00  0.00     0.003 A 
ENDROOT
BRANCH   1   7
ATOM      7  C1' I4B d   1       0.190  -1.805   1.589  0.00  0.00     0.060 C 
BRANCH   7   8
ATOM      8  C2' I4B d   1      -0.685  -2.499   0.565  0.00  0.00    -0.013 C 
ATOM      9  C4' I4B d   1      -1.791  -1.593   0.091  0.00  0.00     0.013 C 
ATOM     10  C3' I4B d   1       0.188  -2.930  -0.575  0.00  0.00     0.013 C 
ENDBRANCH   7   8
ENDBRANCH   1   7
TORSDOF 2
ENDMDL
