MODEL 1
REMARK minimizedAffinity 0.485047758
REMARK minimizedRMSD -1
REMARK  2 active torsions:
REMARK  status: ('A' for Active; 'I' for Inactive)
REMARK    1  A    between atoms: C2'_3  and  C1'_4 
REMARK    2  A    between atoms: C1'_4  and  C1_5 
ROOT
ATOM      1  C1  I4B d   1       0.009  -1.132   0.620  0.00  0.00    -0.075 A 
ATOM      2  C2  I4B d   1       0.970  -1.593   1.485  0.00  0.00     0.003 A 
ATOM      3  C3  I4B d   1       1.100  -2.981   1.733  0.00  0.00     0.002 A 
ATOM      4  C4  I4B d   1       0.221  -3.863   1.139  0.00  0.00    -0.004 A 
ATOM      5  C5  I4B d   1      -0.738  -3.396   0.244  0.00  0.00     0.002 A 
ATOM      6  C6  I4B d   1      -0.838  -2.024  -0.026  0.00  0.00     0.003 A 
ENDROOT
BRANCH   1   7
ATOM      7  C1' I4B d   1      -0.122   0.342   0.407  0.00  0.00     0.060 C 
BRANCH   7   8
ATOM      8  C2' I4B d   1       1.112   0.818  -0.332  0.00  0.00    -0.013 C 
ATOM      9  C4' I4B d   1       1.130   0.310  -1.749  0.00  0.00     0.013 C 
ATOM     10  C3' I4B d   1       1.125   2.317  -0.294  0.00  0.00     0.013 C 
ENDBRANCH   7   8
ENDBRANCH   1   7
TORSDOF 2
ENDMDL
