MODEL 1
REMARK minimizedAffinity 1.53655207
REMARK minimizedRMSD -1
REMARK  2 active torsions:
REMARK  status: ('A' for Active; 'I' for Inactive)
REMARK    1  A    between atoms: C2'_3  and  C1'_4 
REMARK    2  A    between atoms: C1'_4  and  C1_5 
ROOT
ATOM      1  C1  I4B d   1       0.708  -0.890   0.889  0.00  0.00    -0.075 A 
ATOM      2  C2  I4B d   1      -0.410  -1.611   0.550  0.00  0.00     0.003 A 
ATOM      3  C3  I4B d   1      -0.423  -3.018   0.701  0.00  0.00     0.002 A 
ATOM      4  C4  I4B d   1       0.713  -3.665   1.144  0.00  0.00    -0.004 A 
ATOM      5  C5  I4B d   1       1.838  -2.930   1.508  0.00  0.00     0.002 A 
ATOM      6  C6  I4B d   1       1.831  -1.533   1.392  0.00  0.00     0.003 A 
ENDROOT
BRANCH   1   7
ATOM      7  C1' I4B d   1       0.699   0.592   0.685  0.00  0.00     0.060 C 
BRANCH   7   8
ATOM      8  C2' I4B d   1       2.023   0.986   0.061  0.00  0.00    -0.013 C 
ATOM      9  C4' I4B d   1       2.205   0.337  -1.286  0.00  0.00     0.013 C 
ATOM     10  C3' I4B d   1       2.056   2.481  -0.050  0.00  0.00     0.013 C 
ENDBRANCH   7   8
ENDBRANCH   1   7
TORSDOF 2
ENDMDL
