MODEL 1
REMARK minimizedAffinity 5.86205149
REMARK minimizedRMSD -1
REMARK  2 active torsions:
REMARK  status: ('A' for Active; 'I' for Inactive)
REMARK    1  A    between atoms: C2'_3  and  C1'_4 
REMARK    2  A    between atoms: C1'_4  and  C1_5 
ROOT
ATOM      1  C1  I4B d   1       0.872  -1.183   1.014  0.00  0.00    -0.075 A 
ATOM      2  C2  I4B d   1      -0.404  -0.711   0.825  0.00  0.00     0.003 A 
ATOM      3  C3  I4B d   1      -1.462  -1.610   0.549  0.00  0.00     0.002 A 
ATOM      4  C4  I4B d   1      -1.194  -2.957   0.421  0.00  0.00    -0.004 A 
ATOM      5  C5  I4B d   1       0.095  -3.436   0.635  0.00  0.00     0.002 A 
ATOM      6  C6  I4B d   1       1.132  -2.545   0.946  0.00  0.00     0.003 A 
ENDROOT
BRANCH   1   7
ATOM      7  C1' I4B d   1       1.972  -0.203   1.271  0.00  0.00     0.060 C 
BRANCH   7   8
ATOM      8  C2' I4B d   1       3.280  -0.852   0.866  0.00  0.00    -0.013 C 
ATOM      9  C4' I4B d   1       3.755  -0.336  -0.467  0.00  0.00     0.013 C 
ATOM     10  C3' I4B d   1       4.286  -0.578   1.943  0.00  0.00     0.013 C 
ENDBRANCH   7   8
ENDBRANCH   1   7
TORSDOF 2
ENDMDL
