MODEL 1
REMARK minimizedAffinity -0.626833022
REMARK minimizedRMSD -1
REMARK  2 active torsions:
REMARK  status: ('A' for Active; 'I' for Inactive)
REMARK    1  A    between atoms: C2'_3  and  C1'_4 
REMARK    2  A    between atoms: C1'_4  and  C1_5 
ROOT
ATOM      1  C1  I4B d   1      -0.891  -6.000  -3.644  0.00  0.00    -0.075 A 
ATOM      2  C2  I4B d   1      -1.380  -6.000  -2.362  0.00  0.00     0.003 A 
ATOM      3  C3  I4B d   1      -2.778  -5.988  -2.133  0.00  0.00     0.002 A 
ATOM      4  C4  I4B d   1      -3.642  -5.927  -3.206  0.00  0.00    -0.004 A 
ATOM      5  C5  I4B d   1      -3.144  -5.950  -4.506  0.00  0.00     0.002 A 
ATOM      6  C6  I4B d   1      -1.760  -6.000  -4.727  0.00  0.00     0.003 A 
ENDROOT
BRANCH   1   7
ATOM      7  C1' I4B d   1       0.591  -5.979  -3.850  0.00  0.00     0.060 C 
BRANCH   7   8
ATOM      8  C2' I4B d   1       0.877  -5.174  -5.102  0.00  0.00    -0.013 C 
ATOM      9  C4' I4B d   1      -0.371  -4.980  -5.922  0.00  0.00     0.013 C 
ATOM     10  C3' I4B d   1       1.460  -3.858  -4.683  0.00  0.00     0.013 C 
ENDBRANCH   7   8
ENDBRANCH   1   7
TORSDOF 2
ENDMDL
