MODEL 1
REMARK minimizedAffinity 3.20556521
REMARK minimizedRMSD -1
REMARK  2 active torsions:
REMARK  status: ('A' for Active; 'I' for Inactive)
REMARK    1  A    between atoms: C2'_3  and  C1'_4 
REMARK    2  A    between atoms: C1'_4  and  C1_5 
ROOT
ATOM      1  C1  I4B d   1      -0.801  -5.819  -3.588  0.00  0.00    -0.075 A 
ATOM      2  C2  I4B d   1       0.517  -5.514  -3.353  0.00  0.00     0.003 A 
ATOM      3  C3  I4B d   1       1.419  -5.367  -4.434  0.00  0.00     0.002 A 
ATOM      4  C4  I4B d   1       0.975  -5.581  -5.723  0.00  0.00    -0.004 A 
ATOM      5  C5  I4B d   1      -0.366  -5.867  -5.962  0.00  0.00     0.002 A 
ATOM      6  C6  I4B d   1      -1.263  -5.974  -4.888  0.00  0.00     0.003 A 
ENDROOT
BRANCH   1   7
ATOM      7  C1' I4B d   1      -1.718  -6.000  -2.421  0.00  0.00     0.060 C 
BRANCH   7   8
ATOM      8  C2' I4B d   1      -3.086  -5.482  -2.818  0.00  0.00    -0.013 C 
ATOM      9  C4' I4B d   1      -3.493  -6.000  -4.172  0.00  0.00     0.013 C 
ATOM     10  C3' I4B d   1      -4.064  -5.903  -1.762  0.00  0.00     0.013 C 
ENDBRANCH   7   8
ENDBRANCH   1   7
TORSDOF 2
ENDMDL
