MODEL 1
REMARK minimizedAffinity 12.4055176
REMARK minimizedRMSD -1
REMARK  2 active torsions:
REMARK  status: ('A' for Active; 'I' for Inactive)
REMARK    1  A    between atoms: C2'_3  and  C1'_4 
REMARK    2  A    between atoms: C1'_4  and  C1_5 
ROOT
ATOM      1  C1  I4B d   1       0.770  -0.216   0.759  0.00  0.00    -0.075 A 
ATOM      2  C2  I4B d   1      -0.276   0.674   0.745  0.00  0.00     0.003 A 
ATOM      3  C3  I4B d   1      -0.215   1.833  -0.065  0.00  0.00     0.002 A 
ATOM      4  C4  I4B d   1       0.924   2.089  -0.801  0.00  0.00    -0.004 A 
ATOM      5  C5  I4B d   1       1.973   1.174  -0.804  0.00  0.00     0.002 A 
ATOM      6  C6  I4B d   1       1.891   0.008  -0.029  0.00  0.00     0.003 A 
ENDROOT
BRANCH   1   7
ATOM      7  C1' I4B d   1       0.685  -1.413   1.651  0.00  0.00     0.060 C 
BRANCH   7   8
ATOM      8  C2' I4B d   1       0.274  -2.599   0.803  0.00  0.00    -0.013 C 
ATOM      9  C4' I4B d   1       0.883  -3.876   1.319  0.00  0.00     0.013 C 
ATOM     10  C3' I4B d   1      -1.224  -2.674   0.807  0.00  0.00     0.013 C 
ENDBRANCH   7   8
ENDBRANCH   1   7
TORSDOF 2
ENDMDL
