MODEL 1
REMARK minimizedAffinity -0.373451322
REMARK minimizedRMSD -1
REMARK  2 active torsions:
REMARK  status: ('A' for Active; 'I' for Inactive)
REMARK    1  A    between atoms: C2'_3  and  C1'_4 
REMARK    2  A    between atoms: C1'_4  and  C1_5 
ROOT
ATOM      1  C1  I4B d   1       0.343  -5.078  -1.502  0.00  0.00    -0.075 A 
ATOM      2  C2  I4B d   1      -0.844  -5.508  -2.038  0.00  0.00     0.003 A 
ATOM      3  C3  I4B d   1      -0.891  -6.000  -3.365  0.00  0.00     0.002 A 
ATOM      4  C4  I4B d   1       0.257  -5.997  -4.132  0.00  0.00    -0.004 A 
ATOM      5  C5  I4B d   1       1.465  -5.582  -3.578  0.00  0.00     0.002 A 
ATOM      6  C6  I4B d   1       1.512  -5.131  -2.251  0.00  0.00     0.003 A 
ENDROOT
BRANCH   1   7
ATOM      7  C1' I4B d   1       0.350  -4.534  -0.108  0.00  0.00     0.060 C 
BRANCH   7   8
ATOM      8  C2' I4B d   1      -0.630  -3.380  -0.053  0.00  0.00    -0.013 C 
ATOM      9  C4' I4B d   1      -1.846  -3.735   0.762  0.00  0.00     0.013 C 
ATOM     10  C3' I4B d   1       0.083  -2.195   0.526  0.00  0.00     0.013 C 
ENDBRANCH   7   8
ENDBRANCH   1   7
TORSDOF 2
ENDMDL
