MODEL 1
REMARK minimizedAffinity -3.71365285
REMARK minimizedRMSD -1
REMARK  1 active torsions:
REMARK  status: ('A' for Active; 'I' for Inactive)
REMARK    1  A    between atoms: C3_4  and  O_7 
ROOT
ATOM      1  C   UNL d   1      -0.058   0.006  -0.861  0.00  0.00    -0.033 A 
ATOM      2  C1  UNL d   1      -1.064   0.222   0.083  0.00  0.00     0.039 A 
ATOM      3  C2  UNL d   1      -0.815  -0.011   1.437  0.00  0.00    -0.080 A 
ATOM      4  C3  UNL d   1       0.443  -0.458   1.833  0.00  0.00     0.150 A 
ATOM      5  C4  UNL d   1       1.451  -0.671   0.898  0.00  0.00    -0.007 A 
ATOM      6  C5  UNL d   1       1.200  -0.438  -0.453  0.00  0.00     0.039 A 
ENDROOT
BRANCH   4   7
ATOM      7  O   UNL d   1       0.732  -0.703   3.142  0.00  0.00    -0.526 OA
ATOM      8  H5  UNL d   1      -0.068  -0.540   3.670  0.00  0.00     0.418 HD
ENDBRANCH   4   7
TORSDOF 1
ENDMDL
