MODEL 1
REMARK minimizedAffinity -3.51054907
REMARK minimizedRMSD -1
REMARK  1 active torsions:
REMARK  status: ('A' for Active; 'I' for Inactive)
REMARK    1  A    between atoms: C3_4  and  O_7 
ROOT
ATOM      1  C   UNL d   1      -0.787  -0.337   0.670  0.00  0.00    -0.033 A 
ATOM      2  C1  UNL d   1       0.501   0.196   0.587  0.00  0.00     0.039 A 
ATOM      3  C2  UNL d   1       1.429  -0.058   1.599  0.00  0.00    -0.080 A 
ATOM      4  C3  UNL d   1       1.058  -0.845   2.685  0.00  0.00     0.150 A 
ATOM      5  C4  UNL d   1      -0.222  -1.383   2.772  0.00  0.00    -0.007 A 
ATOM      6  C5  UNL d   1      -1.148  -1.127   1.761  0.00  0.00     0.039 A 
ENDROOT
BRANCH   4   7
ATOM      7  O   UNL d   1       1.928  -1.117   3.699  0.00  0.00    -0.526 OA
ATOM      8  H5  UNL d   1       2.765  -0.656   3.518  0.00  0.00     0.418 HD
ENDBRANCH   4   7
TORSDOF 1
ENDMDL
