MODEL 1
REMARK minimizedAffinity -0.7493065
REMARK minimizedRMSD -1
REMARK  1 active torsions:
REMARK  status: ('A' for Active; 'I' for Inactive)
REMARK    1  A    between atoms: C3_4  and  O_7 
ROOT
ATOM      1  C   UNL d   1      -1.566   4.264  -2.953  0.00  0.00    -0.033 A 
ATOM      2  C1  UNL d   1      -2.932   4.056  -2.749  0.00  0.00     0.039 A 
ATOM      3  C2  UNL d   1      -3.452   2.760  -2.765  0.00  0.00    -0.080 A 
ATOM      4  C3  UNL d   1      -2.598   1.684  -2.986  0.00  0.00     0.150 A 
ATOM      5  C4  UNL d   1      -1.236   1.884  -3.187  0.00  0.00    -0.007 A 
ATOM      6  C5  UNL d   1      -0.718   3.178  -3.171  0.00  0.00     0.039 A 
ENDROOT
BRANCH   4   7
ATOM      7  O   UNL d   1      -3.060   0.402  -3.016  0.00  0.00    -0.526 OA
ATOM      8  H5  UNL d   1      -4.024   0.419  -2.891  0.00  0.00     0.418 HD
ENDBRANCH   4   7
TORSDOF 1
ENDMDL
