MODEL 1
REMARK minimizedAffinity -2.18468022
REMARK minimizedRMSD -1
REMARK  1 active torsions:
REMARK  status: ('A' for Active; 'I' for Inactive)
REMARK    1  A    between atoms: C3_4  and  O_7 
ROOT
ATOM      1  C   UNL d   1      -0.319  -0.376  -0.324  0.00  0.00    -0.033 A 
ATOM      2  C1  UNL d   1      -0.514   0.742   0.490  0.00  0.00     0.039 A 
ATOM      3  C2  UNL d   1      -0.706   2.000  -0.082  0.00  0.00    -0.080 A 
ATOM      4  C3  UNL d   1      -0.703   2.128  -1.469  0.00  0.00     0.150 A 
ATOM      5  C4  UNL d   1      -0.513   1.019  -2.286  0.00  0.00    -0.007 A 
ATOM      6  C5  UNL d   1      -0.320  -0.237  -1.713  0.00  0.00     0.039 A 
ENDROOT
BRANCH   4   7
ATOM      7  O   UNL d   1      -0.882   3.337  -2.073  0.00  0.00    -0.526 OA
ATOM      8  H5  UNL d   1      -0.972   4.015  -1.384  0.00  0.00     0.418 HD
ENDBRANCH   4   7
TORSDOF 1
ENDMDL
