MODEL 1
REMARK minimizedAffinity -4.84223032
REMARK minimizedRMSD -1
REMARK  1 active torsions:
REMARK  status: ('A' for Active; 'I' for Inactive)
REMARK    1  A    between atoms: C3_4  and  O_7 
ROOT
ATOM      1  C   UNL d   1       2.137  -1.724   1.877  0.00  0.00    -0.033 A 
ATOM      2  C1  UNL d   1       0.932  -1.286   2.432  0.00  0.00     0.039 A 
ATOM      3  C2  UNL d   1      -0.018  -0.652   1.629  0.00  0.00    -0.080 A 
ATOM      4  C3  UNL d   1       0.247  -0.464   0.275  0.00  0.00     0.150 A 
ATOM      5  C4  UNL d   1       1.443  -0.901  -0.284  0.00  0.00    -0.007 A 
ATOM      6  C5  UNL d   1       2.392  -1.533   0.519  0.00  0.00     0.039 A 
ENDROOT
BRANCH   4   7
ATOM      7  O   UNL d   1      -0.648   0.154  -0.547  0.00  0.00    -0.526 OA
ATOM      8  H5  UNL d   1      -1.415   0.427  -0.017  0.00  0.00     0.418 HD
ENDBRANCH   4   7
TORSDOF 1
ENDMDL
