MODEL 1
REMARK minimizedAffinity -3.88989639
REMARK minimizedRMSD -1
REMARK  0 active torsions:
REMARK  status: ('A' for Active; 'I' for Inactive)
ROOT
ATOM      1  N1  IND d   1       1.105   1.731  -4.846  0.00  0.00    -0.196 N 
ATOM      2  C2  IND d   1       2.120   0.989  -5.382  0.00  0.00     0.054 A 
ATOM      3  C3  IND d   1       1.654  -0.205  -5.812  0.00  0.00    -0.031 A 
ATOM      4  C4  IND d   1      -0.757  -1.110  -5.828  0.00  0.00     0.051 A 
ATOM      5  C5  IND d   1      -2.023  -0.809  -5.411  0.00  0.00    -0.031 A 
ATOM      6  C6  IND d   1      -2.318   0.379  -4.773  0.00  0.00     0.015 A 
ATOM      7  C7  IND d   1      -1.355   1.319  -4.538  0.00  0.00    -0.016 A 
ATOM      8  C8  IND d   1      -0.067   1.014  -4.955  0.00  0.00    -0.047 A 
ATOM      9  C9  IND d   1       0.247  -0.207  -5.564  0.00  0.00    -0.096 A 
ATOM     10  HN1 IND d   1       1.185   2.514  -4.499  0.00  0.00     0.298 HD
ENDROOT
TORSDOF 0
ENDMDL
