MODEL 1
REMARK minimizedAffinity -0.662666321
REMARK minimizedRMSD -1
REMARK  0 active torsions:
REMARK  status: ('A' for Active; 'I' for Inactive)
ROOT
ATOM      1  N1  IND d   1      -4.109   1.236   0.750  0.00  0.00    -0.196 N 
ATOM      2  C2  IND d   1      -4.404   0.624  -0.436  0.00  0.00     0.054 A 
ATOM      3  C3  IND d   1      -3.520  -0.367  -0.687  0.00  0.00    -0.031 A 
ATOM      4  C4  IND d   1      -1.571  -1.225   0.760  0.00  0.00     0.051 A 
ATOM      5  C5  IND d   1      -0.886  -0.958   1.913  0.00  0.00    -0.031 A 
ATOM      6  C6  IND d   1      -1.250   0.073   2.755  0.00  0.00     0.015 A 
ATOM      7  C7  IND d   1      -2.324   0.872   2.481  0.00  0.00    -0.016 A 
ATOM      8  C8  IND d   1      -3.017   0.608   1.308  0.00  0.00    -0.047 A 
ATOM      9  C9  IND d   1      -2.627  -0.409   0.428  0.00  0.00    -0.096 A 
ATOM     10  HN1 IND d   1      -4.534   1.902   1.091  0.00  0.00     0.298 HD
ENDROOT
TORSDOF 0
ENDMDL
