MODEL 1
REMARK minimizedAffinity 5.15870285
REMARK minimizedRMSD -1
REMARK  0 active torsions:
REMARK  status: ('A' for Active; 'I' for Inactive)
ROOT
ATOM      1  N1  IND d   1      -0.208   1.004  -4.577  0.00  0.00    -0.196 N 
ATOM      2  C2  IND d   1       0.304   0.798  -5.828  0.00  0.00     0.054 A 
ATOM      3  C3  IND d   1       0.616  -0.507  -5.999  0.00  0.00    -0.031 A 
ATOM      4  C4  IND d   1       0.276  -2.494  -4.398  0.00  0.00     0.051 A 
ATOM      5  C5  IND d   1      -0.123  -2.796  -3.127  0.00  0.00    -0.031 A 
ATOM      6  C6  IND d   1      -0.584  -1.829  -2.257  0.00  0.00     0.015 A 
ATOM      7  C7  IND d   1      -0.672  -0.518  -2.632  0.00  0.00    -0.016 A 
ATOM      8  C8  IND d   1      -0.261  -0.206  -3.920  0.00  0.00    -0.047 A 
ATOM      9  C9  IND d   1       0.247  -1.177  -4.793  0.00  0.00    -0.096 A 
ATOM     10  HN1 IND d   1      -0.455   1.762  -4.255  0.00  0.00     0.298 HD
ENDROOT
TORSDOF 0
ENDMDL
