MODEL 1
REMARK minimizedAffinity -2.96636152
REMARK minimizedRMSD -1
REMARK  0 active torsions:
REMARK  status: ('A' for Active; 'I' for Inactive)
ROOT
ATOM      1  N1  IND d   1       1.141  -1.912  -3.006  0.00  0.00    -0.196 N 
ATOM      2  C2  IND d   1       0.014  -1.851  -2.234  0.00  0.00     0.054 A 
ATOM      3  C3  IND d   1      -0.853  -0.946  -2.739  0.00  0.00    -0.031 A 
ATOM      4  C4  IND d   1      -0.674   0.476  -4.878  0.00  0.00     0.051 A 
ATOM      5  C5  IND d   1       0.186   0.792  -5.892  0.00  0.00    -0.031 A 
ATOM      6  C6  IND d   1       1.432   0.209  -6.000  0.00  0.00     0.015 A 
ATOM      7  C7  IND d   1       1.862  -0.724  -5.100  0.00  0.00    -0.016 A 
ATOM      8  C8  IND d   1       0.995  -1.042  -4.065  0.00  0.00    -0.047 A 
ATOM      9  C9  IND d   1      -0.254  -0.423  -3.926  0.00  0.00    -0.096 A 
ATOM     10  HN1 IND d   1       1.826  -2.410  -2.856  0.00  0.00     0.298 HD
ENDROOT
TORSDOF 0
ENDMDL
