MODEL 1
REMARK minimizedAffinity 7.28179979
REMARK minimizedRMSD -1
REMARK  0 active torsions:
REMARK  status: ('A' for Active; 'I' for Inactive)
ROOT
ATOM      1  N1  IND d   1      -1.549   1.023  -6.000  0.00  0.00    -0.196 N 
ATOM      2  C2  IND d   1      -0.518   0.689  -5.167  0.00  0.00     0.054 A 
ATOM      3  C3  IND d   1      -0.967  -0.074  -4.145  0.00  0.00    -0.031 A 
ATOM      4  C4  IND d   1      -3.336  -0.980  -3.699  0.00  0.00     0.051 A 
ATOM      5  C5  IND d   1      -4.619  -0.913  -4.163  0.00  0.00    -0.031 A 
ATOM      6  C6  IND d   1      -4.951  -0.185  -5.288  0.00  0.00     0.015 A 
ATOM      7  C7  IND d   1      -4.006   0.497  -5.999  0.00  0.00    -0.016 A 
ATOM      8  C8  IND d   1      -2.702   0.437  -5.527  0.00  0.00    -0.047 A 
ATOM      9  C9  IND d   1      -2.366  -0.265  -4.362  0.00  0.00    -0.096 A 
ATOM     10  HN1 IND d   1      -1.487   1.516  -6.702  0.00  0.00     0.298 HD
ENDROOT
TORSDOF 0
ENDMDL
