MODEL 1
REMARK minimizedAffinity -1.31894541
REMARK minimizedRMSD -1
REMARK  0 active torsions:
REMARK  status: ('A' for Active; 'I' for Inactive)
ROOT
ATOM      1  N1  IND d   1      -1.500   0.965  -4.005  0.00  0.00    -0.196 N 
ATOM      2  C2  IND d   1      -1.518   1.190  -5.354  0.00  0.00     0.054 A 
ATOM      3  C3  IND d   1      -0.809   0.236  -5.999  0.00  0.00    -0.031 A 
ATOM      4  C4  IND d   1       0.376  -1.843  -5.050  0.00  0.00     0.051 A 
ATOM      5  C5  IND d   1       0.699  -2.455  -3.872  0.00  0.00    -0.031 A 
ATOM      6  C6  IND d   1       0.294  -1.950  -2.653  0.00  0.00     0.015 A 
ATOM      7  C7  IND d   1      -0.461  -0.815  -2.568  0.00  0.00    -0.016 A 
ATOM      8  C8  IND d   1      -0.784  -0.186  -3.762  0.00  0.00    -0.047 A 
ATOM      9  C9  IND d   1      -0.341  -0.671  -4.999  0.00  0.00    -0.096 A 
ATOM     10  HN1 IND d   1      -1.874   1.460  -3.409  0.00  0.00     0.298 HD
ENDROOT
TORSDOF 0
ENDMDL
