MODEL 1
REMARK minimizedAffinity 2.77062201
REMARK minimizedRMSD -1
REMARK  0 active torsions:
REMARK  status: ('A' for Active; 'I' for Inactive)
ROOT
ATOM      1  N1  IND d   1       0.375  -2.314   4.145  0.00  0.00    -0.196 N 
ATOM      2  C2  IND d   1       1.078  -1.421   3.385  0.00  0.00     0.054 A 
ATOM      3  C3  IND d   1       0.254  -0.464   2.902  0.00  0.00    -0.031 A 
ATOM      4  C4  IND d   1      -2.262  -0.110   3.316  0.00  0.00     0.051 A 
ATOM      5  C5  IND d   1      -3.347  -0.688   3.914  0.00  0.00    -0.031 A 
ATOM      6  C6  IND d   1      -3.244  -1.859   4.636  0.00  0.00     0.015 A 
ATOM      7  C7  IND d   1      -2.045  -2.493   4.798  0.00  0.00    -0.016 A 
ATOM      8  C8  IND d   1      -0.942  -1.913   4.186  0.00  0.00    -0.047 A 
ATOM      9  C9  IND d   1      -1.048  -0.748   3.416  0.00  0.00    -0.096 A 
ATOM     10  HN1 IND d   1       0.702  -3.009   4.533  0.00  0.00     0.298 HD
ENDROOT
TORSDOF 0
ENDMDL
