MODEL 1
REMARK minimizedAffinity -5.04923153
REMARK minimizedRMSD -1
REMARK  1 active torsions:
REMARK  status: ('A' for Active; 'I' for Inactive)
REMARK    1  A    between atoms: C1_2  and  C2_3 
ROOT
ATOM      1  C2  UNL d   1      -0.236  -0.372  -0.255  0.00  0.00    -0.077 A 
ATOM      2  C3  UNL d   1       1.011  -0.489   0.376  0.00  0.00     0.002 A 
ATOM      3  C4  UNL d   1       1.089  -0.658   1.760  0.00  0.00     0.002 A 
ATOM      4  C5  UNL d   1      -0.075  -0.717   2.523  0.00  0.00    -0.004 A 
ATOM      5  C6  UNL d   1      -1.320  -0.600   1.905  0.00  0.00     0.002 A 
ATOM      6  C7  UNL d   1      -1.400  -0.430   0.523  0.00  0.00     0.002 A 
ENDROOT
BRANCH   1   7
ATOM      7  C1  UNL d   1      -0.323  -0.239  -1.753  0.00  0.00     0.055 C 
ATOM      8  C   UNL d   1      -1.219   0.924  -2.153  0.00  0.00     0.019 C 
ENDBRANCH   1   7
TORSDOF 1
ENDMDL
