MODEL 1
REMARK minimizedAffinity -3.99122071
REMARK minimizedRMSD -1
REMARK  1 active torsions:
REMARK  status: ('A' for Active; 'I' for Inactive)
REMARK    1  A    between atoms: C1_2  and  C2_3 
ROOT
ATOM      1  C2  UNL d   1       0.820  -0.412   0.952  0.00  0.00    -0.077 A 
ATOM      2  C3  UNL d   1      -0.457   0.091   0.663  0.00  0.00     0.002 A 
ATOM      3  C4  UNL d   1      -0.837   0.335  -0.658  0.00  0.00     0.002 A 
ATOM      4  C5  UNL d   1       0.051   0.077  -1.700  0.00  0.00    -0.004 A 
ATOM      5  C6  UNL d   1       1.324  -0.421  -1.422  0.00  0.00     0.002 A 
ATOM      6  C7  UNL d   1       1.706  -0.665  -0.103  0.00  0.00     0.002 A 
ENDROOT
BRANCH   1   7
ATOM      7  C1  UNL d   1       1.215  -0.722   2.372  0.00  0.00     0.055 C 
ATOM      8  C   UNL d   1       0.337  -1.815   2.964  0.00  0.00     0.019 C 
ENDBRANCH   1   7
TORSDOF 1
ENDMDL
