MODEL 1
REMARK minimizedAffinity -3.09447622
REMARK minimizedRMSD -1
REMARK  1 active torsions:
REMARK  status: ('A' for Active; 'I' for Inactive)
REMARK    1  A    between atoms: C1_2  and  C2_3 
ROOT
ATOM      1  C2  UNL d   1      -0.517   0.348  -0.753  0.00  0.00    -0.077 A 
ATOM      2  C3  UNL d   1       0.862   0.351  -0.502  0.00  0.00     0.002 A 
ATOM      3  C4  UNL d   1       1.364  -0.182   0.687  0.00  0.00     0.002 A 
ATOM      4  C5  UNL d   1       0.495  -0.724   1.631  0.00  0.00    -0.004 A 
ATOM      5  C6  UNL d   1      -0.879  -0.730   1.391  0.00  0.00     0.002 A 
ATOM      6  C7  UNL d   1      -1.382  -0.197   0.204  0.00  0.00     0.002 A 
ENDROOT
BRANCH   1   7
ATOM      7  C1  UNL d   1      -1.057   0.877  -2.057  0.00  0.00     0.055 C 
ATOM      8  C   UNL d   1      -0.457   2.234  -2.394  0.00  0.00     0.019 C 
ENDBRANCH   1   7
TORSDOF 1
ENDMDL
