MODEL 1
REMARK minimizedAffinity -2.96346521
REMARK minimizedRMSD -1
REMARK  1 active torsions:
REMARK  status: ('A' for Active; 'I' for Inactive)
REMARK    1  A    between atoms: C1_2  and  C2_3 
ROOT
ATOM      1  C2  UNL d   1       0.175  -1.059   1.625  0.00  0.00    -0.077 A 
ATOM      2  C3  UNL d   1      -1.106  -0.727   1.161  0.00  0.00     0.002 A 
ATOM      3  C4  UNL d   1      -1.268  -0.087  -0.069  0.00  0.00     0.002 A 
ATOM      4  C5  UNL d   1      -0.154   0.223  -0.847  0.00  0.00    -0.004 A 
ATOM      5  C6  UNL d   1       1.124  -0.100  -0.393  0.00  0.00     0.002 A 
ATOM      6  C7  UNL d   1       1.287  -0.739   0.837  0.00  0.00     0.002 A 
ENDROOT
BRANCH   1   7
ATOM      7  C1  UNL d   1       0.348  -1.793   2.929  0.00  0.00     0.055 C 
ATOM      8  C   UNL d   1      -0.779  -2.790   3.156  0.00  0.00     0.019 C 
ENDBRANCH   1   7
TORSDOF 1
ENDMDL
