MODEL 1
REMARK minimizedAffinity -5.31724834
REMARK minimizedRMSD -1
REMARK  1 active torsions:
REMARK  status: ('A' for Active; 'I' for Inactive)
REMARK    1  A    between atoms: C1_2  and  C2_3 
ROOT
ATOM      1  C2  UNL d   1      -1.568   2.215  -1.899  0.00  0.00    -0.077 A 
ATOM      2  C3  UNL d   1      -1.302   1.059  -1.152  0.00  0.00     0.002 A 
ATOM      3  C4  UNL d   1      -0.016   0.514  -1.128  0.00  0.00     0.002 A 
ATOM      4  C5  UNL d   1       1.012   1.120  -1.847  0.00  0.00    -0.004 A 
ATOM      5  C6  UNL d   1       0.757   2.268  -2.595  0.00  0.00     0.002 A 
ATOM      6  C7  UNL d   1      -0.527   2.814  -2.620  0.00  0.00     0.002 A 
ENDROOT
BRANCH   1   7
ATOM      7  C1  UNL d   1      -2.942   2.833  -1.886  0.00  0.00     0.055 C 
ATOM      8  C   UNL d   1      -4.006   1.825  -2.297  0.00  0.00     0.019 C 
ENDBRANCH   1   7
TORSDOF 1
ENDMDL
