MODEL 1
REMARK minimizedAffinity -2.93477368
REMARK minimizedRMSD -1
REMARK  1 active torsions:
REMARK  status: ('A' for Active; 'I' for Inactive)
REMARK    1  A    between atoms: C1_2  and  C2_3 
ROOT
ATOM      1  C2  UNL d   1      -0.212  -0.269  -0.069  0.00  0.00    -0.077 A 
ATOM      2  C3  UNL d   1       0.925  -0.631   0.666  0.00  0.00     0.002 A 
ATOM      3  C4  UNL d   1       0.833  -0.866   2.039  0.00  0.00     0.002 A 
ATOM      4  C5  UNL d   1      -0.394  -0.745   2.688  0.00  0.00    -0.004 A 
ATOM      5  C6  UNL d   1      -1.530  -0.383   1.966  0.00  0.00     0.002 A 
ATOM      6  C7  UNL d   1      -1.440  -0.147   0.593  0.00  0.00     0.002 A 
ENDROOT
BRANCH   1   7
ATOM      7  C1  UNL d   1      -0.125  -0.064  -1.559  0.00  0.00     0.055 C 
ATOM      8  C   UNL d   1      -1.143   0.960  -2.038  0.00  0.00     0.019 C 
ENDBRANCH   1   7
TORSDOF 1
ENDMDL
