MODEL 1
REMARK minimizedAffinity 0.18929778
REMARK minimizedRMSD -1
REMARK  1 active torsions:
REMARK  status: ('A' for Active; 'I' for Inactive)
REMARK    1  A    between atoms: C1_2  and  C2_3 
ROOT
ATOM      1  C2  UNL d   1       1.707  -1.455   0.780  0.00  0.00    -0.077 A 
ATOM      2  C3  UNL d   1       0.336  -1.490   1.073  0.00  0.00     0.002 A 
ATOM      3  C4  UNL d   1      -0.126  -1.105   2.333  0.00  0.00     0.002 A 
ATOM      4  C5  UNL d   1       0.773  -0.678   3.307  0.00  0.00    -0.004 A 
ATOM      5  C6  UNL d   1       2.138  -0.641   3.026  0.00  0.00     0.002 A 
ATOM      6  C7  UNL d   1       2.603  -1.027   1.768  0.00  0.00     0.002 A 
ENDROOT
BRANCH   1   7
ATOM      7  C1  UNL d   1       2.204  -1.822  -0.594  0.00  0.00     0.055 C 
ATOM      8  C   UNL d   1       1.336  -1.204  -1.680  0.00  0.00     0.019 C 
ENDBRANCH   1   7
TORSDOF 1
ENDMDL
