MODEL 1
REMARK minimizedAffinity 6.48165369
REMARK minimizedRMSD -1
REMARK  0 active torsions:
REMARK  status: ('A' for Active; 'I' for Inactive)
ROOT
ATOM      1  C1  DEN d   1      -0.279  -1.827  -4.944  0.00  0.00     0.130 A 
ATOM      2  C2  DEN d   1      -1.587  -2.209  -5.470  0.00  0.00    -0.031 A 
ATOM      3  C3  DEN d   1      -2.595  -1.944  -4.424  0.00  0.00     0.027 A 
ATOM      4  C4  DEN d   1      -2.260  -0.980  -2.055  0.00  0.00     0.027 A 
ATOM      5  C5  DEN d   1      -1.328  -0.516  -1.153  0.00  0.00    -0.003 A 
ATOM      6  C6  DEN d   1       0.012  -0.489  -1.437  0.00  0.00     0.001 A 
ATOM      7  C7  DEN d   1       0.453  -0.892  -2.670  0.00  0.00     0.017 A 
ATOM      8  C8  DEN d   1      -0.480  -1.367  -3.582  0.00  0.00    -0.094 A 
ATOM      9  C9  DEN d   1      -1.831  -1.375  -3.280  0.00  0.00    -0.072 A 
ENDROOT
TORSDOF 0
ENDMDL
