MODEL 1
REMARK minimizedAffinity 12.0707293
REMARK minimizedRMSD -1
REMARK  0 active torsions:
REMARK  status: ('A' for Active; 'I' for Inactive)
ROOT
ATOM      1  C1  DEN d   1      -0.944   0.747  -2.082  0.00  0.00     0.130 A 
ATOM      2  C2  DEN d   1      -1.397  -0.637  -1.974  0.00  0.00    -0.031 A 
ATOM      3  C3  DEN d   1      -1.751  -0.893  -0.563  0.00  0.00     0.027 A 
ATOM      4  C4  DEN d   1      -1.647   0.713   1.452  0.00  0.00     0.027 A 
ATOM      5  C5  DEN d   1      -1.316   1.988   1.856  0.00  0.00    -0.003 A 
ATOM      6  C6  DEN d   1      -0.810   2.920   0.990  0.00  0.00     0.001 A 
ATOM      7  C7  DEN d   1      -0.663   2.606  -0.335  0.00  0.00     0.017 A 
ATOM      8  C8  DEN d   1      -0.987   1.320  -0.749  0.00  0.00    -0.094 A 
ATOM      9  C9  DEN d   1      -1.509   0.396   0.140  0.00  0.00    -0.072 A 
ENDROOT
TORSDOF 0
ENDMDL
