MODEL 1
REMARK minimizedAffinity 8.15772629
REMARK minimizedRMSD -1
REMARK  0 active torsions:
REMARK  status: ('A' for Active; 'I' for Inactive)
ROOT
ATOM      1  C1  DEN d   1      -1.010   1.372   1.495  0.00  0.00     0.130 A 
ATOM      2  C2  DEN d   1      -0.301   1.695   2.730  0.00  0.00    -0.031 A 
ATOM      3  C3  DEN d   1       0.366   2.999   2.545  0.00  0.00     0.027 A 
ATOM      4  C4  DEN d   1       0.365   4.545   0.481  0.00  0.00     0.027 A 
ATOM      5  C5  DEN d   1      -0.088   4.691  -0.812  0.00  0.00    -0.003 A 
ATOM      6  C6  DEN d   1      -0.846   3.734  -1.433  0.00  0.00     0.001 A 
ATOM      7  C7  DEN d   1      -1.212   2.607  -0.745  0.00  0.00     0.017 A 
ATOM      8  C8  DEN d   1      -0.752   2.449   0.556  0.00  0.00    -0.094 A 
ATOM      9  C9  DEN d   1       0.002   3.434   1.170  0.00  0.00    -0.072 A 
ENDROOT
TORSDOF 0
ENDMDL
