MODEL 1
REMARK minimizedAffinity 4.18928432
REMARK minimizedRMSD -1
REMARK  0 active torsions:
REMARK  status: ('A' for Active; 'I' for Inactive)
ROOT
ATOM      1  C1  DEN d   1      -0.886   2.462  -0.352  0.00  0.00     0.130 A 
ATOM      2  C2  DEN d   1      -0.229   3.387  -1.271  0.00  0.00    -0.031 A 
ATOM      3  C3  DEN d   1       0.787   4.143  -0.510  0.00  0.00     0.027 A 
ATOM      4  C4  DEN d   1       1.405   3.967   1.988  0.00  0.00     0.027 A 
ATOM      5  C5  DEN d   1       1.113   3.331   3.174  0.00  0.00    -0.003 A 
ATOM      6  C6  DEN d   1       0.120   2.393   3.275  0.00  0.00     0.001 A 
ATOM      7  C7  DEN d   1      -0.587   2.031   2.160  0.00  0.00     0.017 A 
ATOM      8  C8  DEN d   1      -0.304   2.673   0.961  0.00  0.00    -0.094 A 
ATOM      9  C9  DEN d   1       0.712   3.610   0.877  0.00  0.00    -0.072 A 
ENDROOT
TORSDOF 0
ENDMDL
