MODEL 1
REMARK minimizedAffinity 11.1720543
REMARK minimizedRMSD -1
REMARK  0 active torsions:
REMARK  status: ('A' for Active; 'I' for Inactive)
ROOT
ATOM      1  C1  DEN d   1      -3.596  -1.234  -1.592  0.00  0.00     0.130 A 
ATOM      2  C2  DEN d   1      -4.358  -0.064  -1.165  0.00  0.00    -0.031 A 
ATOM      3  C3  DEN d   1      -3.402   1.030  -0.895  0.00  0.00     0.027 A 
ATOM      4  C4  DEN d   1      -0.831   1.025  -1.102  0.00  0.00     0.027 A 
ATOM      5  C5  DEN d   1       0.268   0.258  -1.417  0.00  0.00    -0.003 A 
ATOM      6  C6  DEN d   1       0.160  -1.060  -1.777  0.00  0.00     0.001 A 
ATOM      7  C7  DEN d   1      -1.078  -1.637  -1.874  0.00  0.00     0.017 A 
ATOM      8  C8  DEN d   1      -2.191  -0.872  -1.551  0.00  0.00    -0.094 A 
ATOM      9  C9  DEN d   1      -2.062   0.461  -1.201  0.00  0.00    -0.072 A 
ENDROOT
TORSDOF 0
ENDMDL
