MODEL 1
REMARK minimizedAffinity 5.53965521
REMARK minimizedRMSD -1
REMARK  0 active torsions:
REMARK  status: ('A' for Active; 'I' for Inactive)
ROOT
ATOM      1  C1  DEN d   1       3.433  -4.678  -2.733  0.00  0.00     0.130 A 
ATOM      2  C2  DEN d   1       2.277  -4.979  -1.892  0.00  0.00    -0.031 A 
ATOM      3  C3  DEN d   1       2.271  -4.025  -0.765  0.00  0.00     0.027 A 
ATOM      4  C4  DEN d   1       3.928  -2.117  -0.246  0.00  0.00     0.027 A 
ATOM      5  C5  DEN d   1       5.076  -1.482  -0.666  0.00  0.00    -0.003 A 
ATOM      6  C6  DEN d   1       5.769  -1.885  -1.776  0.00  0.00     0.001 A 
ATOM      7  C7  DEN d   1       5.296  -2.926  -2.530  0.00  0.00     0.017 A 
ATOM      8  C8  DEN d   1       4.144  -3.577  -2.109  0.00  0.00    -0.094 A 
ATOM      9  C9  DEN d   1       3.450  -3.146  -0.991  0.00  0.00    -0.072 A 
ENDROOT
TORSDOF 0
ENDMDL
