MODEL 1
REMARK minimizedAffinity 1.98406625
REMARK minimizedRMSD -1
REMARK  1 active torsions:
REMARK  status: ('A' for Active; 'I' for Inactive)
REMARK    1  A    between atoms: C3_4  and  O_7 
ROOT
ATOM      1  C   UNL d   1       0.059   2.264   0.200  0.00  0.00    -0.033 A 
ATOM      2  C1  UNL d   1      -0.516   1.556   1.258  0.00  0.00     0.039 A 
ATOM      3  C2  UNL d   1      -1.897   1.353   1.295  0.00  0.00    -0.080 A 
ATOM      4  C3  UNL d   1      -2.690   1.860   0.269  0.00  0.00     0.150 A 
ATOM      5  C4  UNL d   1      -2.124   2.563  -0.789  0.00  0.00    -0.007 A 
ATOM      6  C5  UNL d   1      -0.745   2.766  -0.824  0.00  0.00     0.039 A 
ENDROOT
BRANCH   4   7
ATOM      7  O   UNL d   1      -4.043   1.691   0.264  0.00  0.00    -0.526 OA
ATOM      8  H5  UNL d   1      -4.296   1.212   1.071  0.00  0.00     0.418 HD
ENDBRANCH   4   7
TORSDOF 1
ENDMDL
