MODEL 1
REMARK minimizedAffinity 6.82163095
REMARK minimizedRMSD -1
REMARK  1 active torsions:
REMARK  status: ('A' for Active; 'I' for Inactive)
REMARK    1  A    between atoms: C3_4  and  O_7 
ROOT
ATOM      1  C   UNL d   1      -3.715   1.870  -0.348  0.00  0.00    -0.033 A 
ATOM      2  C1  UNL d   1      -3.038   0.856   0.332  0.00  0.00     0.039 A 
ATOM      3  C2  UNL d   1      -1.660   0.948   0.536  0.00  0.00    -0.080 A 
ATOM      4  C3  UNL d   1      -0.971   2.059   0.057  0.00  0.00     0.150 A 
ATOM      5  C4  UNL d   1      -1.639   3.075  -0.618  0.00  0.00    -0.007 A 
ATOM      6  C5  UNL d   1      -3.015   2.981  -0.822  0.00  0.00     0.039 A 
ENDROOT
BRANCH   4   7
ATOM      7  O   UNL d   1       0.375   2.191   0.228  0.00  0.00    -0.526 OA
ATOM      8  H5  UNL d   1       0.706   1.400   0.685  0.00  0.00     0.418 HD
ENDBRANCH   4   7
TORSDOF 1
ENDMDL
