MODEL 1
REMARK minimizedAffinity -1.17244363
REMARK minimizedRMSD -1
REMARK  1 active torsions:
REMARK  status: ('A' for Active; 'I' for Inactive)
REMARK    1  A    between atoms: C3_4  and  O_7 
ROOT
ATOM      1  C   UNL d   1      -0.408   0.702   0.705  0.00  0.00    -0.033 A 
ATOM      2  C1  UNL d   1      -1.580  -0.041   0.867  0.00  0.00     0.039 A 
ATOM      3  C2  UNL d   1      -2.805   0.487   0.456  0.00  0.00    -0.080 A 
ATOM      4  C3  UNL d   1      -2.846   1.756  -0.115  0.00  0.00     0.150 A 
ATOM      5  C4  UNL d   1      -1.682   2.500  -0.282  0.00  0.00    -0.007 A 
ATOM      6  C5  UNL d   1      -0.459   1.971   0.129  0.00  0.00     0.039 A 
ENDROOT
BRANCH   4   7
ATOM      7  O   UNL d   1      -4.019   2.316  -0.526  0.00  0.00    -0.526 OA
ATOM      8  H5  UNL d   1      -4.742   1.700  -0.321  0.00  0.00     0.418 HD
ENDBRANCH   4   7
TORSDOF 1
ENDMDL
