MODEL 1
REMARK minimizedAffinity -1.16753113
REMARK minimizedRMSD -1
REMARK  1 active torsions:
REMARK  status: ('A' for Active; 'I' for Inactive)
REMARK    1  A    between atoms: C3_4  and  O_7 
ROOT
ATOM      1  C   UNL d   1      -3.108   1.455  -0.308  0.00  0.00    -0.033 A 
ATOM      2  C1  UNL d   1      -2.663   0.257   0.255  0.00  0.00     0.039 A 
ATOM      3  C2  UNL d   1      -1.360   0.156   0.747  0.00  0.00    -0.080 A 
ATOM      4  C3  UNL d   1      -0.514   1.260   0.672  0.00  0.00     0.150 A 
ATOM      5  C4  UNL d   1      -0.953   2.457   0.117  0.00  0.00    -0.007 A 
ATOM      6  C5  UNL d   1      -2.254   2.555  -0.375  0.00  0.00     0.039 A 
ENDROOT
BRANCH   4   7
ATOM      7  O   UNL d   1       0.767   1.208   1.134  0.00  0.00    -0.526 OA
ATOM      8  H5  UNL d   1       0.939   0.310   1.464  0.00  0.00     0.418 HD
ENDBRANCH   4   7
TORSDOF 1
ENDMDL
