MODEL 1
REMARK minimizedAffinity -2.71831274
REMARK minimizedRMSD -1
REMARK  1 active torsions:
REMARK  status: ('A' for Active; 'I' for Inactive)
REMARK    1  A    between atoms: C3_4  and  O_7 
ROOT
ATOM      1  C   UNL d   1      -0.178   0.038   1.206  0.00  0.00    -0.033 A 
ATOM      2  C1  UNL d   1      -1.562  -0.138   1.165  0.00  0.00     0.039 A 
ATOM      3  C2  UNL d   1      -2.374   0.833   0.577  0.00  0.00    -0.080 A 
ATOM      4  C3  UNL d   1      -1.791   1.974   0.033  0.00  0.00     0.150 A 
ATOM      5  C4  UNL d   1      -0.412   2.155   0.067  0.00  0.00    -0.007 A 
ATOM      6  C5  UNL d   1       0.398   1.184   0.656  0.00  0.00     0.039 A 
ENDROOT
BRANCH   4   7
ATOM      7  O   UNL d   1      -2.543   2.952  -0.547  0.00  0.00    -0.526 OA
ATOM      8  H5  UNL d   1      -3.479   2.705  -0.472  0.00  0.00     0.418 HD
ENDBRANCH   4   7
TORSDOF 1
ENDMDL
