MODEL 1
REMARK minimizedAffinity -2.25891566
REMARK minimizedRMSD -1
REMARK  1 active torsions:
REMARK  status: ('A' for Active; 'I' for Inactive)
REMARK    1  A    between atoms: C3_4  and  O_7 
ROOT
ATOM      1  C   UNL d   1      -0.986  -0.023   1.007  0.00  0.00    -0.033 A 
ATOM      2  C1  UNL d   1      -2.331  -0.234   1.317  0.00  0.00     0.039 A 
ATOM      3  C2  UNL d   1      -3.288   0.721   0.969  0.00  0.00    -0.080 A 
ATOM      4  C3  UNL d   1      -2.888   1.881   0.311  0.00  0.00     0.150 A 
ATOM      5  C4  UNL d   1      -1.550   2.096  -0.004  0.00  0.00    -0.007 A 
ATOM      6  C5  UNL d   1      -0.596   1.142   0.345  0.00  0.00     0.039 A 
ENDROOT
BRANCH   4   7
ATOM      7  O   UNL d   1      -3.785   2.844  -0.044  0.00  0.00    -0.526 OA
ATOM      8  H5  UNL d   1      -4.666   2.572   0.263  0.00  0.00     0.418 HD
ENDBRANCH   4   7
TORSDOF 1
ENDMDL
