MODEL 1
REMARK minimizedAffinity 2.75494576
REMARK minimizedRMSD -1
REMARK  1 active torsions:
REMARK  status: ('A' for Active; 'I' for Inactive)
REMARK    1  A    between atoms: C3_4  and  O_7 
ROOT
ATOM      1  C   UNL d   1      -2.683  -3.314  -0.571  0.00  0.00    -0.033 A 
ATOM      2  C1  UNL d   1      -2.021  -4.521  -0.342  0.00  0.00     0.039 A 
ATOM      3  C2  UNL d   1      -1.223  -5.082  -1.341  0.00  0.00    -0.080 A 
ATOM      4  C3  UNL d   1      -1.094  -4.425  -2.562  0.00  0.00     0.150 A 
ATOM      5  C4  UNL d   1      -1.748  -3.219  -2.795  0.00  0.00    -0.007 A 
ATOM      6  C5  UNL d   1      -2.546  -2.662  -1.797  0.00  0.00     0.039 A 
ENDROOT
BRANCH   4   7
ATOM      7  O   UNL d   1      -0.330  -4.935  -3.569  0.00  0.00    -0.526 OA
ATOM      8  H5  UNL d   1       0.037  -5.786  -3.276  0.00  0.00     0.418 HD
ENDBRANCH   4   7
TORSDOF 1
ENDMDL
