MODEL 1
REMARK minimizedAffinity 6.11099672
REMARK minimizedRMSD -1
REMARK  1 active torsions:
REMARK  status: ('A' for Active; 'I' for Inactive)
REMARK    1  A    between atoms: C3_4  and  O_7 
ROOT
ATOM      1  C   UNL d   1      -3.214   1.097  -0.026  0.00  0.00    -0.033 A 
ATOM      2  C1  UNL d   1      -2.512   0.213   0.795  0.00  0.00     0.039 A 
ATOM      3  C2  UNL d   1      -1.171   0.456   1.100  0.00  0.00    -0.080 A 
ATOM      4  C3  UNL d   1      -0.546   1.585   0.579  0.00  0.00     0.150 A 
ATOM      5  C4  UNL d   1      -1.240   2.472  -0.237  0.00  0.00    -0.007 A 
ATOM      6  C5  UNL d   1      -2.579   2.227  -0.541  0.00  0.00     0.039 A 
ENDROOT
BRANCH   4   7
ATOM      7  O   UNL d   1       0.762   1.861   0.845  0.00  0.00    -0.526 OA
ATOM      8  H5  UNL d   1       1.122   1.147   1.397  0.00  0.00     0.418 HD
ENDBRANCH   4   7
TORSDOF 1
ENDMDL
