MODEL 1
REMARK minimizedAffinity -3.60270572
REMARK minimizedRMSD -1
REMARK  1 active torsions:
REMARK  status: ('A' for Active; 'I' for Inactive)
REMARK    1  A    between atoms: C3_4  and  O_7 
ROOT
ATOM      1  C   UNL d   1      -3.409   1.296   0.313  0.00  0.00    -0.033 A 
ATOM      2  C1  UNL d   1      -2.841   0.208   0.978  0.00  0.00     0.039 A 
ATOM      3  C2  UNL d   1      -1.459   0.148   1.168  0.00  0.00    -0.080 A 
ATOM      4  C3  UNL d   1      -0.658   1.182   0.691  0.00  0.00     0.150 A 
ATOM      5  C4  UNL d   1      -1.218   2.271   0.031  0.00  0.00    -0.007 A 
ATOM      6  C5  UNL d   1      -2.598   2.329  -0.159  0.00  0.00     0.039 A 
ENDROOT
BRANCH   4   7
ATOM      7  O   UNL d   1       0.696   1.165   0.849  0.00  0.00    -0.526 OA
ATOM      8  H5  UNL d   1       0.943   0.339   1.297  0.00  0.00     0.418 HD
ENDBRANCH   4   7
TORSDOF 1
ENDMDL
