MODEL 1
REMARK minimizedAffinity -0.0564839095
REMARK minimizedRMSD -1
REMARK  1 active torsions:
REMARK  status: ('A' for Active; 'I' for Inactive)
REMARK    1  A    between atoms: C3_4  and  O_7 
ROOT
ATOM      1  C   UNL d   1      -2.942   0.910   0.817  0.00  0.00    -0.033 A 
ATOM      2  C1  UNL d   1      -2.878   1.929  -0.136  0.00  0.00     0.039 A 
ATOM      3  C2  UNL d   1      -1.682   2.616  -0.347  0.00  0.00    -0.080 A 
ATOM      4  C3  UNL d   1      -0.557   2.275   0.400  0.00  0.00     0.150 A 
ATOM      5  C4  UNL d   1      -0.612   1.259   1.348  0.00  0.00    -0.007 A 
ATOM      6  C5  UNL d   1      -1.808   0.574   1.558  0.00  0.00     0.039 A 
ENDROOT
BRANCH   4   7
ATOM      7  O   UNL d   1       0.632   2.921   0.233  0.00  0.00    -0.526 OA
ATOM      8  H5  UNL d   1       0.512   3.618  -0.434  0.00  0.00     0.418 HD
ENDBRANCH   4   7
TORSDOF 1
ENDMDL
