MODEL 1
REMARK minimizedAffinity -2.12766361
REMARK minimizedRMSD -1
REMARK  1 active torsions:
REMARK  status: ('A' for Active; 'I' for Inactive)
REMARK    1  A    between atoms: C3_4  and  O_7 
ROOT
ATOM      1  C   UNL d   1      -3.126   1.693   0.253  0.00  0.00    -0.033 A 
ATOM      2  C1  UNL d   1      -2.163   2.702   0.307  0.00  0.00     0.039 A 
ATOM      3  C2  UNL d   1      -0.816   2.375   0.477  0.00  0.00    -0.080 A 
ATOM      4  C3  UNL d   1      -0.446   1.037   0.590  0.00  0.00     0.150 A 
ATOM      5  C4  UNL d   1      -1.401   0.027   0.533  0.00  0.00    -0.007 A 
ATOM      6  C5  UNL d   1      -2.745   0.355   0.364  0.00  0.00     0.039 A 
ENDROOT
BRANCH   4   7
ATOM      7  O   UNL d   1       0.855   0.670   0.762  0.00  0.00    -0.526 OA
ATOM      8  H5  UNL d   1       1.398   1.474   0.812  0.00  0.00     0.418 HD
ENDBRANCH   4   7
TORSDOF 1
ENDMDL
