MODEL 1
REMARK minimizedAffinity -0.892336965
REMARK minimizedRMSD -1
REMARK  1 active torsions:
REMARK  status: ('A' for Active; 'I' for Inactive)
REMARK    1  A    between atoms: C3_4  and  O_7 
ROOT
ATOM      1  C   UNL d   1      -0.162   1.914   1.244  0.00  0.00    -0.033 A 
ATOM      2  C1  UNL d   1       0.490   1.015   0.399  0.00  0.00     0.039 A 
ATOM      3  C2  UNL d   1       1.880   0.889   0.449  0.00  0.00    -0.080 A 
ATOM      4  C3  UNL d   1       2.604   1.666   1.349  0.00  0.00     0.150 A 
ATOM      5  C4  UNL d   1       1.960   2.561   2.197  0.00  0.00    -0.007 A 
ATOM      6  C5  UNL d   1       0.573   2.686   2.145  0.00  0.00     0.039 A 
ENDROOT
BRANCH   4   7
ATOM      7  O   UNL d   1       3.962   1.582   1.431  0.00  0.00    -0.526 OA
ATOM      8  H5  UNL d   1       4.272   0.944   0.767  0.00  0.00     0.418 HD
ENDBRANCH   4   7
TORSDOF 1
ENDMDL
