MODEL 1
REMARK minimizedAffinity 2.47680426
REMARK minimizedRMSD -1
REMARK  1 active torsions:
REMARK  status: ('A' for Active; 'I' for Inactive)
REMARK    1  A    between atoms: C3_4  and  O_7 
ROOT
ATOM      1  C   UNL d   1      -2.055   0.813   1.105  0.00  0.00    -0.033 A 
ATOM      2  C1  UNL d   1      -2.346   1.905   0.286  0.00  0.00     0.039 A 
ATOM      3  C2  UNL d   1      -3.670   2.195  -0.051  0.00  0.00    -0.080 A 
ATOM      4  C3  UNL d   1      -4.691   1.386   0.438  0.00  0.00     0.150 A 
ATOM      5  C4  UNL d   1      -4.409   0.298   1.258  0.00  0.00    -0.007 A 
ATOM      6  C5  UNL d   1      -3.086   0.010   1.592  0.00  0.00     0.039 A 
ENDROOT
BRANCH   4   7
ATOM      7  O   UNL d   1      -5.998   1.626   0.134  0.00  0.00    -0.526 OA
ATOM      8  H5  UNL d   1      -6.039   2.391  -0.464  0.00  0.00     0.418 HD
ENDBRANCH   4   7
TORSDOF 1
ENDMDL
