MODEL 1
REMARK minimizedAffinity -3.17914963
REMARK minimizedRMSD -1
REMARK  1 active torsions:
REMARK  status: ('A' for Active; 'I' for Inactive)
REMARK    1  A    between atoms: C3_4  and  O_7 
ROOT
ATOM      1  C   UNL d   1       1.411   0.928   0.489  0.00  0.00    -0.033 A 
ATOM      2  C1  UNL d   1       1.869   1.881   1.400  0.00  0.00     0.039 A 
ATOM      3  C2  UNL d   1       0.959   2.694   2.079  0.00  0.00    -0.080 A 
ATOM      4  C3  UNL d   1      -0.404   2.543   1.838  0.00  0.00     0.150 A 
ATOM      5  C4  UNL d   1      -0.867   1.593   0.933  0.00  0.00    -0.007 A 
ATOM      6  C5  UNL d   1       0.043   0.783   0.256  0.00  0.00     0.039 A 
ENDROOT
BRANCH   4   7
ATOM      7  O   UNL d   1      -1.330   3.317   2.472  0.00  0.00    -0.526 OA
ATOM      8  H5  UNL d   1      -0.863   3.948   3.045  0.00  0.00     0.418 HD
ENDBRANCH   4   7
TORSDOF 1
ENDMDL
