MODEL 1
REMARK minimizedAffinity 6.059165
REMARK minimizedRMSD -1
REMARK  1 active torsions:
REMARK  status: ('A' for Active; 'I' for Inactive)
REMARK    1  A    between atoms: C3_4  and  O_7 
ROOT
ATOM      1  C   UNL d   1       1.440   2.391  -0.548  0.00  0.00    -0.033 A 
ATOM      2  C1  UNL d   1       1.196   2.305   0.824  0.00  0.00     0.039 A 
ATOM      3  C2  UNL d   1       0.782   1.097   1.387  0.00  0.00    -0.080 A 
ATOM      4  C3  UNL d   1       0.617  -0.017   0.569  0.00  0.00     0.150 A 
ATOM      5  C4  UNL d   1       0.862   0.060  -0.798  0.00  0.00    -0.007 A 
ATOM      6  C5  UNL d   1       1.274   1.267  -1.359  0.00  0.00     0.039 A 
ENDROOT
BRANCH   4   7
ATOM      7  O   UNL d   1       0.210  -1.217   1.073  0.00  0.00    -0.526 OA
ATOM      8  H5  UNL d   1       0.052  -1.113   2.026  0.00  0.00     0.418 HD
ENDBRANCH   4   7
TORSDOF 1
ENDMDL
