MODEL 1
REMARK minimizedAffinity -3.36690998
REMARK minimizedRMSD -1
REMARK  0 active torsions:
REMARK  status: ('A' for Active; 'I' for Inactive)
ROOT
ATOM      1  C1  DEN d   1      -0.324  -2.387   1.037  0.00  0.00     0.130 A 
ATOM      2  C2  DEN d   1       0.882  -2.934   0.421  0.00  0.00    -0.031 A 
ATOM      3  C3  DEN d   1       1.591  -1.828  -0.254  0.00  0.00     0.027 A 
ATOM      4  C4  DEN d   1       0.946   0.665  -0.398  0.00  0.00     0.027 A 
ATOM      5  C5  DEN d   1       0.003   1.603  -0.040  0.00  0.00    -0.003 A 
ATOM      6  C6  DEN d   1      -1.123   1.274   0.666  0.00  0.00     0.001 A 
ATOM      7  C7  DEN d   1      -1.312  -0.019   1.077  0.00  0.00     0.017 A 
ATOM      8  C8  DEN d   1      -0.369  -0.972   0.714  0.00  0.00    -0.094 A 
ATOM      9  C9  DEN d   1       0.768  -0.617   0.010  0.00  0.00    -0.072 A 
ENDROOT
TORSDOF 0
ENDMDL
