MODEL 1
REMARK minimizedAffinity -2.10996604
REMARK minimizedRMSD -1
REMARK  0 active torsions:
REMARK  status: ('A' for Active; 'I' for Inactive)
ROOT
ATOM      1  C1  DEN d   1      -0.047   1.302   0.018  0.00  0.00     0.130 A 
ATOM      2  C2  DEN d   1       0.508   1.663  -1.284  0.00  0.00    -0.031 A 
ATOM      3  C3  DEN d   1       0.982   0.426  -1.937  0.00  0.00     0.027 A 
ATOM      4  C4  DEN d   1       0.905  -2.001  -1.066  0.00  0.00     0.027 A 
ATOM      5  C5  DEN d   1       0.536  -2.803  -0.009  0.00  0.00    -0.003 A 
ATOM      6  C6  DEN d   1      -0.017  -2.293   1.136  0.00  0.00     0.001 A 
ATOM      7  C7  DEN d   1      -0.260  -0.948   1.232  0.00  0.00     0.017 A 
ATOM      8  C8  DEN d   1       0.116  -0.132   0.173  0.00  0.00    -0.094 A 
ATOM      9  C9  DEN d   1       0.664  -0.668  -0.980  0.00  0.00    -0.072 A 
ENDROOT
TORSDOF 0
ENDMDL
