MODEL 1
REMARK minimizedAffinity -1.0810262
REMARK minimizedRMSD -1
REMARK  0 active torsions:
REMARK  status: ('A' for Active; 'I' for Inactive)
ROOT
ATOM      1  C1  DEN d   1      -0.304  -1.221  -0.874  0.00  0.00     0.130 A 
ATOM      2  C2  DEN d   1       0.186  -1.652   0.433  0.00  0.00    -0.031 A 
ATOM      3  C3  DEN d   1       0.893  -0.513   1.053  0.00  0.00     0.027 A 
ATOM      4  C4  DEN d   1       1.270   1.863   0.124  0.00  0.00     0.027 A 
ATOM      5  C5  DEN d   1       1.049   2.697  -0.950  0.00  0.00    -0.003 A 
ATOM      6  C6  DEN d   1       0.396   2.276  -2.078  0.00  0.00     0.001 A 
ATOM      7  C7  DEN d   1      -0.098   1.000  -2.141  0.00  0.00     0.017 A 
ATOM      8  C8  DEN d   1       0.127   0.152  -1.065  0.00  0.00    -0.094 A 
ATOM      9  C9  DEN d   1       0.778   0.599   0.072  0.00  0.00    -0.072 A 
ENDROOT
TORSDOF 0
ENDMDL
