MODEL 1
REMARK minimizedAffinity -1.74901128
REMARK minimizedRMSD -1
REMARK  0 active torsions:
REMARK  status: ('A' for Active; 'I' for Inactive)
ROOT
ATOM      1  C1  DEN d   1      -0.637   0.309  -0.438  0.00  0.00     0.130 A 
ATOM      2  C2  DEN d   1       0.193  -0.224   0.640  0.00  0.00    -0.031 A 
ATOM      3  C3  DEN d   1       1.569   0.274   0.444  0.00  0.00     0.027 A 
ATOM      4  C4  DEN d   1       2.491   1.813  -1.409  0.00  0.00     0.027 A 
ATOM      5  C5  DEN d   1       2.168   2.511  -2.552  0.00  0.00    -0.003 A 
ATOM      6  C6  DEN d   1       0.907   2.497  -3.085  0.00  0.00     0.001 A 
ATOM      7  C7  DEN d   1      -0.091   1.806  -2.449  0.00  0.00     0.017 A 
ATOM      8  C8  DEN d   1       0.228   1.094  -1.300  0.00  0.00    -0.094 A 
ATOM      9  C9  DEN d   1       1.507   1.131  -0.770  0.00  0.00    -0.072 A 
ENDROOT
TORSDOF 0
ENDMDL
