MODEL 1
REMARK minimizedAffinity -4.17016602
REMARK minimizedRMSD -1
REMARK  0 active torsions:
REMARK  status: ('A' for Active; 'I' for Inactive)
ROOT
ATOM      1  C1  DEN d   1      -0.021  -1.623  -1.385  0.00  0.00     0.130 A 
ATOM      2  C2  DEN d   1      -0.151  -2.003   0.019  0.00  0.00    -0.031 A 
ATOM      3  C3  DEN d   1       0.033  -0.788   0.839  0.00  0.00     0.027 A 
ATOM      4  C4  DEN d   1       0.498   1.631   0.074  0.00  0.00     0.027 A 
ATOM      5  C5  DEN d   1       0.704   2.443  -1.019  0.00  0.00    -0.003 A 
ATOM      6  C6  DEN d   1       0.716   1.954  -2.299  0.00  0.00     0.001 A 
ATOM      7  C7  DEN d   1       0.473   0.624  -2.520  0.00  0.00     0.017 A 
ATOM      8  C8  DEN d   1       0.273  -0.202  -1.422  0.00  0.00    -0.094 A 
ATOM      9  C9  DEN d   1       0.252   0.313  -0.137  0.00  0.00    -0.072 A 
ENDROOT
TORSDOF 0
ENDMDL
