MODEL 1
REMARK minimizedAffinity -5.31524849
REMARK minimizedRMSD -1
REMARK  0 active torsions:
REMARK  status: ('A' for Active; 'I' for Inactive)
ROOT
ATOM      1  C1  DEN d   1      -1.040  -2.214   1.102  0.00  0.00     0.130 A 
ATOM      2  C2  DEN d   1      -2.210  -1.814   1.879  0.00  0.00    -0.031 A 
ATOM      3  C3  DEN d   1      -2.371  -0.352   1.740  0.00  0.00     0.027 A 
ATOM      4  C4  DEN d   1      -0.934   1.319   0.400  0.00  0.00     0.027 A 
ATOM      5  C5  DEN d   1       0.172   1.451  -0.411  0.00  0.00    -0.003 A 
ATOM      6  C6  DEN d   1       0.964   0.384  -0.743  0.00  0.00     0.001 A 
ATOM      7  C7  DEN d   1       0.636  -0.870  -0.300  0.00  0.00     0.017 A 
ATOM      8  C8  DEN d   1      -0.473  -1.009   0.524  0.00  0.00    -0.094 A 
ATOM      9  C9  DEN d   1      -1.269   0.079   0.839  0.00  0.00    -0.072 A 
ENDROOT
TORSDOF 0
ENDMDL
