MODEL 1
REMARK minimizedAffinity -4.51036119
REMARK minimizedRMSD -1
REMARK  0 active torsions:
REMARK  status: ('A' for Active; 'I' for Inactive)
ROOT
ATOM      1  C1  DEN d   1       0.430  -1.331  -1.399  0.00  0.00     0.130 A 
ATOM      2  C2  DEN d   1       0.236  -1.677   0.006  0.00  0.00    -0.031 A 
ATOM      3  C3  DEN d   1       0.118  -0.421   0.773  0.00  0.00     0.027 A 
ATOM      4  C4  DEN d   1       0.211   2.013  -0.075  0.00  0.00     0.027 A 
ATOM      5  C5  DEN d   1       0.370   2.809  -1.188  0.00  0.00    -0.003 A 
ATOM      6  C6  DEN d   1       0.593   2.285  -2.434  0.00  0.00     0.001 A 
ATOM      7  C7  DEN d   1       0.617   0.926  -2.604  0.00  0.00     0.017 A 
ATOM      8  C8  DEN d   1       0.464   0.118  -1.486  0.00  0.00    -0.094 A 
ATOM      9  C9  DEN d   1       0.228   0.666  -0.237  0.00  0.00    -0.072 A 
ENDROOT
TORSDOF 0
ENDMDL
