MODEL 1
REMARK minimizedAffinity -0.666888714
REMARK minimizedRMSD -1
REMARK  0 active torsions:
REMARK  status: ('A' for Active; 'I' for Inactive)
ROOT
ATOM      1  C1  DEN d   1       0.839  -0.196   0.958  0.00  0.00     0.130 A 
ATOM      2  C2  DEN d   1       0.536   0.838  -0.028  0.00  0.00    -0.031 A 
ATOM      3  C3  DEN d   1      -0.814   0.575  -0.566  0.00  0.00     0.027 A 
ATOM      4  C4  DEN d   1      -2.458  -1.321   0.032  0.00  0.00     0.027 A 
ATOM      5  C5  DEN d   1      -2.640  -2.446   0.805  0.00  0.00    -0.003 A 
ATOM      6  C6  DEN d   1      -1.671  -2.915   1.652  0.00  0.00     0.001 A 
ATOM      7  C7  DEN d   1      -0.491  -2.231   1.778  0.00  0.00     0.017 A 
ATOM      8  C8  DEN d   1      -0.297  -1.100   0.997  0.00  0.00    -0.094 A 
ATOM      9  C9  DEN d   1      -1.293  -0.634   0.156  0.00  0.00    -0.072 A 
ENDROOT
TORSDOF 0
ENDMDL
