MODEL 1
REMARK minimizedAffinity -0.919473767
REMARK minimizedRMSD -1
REMARK  0 active torsions:
REMARK  status: ('A' for Active; 'I' for Inactive)
ROOT
ATOM      1  C1  DEN d   1      -0.214   0.914  -1.880  0.00  0.00     0.130 A 
ATOM      2  C2  DEN d   1       0.594   2.071  -1.504  0.00  0.00    -0.031 A 
ATOM      3  C3  DEN d   1       1.401   1.700  -0.325  0.00  0.00     0.027 A 
ATOM      4  C4  DEN d   1       1.482  -0.543   0.946  0.00  0.00     0.027 A 
ATOM      5  C5  DEN d   1       0.966  -1.818   1.006  0.00  0.00    -0.003 A 
ATOM      6  C6  DEN d   1       0.003  -2.258   0.136  0.00  0.00     0.001 A 
ATOM      7  C7  DEN d   1      -0.441  -1.429  -0.860  0.00  0.00     0.017 A 
ATOM      8  C8  DEN d   1       0.070  -0.139  -0.922  0.00  0.00    -0.094 A 
ATOM      9  C9  DEN d   1       1.051   0.282  -0.041  0.00  0.00    -0.072 A 
ENDROOT
TORSDOF 0
ENDMDL
