MODEL 1
REMARK minimizedAffinity -3.84136581
REMARK minimizedRMSD -1
REMARK  0 active torsions:
REMARK  status: ('A' for Active; 'I' for Inactive)
ROOT
ATOM      1  C1  DEN d   1      -0.121  -0.766  -1.078  0.00  0.00     0.130 A 
ATOM      2  C2  DEN d   1       0.484  -0.479   0.221  0.00  0.00    -0.031 A 
ATOM      3  C3  DEN d   1       1.230   0.790   0.106  0.00  0.00     0.027 A 
ATOM      4  C4  DEN d   1       1.504   2.332  -1.943  0.00  0.00     0.027 A 
ATOM      5  C5  DEN d   1       1.184   2.501  -3.272  0.00  0.00    -0.003 A 
ATOM      6  C6  DEN d   1       0.442   1.583  -3.966  0.00  0.00     0.001 A 
ATOM      7  C7  DEN d   1      -0.044   0.476  -3.322  0.00  0.00     0.017 A 
ATOM      8  C8  DEN d   1       0.280   0.295  -1.983  0.00  0.00    -0.094 A 
ATOM      9  C9  DEN d   1       1.022   1.241  -1.296  0.00  0.00    -0.072 A 
ENDROOT
TORSDOF 0
ENDMDL
