MODEL 1
REMARK minimizedAffinity -4.95894432
REMARK minimizedRMSD -1
REMARK  0 active torsions:
REMARK  status: ('A' for Active; 'I' for Inactive)
ROOT
ATOM      1  C1  DEN d   1      -0.552  -0.598  -1.620  0.00  0.00     0.130 A 
ATOM      2  C2  DEN d   1      -0.255  -0.230  -0.238  0.00  0.00    -0.031 A 
ATOM      3  C3  DEN d   1       0.538   1.015  -0.257  0.00  0.00     0.027 A 
ATOM      4  C4  DEN d   1       1.327   2.406  -2.281  0.00  0.00     0.027 A 
ATOM      5  C5  DEN d   1       1.329   2.485  -3.656  0.00  0.00    -0.003 A 
ATOM      6  C6  DEN d   1       0.738   1.533  -4.443  0.00  0.00     0.001 A 
ATOM      7  C7  DEN d   1       0.081   0.482  -3.860  0.00  0.00     0.017 A 
ATOM      8  C8  DEN d   1       0.081   0.391  -2.474  0.00  0.00    -0.094 A 
ATOM      9  C9  DEN d   1       0.674   1.370  -1.695  0.00  0.00    -0.072 A 
ENDROOT
TORSDOF 0
ENDMDL
