MODEL 1
REMARK minimizedAffinity -6.58240223
REMARK minimizedRMSD -1
REMARK  0 active torsions:
REMARK  status: ('A' for Active; 'I' for Inactive)
ROOT
ATOM      1  C1  DEN d   1      -2.126  -1.408   2.507  0.00  0.00     0.130 A 
ATOM      2  C2  DEN d   1      -2.842  -0.139   2.606  0.00  0.00    -0.031 A 
ATOM      3  C3  DEN d   1      -2.203   0.819   1.681  0.00  0.00     0.027 A 
ATOM      4  C4  DEN d   1      -0.188   0.460   0.111  0.00  0.00     0.027 A 
ATOM      5  C5  DEN d   1       0.757  -0.448  -0.312  0.00  0.00    -0.003 A 
ATOM      6  C6  DEN d   1       0.829  -1.718   0.195  0.00  0.00     0.001 A 
ATOM      7  C7  DEN d   1      -0.090  -2.131   1.123  0.00  0.00     0.017 A 
ATOM      8  C8  DEN d   1      -1.042  -1.219   1.561  0.00  0.00    -0.094 A 
ATOM      9  C9  DEN d   1      -1.105   0.057   1.026  0.00  0.00    -0.072 A 
ENDROOT
TORSDOF 0
ENDMDL
