MODEL 1
REMARK minimizedAffinity -5.09655237
REMARK minimizedRMSD -1
REMARK  0 active torsions:
REMARK  status: ('A' for Active; 'I' for Inactive)
ROOT
ATOM      1  C1  DEN d   1      -0.057   1.018  -0.195  0.00  0.00     0.130 A 
ATOM      2  C2  DEN d   1       1.033   0.294  -0.842  0.00  0.00    -0.031 A 
ATOM      3  C3  DEN d   1       1.048  -1.082  -0.307  0.00  0.00     0.027 A 
ATOM      4  C4  DEN d   1      -0.507  -2.158   1.447  0.00  0.00     0.027 A 
ATOM      5  C5  DEN d   1      -1.574  -1.934   2.289  0.00  0.00    -0.003 A 
ATOM      6  C6  DEN d   1      -2.184  -0.711   2.385  0.00  0.00     0.001 A 
ATOM      7  C7  DEN d   1      -1.760   0.323   1.594  0.00  0.00     0.017 A 
ATOM      8  C8  DEN d   1      -0.679   0.108   0.749  0.00  0.00    -0.094 A 
ATOM      9  C9  DEN d   1      -0.084  -1.139   0.656  0.00  0.00    -0.072 A 
ENDROOT
TORSDOF 0
ENDMDL
