MODEL 1
REMARK minimizedAffinity -2.69501781
REMARK minimizedRMSD -1
REMARK  0 active torsions:
REMARK  status: ('A' for Active; 'I' for Inactive)
ROOT
ATOM      1  C1  DEN d   1      -0.698   1.262   0.304  0.00  0.00     0.130 A 
ATOM      2  C2  DEN d   1       0.175   1.888  -0.685  0.00  0.00    -0.031 A 
ATOM      3  C3  DEN d   1       1.122   0.864  -1.171  0.00  0.00     0.027 A 
ATOM      4  C4  DEN d   1       1.317  -1.617  -0.496  0.00  0.00     0.027 A 
ATOM      5  C5  DEN d   1       0.801  -2.603   0.316  0.00  0.00    -0.003 A 
ATOM      6  C6  DEN d   1      -0.220  -2.364   1.197  0.00  0.00     0.001 A 
ATOM      7  C7  DEN d   1      -0.788  -1.119   1.256  0.00  0.00     0.017 A 
ATOM      8  C8  DEN d   1      -0.269  -0.118   0.446  0.00  0.00    -0.094 A 
ATOM      9  C9  DEN d   1       0.755  -0.382  -0.447  0.00  0.00    -0.072 A 
ENDROOT
TORSDOF 0
ENDMDL
