MODEL 1
REMARK minimizedAffinity -1.23238838
REMARK minimizedRMSD -1
REMARK  0 active torsions:
REMARK  status: ('A' for Active; 'I' for Inactive)
ROOT
ATOM      1  C1  DEN d   1       0.826  -2.029  -0.016  0.00  0.00     0.130 A 
ATOM      2  C2  DEN d   1      -0.008  -2.415   1.119  0.00  0.00    -0.031 A 
ATOM      3  C3  DEN d   1      -0.707  -1.207   1.603  0.00  0.00     0.027 A 
ATOM      4  C4  DEN d   1      -0.582   1.208   0.708  0.00  0.00     0.027 A 
ATOM      5  C5  DEN d   1       0.000   2.028  -0.234  0.00  0.00    -0.003 A 
ATOM      6  C6  DEN d   1       0.916   1.563  -1.140  0.00  0.00     0.001 A 
ATOM      7  C7  DEN d   1       1.244   0.233  -1.153  0.00  0.00     0.017 A 
ATOM      8  C8  DEN d   1       0.667  -0.598  -0.201  0.00  0.00    -0.094 A 
ATOM      9  C9  DEN d   1      -0.267  -0.112   0.698  0.00  0.00    -0.072 A 
ENDROOT
TORSDOF 0
ENDMDL
