MODEL 1
REMARK minimizedAffinity -3.30875182
REMARK minimizedRMSD -1
REMARK  0 active torsions:
REMARK  status: ('A' for Active; 'I' for Inactive)
ROOT
ATOM      1  C1  DEN d   1      -0.343   1.058   0.049  0.00  0.00     0.130 A 
ATOM      2  C2  DEN d   1       0.761   0.262  -0.480  0.00  0.00    -0.031 A 
ATOM      3  C3  DEN d   1       0.802  -1.013   0.264  0.00  0.00     0.027 A 
ATOM      4  C4  DEN d   1      -0.731  -1.829   2.171  0.00  0.00     0.027 A 
ATOM      5  C5  DEN d   1      -1.802  -1.496   2.970  0.00  0.00    -0.003 A 
ATOM      6  C6  DEN d   1      -2.435  -0.285   2.876  0.00  0.00     0.001 A 
ATOM      7  C7  DEN d   1      -2.030   0.621   1.931  0.00  0.00     0.017 A 
ATOM      8  C8  DEN d   1      -0.947   0.295   1.126  0.00  0.00    -0.094 A 
ATOM      9  C9  DEN d   1      -0.328  -0.939   1.229  0.00  0.00    -0.072 A 
ENDROOT
TORSDOF 0
ENDMDL
