MODEL 1
REMARK minimizedAffinity 0.49390921
REMARK minimizedRMSD -1
REMARK  0 active torsions:
REMARK  status: ('A' for Active; 'I' for Inactive)
ROOT
ATOM      1  C1  BNZ d   1       0.415  -0.499   1.121  0.00  0.00     0.000 A 
ATOM      2  C2  BNZ d   1       1.164  -0.931   0.058  0.00  0.00     0.000 A 
ATOM      3  C3  BNZ d   1       1.241  -0.192  -1.089  0.00  0.00     0.000 A 
ATOM      4  C4  BNZ d   1       0.539   0.955  -1.189  0.00  0.00     0.000 A 
ATOM      5  C5  BNZ d   1      -0.228   1.399  -0.130  0.00  0.00     0.000 A 
ATOM      6  C6  BNZ d   1      -0.273   0.673   1.038  0.00  0.00     0.000 A 
ENDROOT
TORSDOF 0
ENDMDL
