MODEL 1
REMARK minimizedAffinity -2.82050776
REMARK minimizedRMSD -1
REMARK  0 active torsions:
REMARK  status: ('A' for Active; 'I' for Inactive)
ROOT
ATOM      1  C1  BNZ d   1       1.268  -3.055  -0.657  0.00  0.00     0.000 A 
ATOM      2  C2  BNZ d   1       0.712  -3.897  -1.584  0.00  0.00     0.000 A 
ATOM      3  C3  BNZ d   1       0.085  -3.401  -2.693  0.00  0.00     0.000 A 
ATOM      4  C4  BNZ d   1      -0.019  -2.066  -2.854  0.00  0.00     0.000 A 
ATOM      5  C5  BNZ d   1       0.529  -1.205  -1.925  0.00  0.00     0.000 A 
ATOM      6  C6  BNZ d   1       1.193  -1.708  -0.829  0.00  0.00     0.000 A 
ENDROOT
TORSDOF 0
ENDMDL
