MODEL 1
REMARK minimizedAffinity -3.86276102
REMARK minimizedRMSD -1
REMARK  0 active torsions:
REMARK  status: ('A' for Active; 'I' for Inactive)
ROOT
ATOM      1  C1  BNZ d   1       0.253  -1.756  -2.726  0.00  0.00     0.000 A 
ATOM      2  C2  BNZ d   1       0.541  -3.094  -2.685  0.00  0.00     0.000 A 
ATOM      3  C3  BNZ d   1       1.170  -3.642  -1.603  0.00  0.00     0.000 A 
ATOM      4  C4  BNZ d   1       1.547  -2.846  -0.581  0.00  0.00     0.000 A 
ATOM      5  C5  BNZ d   1       1.272  -1.493  -0.612  0.00  0.00     0.000 A 
ATOM      6  C6  BNZ d   1       0.604  -0.952  -1.686  0.00  0.00     0.000 A 
ENDROOT
TORSDOF 0
ENDMDL
