MODEL 1
REMARK minimizedAffinity -4.41940022
REMARK minimizedRMSD -1
REMARK  0 active torsions:
REMARK  status: ('A' for Active; 'I' for Inactive)
ROOT
ATOM      1  C1  BNZ d   1       0.133  -4.721  -0.862  0.00  0.00     0.000 A 
ATOM      2  C2  BNZ d   1      -0.623  -4.238  -1.897  0.00  0.00     0.000 A 
ATOM      3  C3  BNZ d   1      -0.312  -3.049  -2.495  0.00  0.00     0.000 A 
ATOM      4  C4  BNZ d   1       0.727  -2.325  -2.031  0.00  0.00     0.000 A 
ATOM      5  C5  BNZ d   1       1.492  -2.793  -0.981  0.00  0.00     0.000 A 
ATOM      6  C6  BNZ d   1       1.200  -4.009  -0.408  0.00  0.00     0.000 A 
ENDROOT
TORSDOF 0
ENDMDL
