MODEL 1
REMARK minimizedAffinity -2.24071836
REMARK minimizedRMSD -1
REMARK  0 active torsions:
REMARK  status: ('A' for Active; 'I' for Inactive)
ROOT
ATOM      1  C1  BNZ d   1       2.433  -4.485   0.438  0.00  0.00     0.000 A 
ATOM      2  C2  BNZ d   1       1.971  -3.454  -0.336  0.00  0.00     0.000 A 
ATOM      3  C3  BNZ d   1       0.905  -3.630  -1.173  0.00  0.00     0.000 A 
ATOM      4  C4  BNZ d   1       0.329  -4.846  -1.267  0.00  0.00     0.000 A 
ATOM      5  C5  BNZ d   1       0.789  -5.898  -0.500  0.00  0.00     0.000 A 
ATOM      6  C6  BNZ d   1       1.837  -5.707   0.371  0.00  0.00     0.000 A 
ENDROOT
TORSDOF 0
ENDMDL
