MODEL 1
REMARK minimizedAffinity -3.62835908
REMARK minimizedRMSD -1
REMARK  0 active torsions:
REMARK  status: ('A' for Active; 'I' for Inactive)
ROOT
ATOM      1  C1  BNZ d   1      -0.822   1.296   2.097  0.00  0.00     0.000 A 
ATOM      2  C2  BNZ d   1      -1.920   1.873   1.515  0.00  0.00     0.000 A 
ATOM      3  C3  BNZ d   1      -2.314   1.515   0.257  0.00  0.00     0.000 A 
ATOM      4  C4  BNZ d   1      -1.589   0.611  -0.433  0.00  0.00     0.000 A 
ATOM      5  C5  BNZ d   1      -0.475   0.028   0.136  0.00  0.00     0.000 A 
ATOM      6  C6  BNZ d   1      -0.103   0.362   1.417  0.00  0.00     0.000 A 
ENDROOT
TORSDOF 0
ENDMDL
