MODEL 1
REMARK minimizedAffinity -5.40377712
REMARK minimizedRMSD -1
REMARK  0 active torsions:
REMARK  status: ('A' for Active; 'I' for Inactive)
ROOT
ATOM      1  C1  BNZ d   1      -0.253   0.862   0.382  0.00  0.00     0.000 A 
ATOM      2  C2  BNZ d   1      -0.254   1.979  -0.411  0.00  0.00     0.000 A 
ATOM      3  C3  BNZ d   1      -0.866   3.130   0.002  0.00  0.00     0.000 A 
ATOM      4  C4  BNZ d   1      -1.510   3.150   1.187  0.00  0.00     0.000 A 
ATOM      5  C5  BNZ d   1      -1.526   2.029   1.993  0.00  0.00     0.000 A 
ATOM      6  C6  BNZ d   1      -0.875   0.885   1.592  0.00  0.00     0.000 A 
ENDROOT
TORSDOF 0
ENDMDL
