MODEL 1
REMARK minimizedAffinity -3.58333397
REMARK minimizedRMSD -1
REMARK  0 active torsions:
REMARK  status: ('A' for Active; 'I' for Inactive)
ROOT
ATOM      1  C1  BNZ d   1      -2.004   2.176   1.710  0.00  0.00     0.000 A 
ATOM      2  C2  BNZ d   1      -2.225   1.683   0.451  0.00  0.00     0.000 A 
ATOM      3  C3  BNZ d   1      -1.445   0.681  -0.055  0.00  0.00     0.000 A 
ATOM      4  C4  BNZ d   1      -0.422   0.202   0.681  0.00  0.00     0.000 A 
ATOM      5  C5  BNZ d   1      -0.180   0.694   1.948  0.00  0.00     0.000 A 
ATOM      6  C6  BNZ d   1      -0.992   1.675   2.469  0.00  0.00     0.000 A 
ENDROOT
TORSDOF 0
ENDMDL
