MODEL 1
REMARK minimizedAffinity -3.73086381
REMARK minimizedRMSD -1
REMARK  0 active torsions:
REMARK  status: ('A' for Active; 'I' for Inactive)
ROOT
ATOM      1  C1  BNZ d   1      -0.705   0.942   0.629  0.00  0.00     0.000 A 
ATOM      2  C2  BNZ d   1       0.405   0.145   0.543  0.00  0.00     0.000 A 
ATOM      3  C3  BNZ d   1       1.059  -0.018  -0.647  0.00  0.00     0.000 A 
ATOM      4  C4  BNZ d   1       0.579   0.583  -1.755  0.00  0.00     0.000 A 
ATOM      5  C5  BNZ d   1      -0.544   1.382  -1.686  0.00  0.00     0.000 A 
ATOM      6  C6  BNZ d   1      -1.177   1.576  -0.479  0.00  0.00     0.000 A 
ENDROOT
TORSDOF 0
ENDMDL
