MODEL 1
REMARK minimizedAffinity -1.72019053
REMARK minimizedRMSD -1
REMARK  0 active torsions:
REMARK  status: ('A' for Active; 'I' for Inactive)
ROOT
ATOM      1  C1  BNZ d   1      -0.223   2.228   1.850  0.00  0.00     0.000 A 
ATOM      2  C2  BNZ d   1       0.329   2.219   0.597  0.00  0.00     0.000 A 
ATOM      3  C3  BNZ d   1       0.540   1.042  -0.066  0.00  0.00     0.000 A 
ATOM      4  C4  BNZ d   1       0.236  -0.124   0.540  0.00  0.00     0.000 A 
ATOM      5  C5  BNZ d   1      -0.312  -0.131   1.807  0.00  0.00     0.000 A 
ATOM      6  C6  BNZ d   1      -0.559   1.057   2.456  0.00  0.00     0.000 A 
ENDROOT
TORSDOF 0
ENDMDL
