MODEL 1
REMARK minimizedAffinity -4.73599625
REMARK minimizedRMSD -1
REMARK  0 active torsions:
REMARK  status: ('A' for Active; 'I' for Inactive)
ROOT
ATOM      1  C1  BNZ d   1      -2.128   2.145   1.271  0.00  0.00     0.000 A 
ATOM      2  C2  BNZ d   1      -2.377   1.493   0.093  0.00  0.00     0.000 A 
ATOM      3  C3  BNZ d   1      -1.621   0.419  -0.286  0.00  0.00     0.000 A 
ATOM      4  C4  BNZ d   1      -0.593   0.024   0.492  0.00  0.00     0.000 A 
ATOM      5  C5  BNZ d   1      -0.323   0.677   1.678  0.00  0.00     0.000 A 
ATOM      6  C6  BNZ d   1      -1.111   1.733   2.076  0.00  0.00     0.000 A 
ENDROOT
TORSDOF 0
ENDMDL
