MODEL 1
REMARK minimizedAffinity 0.372499436
REMARK minimizedRMSD -1
REMARK  0 active torsions:
REMARK  status: ('A' for Active; 'I' for Inactive)
ROOT
ATOM      1  C1  BNZ d   1      -0.930   0.307  -4.677  0.00  0.00     0.000 A 
ATOM      2  C2  BNZ d   1      -0.458  -0.899  -5.120  0.00  0.00     0.000 A 
ATOM      3  C3  BNZ d   1       0.355  -1.665  -4.331  0.00  0.00     0.000 A 
ATOM      4  C4  BNZ d   1       0.725  -1.206  -3.118  0.00  0.00     0.000 A 
ATOM      5  C5  BNZ d   1       0.264   0.013  -2.661  0.00  0.00     0.000 A 
ATOM      6  C6  BNZ d   1      -0.584   0.763  -3.442  0.00  0.00     0.000 A 
ENDROOT
TORSDOF 0
ENDMDL
