MODEL 1
REMARK minimizedAffinity -3.73562455
REMARK minimizedRMSD -1
REMARK  0 active torsions:
REMARK  status: ('A' for Active; 'I' for Inactive)
ROOT
ATOM      1  C1  BNZ d   1      -0.239   0.476   1.655  0.00  0.00     0.000 A 
ATOM      2  C2  BNZ d   1      -0.370   0.185   0.323  0.00  0.00     0.000 A 
ATOM      3  C3  BNZ d   1      -1.157   0.955  -0.488  0.00  0.00     0.000 A 
ATOM      4  C4  BNZ d   1      -1.842   1.989   0.041  0.00  0.00     0.000 A 
ATOM      5  C5  BNZ d   1      -1.728   2.290   1.384  0.00  0.00     0.000 A 
ATOM      6  C6  BNZ d   1      -0.905   1.536   2.189  0.00  0.00     0.000 A 
ENDROOT
TORSDOF 0
ENDMDL
