MODEL 1
REMARK minimizedAffinity 2.60266471
REMARK minimizedRMSD -1
REMARK  0 active torsions:
REMARK  status: ('A' for Active; 'I' for Inactive)
ROOT
ATOM      1  C1  BNZ d   1       0.603   0.189   2.393  0.00  0.00     0.000 A 
ATOM      2  C2  BNZ d   1       1.097  -0.128   1.156  0.00  0.00     0.000 A 
ATOM      3  C3  BNZ d   1       0.352   0.081   0.030  0.00  0.00     0.000 A 
ATOM      4  C4  BNZ d   1      -0.900   0.570   0.144  0.00  0.00     0.000 A 
ATOM      5  C5  BNZ d   1      -1.416   0.886   1.385  0.00  0.00     0.000 A 
ATOM      6  C6  BNZ d   1      -0.648   0.710   2.514  0.00  0.00     0.000 A 
ENDROOT
TORSDOF 0
ENDMDL
