MODEL 1
REMARK minimizedAffinity -2.14044833
REMARK minimizedRMSD -1
REMARK  0 active torsions:
REMARK  status: ('A' for Active; 'I' for Inactive)
ROOT
ATOM      1  C1  BNZ d   1      -0.234   0.973  -0.470  0.00  0.00     0.000 A 
ATOM      2  C2  BNZ d   1      -1.265   1.753  -0.019  0.00  0.00     0.000 A 
ATOM      3  C3  BNZ d   1      -1.641   1.725   1.295  0.00  0.00     0.000 A 
ATOM      4  C4  BNZ d   1      -1.012   0.889   2.147  0.00  0.00     0.000 A 
ATOM      5  C5  BNZ d   1       0.024   0.090   1.705  0.00  0.00     0.000 A 
ATOM      6  C6  BNZ d   1       0.425   0.150   0.390  0.00  0.00     0.000 A 
ENDROOT
TORSDOF 0
ENDMDL
