MODEL 1
REMARK minimizedAffinity 3.88513756
REMARK minimizedRMSD -1
REMARK  0 active torsions:
REMARK  status: ('A' for Active; 'I' for Inactive)
ROOT
ATOM      1  C1  DEN d   1      -3.439   1.703  -4.514  0.00  0.00     0.130 A 
ATOM      2  C2  DEN d   1      -3.233   0.925  -3.296  0.00  0.00    -0.031 A 
ATOM      3  C3  DEN d   1      -3.505   1.804  -2.141  0.00  0.00     0.027 A 
ATOM      4  C4  DEN d   1      -4.224   4.281  -2.121  0.00  0.00     0.027 A 
ATOM      5  C5  DEN d   1      -4.515   5.372  -2.910  0.00  0.00    -0.003 A 
ATOM      6  C6  DEN d   1      -4.435   5.326  -4.277  0.00  0.00     0.001 A 
ATOM      7  C7  DEN d   1      -4.099   4.153  -4.899  0.00  0.00     0.017 A 
ATOM      8  C8  DEN d   1      -3.797   3.051  -4.109  0.00  0.00    -0.094 A 
ATOM      9  C9  DEN d   1      -3.896   3.113  -2.730  0.00  0.00    -0.072 A 
ENDROOT
TORSDOF 0
ENDMDL
