MODEL 1
REMARK minimizedAffinity 3.3678143
REMARK minimizedRMSD -1
REMARK  0 active torsions:
REMARK  status: ('A' for Active; 'I' for Inactive)
ROOT
ATOM      1  C1  DEN d   1       2.495  -3.655   4.821  0.00  0.00     0.130 A 
ATOM      2  C2  DEN d   1       1.968  -2.972   5.999  0.00  0.00    -0.031 A 
ATOM      3  C3  DEN d   1       1.368  -1.697   5.557  0.00  0.00     0.027 A 
ATOM      4  C4  DEN d   1       1.201  -0.722   3.175  0.00  0.00     0.027 A 
ATOM      5  C5  DEN d   1       1.516  -0.934   1.851  0.00  0.00    -0.003 A 
ATOM      6  C6  DEN d   1       2.203  -2.042   1.432  0.00  0.00     0.001 A 
ATOM      7  C7  DEN d   1       2.559  -3.003   2.340  0.00  0.00     0.017 A 
ATOM      8  C8  DEN d   1       2.252  -2.794   3.678  0.00  0.00    -0.094 A 
ATOM      9  C9  DEN d   1       1.545  -1.673   4.080  0.00  0.00    -0.072 A 
ENDROOT
TORSDOF 0
ENDMDL
