MODEL 1
REMARK minimizedAffinity 17.2834721
REMARK minimizedRMSD -1
REMARK  0 active torsions:
REMARK  status: ('A' for Active; 'I' for Inactive)
ROOT
ATOM      1  C1  DEN d   1      -1.545  -4.847   0.871  0.00  0.00     0.130 A 
ATOM      2  C2  DEN d   1      -2.585  -5.449   0.041  0.00  0.00    -0.031 A 
ATOM      3  C3  DEN d   1      -1.979  -5.814  -1.255  0.00  0.00     0.027 A 
ATOM      4  C4  DEN d   1       0.455  -5.513  -2.052  0.00  0.00     0.027 A 
ATOM      5  C5  DEN d   1       1.700  -5.040  -1.702  0.00  0.00    -0.003 A 
ATOM      6  C6  DEN d   1       1.941  -4.443  -0.493  0.00  0.00     0.001 A 
ATOM      7  C7  DEN d   1       0.932  -4.344   0.428  0.00  0.00     0.017 A 
ATOM      8  C8  DEN d   1      -0.328  -4.813   0.080  0.00  0.00    -0.094 A 
ATOM      9  C9  DEN d   1      -0.548  -5.424  -1.143  0.00  0.00    -0.072 A 
ENDROOT
TORSDOF 0
ENDMDL
