MODEL 1
REMARK minimizedAffinity 11.7242565
REMARK minimizedRMSD -1
REMARK  0 active torsions:
REMARK  status: ('A' for Active; 'I' for Inactive)
ROOT
ATOM      1  C1  DEN d   1       2.403  -3.045   2.278  0.00  0.00     0.130 A 
ATOM      2  C2  DEN d   1       1.851  -1.992   1.429  0.00  0.00    -0.031 A 
ATOM      3  C3  DEN d   1       1.112  -1.050   2.293  0.00  0.00     0.027 A 
ATOM      4  C4  DEN d   1       0.775  -1.115   4.850  0.00  0.00     0.027 A 
ATOM      5  C5  DEN d   1       1.046  -1.822   6.000  0.00  0.00    -0.003 A 
ATOM      6  C6  DEN d   1       1.754  -2.995   5.986  0.00  0.00     0.001 A 
ATOM      7  C7  DEN d   1       2.254  -3.472   4.803  0.00  0.00     0.017 A 
ATOM      8  C8  DEN d   1       1.978  -2.769   3.639  0.00  0.00    -0.094 A 
ATOM      9  C9  DEN d   1       1.271  -1.579   3.675  0.00  0.00    -0.072 A 
ENDROOT
TORSDOF 0
ENDMDL
