MODEL 1
REMARK minimizedAffinity -1.33948433
REMARK minimizedRMSD -1
REMARK  2 active torsions:
REMARK  status: ('A' for Active; 'I' for Inactive)
REMARK    1  A    between atoms: C2'_3  and  C1'_4 
REMARK    2  A    between atoms: C1'_4  and  C1_5 
ROOT
ATOM      1  C1  I4B d   1       0.185  -1.201   1.206  0.00  0.00    -0.075 A 
ATOM      2  C2  I4B d   1      -0.745  -1.435   0.224  0.00  0.00     0.003 A 
ATOM      3  C3  I4B d   1      -1.808  -0.523   0.017  0.00  0.00     0.002 A 
ATOM      4  C4  I4B d   1      -1.931   0.576   0.843  0.00  0.00    -0.004 A 
ATOM      5  C5  I4B d   1      -0.974   0.824   1.823  0.00  0.00     0.002 A 
ATOM      6  C6  I4B d   1       0.098  -0.064   1.998  0.00  0.00     0.003 A 
ENDROOT
BRANCH   1   7
ATOM      7  C1' I4B d   1       1.276  -2.202   1.418  0.00  0.00     0.060 C 
BRANCH   7   8
ATOM      8  C2' I4B d   1       1.653  -2.775   0.067  0.00  0.00    -0.013 C 
ATOM      9  C4' I4B d   1       2.709  -1.936  -0.605  0.00  0.00     0.013 C 
ATOM     10  C3' I4B d   1       2.132  -4.180   0.277  0.00  0.00     0.013 C 
ENDBRANCH   7   8
ENDBRANCH   1   7
TORSDOF 2
ENDMDL
