MODEL 1
REMARK minimizedAffinity 5.70578909
REMARK minimizedRMSD -1
REMARK  2 active torsions:
REMARK  status: ('A' for Active; 'I' for Inactive)
REMARK    1  A    between atoms: C2'_3  and  C1'_4 
REMARK    2  A    between atoms: C1'_4  and  C1_5 
ROOT
ATOM      1  C1  I4B d   1       1.997  -3.655   0.123  0.00  0.00    -0.075 A 
ATOM      2  C2  I4B d   1       3.043  -3.659  -0.766  0.00  0.00     0.003 A 
ATOM      3  C3  I4B d   1       3.959  -4.739  -0.785  0.00  0.00     0.002 A 
ATOM      4  C4  I4B d   1       3.821  -5.762   0.131  0.00  0.00    -0.004 A 
ATOM      5  C5  I4B d   1       2.747  -5.768   1.016  0.00  0.00     0.002 A 
ATOM      6  C6  I4B d   1       1.822  -4.714   1.005  0.00  0.00     0.003 A 
ENDROOT
BRANCH   1   7
ATOM      7  C1' I4B d   1       1.068  -2.483   0.138  0.00  0.00     0.060 C 
BRANCH   7   8
ATOM      8  C2' I4B d   1       0.226  -2.570   1.395  0.00  0.00    -0.013 C 
ATOM      9  C4' I4B d   1       0.591  -1.484   2.372  0.00  0.00     0.013 C 
ATOM     10  C3' I4B d   1      -1.216  -2.477   0.994  0.00  0.00     0.013 C 
ENDBRANCH   7   8
ENDBRANCH   1   7
TORSDOF 2
ENDMDL
