MODEL 1
REMARK minimizedAffinity 0.00518868305
REMARK minimizedRMSD -1
REMARK  2 active torsions:
REMARK  status: ('A' for Active; 'I' for Inactive)
REMARK    1  A    between atoms: C2'_3  and  C1'_4 
REMARK    2  A    between atoms: C1'_4  and  C1_5 
ROOT
ATOM      1  C1  I4B d   1      -4.164   2.518   5.246  0.00  0.00    -0.075 A 
ATOM      2  C2  I4B d   1      -4.814   1.543   5.961  0.00  0.00     0.003 A 
ATOM      3  C3  I4B d   1      -5.728   0.676   5.317  0.00  0.00     0.002 A 
ATOM      4  C4  I4B d   1      -6.000   0.850   3.975  0.00  0.00    -0.004 A 
ATOM      5  C5  I4B d   1      -5.323   1.824   3.246  0.00  0.00     0.002 A 
ATOM      6  C6  I4B d   1      -4.390   2.656   3.883  0.00  0.00     0.003 A 
ENDROOT
BRANCH   1   7
ATOM      7  C1' I4B d   1      -3.229   3.438   5.965  0.00  0.00     0.060 C 
BRANCH   7   8
ATOM      8  C2' I4B d   1      -3.383   4.821   5.367  0.00  0.00    -0.013 C 
ATOM      9  C4' I4B d   1      -4.640   5.491   5.856  0.00  0.00     0.013 C 
ATOM     10  C3' I4B d   1      -2.167   5.620   5.730  0.00  0.00     0.013 C 
ENDBRANCH   7   8
ENDBRANCH   1   7
TORSDOF 2
ENDMDL
