MODEL 1
REMARK minimizedAffinity 3.81644464
REMARK minimizedRMSD -1
REMARK  2 active torsions:
REMARK  status: ('A' for Active; 'I' for Inactive)
REMARK    1  A    between atoms: C2'_3  and  C1'_4 
REMARK    2  A    between atoms: C1'_4  and  C1_5 
ROOT
ATOM      1  C1  I4B d   1       1.436   4.339   3.404  0.00  0.00    -0.075 A 
ATOM      2  C2  I4B d   1       2.146   3.689   4.381  0.00  0.00     0.003 A 
ATOM      3  C3  I4B d   1       2.152   4.185   5.708  0.00  0.00     0.002 A 
ATOM      4  C4  I4B d   1       1.480   5.354   5.999  0.00  0.00    -0.004 A 
ATOM      5  C5  I4B d   1       0.741   6.000   5.011  0.00  0.00     0.002 A 
ATOM      6  C6  I4B d   1       0.709   5.483   3.708  0.00  0.00     0.003 A 
ENDROOT
BRANCH   1   7
ATOM      7  C1' I4B d   1       1.479   3.806   2.007  0.00  0.00     0.060 C 
BRANCH   7   8
ATOM      8  C2' I4B d   1       2.412   2.613   1.990  0.00  0.00    -0.013 C 
ATOM      9  C4' I4B d   1       1.754   1.414   1.361  0.00  0.00     0.013 C 
ATOM     10  C3' I4B d   1       3.651   3.005   1.242  0.00  0.00     0.013 C 
ENDBRANCH   7   8
ENDBRANCH   1   7
TORSDOF 2
ENDMDL
