MODEL 1
REMARK minimizedAffinity 12.706913
REMARK minimizedRMSD -1
REMARK  2 active torsions:
REMARK  status: ('A' for Active; 'I' for Inactive)
REMARK    1  A    between atoms: C2'_3  and  C1'_4 
REMARK    2  A    between atoms: C1'_4  and  C1_5 
ROOT
ATOM      1  C1  I4B d   1       2.368  -1.766   2.821  0.00  0.00    -0.075 A 
ATOM      2  C2  I4B d   1       1.212  -1.113   2.473  0.00  0.00     0.003 A 
ATOM      3  C3  I4B d   1       0.665  -1.274   1.177  0.00  0.00     0.002 A 
ATOM      4  C4  I4B d   1       1.329  -2.052   0.251  0.00  0.00    -0.004 A 
ATOM      5  C5  I4B d   1       2.488  -2.732   0.613  0.00  0.00     0.002 A 
ATOM      6  C6  I4B d   1       3.005  -2.598   1.910  0.00  0.00     0.003 A 
ENDROOT
BRANCH   1   7
ATOM      7  C1' I4B d   1       2.936  -1.547   4.188  0.00  0.00     0.060 C 
BRANCH   7   8
ATOM      8  C2' I4B d   1       4.147  -2.445   4.339  0.00  0.00    -0.013 C 
ATOM      9  C4' I4B d   1       5.424  -1.647   4.318  0.00  0.00     0.013 C 
ATOM     10  C3' I4B d   1       4.003  -3.203   5.625  0.00  0.00     0.013 C 
ENDBRANCH   7   8
ENDBRANCH   1   7
TORSDOF 2
ENDMDL
