MODEL 1
REMARK minimizedAffinity 3.12509656
REMARK minimizedRMSD -1
REMARK  2 active torsions:
REMARK  status: ('A' for Active; 'I' for Inactive)
REMARK    1  A    between atoms: C2'_3  and  C1'_4 
REMARK    2  A    between atoms: C1'_4  and  C1_5 
ROOT
ATOM      1  C1  I4B d   1       3.881  -3.608   2.421  0.00  0.00    -0.075 A 
ATOM      2  C2  I4B d   1       3.892  -4.209   1.187  0.00  0.00     0.003 A 
ATOM      3  C3  I4B d   1       3.124  -3.671   0.126  0.00  0.00     0.002 A 
ATOM      4  C4  I4B d   1       2.327  -2.568   0.355  0.00  0.00    -0.004 A 
ATOM      5  C5  I4B d   1       2.335  -1.947   1.600  0.00  0.00     0.002 A 
ATOM      6  C6  I4B d   1       3.126  -2.463   2.637  0.00  0.00     0.003 A 
ENDROOT
BRANCH   1   7
ATOM      7  C1' I4B d   1       4.678  -4.222   3.528  0.00  0.00     0.060 C 
BRANCH   7   8
ATOM      8  C2' I4B d   1       4.679  -3.255   4.694  0.00  0.00    -0.013 C 
ATOM      9  C4' I4B d   1       4.441  -3.971   5.997  0.00  0.00     0.013 C 
ATOM     10  C3' I4B d   1       5.998  -2.541   4.702  0.00  0.00     0.013 C 
ENDBRANCH   7   8
ENDBRANCH   1   7
TORSDOF 2
ENDMDL
