MODEL 1
REMARK minimizedAffinity 4.35823298
REMARK minimizedRMSD -1
REMARK  2 active torsions:
REMARK  status: ('A' for Active; 'I' for Inactive)
REMARK    1  A    between atoms: C2'_3  and  C1'_4 
REMARK    2  A    between atoms: C1'_4  and  C1_5 
ROOT
ATOM      1  C1  I4B d   1       3.372   5.944   4.063  0.00  0.00    -0.075 A 
ATOM      2  C2  I4B d   1       4.416   5.921   3.173  0.00  0.00     0.003 A 
ATOM      3  C3  I4B d   1       5.753   5.923   3.641  0.00  0.00     0.002 A 
ATOM      4  C4  I4B d   1       5.998   5.999   4.997  0.00  0.00    -0.004 A 
ATOM      5  C5  I4B d   1       4.938   5.999   5.899  0.00  0.00     0.002 A 
ATOM      6  C6  I4B d   1       3.617   5.959   5.430  0.00  0.00     0.003 A 
ENDROOT
BRANCH   1   7
ATOM      7  C1' I4B d   1       1.974   5.975   3.534  0.00  0.00     0.060 C 
BRANCH   7   8
ATOM      8  C2' I4B d   1       1.244   4.761   4.072  0.00  0.00    -0.013 C 
ATOM      9  C4' I4B d   1       1.204   3.653   3.052  0.00  0.00     0.013 C 
ATOM     10  C3' I4B d   1       1.941   4.319   5.324  0.00  0.00     0.013 C 
ENDBRANCH   7   8
ENDBRANCH   1   7
TORSDOF 2
ENDMDL
