MODEL 1
REMARK minimizedAffinity -4.23607016
REMARK minimizedRMSD -1
REMARK  1 active torsions:
REMARK  status: ('A' for Active; 'I' for Inactive)
REMARK    1  A    between atoms: N_2  and  C1_3 
ROOT
ATOM      1  C1  UNL d   1       0.336   0.766   1.277  0.00  0.00     0.143 A 
ATOM      2  C2  UNL d   1      -0.002   1.823   2.129  0.00  0.00    -0.057 A 
ATOM      3  C3  UNL d   1      -1.155   2.588   1.916  0.00  0.00     0.033 A 
ATOM      4  C4  UNL d   1      -1.978   2.327   0.825  0.00  0.00    -0.042 A 
ATOM      5  C5  UNL d   1      -1.648   1.298  -0.050  0.00  0.00     0.033 A 
ATOM      6  C6  UNL d   1      -0.499   0.533   0.173  0.00  0.00    -0.057 A 
ENDROOT
BRANCH   1   7
ATOM      7  N   UNL d   1       1.521   0.033   1.379  0.00  0.00    -0.732 N 
ATOM      8  C   UNL d   1       1.884  -0.610   2.624  0.00  0.00     0.284 C 
ATOM      9  H3  UNL d   1       1.701  -0.531   0.552  0.00  0.00     0.395 HD
ENDBRANCH   1   7
TORSDOF 1
ENDMDL
