MODEL 1
REMARK minimizedAffinity -2.74044728
REMARK minimizedRMSD -1
REMARK  1 active torsions:
REMARK  status: ('A' for Active; 'I' for Inactive)
REMARK    1  A    between atoms: N_2  and  C1_3 
ROOT
ATOM      1  C1  UNL d   1      -1.104   1.477   0.227  0.00  0.00     0.143 A 
ATOM      2  C2  UNL d   1      -0.747   2.042  -1.002  0.00  0.00    -0.057 A 
ATOM      3  C3  UNL d   1      -0.061   1.300  -1.971  0.00  0.00     0.033 A 
ATOM      4  C4  UNL d   1       0.306  -0.017  -1.715  0.00  0.00    -0.042 A 
ATOM      5  C5  UNL d   1      -0.016  -0.592  -0.491  0.00  0.00     0.033 A 
ATOM      6  C6  UNL d   1      -0.707   0.152   0.470  0.00  0.00    -0.057 A 
ENDROOT
BRANCH   1   7
ATOM      7  N   UNL d   1      -1.699   2.192   1.269  0.00  0.00    -0.732 N 
ATOM      8  C   UNL d   1      -0.897   3.004   2.158  0.00  0.00     0.284 C 
ATOM      9  H3  UNL d   1      -2.578   2.624   0.991  0.00  0.00     0.395 HD
ENDBRANCH   1   7
TORSDOF 1
ENDMDL
