MODEL 1
REMARK minimizedAffinity -3.20775676
REMARK minimizedRMSD -1
REMARK  1 active torsions:
REMARK  status: ('A' for Active; 'I' for Inactive)
REMARK    1  A    between atoms: N_2  and  C1_3 
ROOT
ATOM      1  C1  UNL d   1       0.105  -0.087  -0.663  0.00  0.00     0.143 A 
ATOM      2  C2  UNL d   1      -0.531   0.036   0.577  0.00  0.00    -0.057 A 
ATOM      3  C3  UNL d   1      -1.359   1.129   0.863  0.00  0.00     0.033 A 
ATOM      4  C4  UNL d   1      -1.542   2.135  -0.079  0.00  0.00    -0.042 A 
ATOM      5  C5  UNL d   1      -0.900   2.046  -1.309  0.00  0.00     0.033 A 
ATOM      6  C6  UNL d   1      -0.080   0.950  -1.592  0.00  0.00    -0.057 A 
ENDROOT
BRANCH   1   7
ATOM      7  N   UNL d   1       1.018  -1.099  -0.972  0.00  0.00    -0.732 N 
ATOM      8  C   UNL d   1       2.306  -1.155  -0.314  0.00  0.00     0.284 C 
ATOM      9  H3  UNL d   1       0.570  -2.005  -1.087  0.00  0.00     0.395 HD
ENDBRANCH   1   7
TORSDOF 1
ENDMDL
