MODEL 1
REMARK minimizedAffinity -1.523592
REMARK minimizedRMSD -1
REMARK  1 active torsions:
REMARK  status: ('A' for Active; 'I' for Inactive)
REMARK    1  A    between atoms: N_2  and  C1_3 
ROOT
ATOM      1  C1  UNL d   1       0.269  -0.582  -1.008  0.00  0.00     0.143 A 
ATOM      2  C2  UNL d   1       0.437   0.109  -2.213  0.00  0.00    -0.057 A 
ATOM      3  C3  UNL d   1       0.002   1.432  -2.358  0.00  0.00     0.033 A 
ATOM      4  C4  UNL d   1      -0.637   2.080  -1.306  0.00  0.00    -0.042 A 
ATOM      5  C5  UNL d   1      -0.837   1.404  -0.107  0.00  0.00     0.033 A 
ATOM      6  C6  UNL d   1      -0.395   0.085   0.033  0.00  0.00    -0.057 A 
ENDROOT
BRANCH   1   7
ATOM      7  N   UNL d   1       0.591  -1.930  -0.833  0.00  0.00    -0.732 N 
ATOM      8  C   UNL d   1      -0.147  -2.961  -1.532  0.00  0.00     0.284 C 
ATOM      9  H3  UNL d   1       1.595  -2.089  -0.799  0.00  0.00     0.395 HD
ENDBRANCH   1   7
TORSDOF 1
ENDMDL
