MODEL 1
REMARK minimizedAffinity -1.53421485
REMARK minimizedRMSD -1
REMARK  1 active torsions:
REMARK  status: ('A' for Active; 'I' for Inactive)
REMARK    1  A    between atoms: N_2  and  C1_3 
ROOT
ATOM      1  C1  UNL d   1       0.490  -3.163  -1.077  0.00  0.00     0.143 A 
ATOM      2  C2  UNL d   1       1.798  -3.473  -0.691  0.00  0.00    -0.057 A 
ATOM      3  C3  UNL d   1       2.156  -4.775  -0.321  0.00  0.00     0.033 A 
ATOM      4  C4  UNL d   1       1.202  -5.787  -0.303  0.00  0.00    -0.042 A 
ATOM      5  C5  UNL d   1      -0.110  -5.496  -0.659  0.00  0.00     0.033 A 
ATOM      6  C6  UNL d   1      -0.460  -4.195  -1.033  0.00  0.00    -0.057 A 
ENDROOT
BRANCH   1   7
ATOM      7  N   UNL d   1       0.049  -1.867  -1.360  0.00  0.00    -0.732 N 
ATOM      8  C   UNL d   1       0.443  -0.755  -0.522  0.00  0.00     0.284 C 
ATOM      9  H3  UNL d   1       0.062  -1.662  -2.357  0.00  0.00     0.395 HD
ENDBRANCH   1   7
TORSDOF 1
ENDMDL
