MODEL 1
REMARK minimizedAffinity 2.65398574
REMARK minimizedRMSD -1
REMARK  1 active torsions:
REMARK  status: ('A' for Active; 'I' for Inactive)
REMARK    1  A    between atoms: N_2  and  C1_3 
ROOT
ATOM      1  C1  UNL d   1      -0.331  -1.158  -0.140  0.00  0.00     0.143 A 
ATOM      2  C2  UNL d   1       0.046  -0.633  -1.382  0.00  0.00    -0.057 A 
ATOM      3  C3  UNL d   1       0.218   0.744  -1.566  0.00  0.00     0.033 A 
ATOM      4  C4  UNL d   1      -0.013   1.626  -0.516  0.00  0.00    -0.042 A 
ATOM      5  C5  UNL d   1      -0.412   1.130   0.720  0.00  0.00     0.033 A 
ATOM      6  C6  UNL d   1      -0.576  -0.247   0.899  0.00  0.00    -0.057 A 
ENDROOT
BRANCH   1   7
ATOM      7  N   UNL d   1      -0.613  -2.508   0.080  0.00  0.00    -0.732 N 
ATOM      8  C   UNL d   1      -0.931  -3.385  -1.027  0.00  0.00     0.284 C 
ATOM      9  H3  UNL d   1      -0.001  -2.924   0.777  0.00  0.00     0.395 HD
ENDBRANCH   1   7
TORSDOF 1
ENDMDL
