MODEL 1
REMARK minimizedAffinity -0.161472663
REMARK minimizedRMSD -1
REMARK  1 active torsions:
REMARK  status: ('A' for Active; 'I' for Inactive)
REMARK    1  A    between atoms: N_2  and  C1_3 
ROOT
ATOM      1  C1  UNL d   1       0.206   0.287   0.787  0.00  0.00     0.143 A 
ATOM      2  C2  UNL d   1      -0.485   1.425   1.215  0.00  0.00    -0.057 A 
ATOM      3  C3  UNL d   1      -1.160   2.249   0.307  0.00  0.00     0.033 A 
ATOM      4  C4  UNL d   1      -1.132   1.964  -1.054  0.00  0.00    -0.042 A 
ATOM      5  C5  UNL d   1      -0.430   0.852  -1.505  0.00  0.00     0.033 A 
ATOM      6  C6  UNL d   1       0.236   0.029  -0.593  0.00  0.00    -0.057 A 
ENDROOT
BRANCH   1   7
ATOM      7  N   UNL d   1       0.978  -0.517   1.629  0.00  0.00    -0.732 N 
ATOM      8  C   UNL d   1       2.381  -0.741   1.352  0.00  0.00     0.284 C 
ATOM      9  H3  UNL d   1       0.768  -0.363   2.613  0.00  0.00     0.395 HD
ENDBRANCH   1   7
TORSDOF 1
ENDMDL
