MODEL 1
REMARK minimizedAffinity -4.13839102
REMARK minimizedRMSD -1
REMARK  1 active torsions:
REMARK  status: ('A' for Active; 'I' for Inactive)
REMARK    1  A    between atoms: C3_4  and  O_7 
ROOT
ATOM      1  C   UNL d   1      -1.484  -0.572  -5.538  0.00  0.00    -0.033 A 
ATOM      2  C1  UNL d   1      -1.210  -1.315  -4.388  0.00  0.00     0.039 A 
ATOM      3  C2  UNL d   1      -0.095  -1.009  -3.606  0.00  0.00    -0.080 A 
ATOM      4  C3  UNL d   1       0.737   0.041  -3.984  0.00  0.00     0.150 A 
ATOM      5  C4  UNL d   1       0.469   0.788  -5.126  0.00  0.00    -0.007 A 
ATOM      6  C5  UNL d   1      -0.645   0.480  -5.906  0.00  0.00     0.039 A 
ENDROOT
BRANCH   4   7
ATOM      7  O   UNL d   1       1.840   0.374  -3.255  0.00  0.00    -0.526 OA
ATOM      8  H5  UNL d   1       1.916  -0.246  -2.510  0.00  0.00     0.418 HD
ENDBRANCH   4   7
TORSDOF 1
ENDMDL
