MODEL 1
REMARK minimizedAffinity -4.36336231
REMARK minimizedRMSD -1
REMARK  1 active torsions:
REMARK  status: ('A' for Active; 'I' for Inactive)
REMARK    1  A    between atoms: C3_4  and  O_7 
ROOT
ATOM      1  C   UNL d   1      -1.736  -0.247  -4.640  0.00  0.00    -0.033 A 
ATOM      2  C1  UNL d   1      -1.113  -1.080  -3.709  0.00  0.00     0.039 A 
ATOM      3  C2  UNL d   1       0.103  -0.704  -3.135  0.00  0.00    -0.080 A 
ATOM      4  C3  UNL d   1       0.684   0.507  -3.500  0.00  0.00     0.150 A 
ATOM      5  C4  UNL d   1       0.068   1.344  -4.424  0.00  0.00    -0.007 A 
ATOM      6  C5  UNL d   1      -1.146   0.966  -4.997  0.00  0.00     0.039 A 
ENDROOT
BRANCH   4   7
ATOM      7  O   UNL d   1       1.872   0.915  -2.970  0.00  0.00    -0.526 OA
ATOM      8  H5  UNL d   1       2.195   0.224  -2.369  0.00  0.00     0.418 HD
ENDBRANCH   4   7
TORSDOF 1
ENDMDL
