MODEL 1
REMARK minimizedAffinity -3.52841902
REMARK minimizedRMSD -1
REMARK  1 active torsions:
REMARK  status: ('A' for Active; 'I' for Inactive)
REMARK    1  A    between atoms: C3_4  and  O_7 
ROOT
ATOM      1  C   UNL d   1       1.264   0.733  -4.255  0.00  0.00    -0.033 A 
ATOM      2  C1  UNL d   1       0.343  -0.316  -4.268  0.00  0.00     0.039 A 
ATOM      3  C2  UNL d   1       0.091  -1.041  -3.102  0.00  0.00    -0.080 A 
ATOM      4  C3  UNL d   1       0.765  -0.707  -1.930  0.00  0.00     0.150 A 
ATOM      5  C4  UNL d   1       1.681   0.340  -1.909  0.00  0.00    -0.007 A 
ATOM      6  C5  UNL d   1       1.932   1.062  -3.075  0.00  0.00     0.039 A 
ENDROOT
BRANCH   4   7
ATOM      7  O   UNL d   1       0.555  -1.389  -0.769  0.00  0.00    -0.526 OA
ATOM      8  H5  UNL d   1      -0.082  -2.102  -0.941  0.00  0.00     0.418 HD
ENDBRANCH   4   7
TORSDOF 1
ENDMDL
