MODEL 1
REMARK minimizedAffinity -3.27366042
REMARK minimizedRMSD -1
REMARK  1 active torsions:
REMARK  status: ('A' for Active; 'I' for Inactive)
REMARK    1  A    between atoms: C3_4  and  O_7 
ROOT
ATOM      1  C   UNL d   1       2.210   0.015  -2.638  0.00  0.00    -0.033 A 
ATOM      2  C1  UNL d   1       2.224   0.981  -3.646  0.00  0.00     0.039 A 
ATOM      3  C2  UNL d   1       1.051   1.289  -4.337  0.00  0.00    -0.080 A 
ATOM      4  C3  UNL d   1      -0.128   0.624  -4.011  0.00  0.00     0.150 A 
ATOM      5  C4  UNL d   1      -0.150  -0.337  -3.006  0.00  0.00    -0.007 A 
ATOM      6  C5  UNL d   1       1.023  -0.643  -2.317  0.00  0.00     0.039 A 
ENDROOT
BRANCH   4   7
ATOM      7  O   UNL d   1      -1.297   0.887  -4.661  0.00  0.00    -0.526 OA
ATOM      8  H5  UNL d   1      -1.124   1.551  -5.349  0.00  0.00     0.418 HD
ENDBRANCH   4   7
TORSDOF 1
ENDMDL
