MODEL 1
REMARK minimizedAffinity -2.45769167
REMARK minimizedRMSD -1
REMARK  1 active torsions:
REMARK  status: ('A' for Active; 'I' for Inactive)
REMARK    1  A    between atoms: C3_4  and  O_7 
ROOT
ATOM      1  C   UNL d   1       0.677   1.385  -5.012  0.00  0.00    -0.033 A 
ATOM      2  C1  UNL d   1       1.860   1.253  -4.283  0.00  0.00     0.039 A 
ATOM      3  C2  UNL d   1       1.911   0.401  -3.178  0.00  0.00    -0.080 A 
ATOM      4  C3  UNL d   1       0.773  -0.313  -2.813  0.00  0.00     0.150 A 
ATOM      5  C4  UNL d   1      -0.409  -0.190  -3.537  0.00  0.00    -0.007 A 
ATOM      6  C5  UNL d   1      -0.457   0.662  -4.640  0.00  0.00     0.039 A 
ENDROOT
BRANCH   4   7
ATOM      7  O   UNL d   1       0.772  -1.153  -1.739  0.00  0.00    -0.526 OA
ATOM      8  H5  UNL d   1       1.647  -1.116  -1.319  0.00  0.00     0.418 HD
ENDBRANCH   4   7
TORSDOF 1
ENDMDL
