MODEL 1
REMARK minimizedAffinity -3.98453689
REMARK minimizedRMSD -1
REMARK  1 active torsions:
REMARK  status: ('A' for Active; 'I' for Inactive)
REMARK    1  A    between atoms: C3_4  and  O_7 
ROOT
ATOM      1  C   UNL d   1       0.680   0.252  -0.240  0.00  0.00    -0.033 A 
ATOM      2  C1  UNL d   1      -0.335  -0.461   0.399  0.00  0.00     0.039 A 
ATOM      3  C2  UNL d   1      -0.886   0.019   1.589  0.00  0.00    -0.080 A 
ATOM      4  C3  UNL d   1      -0.415   1.214   2.126  0.00  0.00     0.150 A 
ATOM      5  C4  UNL d   1       0.594   1.932   1.492  0.00  0.00    -0.007 A 
ATOM      6  C5  UNL d   1       1.144   1.450   0.305  0.00  0.00     0.039 A 
ENDROOT
BRANCH   4   7
ATOM      7  O   UNL d   1      -0.919   1.720   3.287  0.00  0.00    -0.526 OA
ATOM      8  H5  UNL d   1      -1.588   1.103   3.627  0.00  0.00     0.418 HD
ENDBRANCH   4   7
TORSDOF 1
ENDMDL
