MODEL 1
REMARK minimizedAffinity -0.764845371
REMARK minimizedRMSD -1
REMARK  1 active torsions:
REMARK  status: ('A' for Active; 'I' for Inactive)
REMARK    1  A    between atoms: C3_4  and  O_7 
ROOT
ATOM      1  C   UNL d   1      -2.027   0.319   1.191  0.00  0.00    -0.033 A 
ATOM      2  C1  UNL d   1      -1.295   0.013   0.042  0.00  0.00     0.039 A 
ATOM      3  C2  UNL d   1       0.062  -0.303   0.141  0.00  0.00    -0.080 A 
ATOM      4  C3  UNL d   1       0.672  -0.310   1.392  0.00  0.00     0.150 A 
ATOM      5  C4  UNL d   1      -0.053  -0.010   2.541  0.00  0.00    -0.007 A 
ATOM      6  C5  UNL d   1      -1.407   0.307   2.440  0.00  0.00     0.039 A 
ENDROOT
BRANCH   4   7
ATOM      7  O   UNL d   1       1.995  -0.608   1.538  0.00  0.00    -0.526 OA
ATOM      8  H5  UNL d   1       2.373  -0.766   0.658  0.00  0.00     0.418 HD
ENDBRANCH   4   7
TORSDOF 1
ENDMDL
