MODEL 1
REMARK minimizedAffinity -4.53923512
REMARK minimizedRMSD -1
REMARK  1 active torsions:
REMARK  status: ('A' for Active; 'I' for Inactive)
REMARK    1  A    between atoms: C3_4  and  O_7 
ROOT
ATOM      1  C   UNL d   1       1.605   0.254  -2.470  0.00  0.00    -0.033 A 
ATOM      2  C1  UNL d   1       1.647   1.130  -3.557  0.00  0.00     0.039 A 
ATOM      3  C2  UNL d   1       0.587   1.171  -4.465  0.00  0.00    -0.080 A 
ATOM      4  C3  UNL d   1      -0.509   0.332  -4.274  0.00  0.00     0.150 A 
ATOM      5  C4  UNL d   1      -0.559  -0.540  -3.191  0.00  0.00    -0.007 A 
ATOM      6  C5  UNL d   1       0.501  -0.579  -2.287  0.00  0.00     0.039 A 
ENDROOT
BRANCH   4   7
ATOM      7  O   UNL d   1      -1.565   0.333  -5.136  0.00  0.00    -0.526 OA
ATOM      8  H5  UNL d   1      -1.379   0.964  -5.851  0.00  0.00     0.418 HD
ENDBRANCH   4   7
TORSDOF 1
ENDMDL
