MODEL 1
REMARK minimizedAffinity -3.26600385
REMARK minimizedRMSD -1
REMARK  1 active torsions:
REMARK  status: ('A' for Active; 'I' for Inactive)
REMARK    1  A    between atoms: C3_4  and  O_7 
ROOT
ATOM      1  C   UNL d   1      -1.025   0.413   0.988  0.00  0.00    -0.033 A 
ATOM      2  C1  UNL d   1      -0.823  -0.475  -0.070  0.00  0.00     0.039 A 
ATOM      3  C2  UNL d   1       0.353  -1.224  -0.140  0.00  0.00    -0.080 A 
ATOM      4  C3  UNL d   1       1.317  -1.077   0.853  0.00  0.00     0.150 A 
ATOM      5  C4  UNL d   1       1.121  -0.197   1.912  0.00  0.00    -0.007 A 
ATOM      6  C5  UNL d   1      -0.054   0.551   1.980  0.00  0.00     0.039 A 
ENDROOT
BRANCH   4   7
ATOM      7  O   UNL d   1       2.483  -1.783   0.824  0.00  0.00    -0.526 OA
ATOM      8  H5  UNL d   1       2.493  -2.329   0.021  0.00  0.00     0.418 HD
ENDBRANCH   4   7
TORSDOF 1
ENDMDL
