MODEL 1
REMARK minimizedAffinity -4.47622347
REMARK minimizedRMSD -1
REMARK  1 active torsions:
REMARK  status: ('A' for Active; 'I' for Inactive)
REMARK    1  A    between atoms: C3_4  and  O_7 
ROOT
ATOM      1  C   UNL d   1       0.400   1.116  -5.606  0.00  0.00    -0.033 A 
ATOM      2  C1  UNL d   1      -0.796   0.509  -5.216  0.00  0.00     0.039 A 
ATOM      3  C2  UNL d   1      -0.897  -0.097  -3.962  0.00  0.00    -0.080 A 
ATOM      4  C3  UNL d   1       0.203  -0.089  -3.109  0.00  0.00     0.150 A 
ATOM      5  C4  UNL d   1       1.396   0.516  -3.489  0.00  0.00    -0.007 A 
ATOM      6  C5  UNL d   1       1.495   1.121  -4.742  0.00  0.00     0.039 A 
ENDROOT
BRANCH   4   7
ATOM      7  O   UNL d   1       0.154  -0.673  -1.878  0.00  0.00    -0.526 OA
ATOM      8  H5  UNL d   1      -0.723  -1.076  -1.763  0.00  0.00     0.418 HD
ENDBRANCH   4   7
TORSDOF 1
ENDMDL
