MODEL 1
REMARK minimizedAffinity 9.29970264
REMARK minimizedRMSD -1
REMARK  1 active torsions:
REMARK  status: ('A' for Active; 'I' for Inactive)
REMARK    1  A    between atoms: C1_2  and  C2_3 
ROOT
ATOM      1  C2  UNL d   1       3.274   2.371   0.956  0.00  0.00    -0.073 A 
ATOM      2  C3  UNL d   1       2.923   3.697   0.675  0.00  0.00    -0.002 A 
ATOM      3  C4  UNL d   1       3.265   4.720   1.560  0.00  0.00     0.004 A 
ATOM      4  C5  UNL d   1       3.967   4.430   2.730  0.00  0.00    -0.004 A 
ATOM      5  C6  UNL d   1       4.338   3.114   3.023  0.00  0.00    -0.075 A 
ATOM      6  C7  UNL d   1       5.091   2.785   4.278  0.00  0.00     0.076 C 
ATOM      7  C8  UNL d   1       3.988   2.091   2.130  0.00  0.00     0.001 A 
ENDROOT
BRANCH   1   8
ATOM      8  C1  UNL d   1       2.912   1.264   0.000  0.00  0.00     0.053 C 
ATOM      9  C   UNL d   1       1.676   0.503   0.452  0.00  0.00     0.018 C 
ENDBRANCH   1   8
TORSDOF 1
ENDMDL
