MODEL 1
REMARK minimizedAffinity 10.7735643
REMARK minimizedRMSD -1
REMARK  1 active torsions:
REMARK  status: ('A' for Active; 'I' for Inactive)
REMARK    1  A    between atoms: C1_2  and  C2_3 
ROOT
ATOM      1  C2  UNL d   1       0.454   0.624   0.568  0.00  0.00    -0.073 A 
ATOM      2  C3  UNL d   1      -0.059   1.183   1.744  0.00  0.00    -0.002 A 
ATOM      3  C4  UNL d   1      -1.430   1.154   1.999  0.00  0.00     0.004 A 
ATOM      4  C5  UNL d   1      -2.302   0.561   1.085  0.00  0.00    -0.004 A 
ATOM      5  C6  UNL d   1      -1.808  -0.013  -0.090  0.00  0.00    -0.075 A 
ATOM      6  C7  UNL d   1      -2.732  -0.652  -1.084  0.00  0.00     0.076 C 
ATOM      7  C8  UNL d   1      -0.429   0.022  -0.340  0.00  0.00     0.001 A 
ENDROOT
BRANCH   1   8
ATOM      8  C1  UNL d   1       1.935   0.647   0.291  0.00  0.00     0.053 C 
ATOM      9  C   UNL d   1       2.594   1.910   0.823  0.00  0.00     0.018 C 
ENDBRANCH   1   8
TORSDOF 1
ENDMDL
