MODEL 1
REMARK minimizedAffinity 1.16107023
REMARK minimizedRMSD -1
REMARK  1 active torsions:
REMARK  status: ('A' for Active; 'I' for Inactive)
REMARK    1  A    between atoms: C1_2  and  C2_3 
ROOT
ATOM      1  C2  UNL d   1      -0.545  -0.329   3.083  0.00  0.00    -0.073 A 
ATOM      2  C3  UNL d   1      -1.796   0.264   3.289  0.00  0.00    -0.002 A 
ATOM      3  C4  UNL d   1      -2.546   0.721   2.205  0.00  0.00     0.004 A 
ATOM      4  C5  UNL d   1      -2.058   0.585   0.906  0.00  0.00    -0.004 A 
ATOM      5  C6  UNL d   1      -0.815  -0.014   0.679  0.00  0.00    -0.075 A 
ATOM      6  C7  UNL d   1      -0.274  -0.166  -0.712  0.00  0.00     0.076 C 
ATOM      7  C8  UNL d   1      -0.066  -0.469   1.773  0.00  0.00     0.001 A 
ENDROOT
BRANCH   1   8
ATOM      8  C1  UNL d   1       0.266  -0.830   4.250  0.00  0.00     0.053 C 
ATOM      9  C   UNL d   1       1.584  -1.445   3.806  0.00  0.00     0.018 C 
ENDBRANCH   1   8
TORSDOF 1
ENDMDL
