MODEL 1
REMARK minimizedAffinity 1.91578221
REMARK minimizedRMSD -1
REMARK  0 active torsions:
REMARK  status: ('A' for Active; 'I' for Inactive)
ROOT
ATOM      1  C   UNL d   1      -3.397   0.988  -2.716  0.00  0.00    -0.002 A 
ATOM      2  C1  UNL d   1      -2.825  -0.011  -3.492  0.00  0.00     0.010 A 
ATOM      3  C2  UNL d   1      -1.952  -0.940  -2.923  0.00  0.00     0.041 A 
ATOM      4  C3  UNL d   1      -1.660  -0.848  -1.547  0.00  0.00    -0.075 A 
ATOM      5  S   UNL d   1      -0.620  -1.876  -0.634  0.00  0.00     0.015 SA
ATOM      6  C4  UNL d   1      -0.910  -1.013   0.807  0.00  0.00     0.022 A 
ATOM      7  C5  UNL d   1      -1.777   0.036   0.614  0.00  0.00     0.026 A 
ATOM      8  C6  UNL d   1      -2.224   0.149  -0.746  0.00  0.00    -0.082 A 
ATOM      9  C7  UNL d   1      -3.105   1.076  -1.352  0.00  0.00     0.045 A 
ENDROOT
TORSDOF 0
ENDMDL
