MODEL 1
REMARK minimizedAffinity -1.5664643
REMARK minimizedRMSD -1
REMARK  0 active torsions:
REMARK  status: ('A' for Active; 'I' for Inactive)
ROOT
ATOM      1  C   UNL d   1      -1.925  -1.074   0.451  0.00  0.00    -0.002 A 
ATOM      2  C1  UNL d   1      -1.039  -2.006   0.974  0.00  0.00     0.010 A 
ATOM      3  C2  UNL d   1       0.304  -1.677   1.169  0.00  0.00     0.041 A 
ATOM      4  C3  UNL d   1       0.745  -0.384   0.828  0.00  0.00    -0.075 A 
ATOM      5  S   UNL d   1       2.345   0.242   0.981  0.00  0.00     0.015 SA
ATOM      6  C4  UNL d   1       1.889   1.762   0.356  0.00  0.00     0.022 A 
ATOM      7  C5  UNL d   1       0.554   1.807   0.034  0.00  0.00     0.026 A 
ATOM      8  C6  UNL d   1      -0.128   0.572   0.301  0.00  0.00    -0.082 A 
ATOM      9  C7  UNL d   1      -1.483   0.208   0.114  0.00  0.00     0.045 A 
ENDROOT
TORSDOF 0
ENDMDL
