MODEL 1
REMARK minimizedAffinity -0.323993057
REMARK minimizedRMSD -1
REMARK  0 active torsions:
REMARK  status: ('A' for Active; 'I' for Inactive)
ROOT
ATOM      1  C   UNL d   1      -1.883   0.656  -3.621  0.00  0.00    -0.002 A 
ATOM      2  C1  UNL d   1      -2.949   0.104  -2.924  0.00  0.00     0.010 A 
ATOM      3  C2  UNL d   1      -2.819  -0.227  -1.574  0.00  0.00     0.041 A 
ATOM      4  C3  UNL d   1      -1.589   0.010  -0.929  0.00  0.00    -0.075 A 
ATOM      5  S   UNL d   1      -1.200  -0.316   0.719  0.00  0.00     0.015 SA
ATOM      6  C4  UNL d   1       0.390   0.271   0.537  0.00  0.00     0.022 A 
ATOM      7  C5  UNL d   1       0.635   0.708  -0.744  0.00  0.00     0.026 A 
ATOM      8  C6  UNL d   1      -0.502   0.565  -1.609  0.00  0.00    -0.082 A 
ATOM      9  C7  UNL d   1      -0.665   0.890  -2.978  0.00  0.00     0.045 A 
ENDROOT
TORSDOF 0
ENDMDL
