MODEL 1
REMARK minimizedAffinity -4.25623417
REMARK minimizedRMSD -1
REMARK  0 active torsions:
REMARK  status: ('A' for Active; 'I' for Inactive)
ROOT
ATOM      1  C   UNL d   1       3.392  -1.103   1.046  0.00  0.00    -0.002 A 
ATOM      2  C1  UNL d   1       2.445  -1.969   1.575  0.00  0.00     0.010 A 
ATOM      3  C2  UNL d   1       1.083  -1.677   1.479  0.00  0.00     0.041 A 
ATOM      4  C3  UNL d   1       0.685  -0.489   0.835  0.00  0.00    -0.075 A 
ATOM      5  S   UNL d   1      -0.927   0.075   0.599  0.00  0.00     0.015 SA
ATOM      6  C4  UNL d   1      -0.397   1.479  -0.210  0.00  0.00     0.022 A 
ATOM      7  C5  UNL d   1       0.973   1.532  -0.306  0.00  0.00     0.026 A 
ATOM      8  C6  UNL d   1       1.619   0.399   0.294  0.00  0.00    -0.082 A 
ATOM      9  C7  UNL d   1       2.993   0.074   0.408  0.00  0.00     0.045 A 
ENDROOT
TORSDOF 0
ENDMDL
