MODEL 1
REMARK minimizedAffinity -1.11740112
REMARK minimizedRMSD -1
REMARK  0 active torsions:
REMARK  status: ('A' for Active; 'I' for Inactive)
ROOT
ATOM      1  C   UNL d   1       1.701   1.684   0.107  0.00  0.00     0.020 A 
ATOM      2  C1  UNL d   1       2.339   0.962   1.114  0.00  0.00     0.020 A 
ATOM      3  C2  UNL d   1       1.756  -0.205   1.613  0.00  0.00     0.034 A 
ATOM      4  C3  UNL d   1       0.531  -0.652   1.105  0.00  0.00     0.017 A 
ATOM      5  C4  UNL d   1      -0.109   0.074   0.093  0.00  0.00     0.017 A 
ATOM      6  C5  UNL d   1       0.480   1.241  -0.403  0.00  0.00     0.034 A 
ATOM      7 Cl   UNL d   1      -1.622  -0.415  -0.584  0.00  0.00    -0.070 Cl
ATOM      8 Cl1  UNL d   1      -0.133  -2.103   1.768  0.00  0.00    -0.070 Cl
ENDROOT
TORSDOF 0
ENDMDL
