MODEL 1
REMARK minimizedAffinity -4.3036952
REMARK minimizedRMSD -1
REMARK  0 active torsions:
REMARK  status: ('A' for Active; 'I' for Inactive)
ROOT
ATOM      1  C   UNL d   1      -3.160  -0.150  -2.237  0.00  0.00     0.020 A 
ATOM      2  C1  UNL d   1      -2.597  -0.080  -3.510  0.00  0.00     0.020 A 
ATOM      3  C2  UNL d   1      -1.242   0.224  -3.658  0.00  0.00     0.034 A 
ATOM      4  C3  UNL d   1      -0.446   0.460  -2.530  0.00  0.00     0.017 A 
ATOM      5  C4  UNL d   1      -1.013   0.390  -1.253  0.00  0.00     0.017 A 
ATOM      6  C5  UNL d   1      -2.370   0.084  -1.111  0.00  0.00     0.034 A 
ATOM      7 Cl   UNL d   1      -0.095   0.668   0.185  0.00  0.00    -0.070 Cl
ATOM      8 Cl1  UNL d   1       1.222   0.831  -2.787  0.00  0.00    -0.070 Cl
ENDROOT
TORSDOF 0
ENDMDL
