MODEL 1
REMARK minimizedAffinity -1.91911614
REMARK minimizedRMSD -1
REMARK  0 active torsions:
REMARK  status: ('A' for Active; 'I' for Inactive)
ROOT
ATOM      1  C   UNL d   1      -0.773   1.479  -0.388  0.00  0.00     0.020 A 
ATOM      2  C1  UNL d   1      -1.458   0.281  -0.588  0.00  0.00     0.020 A 
ATOM      3  C2  UNL d   1      -0.876  -0.929  -0.202  0.00  0.00     0.034 A 
ATOM      4  C3  UNL d   1       0.394  -0.943   0.385  0.00  0.00     0.017 A 
ATOM      5  C4  UNL d   1       1.081   0.260   0.585  0.00  0.00     0.017 A 
ATOM      6  C5  UNL d   1       0.494   1.468   0.197  0.00  0.00     0.034 A 
ATOM      7 Cl   UNL d   1       2.652   0.322   1.303  0.00  0.00    -0.070 Cl
ATOM      8 Cl1  UNL d   1       1.053  -2.475   0.837  0.00  0.00    -0.070 Cl
ENDROOT
TORSDOF 0
ENDMDL
