MODEL 1
REMARK minimizedAffinity -3.6207397
REMARK minimizedRMSD -1
REMARK  0 active torsions:
REMARK  status: ('A' for Active; 'I' for Inactive)
ROOT
ATOM      1  C   UNL d   1      -1.254   0.576  -0.520  0.00  0.00     0.020 A 
ATOM      2  C1  UNL d   1      -0.286   1.566  -0.683  0.00  0.00     0.020 A 
ATOM      3  C2  UNL d   1       0.940   1.458  -0.023  0.00  0.00     0.034 A 
ATOM      4  C3  UNL d   1       1.200   0.358   0.803  0.00  0.00     0.017 A 
ATOM      5  C4  UNL d   1       0.227  -0.635   0.965  0.00  0.00     0.017 A 
ATOM      6  C5  UNL d   1      -0.998  -0.522   0.302  0.00  0.00     0.034 A 
ATOM      7 Cl   UNL d   1       0.475  -2.021   1.967  0.00  0.00    -0.070 Cl
ATOM      8 Cl1  UNL d   1       2.738   0.288   1.588  0.00  0.00    -0.070 Cl
ENDROOT
TORSDOF 0
ENDMDL
