MODEL 1
REMARK minimizedAffinity -1.80411541
REMARK minimizedRMSD -1
REMARK  0 active torsions:
REMARK  status: ('A' for Active; 'I' for Inactive)
ROOT
ATOM      1  C   UNL d   1       1.455   1.737   0.207  0.00  0.00     0.020 A 
ATOM      2  C1  UNL d   1       2.137   0.865   1.055  0.00  0.00     0.020 A 
ATOM      3  C2  UNL d   1       1.550  -0.345   1.430  0.00  0.00     0.034 A 
ATOM      4  C3  UNL d   1       0.278  -0.687   0.958  0.00  0.00     0.017 A 
ATOM      5  C4  UNL d   1      -0.406   0.189   0.107  0.00  0.00     0.017 A 
ATOM      6  C5  UNL d   1       0.186   1.400  -0.266  0.00  0.00     0.034 A 
ATOM      7 Cl   UNL d   1      -1.979  -0.164  -0.516  0.00  0.00    -0.070 Cl
ATOM      8 Cl1  UNL d   1      -0.386  -2.200   1.462  0.00  0.00    -0.070 Cl
ENDROOT
TORSDOF 0
ENDMDL
