MODEL 1
REMARK minimizedAffinity -1.62251568
REMARK minimizedRMSD -1
REMARK  0 active torsions:
REMARK  status: ('A' for Active; 'I' for Inactive)
ROOT
ATOM      1  C   UNL d   1       1.946   1.579  -0.019  0.00  0.00     0.020 A 
ATOM      2  C1  UNL d   1       2.453   0.792   1.014  0.00  0.00     0.020 A 
ATOM      3  C2  UNL d   1       1.740  -0.324   1.456  0.00  0.00     0.034 A 
ATOM      4  C3  UNL d   1       0.516  -0.657   0.864  0.00  0.00     0.017 A 
ATOM      5  C4  UNL d   1       0.008   0.134  -0.173  0.00  0.00     0.017 A 
ATOM      6  C5  UNL d   1       0.727   1.250  -0.612  0.00  0.00     0.034 A 
ATOM      7 Cl   UNL d   1      -1.495  -0.214  -0.953  0.00  0.00    -0.070 Cl
ATOM      8 Cl1  UNL d   1      -0.312  -2.051   1.460  0.00  0.00    -0.070 Cl
ENDROOT
TORSDOF 0
ENDMDL
