MODEL 1
REMARK minimizedAffinity -2.03533483
REMARK minimizedRMSD -1
REMARK  0 active torsions:
REMARK  status: ('A' for Active; 'I' for Inactive)
ROOT
ATOM      1  C   UNL d   1       1.724   1.870   0.054  0.00  0.00     0.020 A 
ATOM      2  C1  UNL d   1       2.579   1.121   0.861  0.00  0.00     0.020 A 
ATOM      3  C2  UNL d   1       2.141  -0.084   1.414  0.00  0.00     0.034 A 
ATOM      4  C3  UNL d   1       0.844  -0.544   1.160  0.00  0.00     0.017 A 
ATOM      5  C4  UNL d   1      -0.014   0.208   0.349  0.00  0.00     0.017 A 
ATOM      6  C5  UNL d   1       0.430   1.414  -0.202  0.00  0.00     0.034 A 
ATOM      7 Cl   UNL d   1      -1.628  -0.296  -0.010  0.00  0.00    -0.070 Cl
ATOM      8 Cl1  UNL d   1       0.369  -2.044   1.875  0.00  0.00    -0.070 Cl
ENDROOT
TORSDOF 0
ENDMDL
