MODEL 1
REMARK minimizedAffinity -3.41899991
REMARK minimizedRMSD -1
REMARK  0 active torsions:
REMARK  status: ('A' for Active; 'I' for Inactive)
ROOT
ATOM      1  C   UNL d   1       1.967   0.256   0.785  0.00  0.00     0.020 A 
ATOM      2  C1  UNL d   1       1.838   1.130  -0.293  0.00  0.00     0.020 A 
ATOM      3  C2  UNL d   1       0.590   1.326  -0.888  0.00  0.00     0.034 A 
ATOM      4  C3  UNL d   1      -0.534   0.647  -0.404  0.00  0.00     0.017 A 
ATOM      5  C4  UNL d   1      -0.404  -0.230   0.679  0.00  0.00     0.017 A 
ATOM      6  C5  UNL d   1       0.849  -0.422   1.270  0.00  0.00     0.034 A 
ATOM      7 Cl   UNL d   1      -1.745  -1.104   1.331  0.00  0.00    -0.070 Cl
ATOM      8 Cl1  UNL d   1      -2.047   0.937  -1.188  0.00  0.00    -0.070 Cl
ENDROOT
TORSDOF 0
ENDMDL
