MODEL 1
REMARK minimizedAffinity -1.34617627
REMARK minimizedRMSD -1
REMARK  0 active torsions:
REMARK  status: ('A' for Active; 'I' for Inactive)
ROOT
ATOM      1  C   UNL d   1      -0.721  -1.454   0.837  0.00  0.00     0.020 A 
ATOM      2  C1  UNL d   1      -1.584  -0.552   0.216  0.00  0.00     0.020 A 
ATOM      3  C2  UNL d   1      -1.153   0.747  -0.063  0.00  0.00     0.034 A 
ATOM      4  C3  UNL d   1       0.144   1.147   0.280  0.00  0.00     0.017 A 
ATOM      5  C4  UNL d   1       1.009   0.240   0.903  0.00  0.00     0.017 A 
ATOM      6  C5  UNL d   1       0.572  -1.059   1.180  0.00  0.00     0.034 A 
ATOM      7 Cl   UNL d   1       2.623   0.660   1.355  0.00  0.00    -0.070 Cl
ATOM      8 Cl1  UNL d   1       0.610   2.768  -0.095  0.00  0.00    -0.070 Cl
ENDROOT
TORSDOF 0
ENDMDL
