MODEL 1
REMARK minimizedAffinity -2.29445767
REMARK minimizedRMSD -1
REMARK  0 active torsions:
REMARK  status: ('A' for Active; 'I' for Inactive)
ROOT
ATOM      1  C   UNL d   1      -1.199   1.119  -0.592  0.00  0.00     0.020 A 
ATOM      2  C1  UNL d   1      -1.932  -0.007  -0.222  0.00  0.00     0.020 A 
ATOM      3  C2  UNL d   1      -1.370  -0.955   0.635  0.00  0.00     0.034 A 
ATOM      4  C3  UNL d   1      -0.071  -0.779   1.126  0.00  0.00     0.017 A 
ATOM      5  C4  UNL d   1       0.664   0.353   0.754  0.00  0.00     0.017 A 
ATOM      6  C5  UNL d   1       0.097   1.299  -0.105  0.00  0.00     0.034 A 
ATOM      7 Cl   UNL d   1       2.273   0.639   1.318  0.00  0.00    -0.070 Cl
ATOM      8 Cl1  UNL d   1       0.561  -1.991   2.182  0.00  0.00    -0.070 Cl
ENDROOT
TORSDOF 0
ENDMDL
