MODEL 1
REMARK minimizedAffinity -2.7454567
REMARK minimizedRMSD -1
REMARK  0 active torsions:
REMARK  status: ('A' for Active; 'I' for Inactive)
ROOT
ATOM      1  C2' OXE d   1       0.381  -0.752  -1.133  0.00  0.00     0.078 C 
ATOM      2  C1' OXE d   1       1.456  -0.722   1.460  0.00  0.00     0.078 C 
ATOM      3  C1  OXE d   1       0.117  -0.062   1.246  0.00  0.00    -0.078 A 
ATOM      4  C2  OXE d   1      -0.380  -0.040  -0.035  0.00  0.00    -0.078 A 
ATOM      5  C3  OXE d   1      -1.636   0.508  -0.278  0.00  0.00     0.003 A 
ATOM      6  C4  OXE d   1      -2.328   1.174   0.741  0.00  0.00    -0.002 A 
ATOM      7  C5  OXE d   1      -1.821   1.198   2.045  0.00  0.00    -0.002 A 
ATOM      8  C6  OXE d   1      -0.623   0.550   2.323  0.00  0.00     0.003 A 
ENDROOT
TORSDOF 0
ENDMDL
