MODEL 1
REMARK minimizedAffinity -3.73464656
REMARK minimizedRMSD -1
REMARK  0 active torsions:
REMARK  status: ('A' for Active; 'I' for Inactive)
ROOT
ATOM      1  C2' OXE d   1       0.213  -0.076  -1.470  0.00  0.00     0.078 C 
ATOM      2  C1' OXE d   1      -2.272   0.928  -0.636  0.00  0.00     0.078 C 
ATOM      3  C1  OXE d   1      -1.258   0.589   0.428  0.00  0.00    -0.078 A 
ATOM      4  C2  OXE d   1      -0.062   0.054   0.013  0.00  0.00    -0.078 A 
ATOM      5  C3  OXE d   1       0.930  -0.225   0.949  0.00  0.00     0.003 A 
ATOM      6  C4  OXE d   1       0.664  -0.111   2.319  0.00  0.00    -0.002 A 
ATOM      7  C5  OXE d   1      -0.562   0.395   2.764  0.00  0.00    -0.002 A 
ATOM      8  C6  OXE d   1      -1.516   0.789   1.833  0.00  0.00     0.003 A 
ENDROOT
TORSDOF 0
ENDMDL
