MODEL 1
REMARK minimizedAffinity -1.15719378
REMARK minimizedRMSD -1
REMARK  0 active torsions:
REMARK  status: ('A' for Active; 'I' for Inactive)
ROOT
ATOM      1  C2' OXE d   1      -2.045   0.061   0.061  0.00  0.00     0.078 C 
ATOM      2  C1' OXE d   1       0.310  -0.509  -1.355  0.00  0.00     0.078 C 
ATOM      3  C1  OXE d   1       0.380  -0.502   0.151  0.00  0.00    -0.078 A 
ATOM      4  C2  OXE d   1      -0.767  -0.176   0.835  0.00  0.00    -0.078 A 
ATOM      5  C3  OXE d   1      -0.772  -0.208   2.227  0.00  0.00     0.003 A 
ATOM      6  C4  OXE d   1       0.417  -0.419   2.936  0.00  0.00    -0.002 A 
ATOM      7  C5  OXE d   1       1.605  -0.713   2.258  0.00  0.00    -0.002 A 
ATOM      8  C6  OXE d   1       1.594  -0.801   0.870  0.00  0.00     0.003 A 
ENDROOT
TORSDOF 0
ENDMDL
