MODEL 1
REMARK minimizedAffinity -2.23650122
REMARK minimizedRMSD -1
REMARK  0 active torsions:
REMARK  status: ('A' for Active; 'I' for Inactive)
ROOT
ATOM      1  C2' OXE d   1       0.558  -0.649  -1.380  0.00  0.00     0.078 C 
ATOM      2  C1' OXE d   1       1.815  -1.041   1.099  0.00  0.00     0.078 C 
ATOM      3  C1  OXE d   1       0.451  -0.397   1.096  0.00  0.00    -0.078 A 
ATOM      4  C2  OXE d   1      -0.136  -0.166  -0.125  0.00  0.00    -0.078 A 
ATOM      5  C3  OXE d   1      -1.417   0.375  -0.182  0.00  0.00     0.003 A 
ATOM      6  C4  OXE d   1      -2.049   0.827   0.983  0.00  0.00    -0.002 A 
ATOM      7  C5  OXE d   1      -1.451   0.639   2.233  0.00  0.00    -0.002 A 
ATOM      8  C6  OXE d   1      -0.223  -0.009   2.311  0.00  0.00     0.003 A 
ENDROOT
TORSDOF 0
ENDMDL
