MODEL 1
REMARK minimizedAffinity -4.11030388
REMARK minimizedRMSD -1
REMARK  0 active torsions:
REMARK  status: ('A' for Active; 'I' for Inactive)
ROOT
ATOM      1  C2' OXE d   1       0.789  -0.674   3.571  0.00  0.00     0.078 C 
ATOM      2  C1' OXE d   1       2.064  -1.445   1.192  0.00  0.00     0.078 C 
ATOM      3  C1  OXE d   1       0.724  -0.761   1.082  0.00  0.00    -0.078 A 
ATOM      4  C2  OXE d   1       0.086  -0.429   2.253  0.00  0.00    -0.078 A 
ATOM      5  C3  OXE d   1      -1.127   0.252   2.208  0.00  0.00     0.003 A 
ATOM      6  C4  OXE d   1      -1.775   0.466   0.986  0.00  0.00    -0.002 A 
ATOM      7  C5  OXE d   1      -1.161   0.100  -0.217  0.00  0.00    -0.002 A 
ATOM      8  C6  OXE d   1       0.105  -0.475  -0.188  0.00  0.00     0.003 A 
ENDROOT
TORSDOF 0
ENDMDL
