MODEL 1
REMARK minimizedAffinity -1.59134877
REMARK minimizedRMSD -1
REMARK  0 active torsions:
REMARK  status: ('A' for Active; 'I' for Inactive)
ROOT
ATOM      1  C2' OXE d   1       1.465  -0.496   2.555  0.00  0.00     0.078 C 
ATOM      2  C1' OXE d   1      -1.126   0.569   2.730  0.00  0.00     0.078 C 
ATOM      3  C1  OXE d   1      -0.620   0.170   1.366  0.00  0.00    -0.078 A 
ATOM      4  C2  OXE d   1       0.666  -0.306   1.284  0.00  0.00    -0.078 A 
ATOM      5  C3  OXE d   1       1.163  -0.740   0.058  0.00  0.00     0.003 A 
ATOM      6  C4  OXE d   1       0.421  -0.552  -1.114  0.00  0.00    -0.002 A 
ATOM      7  C5  OXE d   1      -0.876  -0.031  -1.058  0.00  0.00    -0.002 A 
ATOM      8  C6  OXE d   1      -1.426   0.295   0.177  0.00  0.00     0.003 A 
ENDROOT
TORSDOF 0
ENDMDL
