MODEL 1
REMARK minimizedAffinity -4.81255674
REMARK minimizedRMSD -1
REMARK  0 active torsions:
REMARK  status: ('A' for Active; 'I' for Inactive)
ROOT
ATOM      1  C2' OXE d   1       1.780  -1.295   0.718  0.00  0.00     0.078 C 
ATOM      2  C1' OXE d   1       0.365  -0.243  -1.466  0.00  0.00     0.078 C 
ATOM      3  C1  OXE d   1      -0.085   0.150  -0.081  0.00  0.00    -0.078 A 
ATOM      4  C2  OXE d   1       0.584  -0.406   0.982  0.00  0.00    -0.078 A 
ATOM      5  C3  OXE d   1       0.245  -0.035   2.280  0.00  0.00     0.003 A 
ATOM      6  C4  OXE d   1      -0.868   0.780   2.516  0.00  0.00    -0.002 A 
ATOM      7  C5  OXE d   1      -1.588   1.326   1.448  0.00  0.00    -0.002 A 
ATOM      8  C6  OXE d   1      -1.184   1.056   0.145  0.00  0.00     0.003 A 
ENDROOT
TORSDOF 0
ENDMDL
