MODEL 1
REMARK minimizedAffinity -1.22031438
REMARK minimizedRMSD -1
REMARK  0 active torsions:
REMARK  status: ('A' for Active; 'I' for Inactive)
ROOT
ATOM      1  C2' OXE d   1      -0.192  -1.933  -1.704  0.00  0.00     0.078 C 
ATOM      2  C1' OXE d   1       0.998   0.127  -3.193  0.00  0.00     0.078 C 
ATOM      3  C1  OXE d   1       0.178  -0.896  -3.938  0.00  0.00    -0.078 A 
ATOM      4  C2  OXE d   1      -0.362  -1.927  -3.207  0.00  0.00    -0.078 A 
ATOM      5  C3  OXE d   1      -1.173  -2.868  -3.837  0.00  0.00     0.003 A 
ATOM      6  C4  OXE d   1      -1.317  -2.861  -5.230  0.00  0.00    -0.002 A 
ATOM      7  C5  OXE d   1      -0.742  -1.842  -5.998  0.00  0.00    -0.002 A 
ATOM      8  C6  OXE d   1      -0.029  -0.831  -5.364  0.00  0.00     0.003 A 
ENDROOT
TORSDOF 0
ENDMDL
