MODEL 1
REMARK minimizedAffinity 5.01196957
REMARK minimizedRMSD -1
REMARK  0 active torsions:
REMARK  status: ('A' for Active; 'I' for Inactive)
ROOT
ATOM      1  C2' OXE d   1       2.629  -6.000  -5.206  0.00  0.00     0.078 C 
ATOM      2  C1' OXE d   1       3.275  -3.386  -6.000  0.00  0.00     0.078 C 
ATOM      3  C1  OXE d   1       1.848  -3.667  -5.599  0.00  0.00    -0.078 A 
ATOM      4  C2  OXE d   1       1.531  -4.959  -5.257  0.00  0.00    -0.078 A 
ATOM      5  C3  OXE d   1       0.242  -5.262  -4.826  0.00  0.00     0.003 A 
ATOM      6  C4  OXE d   1      -0.770  -4.296  -4.886  0.00  0.00    -0.002 A 
ATOM      7  C5  OXE d   1      -0.477  -2.983  -5.269  0.00  0.00    -0.002 A 
ATOM      8  C6  OXE d   1       0.833  -2.642  -5.587  0.00  0.00     0.003 A 
ENDROOT
TORSDOF 0
ENDMDL
