MODEL 1
REMARK minimizedAffinity 0.749968886
REMARK minimizedRMSD -1
REMARK  0 active torsions:
REMARK  status: ('A' for Active; 'I' for Inactive)
ROOT
ATOM      1  C2' OXE d   1      -3.743   0.358  -1.120  0.00  0.00     0.078 C 
ATOM      2  C1' OXE d   1      -1.707  -1.539  -0.753  0.00  0.00     0.078 C 
ATOM      3  C1  OXE d   1      -1.843  -0.445   0.277  0.00  0.00    -0.078 A 
ATOM      4  C2  OXE d   1      -2.813   0.506   0.064  0.00  0.00    -0.078 A 
ATOM      5  C3  OXE d   1      -3.017   1.505   1.011  0.00  0.00     0.003 A 
ATOM      6  C4  OXE d   1      -2.146   1.641   2.099  0.00  0.00    -0.002 A 
ATOM      7  C5  OXE d   1      -1.127   0.706   2.312  0.00  0.00    -0.002 A 
ATOM      8  C6  OXE d   1      -0.989  -0.365   1.436  0.00  0.00     0.003 A 
ENDROOT
TORSDOF 0
ENDMDL
