MODEL 1
REMARK minimizedAffinity -1.32339823
REMARK minimizedRMSD -1
REMARK  3 active torsions:
REMARK  status: ('A' for Active; 'I' for Inactive)
REMARK    1  A    between atoms: C3'_2  and  C2'_3 
REMARK    2  A    between atoms: C2'_3  and  C1'_4 
REMARK    3  A    between atoms: C1'_4  and  C1_5 
ROOT
ATOM      1  C1  N4B d   1       0.629   0.779  -1.234  0.00  0.00    -0.075 A 
ATOM      2  C2  N4B d   1       1.424   0.425  -0.121  0.00  0.00     0.002 A 
ATOM      3  C3  N4B d   1       1.412   1.207   1.008  0.00  0.00     0.002 A 
ATOM      4  C4  N4B d   1       0.631   2.352   1.041  0.00  0.00    -0.004 A 
ATOM      5  C5  N4B d   1      -0.153   2.674  -0.028  0.00  0.00     0.002 A 
ATOM      6  C6  N4B d   1      -0.154   1.895  -1.168  0.00  0.00     0.002 A 
ENDROOT
BRANCH   1   7
ATOM      7  C1' N4B d   1       0.675   0.004  -2.522  0.00  0.00     0.057 C 
BRANCH   7   8
ATOM      8  C2' N4B d   1      -0.544   0.363  -3.366  0.00  0.00     0.009 C 
BRANCH   8   9
ATOM      9  C3' N4B d   1      -0.854  -0.706  -4.400  0.00  0.00     0.004 C 
ATOM     10  C4' N4B d   1      -2.189  -1.354  -4.183  0.00  0.00     0.003 C 
ENDBRANCH   8   9
ENDBRANCH   7   8
ENDBRANCH   1   7
TORSDOF 3
ENDMDL
