MODEL 1
REMARK minimizedAffinity 5.89590454
REMARK minimizedRMSD -1
REMARK  3 active torsions:
REMARK  status: ('A' for Active; 'I' for Inactive)
REMARK    1  A    between atoms: C3'_2  and  C2'_3 
REMARK    2  A    between atoms: C2'_3  and  C1'_4 
REMARK    3  A    between atoms: C1'_4  and  C1_5 
ROOT
ATOM      1  C1  N4B d   1      -1.988   4.558  -2.629  0.00  0.00    -0.075 A 
ATOM      2  C2  N4B d   1      -1.164   4.831  -1.515  0.00  0.00     0.002 A 
ATOM      3  C3  N4B d   1      -0.955   3.865  -0.562  0.00  0.00     0.002 A 
ATOM      4  C4  N4B d   1      -1.572   2.630  -0.691  0.00  0.00    -0.004 A 
ATOM      5  C5  N4B d   1      -2.346   2.365  -1.783  0.00  0.00     0.002 A 
ATOM      6  C6  N4B d   1      -2.561   3.325  -2.750  0.00  0.00     0.002 A 
ENDROOT
BRANCH   1   7
ATOM      7  C1' N4B d   1      -2.315   5.611  -3.652  0.00  0.00     0.057 C 
BRANCH   7   8
ATOM      8  C2' N4B d   1      -3.405   5.085  -4.581  0.00  0.00     0.009 C 
BRANCH   8   9
ATOM      9  C3' N4B d   1      -4.638   5.973  -4.570  0.00  0.00     0.004 C 
ATOM     10  C4' N4B d   1      -5.789   5.377  -5.324  0.00  0.00     0.003 C 
ENDBRANCH   8   9
ENDBRANCH   7   8
ENDBRANCH   1   7
TORSDOF 3
ENDMDL
