MODEL 1
REMARK minimizedAffinity 7.86553192
REMARK minimizedRMSD -1
REMARK  3 active torsions:
REMARK  status: ('A' for Active; 'I' for Inactive)
REMARK    1  A    between atoms: C3'_2  and  C2'_3 
REMARK    2  A    between atoms: C2'_3  and  C1'_4 
REMARK    3  A    between atoms: C1'_4  and  C1_5 
ROOT
ATOM      1  C1  N4B d   1      -2.966   3.147  -4.956  0.00  0.00    -0.075 A 
ATOM      2  C2  N4B d   1      -4.206   3.760  -4.673  0.00  0.00     0.002 A 
ATOM      3  C3  N4B d   1      -4.290   5.127  -4.577  0.00  0.00     0.002 A 
ATOM      4  C4  N4B d   1      -3.148   5.898  -4.742  0.00  0.00    -0.004 A 
ATOM      5  C5  N4B d   1      -1.959   5.299  -5.041  0.00  0.00     0.002 A 
ATOM      6  C6  N4B d   1      -1.861   3.926  -5.144  0.00  0.00     0.002 A 
ENDROOT
BRANCH   1   7
ATOM      7  C1' N4B d   1      -2.808   1.651  -4.985  0.00  0.00     0.057 C 
BRANCH   7   8
ATOM      8  C2' N4B d   1      -1.821   1.230  -3.900  0.00  0.00     0.009 C 
BRANCH   8   9
ATOM      9  C3' N4B d   1      -0.486   0.801  -4.481  0.00  0.00     0.004 C 
ATOM     10  C4' N4B d   1       0.436   0.218  -3.451  0.00  0.00     0.003 C 
ENDBRANCH   8   9
ENDBRANCH   7   8
ENDBRANCH   1   7
TORSDOF 3
ENDMDL
