MODEL 1
REMARK minimizedAffinity -0.377090752
REMARK minimizedRMSD -1
REMARK  3 active torsions:
REMARK  status: ('A' for Active; 'I' for Inactive)
REMARK    1  A    between atoms: C3'_2  and  C2'_3 
REMARK    2  A    between atoms: C2'_3  and  C1'_4 
REMARK    3  A    between atoms: C1'_4  and  C1_5 
ROOT
ATOM      1  C1  N4B d   1      -3.588   2.986   0.780  0.00  0.00    -0.075 A 
ATOM      2  C2  N4B d   1      -4.823   2.321   0.622  0.00  0.00     0.002 A 
ATOM      3  C3  N4B d   1      -6.000   3.013   0.772  0.00  0.00     0.002 A 
ATOM      4  C4  N4B d   1      -5.966   4.361   1.097  0.00  0.00    -0.004 A 
ATOM      5  C5  N4B d   1      -4.768   5.002   1.223  0.00  0.00     0.002 A 
ATOM      6  C6  N4B d   1      -3.578   4.319   1.071  0.00  0.00     0.002 A 
ENDROOT
BRANCH   1   7
ATOM      7  C1' N4B d   1      -2.276   2.252   0.710  0.00  0.00     0.057 C 
BRANCH   7   8
ATOM      8  C2' N4B d   1      -1.442   2.826  -0.432  0.00  0.00     0.009 C 
BRANCH   8   9
ATOM      9  C3' N4B d   1       0.040   2.844  -0.099  0.00  0.00     0.004 C 
ATOM     10  C4' N4B d   1       0.649   1.473  -0.085  0.00  0.00     0.003 C 
ENDBRANCH   8   9
ENDBRANCH   7   8
ENDBRANCH   1   7
TORSDOF 3
ENDMDL
