MODEL 1
REMARK minimizedAffinity 6.08137465
REMARK minimizedRMSD -1
REMARK  0 active torsions:
REMARK  status: ('A' for Active; 'I' for Inactive)
ROOT
ATOM      1  C   UNL d   1      -5.995   4.082  -5.258  0.00  0.00     0.077 C 
ATOM      2  C1  UNL d   1      -4.524   3.817  -5.386  0.00  0.00    -0.074 A 
ATOM      3  C2  UNL d   1      -4.017   2.517  -5.292  0.00  0.00    -0.005 A 
ATOM      4  C3  UNL d   1      -2.648   2.285  -5.422  0.00  0.00     0.006 A 
ATOM      5  C4  UNL d   1      -1.773   3.349  -5.648  0.00  0.00    -0.005 A 
ATOM      6  C5  UNL d   1      -2.262   4.655  -5.747  0.00  0.00    -0.074 A 
ATOM      7  C6  UNL d   1      -1.338   5.809  -6.000  0.00  0.00     0.077 C 
ATOM      8  C7  UNL d   1      -3.640   4.880  -5.622  0.00  0.00    -0.001 A 
ENDROOT
TORSDOF 0
ENDMDL
