MODEL 1
REMARK minimizedAffinity 3.82196498
REMARK minimizedRMSD -1
REMARK  0 active torsions:
REMARK  status: ('A' for Active; 'I' for Inactive)
ROOT
ATOM      1  C   UNL d   1      -2.709  -0.791   2.883  0.00  0.00     0.077 C 
ATOM      2  C1  UNL d   1      -1.228  -1.012   2.809  0.00  0.00    -0.074 A 
ATOM      3  C2  UNL d   1      -0.337  -0.121   3.415  0.00  0.00    -0.005 A 
ATOM      4  C3  UNL d   1       1.038  -0.345   3.346  0.00  0.00     0.006 A 
ATOM      5  C4  UNL d   1       1.535  -1.460   2.671  0.00  0.00    -0.005 A 
ATOM      6  C5  UNL d   1       0.660  -2.363   2.060  0.00  0.00    -0.074 A 
ATOM      7  C6  UNL d   1       1.177  -3.572   1.339  0.00  0.00     0.077 C 
ATOM      8  C7  UNL d   1      -0.721  -2.135   2.139  0.00  0.00    -0.001 A 
ENDROOT
TORSDOF 0
ENDMDL
