MODEL 1
REMARK minimizedAffinity 16.0388184
REMARK minimizedRMSD -1
REMARK  0 active torsions:
REMARK  status: ('A' for Active; 'I' for Inactive)
ROOT
ATOM      1  C   UNL d   1       2.629   1.942   0.801  0.00  0.00     0.077 C 
ATOM      2  C1  UNL d   1       1.825   0.748   0.381  0.00  0.00    -0.074 A 
ATOM      3  C2  UNL d   1       1.218   0.698  -0.878  0.00  0.00    -0.005 A 
ATOM      4  C3  UNL d   1       0.481  -0.424  -1.259  0.00  0.00     0.006 A 
ATOM      5  C4  UNL d   1       0.344  -1.504  -0.387  0.00  0.00    -0.005 A 
ATOM      6  C5  UNL d   1       0.944  -1.471   0.876  0.00  0.00    -0.074 A 
ATOM      7  C6  UNL d   1       0.815  -2.628   1.822  0.00  0.00     0.077 C 
ATOM      8  C7  UNL d   1       1.689  -0.344   1.249  0.00  0.00    -0.001 A 
ENDROOT
TORSDOF 0
ENDMDL
