MODEL 1
REMARK minimizedAffinity 12.8159704
REMARK minimizedRMSD -1
REMARK  0 active torsions:
REMARK  status: ('A' for Active; 'I' for Inactive)
ROOT
ATOM      1  C   UNL d   1       3.020   0.988   0.319  0.00  0.00     0.077 C 
ATOM      2  C1  UNL d   1       2.332  -0.303   0.649  0.00  0.00    -0.074 A 
ATOM      3  C2  UNL d   1       1.112  -0.640   0.055  0.00  0.00    -0.005 A 
ATOM      4  C3  UNL d   1       0.488  -1.848   0.365  0.00  0.00     0.006 A 
ATOM      5  C4  UNL d   1       1.078  -2.731   1.270  0.00  0.00    -0.005 A 
ATOM      6  C5  UNL d   1       2.298  -2.412   1.874  0.00  0.00    -0.074 A 
ATOM      7  C6  UNL d   1       2.950  -3.354   2.843  0.00  0.00     0.077 C 
ATOM      8  C7  UNL d   1       2.922  -1.199   1.553  0.00  0.00    -0.001 A 
ENDROOT
TORSDOF 0
ENDMDL
