MODEL 1
REMARK minimizedAffinity 11.727663
REMARK minimizedRMSD -1
REMARK  0 active torsions:
REMARK  status: ('A' for Active; 'I' for Inactive)
ROOT
ATOM      1  C   UNL d   1       2.194  -2.558   2.109  0.00  0.00     0.077 C 
ATOM      2  C1  UNL d   1       1.669  -1.556   1.124  0.00  0.00    -0.074 A 
ATOM      3  C2  UNL d   1       2.404  -0.409   0.805  0.00  0.00    -0.005 A 
ATOM      4  C3  UNL d   1       1.908   0.509  -0.120  0.00  0.00     0.006 A 
ATOM      5  C4  UNL d   1       0.674   0.291  -0.734  0.00  0.00    -0.005 A 
ATOM      6  C5  UNL d   1      -0.075  -0.850  -0.427  0.00  0.00    -0.074 A 
ATOM      7  C6  UNL d   1      -1.399  -1.104  -1.085  0.00  0.00     0.077 C 
ATOM      8  C7  UNL d   1       0.434  -1.771   0.498  0.00  0.00    -0.001 A 
ENDROOT
TORSDOF 0
ENDMDL
