MODEL 1
REMARK minimizedAffinity 11.1342525
REMARK minimizedRMSD -1
REMARK  0 active torsions:
REMARK  status: ('A' for Active; 'I' for Inactive)
ROOT
ATOM      1  C   UNL d   1       2.232  -1.629   2.565  0.00  0.00     0.077 C 
ATOM      2  C1  UNL d   1       1.451  -1.248   1.343  0.00  0.00    -0.074 A 
ATOM      3  C2  UNL d   1       0.332  -1.987   0.945  0.00  0.00    -0.005 A 
ATOM      4  C3  UNL d   1      -0.390  -1.614  -0.189  0.00  0.00     0.006 A 
ATOM      5  C4  UNL d   1      -0.001  -0.501  -0.935  0.00  0.00    -0.005 A 
ATOM      6  C5  UNL d   1       1.114   0.250  -0.552  0.00  0.00    -0.074 A 
ATOM      7  C6  UNL d   1       1.539   1.456  -1.337  0.00  0.00     0.077 C 
ATOM      8  C7  UNL d   1       1.830  -0.126   0.592  0.00  0.00    -0.001 A 
ENDROOT
TORSDOF 0
ENDMDL
