MODEL 1
REMARK minimizedAffinity 11.5271034
REMARK minimizedRMSD -1
REMARK  0 active torsions:
REMARK  status: ('A' for Active; 'I' for Inactive)
ROOT
ATOM      1  C   UNL d   1       2.725   2.193   0.285  0.00  0.00     0.077 C 
ATOM      2  C1  UNL d   1       1.883   0.994  -0.034  0.00  0.00    -0.074 A 
ATOM      3  C2  UNL d   1       1.309   0.835  -1.299  0.00  0.00    -0.005 A 
ATOM      4  C3  UNL d   1       0.536  -0.291  -1.584  0.00  0.00     0.006 A 
ATOM      5  C4  UNL d   1       0.330  -1.267  -0.608  0.00  0.00    -0.005 A 
ATOM      6  C5  UNL d   1       0.897  -1.126   0.662  0.00  0.00    -0.074 A 
ATOM      7  C6  UNL d   1       0.694  -2.170   1.719  0.00  0.00     0.077 C 
ATOM      8  C7  UNL d   1       1.678   0.005   0.938  0.00  0.00    -0.001 A 
ENDROOT
TORSDOF 0
ENDMDL
