MODEL 1
REMARK minimizedAffinity 15.3117552
REMARK minimizedRMSD -1
REMARK  0 active torsions:
REMARK  status: ('A' for Active; 'I' for Inactive)
ROOT
ATOM      1  C   UNL d   1       1.966   1.089  -3.407  0.00  0.00     0.077 C 
ATOM      2  C1  UNL d   1       1.546   0.538  -2.076  0.00  0.00    -0.074 A 
ATOM      3  C2  UNL d   1       2.305   0.779  -0.927  0.00  0.00    -0.005 A 
ATOM      4  C3  UNL d   1       1.897   0.269   0.306  0.00  0.00     0.006 A 
ATOM      5  C4  UNL d   1       0.728  -0.487   0.401  0.00  0.00    -0.005 A 
ATOM      6  C5  UNL d   1      -0.045  -0.737  -0.738  0.00  0.00    -0.074 A 
ATOM      7  C6  UNL d   1      -1.309  -1.539  -0.652  0.00  0.00     0.077 C 
ATOM      8  C7  UNL d   1       0.369  -0.215  -1.971  0.00  0.00    -0.001 A 
ENDROOT
TORSDOF 0
ENDMDL
