MODEL 1
REMARK minimizedAffinity -2.87487078
REMARK minimizedRMSD -1
REMARK  0 active torsions:
REMARK  status: ('A' for Active; 'I' for Inactive)
ROOT
ATOM      1  C   UNL d   1      -3.008  -0.785   0.945  0.00  0.00     0.077 C 
ATOM      2  C1  UNL d   1      -1.548  -0.451   0.867  0.00  0.00    -0.074 A 
ATOM      3  C2  UNL d   1      -0.968  -0.039  -0.337  0.00  0.00    -0.005 A 
ATOM      4  C3  UNL d   1       0.389   0.277  -0.391  0.00  0.00     0.006 A 
ATOM      5  C4  UNL d   1       1.179   0.186   0.756  0.00  0.00    -0.005 A 
ATOM      6  C5  UNL d   1       0.616  -0.223   1.969  0.00  0.00    -0.074 A 
ATOM      7  C6  UNL d   1       1.448  -0.317   3.213  0.00  0.00     0.077 C 
ATOM      8  C7  UNL d   1      -0.750  -0.532   2.017  0.00  0.00    -0.001 A 
ENDROOT
TORSDOF 0
ENDMDL
