MODEL 1
REMARK minimizedAffinity 2.81889939
REMARK minimizedRMSD -1
REMARK  0 active torsions:
REMARK  status: ('A' for Active; 'I' for Inactive)
ROOT
ATOM      1  C   UNL d   1       2.039   0.241   2.576  0.00  0.00     0.077 C 
ATOM      2  C1  UNL d   1       1.465  -0.130   1.240  0.00  0.00    -0.074 A 
ATOM      3  C2  UNL d   1       2.290  -0.564   0.198  0.00  0.00    -0.005 A 
ATOM      4  C3  UNL d   1       1.741  -0.914  -1.035  0.00  0.00     0.006 A 
ATOM      5  C4  UNL d   1       0.363  -0.834  -1.239  0.00  0.00    -0.005 A 
ATOM      6  C5  UNL d   1      -0.479  -0.403  -0.208  0.00  0.00    -0.074 A 
ATOM      7  C6  UNL d   1      -1.963  -0.320  -0.407  0.00  0.00     0.077 C 
ATOM      8  C7  UNL d   1       0.080  -0.059   1.031  0.00  0.00    -0.001 A 
ENDROOT
TORSDOF 0
ENDMDL
