MODEL 1
REMARK minimizedAffinity 4.7736659
REMARK minimizedRMSD -1
REMARK  0 active torsions:
REMARK  status: ('A' for Active; 'I' for Inactive)
ROOT
ATOM      1  C   UNL d   1       1.088   1.926  -5.829  0.00  0.00     0.077 C 
ATOM      2  C1  UNL d   1       0.734   2.718  -4.606  0.00  0.00    -0.074 A 
ATOM      3  C2  UNL d   1       1.529   3.791  -4.189  0.00  0.00    -0.005 A 
ATOM      4  C3  UNL d   1       1.181   4.525  -3.055  0.00  0.00     0.006 A 
ATOM      5  C4  UNL d   1       0.038   4.194  -2.327  0.00  0.00    -0.005 A 
ATOM      6  C5  UNL d   1      -0.770   3.125  -2.729  0.00  0.00    -0.074 A 
ATOM      7  C6  UNL d   1      -2.007   2.763  -1.963  0.00  0.00     0.077 C 
ATOM      8  C7  UNL d   1      -0.418   2.397  -3.873  0.00  0.00    -0.001 A 
ENDROOT
TORSDOF 0
ENDMDL
