MODEL 1
REMARK minimizedAffinity -0.0886258632
REMARK minimizedRMSD -1
REMARK  0 active torsions:
REMARK  status: ('A' for Active; 'I' for Inactive)
ROOT
ATOM      1  C   UNL d   1      -2.429  -0.499   0.120  0.00  0.00     0.077 C 
ATOM      2  C1  UNL d   1      -0.937  -0.601   0.006  0.00  0.00    -0.074 A 
ATOM      3  C2  UNL d   1      -0.326  -0.838  -1.230  0.00  0.00    -0.005 A 
ATOM      4  C3  UNL d   1       1.063  -0.921  -1.323  0.00  0.00     0.006 A 
ATOM      5  C4  UNL d   1       1.854  -0.767  -0.183  0.00  0.00    -0.005 A 
ATOM      6  C5  UNL d   1       1.261  -0.529   1.060  0.00  0.00    -0.074 A 
ATOM      7  C6  UNL d   1       2.096  -0.352   2.293  0.00  0.00     0.077 C 
ATOM      8  C7  UNL d   1      -0.136  -0.440   1.144  0.00  0.00    -0.001 A 
ENDROOT
TORSDOF 0
ENDMDL
