MODEL 1
REMARK minimizedAffinity -1.30138147
REMARK minimizedRMSD -1
REMARK  0 active torsions:
REMARK  status: ('A' for Active; 'I' for Inactive)
ROOT
ATOM      1  C   UNL d   1       1.733   0.243   2.047  0.00  0.00     0.077 C 
ATOM      2  C1  UNL d   1       1.228  -0.214   0.711  0.00  0.00    -0.074 A 
ATOM      3  C2  UNL d   1       2.004  -1.042  -0.106  0.00  0.00    -0.005 A 
ATOM      4  C3  UNL d   1       1.516  -1.467  -1.342  0.00  0.00     0.006 A 
ATOM      5  C4  UNL d   1       0.251  -1.068  -1.773  0.00  0.00    -0.005 A 
ATOM      6  C5  UNL d   1      -0.540  -0.240  -0.970  0.00  0.00    -0.074 A 
ATOM      7  C6  UNL d   1      -1.907   0.190  -1.413  0.00  0.00     0.077 C 
ATOM      8  C7  UNL d   1      -0.046   0.176   0.274  0.00  0.00    -0.001 A 
ENDROOT
TORSDOF 0
ENDMDL
