MODEL 1
REMARK minimizedAffinity -2.36960125
REMARK minimizedRMSD -1
REMARK  0 active torsions:
REMARK  status: ('A' for Active; 'I' for Inactive)
ROOT
ATOM      1  N1  IND d   1       1.133  -0.771   1.221  0.00  0.00    -0.196 N 
ATOM      2  C2  IND d   1       1.340  -1.239  -0.047  0.00  0.00     0.054 A 
ATOM      3  C3  IND d   1       0.321  -0.871  -0.856  0.00  0.00    -0.031 A 
ATOM      4  C4  IND d   1      -1.738   0.583  -0.335  0.00  0.00     0.051 A 
ATOM      5  C5  IND d   1      -2.381   1.211   0.696  0.00  0.00    -0.031 A 
ATOM      6  C6  IND d   1      -1.873   1.212   1.979  0.00  0.00     0.015 A 
ATOM      7  C7  IND d   1      -0.693   0.593   2.279  0.00  0.00    -0.016 A 
ATOM      8  C8  IND d   1      -0.041  -0.052   1.237  0.00  0.00    -0.047 A 
ATOM      9  C9  IND d   1      -0.573  -0.093  -0.059  0.00  0.00    -0.096 A 
ATOM     10  HN1 IND d   1       1.650  -0.904   1.895  0.00  0.00     0.298 HD
ENDROOT
TORSDOF 0
ENDMDL
