MODEL 1
REMARK minimizedAffinity -3.67249441
REMARK minimizedRMSD -1
REMARK  0 active torsions:
REMARK  status: ('A' for Active; 'I' for Inactive)
ROOT
ATOM      1  N1  IND d   1       1.033  -1.427   0.047  0.00  0.00    -0.196 N 
ATOM      2  C2  IND d   1       0.726  -1.118  -1.248  0.00  0.00     0.054 A 
ATOM      3  C3  IND d   1      -0.221  -0.154  -1.290  0.00  0.00    -0.031 A 
ATOM      4  C4  IND d   1      -1.334   1.130   0.644  0.00  0.00     0.051 A 
ATOM      5  C5  IND d   1      -1.404   1.174   2.009  0.00  0.00    -0.031 A 
ATOM      6  C6  IND d   1      -0.648   0.338   2.805  0.00  0.00     0.015 A 
ATOM      7  C7  IND d   1       0.218  -0.570   2.264  0.00  0.00    -0.016 A 
ATOM      8  C8  IND d   1       0.287  -0.622   0.879  0.00  0.00    -0.047 A 
ATOM      9  C9  IND d   1      -0.509   0.195   0.066  0.00  0.00    -0.096 A 
ATOM     10  HN1 IND d   1       1.598  -2.025   0.300  0.00  0.00     0.298 HD
ENDROOT
TORSDOF 0
ENDMDL
