MODEL 1
REMARK minimizedAffinity -4.26029158
REMARK minimizedRMSD -1
REMARK  0 active torsions:
REMARK  status: ('A' for Active; 'I' for Inactive)
ROOT
ATOM      1  N1  IND d   1      -0.870   1.886  -0.906  0.00  0.00    -0.196 N 
ATOM      2  C2  IND d   1      -1.443   1.165   0.105  0.00  0.00     0.054 A 
ATOM      3  C3  IND d   1      -1.104  -0.140   0.002  0.00  0.00    -0.031 A 
ATOM      4  C4  IND d   1       0.461  -1.295  -1.684  0.00  0.00     0.051 A 
ATOM      5  C5  IND d   1       1.191  -1.057  -2.815  0.00  0.00    -0.031 A 
ATOM      6  C6  IND d   1       1.274   0.201  -3.377  0.00  0.00     0.015 A 
ATOM      7  C7  IND d   1       0.638   1.274  -2.820  0.00  0.00    -0.016 A 
ATOM      8  C8  IND d   1      -0.109   1.034  -1.676  0.00  0.00    -0.047 A 
ATOM      9  C9  IND d   1      -0.233  -0.248  -1.125  0.00  0.00    -0.096 A 
ATOM     10  HN1 IND d   1      -0.969   2.730  -1.038  0.00  0.00     0.298 HD
ENDROOT
TORSDOF 0
ENDMDL
