MODEL 1
REMARK minimizedAffinity 1.56472147
REMARK minimizedRMSD -1
REMARK  0 active torsions:
REMARK  status: ('A' for Active; 'I' for Inactive)
ROOT
ATOM      1  N1  IND d   1       1.087  -0.765  -0.401  0.00  0.00    -0.196 N 
ATOM      2  C2  IND d   1       0.361  -0.506  -1.530  0.00  0.00     0.054 A 
ATOM      3  C3  IND d   1      -0.818   0.072  -1.208  0.00  0.00    -0.031 A 
ATOM      4  C4  IND d   1      -1.717   0.780   1.098  0.00  0.00     0.051 A 
ATOM      5  C5  IND d   1      -1.428   0.719   2.432  0.00  0.00    -0.031 A 
ATOM      6  C6  IND d   1      -0.260   0.150   2.900  0.00  0.00     0.015 A 
ATOM      7  C7  IND d   1       0.671  -0.370   2.045  0.00  0.00    -0.016 A 
ATOM      8  C8  IND d   1       0.377  -0.315   0.690  0.00  0.00    -0.047 A 
ATOM      9  C9  IND d   1      -0.825   0.222   0.213  0.00  0.00    -0.096 A 
ATOM     10  HN1 IND d   1       1.859  -1.144  -0.377  0.00  0.00     0.298 HD
ENDROOT
TORSDOF 0
ENDMDL
