MODEL 1
REMARK minimizedAffinity 5.54484844
REMARK minimizedRMSD -1
REMARK  0 active torsions:
REMARK  status: ('A' for Active; 'I' for Inactive)
ROOT
ATOM      1  N1  IND d   1      -0.367  -1.546  -0.932  0.00  0.00    -0.196 N 
ATOM      2  C2  IND d   1       0.602  -0.823  -0.293  0.00  0.00     0.054 A 
ATOM      3  C3  IND d   1       0.063   0.263   0.304  0.00  0.00    -0.031 A 
ATOM      4  C4  IND d   1      -2.401   0.995   0.448  0.00  0.00     0.051 A 
ATOM      5  C5  IND d   1      -3.648   0.676  -0.011  0.00  0.00    -0.031 A 
ATOM      6  C6  IND d   1      -3.870  -0.425  -0.813  0.00  0.00     0.015 A 
ATOM      7  C7  IND d   1      -2.850  -1.256  -1.180  0.00  0.00    -0.016 A 
ATOM      8  C8  IND d   1      -1.581  -0.931  -0.722  0.00  0.00    -0.047 A 
ATOM      9  C9  IND d   1      -1.343   0.208   0.057  0.00  0.00    -0.096 A 
ATOM     10  HN1 IND d   1      -0.239  -2.263  -1.387  0.00  0.00     0.298 HD
ENDROOT
TORSDOF 0
ENDMDL
