MODEL 1
REMARK minimizedAffinity -1.52033305
REMARK minimizedRMSD -1
REMARK  0 active torsions:
REMARK  status: ('A' for Active; 'I' for Inactive)
ROOT
ATOM      1  N1  IND d   1      -1.766   0.653   0.391  0.00  0.00    -0.196 N 
ATOM      2  C2  IND d   1      -1.910   0.961   1.714  0.00  0.00     0.054 A 
ATOM      3  C3  IND d   1      -0.869   0.475   2.427  0.00  0.00    -0.031 A 
ATOM      4  C4  IND d   1       1.232  -0.768   1.612  0.00  0.00     0.051 A 
ATOM      5  C5  IND d   1       1.796  -1.312   0.492  0.00  0.00    -0.031 A 
ATOM      6  C6  IND d   1       1.190  -1.225  -0.745  0.00  0.00     0.015 A 
ATOM      7  C7  IND d   1      -0.002  -0.577  -0.910  0.00  0.00    -0.016 A 
ATOM      8  C8  IND d   1      -0.580  -0.030   0.227  0.00  0.00    -0.047 A 
ATOM      9  C9  IND d   1       0.009  -0.152   1.492  0.00  0.00    -0.096 A 
ATOM     10  HN1 IND d   1      -2.321   0.851  -0.235  0.00  0.00     0.298 HD
ENDROOT
TORSDOF 0
ENDMDL
