MODEL 1
REMARK minimizedAffinity -3.42515087
REMARK minimizedRMSD -1
REMARK  0 active torsions:
REMARK  status: ('A' for Active; 'I' for Inactive)
ROOT
ATOM      1  N1  IND d   1       1.322  -0.917   2.314  0.00  0.00    -0.196 N 
ATOM      2  C2  IND d   1       2.087  -1.499   1.342  0.00  0.00     0.054 A 
ATOM      3  C3  IND d   1       1.467  -1.419   0.144  0.00  0.00    -0.031 A 
ATOM      4  C4  IND d   1      -0.761  -0.286  -0.472  0.00  0.00     0.051 A 
ATOM      5  C5  IND d   1      -1.837   0.347   0.084  0.00  0.00    -0.031 A 
ATOM      6  C6  IND d   1      -1.916   0.599   1.438  0.00  0.00     0.015 A 
ATOM      7  C7  IND d   1      -0.911   0.236   2.290  0.00  0.00    -0.016 A 
ATOM      8  C8  IND d   1       0.180  -0.414   1.730  0.00  0.00    -0.047 A 
ATOM      9  C9  IND d   1       0.246  -0.710   0.362  0.00  0.00    -0.096 A 
ATOM     10  HN1 IND d   1       1.520  -0.872   3.149  0.00  0.00     0.298 HD
ENDROOT
TORSDOF 0
ENDMDL
