MODEL 1
REMARK minimizedAffinity -3.05616426
REMARK minimizedRMSD -1
REMARK  0 active torsions:
REMARK  status: ('A' for Active; 'I' for Inactive)
ROOT
ATOM      1  N1  IND d   1      -0.399  -0.640  -0.458  0.00  0.00    -0.196 N 
ATOM      2  C2  IND d   1      -1.728  -0.410  -0.684  0.00  0.00     0.054 A 
ATOM      3  C3  IND d   1      -2.229   0.419   0.259  0.00  0.00    -0.031 A 
ATOM      4  C4  IND d   1      -1.026   1.597   2.206  0.00  0.00     0.051 A 
ATOM      5  C5  IND d   1       0.182   1.669   2.840  0.00  0.00    -0.031 A 
ATOM      6  C6  IND d   1       1.282   0.963   2.397  0.00  0.00     0.015 A 
ATOM      7  C7  IND d   1       1.216   0.164   1.291  0.00  0.00    -0.016 A 
ATOM      8  C8  IND d   1      -0.011   0.083   0.649  0.00  0.00    -0.047 A 
ATOM      9  C9  IND d   1      -1.141   0.764   1.119  0.00  0.00    -0.096 A 
ATOM     10  HN1 IND d   1       0.109  -1.151  -0.928  0.00  0.00     0.298 HD
ENDROOT
TORSDOF 0
ENDMDL
