MODEL 1
REMARK minimizedAffinity -4.80514097
REMARK minimizedRMSD -1
REMARK  0 active torsions:
REMARK  status: ('A' for Active; 'I' for Inactive)
ROOT
ATOM      1  N1  IND d   1      -1.777   0.680   0.669  0.00  0.00    -0.196 N 
ATOM      2  C2  IND d   1      -1.705   1.189   1.935  0.00  0.00     0.054 A 
ATOM      3  C3  IND d   1      -0.583   0.756   2.554  0.00  0.00    -0.031 A 
ATOM      4  C4  IND d   1       1.325  -0.712   1.641  0.00  0.00     0.051 A 
ATOM      5  C5  IND d   1       1.690  -1.447   0.549  0.00  0.00    -0.031 A 
ATOM      6  C6  IND d   1       0.904  -1.510  -0.584  0.00  0.00     0.015 A 
ATOM      7  C7  IND d   1      -0.277  -0.828  -0.670  0.00  0.00    -0.016 A 
ATOM      8  C8  IND d   1      -0.654  -0.086   0.440  0.00  0.00    -0.047 A 
ATOM      9  C9  IND d   1       0.119  -0.052   1.608  0.00  0.00    -0.096 A 
ATOM     10  HN1 IND d   1      -2.415   0.815   0.109  0.00  0.00     0.298 HD
ENDROOT
TORSDOF 0
ENDMDL
