MODEL 1
REMARK minimizedAffinity -2.5718174
REMARK minimizedRMSD -1
REMARK  0 active torsions:
REMARK  status: ('A' for Active; 'I' for Inactive)
ROOT
ATOM      1  N1  IND d   1      -0.428  -1.371  -5.999  0.00  0.00    -0.196 N 
ATOM      2  C2  IND d   1      -1.175  -2.515  -5.970  0.00  0.00     0.054 A 
ATOM      3  C3  IND d   1      -1.287  -2.972  -4.703  0.00  0.00    -0.031 A 
ATOM      4  C4  IND d   1      -0.409  -1.947  -2.511  0.00  0.00     0.051 A 
ATOM      5  C5  IND d   1       0.362  -0.924  -2.033  0.00  0.00    -0.031 A 
ATOM      6  C6  IND d   1       0.917   0.023  -2.869  0.00  0.00     0.015 A 
ATOM      7  C7  IND d   1       0.713  -0.012  -4.220  0.00  0.00    -0.016 A 
ATOM      8  C8  IND d   1      -0.063  -1.053  -4.709  0.00  0.00    -0.047 A 
ATOM      9  C9  IND d   1      -0.594  -2.041  -3.870  0.00  0.00    -0.096 A 
ATOM     10  HN1 IND d   1      -0.220  -0.925  -6.704  0.00  0.00     0.298 HD
ENDROOT
TORSDOF 0
ENDMDL
