MODEL 1
REMARK minimizedAffinity 5.90172958
REMARK minimizedRMSD -1
REMARK  0 active torsions:
REMARK  status: ('A' for Active; 'I' for Inactive)
ROOT
ATOM      1  N1  IND d   1       2.256  -5.643  -5.619  0.00  0.00    -0.196 N 
ATOM      2  C2  IND d   1       3.288  -4.829  -5.995  0.00  0.00     0.054 A 
ATOM      3  C3  IND d   1       2.890  -3.537  -5.999  0.00  0.00    -0.031 A 
ATOM      4  C4  IND d   1       0.622  -2.522  -5.326  0.00  0.00     0.051 A 
ATOM      5  C5  IND d   1      -0.645  -2.870  -4.948  0.00  0.00    -0.031 A 
ATOM      6  C6  IND d   1      -1.016  -4.187  -4.768  0.00  0.00     0.015 A 
ATOM      7  C7  IND d   1      -0.127  -5.209  -4.950  0.00  0.00    -0.016 A 
ATOM      8  C8  IND d   1       1.158  -4.859  -5.340  0.00  0.00    -0.047 A 
ATOM      9  C9  IND d   1       1.529  -3.527  -5.565  0.00  0.00    -0.096 A 
ATOM     10  HN1 IND d   1       2.287  -6.501  -5.566  0.00  0.00     0.298 HD
ENDROOT
TORSDOF 0
ENDMDL
