MODEL 1
REMARK minimizedAffinity 0.825607598
REMARK minimizedRMSD -1
REMARK  0 active torsions:
REMARK  status: ('A' for Active; 'I' for Inactive)
ROOT
ATOM      1  N1  IND d   1      -3.768   1.490  -0.105  0.00  0.00    -0.196 N 
ATOM      2  C2  IND d   1      -3.937   0.598  -1.126  0.00  0.00     0.054 A 
ATOM      3  C3  IND d   1      -3.051  -0.417  -1.015  0.00  0.00    -0.031 A 
ATOM      4  C4  IND d   1      -1.301  -0.868   0.818  0.00  0.00     0.051 A 
ATOM      5  C5  IND d   1      -0.749  -0.315   1.939  0.00  0.00    -0.031 A 
ATOM      6  C6  IND d   1      -1.185   0.891   2.448  0.00  0.00     0.015 A 
ATOM      7  C7  IND d   1      -2.203   1.587   1.859  0.00  0.00    -0.016 A 
ATOM      8  C8  IND d   1      -2.761   1.032   0.716  0.00  0.00    -0.047 A 
ATOM      9  C9  IND d   1      -2.294  -0.171   0.171  0.00  0.00    -0.096 A 
ATOM     10  HN1 IND d   1      -4.215   2.216   0.007  0.00  0.00     0.298 HD
ENDROOT
TORSDOF 0
ENDMDL
