MODEL 1
REMARK minimizedAffinity 0.708254516
REMARK minimizedRMSD -1
REMARK  0 active torsions:
REMARK  status: ('A' for Active; 'I' for Inactive)
ROOT
ATOM      1  C   UNL d   1       1.261  -0.948  -1.155  0.00  0.00    -0.002 A 
ATOM      2  C1  UNL d   1      -0.112  -0.842  -0.983  0.00  0.00     0.010 A 
ATOM      3  C2  UNL d   1      -0.824  -1.844  -0.321  0.00  0.00     0.041 A 
ATOM      4  C3  UNL d   1      -0.127  -2.964   0.173  0.00  0.00    -0.075 A 
ATOM      5  S   UNL d   1      -0.790  -4.313   1.017  0.00  0.00     0.015 SA
ATOM      6  C4  UNL d   1       0.734  -5.061   1.170  0.00  0.00     0.022 A 
ATOM      7  C5  UNL d   1       1.735  -4.314   0.596  0.00  0.00     0.026 A 
ATOM      8  C6  UNL d   1       1.256  -3.093   0.013  0.00  0.00    -0.082 A 
ATOM      9  C7  UNL d   1       1.949  -2.061  -0.664  0.00  0.00     0.045 A 
ENDROOT
TORSDOF 0
ENDMDL
