MODEL 1
REMARK minimizedAffinity 5.19486427
REMARK minimizedRMSD -1
REMARK  0 active torsions:
REMARK  status: ('A' for Active; 'I' for Inactive)
ROOT
ATOM      1  C   UNL d   1       1.262  -1.902  -0.455  0.00  0.00    -0.002 A 
ATOM      2  C1  UNL d   1       1.446  -0.542  -0.249  0.00  0.00     0.010 A 
ATOM      3  C2  UNL d   1       1.110   0.379  -1.243  0.00  0.00     0.041 A 
ATOM      4  C3  UNL d   1       0.580  -0.095  -2.460  0.00  0.00    -0.075 A 
ATOM      5  S   UNL d   1       0.097   0.848  -3.820  0.00  0.00     0.015 SA
ATOM      6  C4  UNL d   1      -0.366  -0.532  -4.706  0.00  0.00     0.022 A 
ATOM      7  C5  UNL d   1      -0.163  -1.692  -3.997  0.00  0.00     0.026 A 
ATOM      8  C6  UNL d   1       0.385  -1.459  -2.691  0.00  0.00    -0.082 A 
ATOM      9  C7  UNL d   1       0.736  -2.368  -1.663  0.00  0.00     0.045 A 
ENDROOT
TORSDOF 0
ENDMDL
