MODEL 1
REMARK minimizedAffinity 0.227953374
REMARK minimizedRMSD -1
REMARK  0 active torsions:
REMARK  status: ('A' for Active; 'I' for Inactive)
ROOT
ATOM      1  C   UNL d   1       0.190  -0.721  -1.085  0.00  0.00    -0.002 A 
ATOM      2  C1  UNL d   1       1.509  -1.037  -1.378  0.00  0.00     0.010 A 
ATOM      3  C2  UNL d   1       2.083  -2.214  -0.891  0.00  0.00     0.041 A 
ATOM      4  C3  UNL d   1       1.300  -3.076  -0.098  0.00  0.00    -0.075 A 
ATOM      5  S   UNL d   1       1.790  -4.571   0.606  0.00  0.00     0.015 SA
ATOM      6  C4  UNL d   1       0.259  -4.826   1.312  0.00  0.00     0.022 A 
ATOM      7  C5  UNL d   1      -0.616  -3.805   1.027  0.00  0.00     0.026 A 
ATOM      8  C6  UNL d   1      -0.031  -2.780   0.209  0.00  0.00    -0.082 A 
ATOM      9  C7  UNL d   1      -0.583  -1.579  -0.299  0.00  0.00     0.045 A 
ENDROOT
TORSDOF 0
ENDMDL
