MODEL 1
REMARK minimizedAffinity 14.7612963
REMARK minimizedRMSD -1
REMARK  0 active torsions:
REMARK  status: ('A' for Active; 'I' for Inactive)
ROOT
ATOM      1  C   UNL d   1      -1.909  -0.393   4.822  0.00  0.00    -0.002 A 
ATOM      2  C1  UNL d   1      -2.442   0.887   4.874  0.00  0.00     0.010 A 
ATOM      3  C2  UNL d   1      -3.705   1.154   4.344  0.00  0.00     0.041 A 
ATOM      4  C3  UNL d   1      -4.433   0.101   3.755  0.00  0.00    -0.075 A 
ATOM      5  S   UNL d   1      -6.000   0.191   3.042  0.00  0.00     0.015 SA
ATOM      6  C4  UNL d   1      -6.000  -1.468   2.651  0.00  0.00     0.022 A 
ATOM      7  C5  UNL d   1      -4.840  -2.091   3.048  0.00  0.00     0.026 A 
ATOM      8  C6  UNL d   1      -3.918  -1.197   3.691  0.00  0.00    -0.082 A 
ATOM      9  C7  UNL d   1      -2.634  -1.435   4.237  0.00  0.00     0.045 A 
ENDROOT
TORSDOF 0
ENDMDL
