MODEL 1
REMARK minimizedAffinity 9.23226643
REMARK minimizedRMSD -1
REMARK  0 active torsions:
REMARK  status: ('A' for Active; 'I' for Inactive)
ROOT
ATOM      1  C   UNL d   1       0.260   0.014  -1.676  0.00  0.00    -0.002 A 
ATOM      2  C1  UNL d   1      -0.941  -0.605  -1.360  0.00  0.00     0.010 A 
ATOM      3  C2  UNL d   1      -0.953  -1.836  -0.700  0.00  0.00     0.041 A 
ATOM      4  C3  UNL d   1       0.274  -2.438  -0.358  0.00  0.00    -0.075 A 
ATOM      5  S   UNL d   1       0.503  -3.942   0.453  0.00  0.00     0.015 SA
ATOM      6  C4  UNL d   1       2.201  -3.797   0.399  0.00  0.00     0.022 A 
ATOM      7  C5  UNL d   1       2.600  -2.636  -0.219  0.00  0.00     0.026 A 
ATOM      8  C6  UNL d   1       1.496  -1.833  -0.666  0.00  0.00    -0.082 A 
ATOM      9  C7  UNL d   1       1.475  -0.586  -1.336  0.00  0.00     0.045 A 
ENDROOT
TORSDOF 0
ENDMDL
