MODEL 1
REMARK minimizedAffinity 0.317450017
REMARK minimizedRMSD -1
REMARK  0 active torsions:
REMARK  status: ('A' for Active; 'I' for Inactive)
ROOT
ATOM      1  C   UNL d   1       1.233  -0.652  -0.861  0.00  0.00    -0.002 A 
ATOM      2  C1  UNL d   1      -0.154  -0.632  -0.918  0.00  0.00     0.010 A 
ATOM      3  C2  UNL d   1      -0.898  -1.719  -0.454  0.00  0.00     0.041 A 
ATOM      4  C3  UNL d   1      -0.220  -2.835   0.074  0.00  0.00    -0.075 A 
ATOM      5  S   UNL d   1      -0.924  -4.278   0.701  0.00  0.00     0.015 SA
ATOM      6  C4  UNL d   1       0.599  -4.954   1.059  0.00  0.00     0.022 A 
ATOM      7  C5  UNL d   1       1.631  -4.113   0.715  0.00  0.00     0.026 A 
ATOM      8  C6  UNL d   1       1.176  -2.877   0.142  0.00  0.00    -0.082 A 
ATOM      9  C7  UNL d   1       1.902  -1.760  -0.337  0.00  0.00     0.045 A 
ENDROOT
TORSDOF 0
ENDMDL
