MODEL 1
REMARK minimizedAffinity 1.19054222
REMARK minimizedRMSD -1
REMARK  0 active torsions:
REMARK  status: ('A' for Active; 'I' for Inactive)
ROOT
ATOM      1  C   UNL d   1      -5.995  -0.411   2.170  0.00  0.00    -0.002 A 
ATOM      2  C1  UNL d   1      -5.998  -1.652   2.791  0.00  0.00     0.010 A 
ATOM      3  C2  UNL d   1      -5.038  -1.966   3.756  0.00  0.00     0.041 A 
ATOM      4  C3  UNL d   1      -4.068  -1.001   4.091  0.00  0.00    -0.075 A 
ATOM      5  S   UNL d   1      -2.796  -1.163   5.244  0.00  0.00     0.015 SA
ATOM      6  C4  UNL d   1      -2.220   0.412   4.940  0.00  0.00     0.022 A 
ATOM      7  C5  UNL d   1      -2.967   1.059   3.985  0.00  0.00     0.026 A 
ATOM      8  C6  UNL d   1      -4.045   0.256   3.480  0.00  0.00    -0.082 A 
ATOM      9  C7  UNL d   1      -5.030   0.543   2.505  0.00  0.00     0.045 A 
ENDROOT
TORSDOF 0
ENDMDL
