MODEL 1
REMARK minimizedAffinity 8.84337997
REMARK minimizedRMSD -1
REMARK  0 active torsions:
REMARK  status: ('A' for Active; 'I' for Inactive)
ROOT
ATOM      1  C   UNL d   1      -0.272   0.011  -1.358  0.00  0.00    -0.002 A 
ATOM      2  C1  UNL d   1      -1.075  -1.107  -1.182  0.00  0.00     0.010 A 
ATOM      3  C2  UNL d   1      -0.526  -2.314  -0.743  0.00  0.00     0.041 A 
ATOM      4  C3  UNL d   1       0.856  -2.378  -0.479  0.00  0.00    -0.075 A 
ATOM      5  S   UNL d   1       1.747  -3.749   0.069  0.00  0.00     0.015 SA
ATOM      6  C4  UNL d   1       3.215  -2.882   0.082  0.00  0.00     0.022 A 
ATOM      7  C5  UNL d   1       3.048  -1.578  -0.318  0.00  0.00     0.026 A 
ATOM      8  C6  UNL d   1       1.685  -1.266  -0.648  0.00  0.00    -0.082 A 
ATOM      9  C7  UNL d   1       1.099  -0.057  -1.095  0.00  0.00     0.045 A 
ENDROOT
TORSDOF 0
ENDMDL
