MODEL 1
REMARK minimizedAffinity 1.56429148
REMARK minimizedRMSD -1
REMARK  0 active torsions:
REMARK  status: ('A' for Active; 'I' for Inactive)
ROOT
ATOM      1  C   UNL d   1      -4.387  -0.760   2.625  0.00  0.00    -0.002 A 
ATOM      2  C1  UNL d   1      -3.772   0.124   3.500  0.00  0.00     0.010 A 
ATOM      3  C2  UNL d   1      -3.389   1.397   3.072  0.00  0.00     0.041 A 
ATOM      4  C3  UNL d   1      -3.638   1.770   1.736  0.00  0.00    -0.075 A 
ATOM      5  S   UNL d   1      -3.257   3.277   0.990  0.00  0.00     0.015 SA
ATOM      6  C4  UNL d   1      -3.903   2.783  -0.508  0.00  0.00     0.022 A 
ATOM      7  C5  UNL d   1      -4.401   1.502  -0.458  0.00  0.00     0.026 A 
ATOM      8  C6  UNL d   1      -4.257   0.898   0.836  0.00  0.00    -0.082 A 
ATOM      9  C7  UNL d   1      -4.633  -0.386   1.301  0.00  0.00     0.045 A 
ENDROOT
TORSDOF 0
ENDMDL
