MODEL 1
REMARK minimizedAffinity -3.09276199
REMARK minimizedRMSD -1
REMARK  0 active torsions:
REMARK  status: ('A' for Active; 'I' for Inactive)
ROOT
ATOM      1  C   UNL d   1      -0.114  -0.199  -1.538  0.00  0.00    -0.002 A 
ATOM      2  C1  UNL d   1       1.195   0.081  -1.174  0.00  0.00     0.010 A 
ATOM      3  C2  UNL d   1       1.873  -0.742  -0.272  0.00  0.00     0.041 A 
ATOM      4  C3  UNL d   1       1.207  -1.863   0.261  0.00  0.00    -0.075 A 
ATOM      5  S   UNL d   1       1.838  -3.012   1.380  0.00  0.00     0.015 SA
ATOM      6  C4  UNL d   1       0.385  -3.903   1.400  0.00  0.00     0.022 A 
ATOM      7  C5  UNL d   1      -0.569  -3.351   0.579  0.00  0.00     0.026 A 
ATOM      8  C6  UNL d   1      -0.111  -2.167  -0.092  0.00  0.00    -0.082 A 
ATOM      9  C7  UNL d   1      -0.771  -1.312  -1.008  0.00  0.00     0.045 A 
ENDROOT
TORSDOF 0
ENDMDL
