MODEL 1
REMARK minimizedAffinity -4.21661901
REMARK minimizedRMSD -1
REMARK  0 active torsions:
REMARK  status: ('A' for Active; 'I' for Inactive)
ROOT
ATOM      1  C2' OXE d   1       0.631  -0.452   2.319  0.00  0.00     0.078 C 
ATOM      2  C1' OXE d   1       0.762  -0.838  -0.459  0.00  0.00     0.078 C 
ATOM      3  C1  OXE d   1      -0.178   0.221   0.061  0.00  0.00    -0.078 A 
ATOM      4  C2  OXE d   1      -0.270   0.371   1.424  0.00  0.00    -0.078 A 
ATOM      5  C3  OXE d   1      -1.080   1.371   1.954  0.00  0.00     0.003 A 
ATOM      6  C4  OXE d   1      -1.918   2.121   1.120  0.00  0.00    -0.002 A 
ATOM      7  C5  OXE d   1      -1.869   1.957  -0.269  0.00  0.00    -0.002 A 
ATOM      8  C6  OXE d   1      -0.975   1.042  -0.816  0.00  0.00     0.003 A 
ENDROOT
TORSDOF 0
ENDMDL
