MODEL 1
REMARK minimizedAffinity 3.52792645
REMARK minimizedRMSD -1
REMARK  0 active torsions:
REMARK  status: ('A' for Active; 'I' for Inactive)
ROOT
ATOM      1  C2' OXE d   1       0.526  -1.363  -3.059  0.00  0.00     0.078 C 
ATOM      2  C1' OXE d   1       1.495  -2.992  -0.988  0.00  0.00     0.078 C 
ATOM      3  C1  OXE d   1       0.957  -1.632  -0.620  0.00  0.00    -0.078 A 
ATOM      4  C2  OXE d   1       0.528  -0.823  -1.645  0.00  0.00    -0.078 A 
ATOM      5  C3  OXE d   1      -0.028   0.420  -1.356  0.00  0.00     0.003 A 
ATOM      6  C4  OXE d   1      -0.014   0.916  -0.047  0.00  0.00    -0.002 A 
ATOM      7  C5  OXE d   1       0.455   0.124   1.007  0.00  0.00    -0.002 A 
ATOM      8  C6  OXE d   1       0.903  -1.166   0.744  0.00  0.00     0.003 A 
ENDROOT
TORSDOF 0
ENDMDL
