MODEL 1
REMARK minimizedAffinity -2.96862555
REMARK minimizedRMSD -1
REMARK  0 active torsions:
REMARK  status: ('A' for Active; 'I' for Inactive)
ROOT
ATOM      1  C2' OXE d   1       1.565  -0.024  -0.938  0.00  0.00     0.078 C 
ATOM      2  C1' OXE d   1      -0.906  -0.255   0.374  0.00  0.00     0.078 C 
ATOM      3  C1  OXE d   1      -0.308  -1.503  -0.227  0.00  0.00    -0.078 A 
ATOM      4  C2  OXE d   1       0.878  -1.372  -0.907  0.00  0.00    -0.078 A 
ATOM      5  C3  OXE d   1       1.499  -2.501  -1.434  0.00  0.00     0.003 A 
ATOM      6  C4  OXE d   1       0.852  -3.742  -1.410  0.00  0.00    -0.002 A 
ATOM      7  C5  OXE d   1      -0.376  -3.890  -0.756  0.00  0.00    -0.002 A 
ATOM      8  C6  OXE d   1      -0.948  -2.792  -0.124  0.00  0.00     0.003 A 
ENDROOT
TORSDOF 0
ENDMDL
