MODEL 1
REMARK minimizedAffinity -1.33568871
REMARK minimizedRMSD -1
REMARK  0 active torsions:
REMARK  status: ('A' for Active; 'I' for Inactive)
ROOT
ATOM      1  C2' OXE d   1       0.796  -1.750  -1.030  0.00  0.00     0.078 C 
ATOM      2  C1' OXE d   1      -0.345  -3.723  -2.669  0.00  0.00     0.078 C 
ATOM      3  C1  OXE d   1       0.542  -4.175  -1.536  0.00  0.00    -0.078 A 
ATOM      4  C2  OXE d   1       1.133  -3.201  -0.768  0.00  0.00    -0.078 A 
ATOM      5  C3  OXE d   1       1.917  -3.565   0.323  0.00  0.00     0.003 A 
ATOM      6  C4  OXE d   1       2.232  -4.910   0.553  0.00  0.00    -0.002 A 
ATOM      7  C5  OXE d   1       1.673  -5.916  -0.242  0.00  0.00    -0.002 A 
ATOM      8  C6  OXE d   1       0.794  -5.569  -1.262  0.00  0.00     0.003 A 
ENDROOT
TORSDOF 0
ENDMDL
