MODEL 1
REMARK minimizedAffinity -6.39971495
REMARK minimizedRMSD -1
REMARK  0 active torsions:
REMARK  status: ('A' for Active; 'I' for Inactive)
ROOT
ATOM      1  C2' OXE d   1       0.819   0.398  -0.627  0.00  0.00     0.078 C 
ATOM      2  C1' OXE d   1      -0.025   2.938  -1.473  0.00  0.00     0.078 C 
ATOM      3  C1  OXE d   1      -0.527   2.437  -0.141  0.00  0.00    -0.078 A 
ATOM      4  C2  OXE d   1      -0.146   1.174   0.243  0.00  0.00    -0.078 A 
ATOM      5  C3  OXE d   1      -0.536   0.685   1.486  0.00  0.00     0.003 A 
ATOM      6  C4  OXE d   1      -1.436   1.405   2.281  0.00  0.00    -0.002 A 
ATOM      7  C5  OXE d   1      -1.868   2.676   1.890  0.00  0.00    -0.002 A 
ATOM      8  C6  OXE d   1      -1.390   3.224   0.704  0.00  0.00     0.003 A 
ENDROOT
TORSDOF 0
ENDMDL
