MODEL 1
REMARK minimizedAffinity -2.51624179
REMARK minimizedRMSD -1
REMARK  0 active torsions:
REMARK  status: ('A' for Active; 'I' for Inactive)
ROOT
ATOM      1  C2' OXE d   1       0.689  -0.379  -0.421  0.00  0.00     0.078 C 
ATOM      2  C1' OXE d   1       1.085  -0.069   2.341  0.00  0.00     0.078 C 
ATOM      3  C1  OXE d   1      -0.085   0.647   1.714  0.00  0.00    -0.078 A 
ATOM      4  C2  OXE d   1      -0.244   0.527   0.354  0.00  0.00    -0.078 A 
ATOM      5  C3  OXE d   1      -1.338   1.122  -0.267  0.00  0.00     0.003 A 
ATOM      6  C4  OXE d   1      -2.191   1.967   0.455  0.00  0.00    -0.002 A 
ATOM      7  C5  OXE d   1      -2.023   2.134   1.834  0.00  0.00    -0.002 A 
ATOM      8  C6  OXE d   1      -1.003   1.449   2.484  0.00  0.00     0.003 A 
ENDROOT
TORSDOF 0
ENDMDL
