MODEL 1
REMARK minimizedAffinity -3.509655
REMARK minimizedRMSD -1
REMARK  0 active torsions:
REMARK  status: ('A' for Active; 'I' for Inactive)
ROOT
ATOM      1  C2' OXE d   1       1.071  -0.149   2.005  0.00  0.00     0.078 C 
ATOM      2  C1' OXE d   1       0.474  -0.805  -0.658  0.00  0.00     0.078 C 
ATOM      3  C1  OXE d   1      -0.445   0.157   0.053  0.00  0.00    -0.078 A 
ATOM      4  C2  OXE d   1      -0.172   0.436   1.370  0.00  0.00    -0.078 A 
ATOM      5  C3  OXE d   1      -0.956   1.359   2.057  0.00  0.00     0.003 A 
ATOM      6  C4  OXE d   1      -2.110   1.887   1.465  0.00  0.00    -0.002 A 
ATOM      7  C5  OXE d   1      -2.429   1.585   0.137  0.00  0.00    -0.002 A 
ATOM      8  C6  OXE d   1      -1.585   0.757  -0.595  0.00  0.00     0.003 A 
ENDROOT
TORSDOF 0
ENDMDL
