MODEL 1
REMARK minimizedAffinity -4.36441326
REMARK minimizedRMSD -1
REMARK  0 active torsions:
REMARK  status: ('A' for Active; 'I' for Inactive)
ROOT
ATOM      1  C2' OXE d   1      -0.658   0.916   2.455  0.00  0.00     0.078 C 
ATOM      2  C1' OXE d   1      -2.225   2.337   0.609  0.00  0.00     0.078 C 
ATOM      3  C1  OXE d   1      -1.086   1.506   0.073  0.00  0.00    -0.078 A 
ATOM      4  C2  OXE d   1      -0.296   0.851   0.987  0.00  0.00    -0.078 A 
ATOM      5  C3  OXE d   1       0.735   0.028   0.542  0.00  0.00     0.003 A 
ATOM      6  C4  OXE d   1       1.069  -0.019  -0.816  0.00  0.00    -0.002 A 
ATOM      7  C5  OXE d   1       0.302   0.671  -1.760  0.00  0.00    -0.002 A 
ATOM      8  C6  OXE d   1      -0.803   1.403  -1.338  0.00  0.00     0.003 A 
ENDROOT
TORSDOF 0
ENDMDL
