MODEL 1
REMARK minimizedAffinity -0.187195286
REMARK minimizedRMSD -1
REMARK  0 active torsions:
REMARK  status: ('A' for Active; 'I' for Inactive)
ROOT
ATOM      1  C2' OXE d   1      -1.044   1.077  -1.472  0.00  0.00     0.078 C 
ATOM      2  C1' OXE d   1       0.963   0.469   0.393  0.00  0.00     0.078 C 
ATOM      3  C1  OXE d   1      -0.320   1.068   0.911  0.00  0.00    -0.078 A 
ATOM      4  C2  OXE d   1      -1.279   1.406  -0.014  0.00  0.00    -0.078 A 
ATOM      5  C3  OXE d   1      -2.503   1.911   0.415  0.00  0.00     0.003 A 
ATOM      6  C4  OXE d   1      -2.708   2.222   1.765  0.00  0.00    -0.002 A 
ATOM      7  C5  OXE d   1      -1.729   1.922   2.719  0.00  0.00    -0.002 A 
ATOM      8  C6  OXE d   1      -0.549   1.308   2.315  0.00  0.00     0.003 A 
ENDROOT
TORSDOF 0
ENDMDL
