MODEL 1
REMARK minimizedAffinity 7.13886929
REMARK minimizedRMSD -1
REMARK  0 active torsions:
REMARK  status: ('A' for Active; 'I' for Inactive)
ROOT
ATOM      1  C2' OXE d   1      -2.404   3.544   2.924  0.00  0.00     0.078 C 
ATOM      2  C1' OXE d   1       0.247   3.522   3.847  0.00  0.00     0.078 C 
ATOM      3  C1  OXE d   1      -0.376   2.202   3.468  0.00  0.00    -0.078 A 
ATOM      4  C2  OXE d   1      -1.689   2.217   3.061  0.00  0.00    -0.078 A 
ATOM      5  C3  OXE d   1      -2.295   1.034   2.648  0.00  0.00     0.003 A 
ATOM      6  C4  OXE d   1      -1.630  -0.190   2.787  0.00  0.00    -0.002 A 
ATOM      7  C5  OXE d   1      -0.306  -0.231   3.237  0.00  0.00    -0.002 A 
ATOM      8  C6  OXE d   1       0.348   0.958   3.540  0.00  0.00     0.003 A 
ENDROOT
TORSDOF 0
ENDMDL
