MODEL 1
REMARK minimizedAffinity -0.00651175482
REMARK minimizedRMSD -1
REMARK  0 active torsions:
REMARK  status: ('A' for Active; 'I' for Inactive)
ROOT
ATOM      1  C2' OXE d   1      -0.740  -0.418   2.609  0.00  0.00     0.078 C 
ATOM      2  C1' OXE d   1      -0.115   2.296   2.957  0.00  0.00     0.078 C 
ATOM      3  C1  OXE d   1      -0.008   1.722   1.566  0.00  0.00    -0.078 A 
ATOM      4  C2  OXE d   1      -0.270   0.382   1.413  0.00  0.00    -0.078 A 
ATOM      5  C3  OXE d   1      -0.239  -0.186   0.143  0.00  0.00     0.003 A 
ATOM      6  C4  OXE d   1       0.206   0.558  -0.956  0.00  0.00    -0.002 A 
ATOM      7  C5  OXE d   1       0.517   1.915  -0.815  0.00  0.00    -0.002 A 
ATOM      8  C6  OXE d   1       0.374   2.521   0.428  0.00  0.00     0.003 A 
ENDROOT
TORSDOF 0
ENDMDL
