MODEL 1
REMARK minimizedAffinity 1.51213408
REMARK minimizedRMSD -1
REMARK  0 active torsions:
REMARK  status: ('A' for Active; 'I' for Inactive)
ROOT
ATOM      1  C2' OXE d   1      -2.120   1.542  -1.946  0.00  0.00     0.078 C 
ATOM      2  C1' OXE d   1       0.274   0.656  -0.779  0.00  0.00     0.078 C 
ATOM      3  C1  OXE d   1       0.018   0.293  -2.220  0.00  0.00    -0.078 A 
ATOM      4  C2  OXE d   1      -1.177   0.691  -2.769  0.00  0.00    -0.078 A 
ATOM      5  C3  OXE d   1      -1.440   0.429  -4.111  0.00  0.00     0.003 A 
ATOM      6  C4  OXE d   1      -0.567  -0.367  -4.862  0.00  0.00    -0.002 A 
ATOM      7  C5  OXE d   1       0.637  -0.817  -4.310  0.00  0.00    -0.002 A 
ATOM      8  C6  OXE d   1       0.964  -0.460  -3.006  0.00  0.00     0.003 A 
ENDROOT
TORSDOF 0
ENDMDL
