MODEL 1
REMARK minimizedAffinity 3.4687252
REMARK minimizedRMSD -1
REMARK  0 active torsions:
REMARK  status: ('A' for Active; 'I' for Inactive)
ROOT
ATOM      1  C2' OXE d   1       0.584  -1.066  -0.505  0.00  0.00     0.078 C 
ATOM      2  C1' OXE d   1       0.829   1.613  -1.309  0.00  0.00     0.078 C 
ATOM      3  C1  OXE d   1       0.207   1.336   0.037  0.00  0.00    -0.078 A 
ATOM      4  C2  OXE d   1       0.049   0.021   0.402  0.00  0.00    -0.078 A 
ATOM      5  C3  OXE d   1      -0.469  -0.289   1.657  0.00  0.00     0.003 A 
ATOM      6  C4  OXE d   1      -0.970   0.722   2.486  0.00  0.00    -0.002 A 
ATOM      7  C5  OXE d   1      -0.855   2.066   2.116  0.00  0.00    -0.002 A 
ATOM      8  C6  OXE d   1      -0.231   2.392   0.917  0.00  0.00     0.003 A 
ENDROOT
TORSDOF 0
ENDMDL
