MODEL 1
REMARK minimizedAffinity -2.89648819
REMARK minimizedRMSD -1
REMARK  0 active torsions:
REMARK  status: ('A' for Active; 'I' for Inactive)
ROOT
ATOM      1  C2' OXE d   1      -1.609   0.365  -1.499  0.00  0.00     0.078 C 
ATOM      2  C1' OXE d   1       0.303  -0.767   0.217  0.00  0.00     0.078 C 
ATOM      3  C1  OXE d   1      -0.548   0.356   0.754  0.00  0.00    -0.078 A 
ATOM      4  C2  OXE d   1      -1.449   0.935  -0.107  0.00  0.00    -0.078 A 
ATOM      5  C3  OXE d   1      -2.296   1.939   0.354  0.00  0.00     0.003 A 
ATOM      6  C4  OXE d   1      -2.134   2.468   1.641  0.00  0.00    -0.002 A 
ATOM      7  C5  OXE d   1      -1.196   1.919   2.521  0.00  0.00    -0.002 A 
ATOM      8  C6  OXE d   1      -0.426   0.837   2.108  0.00  0.00     0.003 A 
ENDROOT
TORSDOF 0
ENDMDL
