MODEL 1
REMARK minimizedAffinity -0.32665959
REMARK minimizedRMSD -1
REMARK  0 active torsions:
REMARK  status: ('A' for Active; 'I' for Inactive)
ROOT
ATOM      1  C2' OXE d   1      -2.343   2.152   1.203  0.00  0.00     0.078 C 
ATOM      2  C1' OXE d   1      -0.801   0.858   3.160  0.00  0.00     0.078 C 
ATOM      3  C1  OXE d   1      -0.428   0.643   1.714  0.00  0.00    -0.078 A 
ATOM      4  C2  OXE d   1      -1.216   1.243   0.762  0.00  0.00    -0.078 A 
ATOM      5  C3  OXE d   1      -0.884   1.122  -0.585  0.00  0.00     0.003 A 
ATOM      6  C4  OXE d   1       0.154   0.271  -0.985  0.00  0.00    -0.002 A 
ATOM      7  C5  OXE d   1       0.945  -0.381  -0.033  0.00  0.00    -0.002 A 
ATOM      8  C6  OXE d   1       0.695  -0.172   1.319  0.00  0.00     0.003 A 
ENDROOT
TORSDOF 0
ENDMDL
