MODEL 1
REMARK minimizedAffinity -0.945688546
REMARK minimizedRMSD -1
REMARK  0 active torsions:
REMARK  status: ('A' for Active; 'I' for Inactive)
ROOT
ATOM      1  C   UNL d   1      -1.476  -0.893   2.157  0.00  0.00     0.078 C 
ATOM      2  C1  UNL d   1       0.014  -0.897   2.318  0.00  0.00    -0.077 A 
ATOM      3  C2  UNL d   1       0.671   0.142   2.988  0.00  0.00    -0.001 A 
ATOM      4  C3  UNL d   1       2.060   0.130   3.122  0.00  0.00     0.003 A 
ATOM      5  C4  UNL d   1       2.805  -0.919   2.587  0.00  0.00    -0.005 A 
ATOM      6  C5  UNL d   1       2.161  -1.956   1.915  0.00  0.00     0.003 A 
ATOM      7  C6  UNL d   1       0.772  -1.946   1.781  0.00  0.00    -0.001 A 
ENDROOT
TORSDOF 0
ENDMDL
