MODEL 1
REMARK minimizedAffinity -0.591206312
REMARK minimizedRMSD -1
REMARK  0 active torsions:
REMARK  status: ('A' for Active; 'I' for Inactive)
ROOT
ATOM      1  C   UNL d   1       0.010  -1.130   2.943  0.00  0.00     0.078 C 
ATOM      2  C1  UNL d   1       0.141  -0.989   1.455  0.00  0.00    -0.077 A 
ATOM      3  C2  UNL d   1      -0.991  -0.860   0.641  0.00  0.00    -0.001 A 
ATOM      4  C3  UNL d   1      -0.855  -0.740  -0.743  0.00  0.00     0.003 A 
ATOM      5  C4  UNL d   1       0.411  -0.748  -1.325  0.00  0.00    -0.005 A 
ATOM      6  C5  UNL d   1       1.543  -0.878  -0.523  0.00  0.00     0.003 A 
ATOM      7  C6  UNL d   1       1.409  -0.999   0.861  0.00  0.00    -0.001 A 
ENDROOT
TORSDOF 0
ENDMDL
