MODEL 1
REMARK minimizedAffinity 4.54117823
REMARK minimizedRMSD -1
REMARK  0 active torsions:
REMARK  status: ('A' for Active; 'I' for Inactive)
ROOT
ATOM      1  C   UNL d   1       3.029  -1.467  -0.352  0.00  0.00     0.078 C 
ATOM      2  C1  UNL d   1       2.651  -0.029  -0.548  0.00  0.00    -0.077 A 
ATOM      3  C2  UNL d   1       2.056   0.404  -1.739  0.00  0.00    -0.001 A 
ATOM      4  C3  UNL d   1       1.718   1.747  -1.911  0.00  0.00     0.003 A 
ATOM      5  C4  UNL d   1       1.973   2.668  -0.897  0.00  0.00    -0.005 A 
ATOM      6  C5  UNL d   1       2.567   2.247   0.290  0.00  0.00     0.003 A 
ATOM      7  C6  UNL d   1       2.906   0.904   0.464  0.00  0.00    -0.001 A 
ENDROOT
TORSDOF 0
ENDMDL
