MODEL 1
REMARK minimizedAffinity 0.972746968
REMARK minimizedRMSD -1
REMARK  0 active torsions:
REMARK  status: ('A' for Active; 'I' for Inactive)
ROOT
ATOM      1  C   UNL d   1      -1.815   0.454   3.338  0.00  0.00     0.078 C 
ATOM      2  C1  UNL d   1      -0.717  -0.208   2.560  0.00  0.00    -0.077 A 
ATOM      3  C2  UNL d   1       0.600  -0.216   3.035  0.00  0.00    -0.001 A 
ATOM      4  C3  UNL d   1       1.613  -0.827   2.295  0.00  0.00     0.003 A 
ATOM      5  C4  UNL d   1       1.321  -1.434   1.076  0.00  0.00    -0.005 A 
ATOM      6  C5  UNL d   1       0.013  -1.430   0.594  0.00  0.00     0.003 A 
ATOM      7  C6  UNL d   1      -1.001  -0.819   1.332  0.00  0.00    -0.001 A 
ENDROOT
TORSDOF 0
ENDMDL
