MODEL 1
REMARK minimizedAffinity 1.12779772
REMARK minimizedRMSD -1
REMARK  0 active torsions:
REMARK  status: ('A' for Active; 'I' for Inactive)
ROOT
ATOM      1  C   UNL d   1       2.442  -2.301   0.591  0.00  0.00     0.078 C 
ATOM      2  C1  UNL d   1       1.458  -1.591   1.472  0.00  0.00    -0.077 A 
ATOM      3  C2  UNL d   1       1.890  -0.739   2.496  0.00  0.00    -0.001 A 
ATOM      4  C3  UNL d   1       0.963  -0.093   3.314  0.00  0.00     0.003 A 
ATOM      5  C4  UNL d   1      -0.402  -0.293   3.119  0.00  0.00    -0.005 A 
ATOM      6  C5  UNL d   1      -0.842  -1.141   2.105  0.00  0.00     0.003 A 
ATOM      7  C6  UNL d   1       0.084  -1.788   1.285  0.00  0.00    -0.001 A 
ENDROOT
TORSDOF 0
ENDMDL
