MODEL 1
REMARK minimizedAffinity 7.7660017
REMARK minimizedRMSD -1
REMARK  0 active torsions:
REMARK  status: ('A' for Active; 'I' for Inactive)
ROOT
ATOM      1  C   UNL d   1      -0.014  -1.302   2.851  0.00  0.00     0.078 C 
ATOM      2  C1  UNL d   1       1.031  -1.649   1.833  0.00  0.00    -0.077 A 
ATOM      3  C2  UNL d   1       1.857  -2.767   2.000  0.00  0.00    -0.001 A 
ATOM      4  C3  UNL d   1       2.832  -3.073   1.049  0.00  0.00     0.003 A 
ATOM      5  C4  UNL d   1       2.991  -2.264  -0.075  0.00  0.00    -0.005 A 
ATOM      6  C5  UNL d   1       2.176  -1.148  -0.248  0.00  0.00     0.003 A 
ATOM      7  C6  UNL d   1       1.200  -0.841   0.702  0.00  0.00    -0.001 A 
ENDROOT
TORSDOF 0
ENDMDL
