MODEL 1
REMARK minimizedAffinity -1.55104029
REMARK minimizedRMSD -1
REMARK  0 active torsions:
REMARK  status: ('A' for Active; 'I' for Inactive)
ROOT
ATOM      1  C   UNL d   1      -0.584  -0.304   2.872  0.00  0.00     0.078 C 
ATOM      2  C1  UNL d   1       0.575  -0.949   2.173  0.00  0.00    -0.077 A 
ATOM      3  C2  UNL d   1       1.566  -1.626   2.895  0.00  0.00    -0.001 A 
ATOM      4  C3  UNL d   1       2.645  -2.214   2.232  0.00  0.00     0.003 A 
ATOM      5  C4  UNL d   1       2.743  -2.130   0.844  0.00  0.00    -0.005 A 
ATOM      6  C5  UNL d   1       1.763  -1.457   0.118  0.00  0.00     0.003 A 
ATOM      7  C6  UNL d   1       0.684  -0.868   0.779  0.00  0.00    -0.001 A 
ENDROOT
TORSDOF 0
ENDMDL
