MODEL 1
REMARK minimizedAffinity 1.46837282
REMARK minimizedRMSD -1
REMARK  0 active torsions:
REMARK  status: ('A' for Active; 'I' for Inactive)
ROOT
ATOM      1  C   UNL d   1       0.060  -0.571   3.279  0.00  0.00     0.078 C 
ATOM      2  C1  UNL d   1       1.046  -1.317   2.432  0.00  0.00    -0.077 A 
ATOM      3  C2  UNL d   1       1.997  -2.167   3.010  0.00  0.00    -0.001 A 
ATOM      4  C3  UNL d   1       2.915  -2.848   2.210  0.00  0.00     0.003 A 
ATOM      5  C4  UNL d   1       2.893  -2.685   0.826  0.00  0.00    -0.005 A 
ATOM      6  C5  UNL d   1       1.952  -1.840   0.241  0.00  0.00     0.003 A 
ATOM      7  C6  UNL d   1       1.033  -1.159   1.040  0.00  0.00    -0.001 A 
ENDROOT
TORSDOF 0
ENDMDL
