MODEL 1
REMARK minimizedAffinity 3.1476357
REMARK minimizedRMSD -1
REMARK  0 active torsions:
REMARK  status: ('A' for Active; 'I' for Inactive)
ROOT
ATOM      1  C   UNL d   1       2.585  -1.525   1.708  0.00  0.00     0.078 C 
ATOM      2  C1  UNL d   1       2.101  -0.637   0.600  0.00  0.00    -0.077 A 
ATOM      3  C2  UNL d   1       1.403  -1.164  -0.493  0.00  0.00    -0.001 A 
ATOM      4  C3  UNL d   1       0.967  -0.327  -1.522  0.00  0.00     0.003 A 
ATOM      5  C4  UNL d   1       1.225   1.041  -1.468  0.00  0.00    -0.005 A 
ATOM      6  C5  UNL d   1       1.921   1.574  -0.385  0.00  0.00     0.003 A 
ATOM      7  C6  UNL d   1       2.358   0.739   0.645  0.00  0.00    -0.001 A 
ENDROOT
TORSDOF 0
ENDMDL
