MODEL 1
REMARK minimizedAffinity -3.1612134
REMARK minimizedRMSD -1
REMARK  0 active torsions:
REMARK  status: ('A' for Active; 'I' for Inactive)
ROOT
ATOM      1  C   UNL d   1      -3.399   2.102  -5.664  0.00  0.00     0.023 A 
ATOM      2  C1  UNL d   1      -4.770   2.013  -5.902  0.00  0.00     0.003 A 
ATOM      3  C2  UNL d   1      -5.384   0.762  -5.999  0.00  0.00     0.048 A 
ATOM      4  C3  UNL d   1      -4.620  -0.396  -5.855  0.00  0.00     0.023 A 
ATOM      5  C4  UNL d   1      -3.247  -0.311  -5.615  0.00  0.00     0.048 A 
ATOM      6  C5  UNL d   1      -2.638   0.941  -5.520  0.00  0.00     0.003 A 
ATOM      7  I   UNL d   1      -5.530  -2.259  -5.997  0.00  0.00    -0.146 I 
ENDROOT
TORSDOF 0
ENDMDL
