MODEL 1
REMARK minimizedAffinity 1.14505696
REMARK minimizedRMSD -1
REMARK  0 active torsions:
REMARK  status: ('A' for Active; 'I' for Inactive)
ROOT
ATOM      1  C   UNL d   1      -2.611   2.835  -5.929  0.00  0.00     0.023 A 
ATOM      2  C1  UNL d   1      -1.888   1.643  -5.870  0.00  0.00     0.003 A 
ATOM      3  C2  UNL d   1      -2.557   0.418  -5.872  0.00  0.00     0.048 A 
ATOM      4  C3  UNL d   1      -3.950   0.391  -5.935  0.00  0.00     0.023 A 
ATOM      5  C4  UNL d   1      -4.677   1.580  -5.995  0.00  0.00     0.048 A 
ATOM      6  C5  UNL d   1      -4.004   2.803  -5.992  0.00  0.00     0.003 A 
ATOM      7  I   UNL d   1      -4.948  -1.432  -5.938  0.00  0.00    -0.146 I 
ENDROOT
TORSDOF 0
ENDMDL
