MODEL 1
REMARK minimizedAffinity -0.865668178
REMARK minimizedRMSD -1
REMARK  0 active torsions:
REMARK  status: ('A' for Active; 'I' for Inactive)
ROOT
ATOM      1  C   UNL d   1      -2.114  -6.000  -4.162  0.00  0.00     0.023 A 
ATOM      2  C1  UNL d   1      -2.602  -5.961  -5.469  0.00  0.00     0.003 A 
ATOM      3  C2  UNL d   1      -3.089  -4.764  -5.997  0.00  0.00     0.048 A 
ATOM      4  C3  UNL d   1      -3.085  -3.610  -5.215  0.00  0.00     0.023 A 
ATOM      5  C4  UNL d   1      -2.597  -3.644  -3.908  0.00  0.00     0.048 A 
ATOM      6  C5  UNL d   1      -2.111  -4.843  -3.383  0.00  0.00     0.003 A 
ATOM      7  I   UNL d   1      -3.810  -1.827  -6.000  0.00  0.00    -0.146 I 
ENDROOT
TORSDOF 0
ENDMDL
