MODEL 1
REMARK minimizedAffinity -1.26266718
REMARK minimizedRMSD -1
REMARK  0 active torsions:
REMARK  status: ('A' for Active; 'I' for Inactive)
ROOT
ATOM      1  C   UNL d   1      -3.149   3.520  -5.996  0.00  0.00     0.023 A 
ATOM      2  C1  UNL d   1      -4.540   3.416  -5.994  0.00  0.00     0.003 A 
ATOM      3  C2  UNL d   1      -5.148   2.159  -5.995  0.00  0.00     0.048 A 
ATOM      4  C3  UNL d   1      -4.358   1.009  -5.998  0.00  0.00     0.023 A 
ATOM      5  C4  UNL d   1      -2.966   1.108  -5.999  0.00  0.00     0.048 A 
ATOM      6  C5  UNL d   1      -2.363   2.367  -5.999  0.00  0.00     0.003 A 
ATOM      7  I   UNL d   1      -5.260  -0.863  -5.999  0.00  0.00    -0.146 I 
ENDROOT
TORSDOF 0
ENDMDL
