MODEL 1
REMARK minimizedAffinity -2.91446304
REMARK minimizedRMSD -1
REMARK  0 active torsions:
REMARK  status: ('A' for Active; 'I' for Inactive)
ROOT
ATOM      1  C   UNL d   1      -4.567   4.476  -6.000  0.00  0.00     0.023 A 
ATOM      2  C1  UNL d   1      -3.358   3.780  -5.995  0.00  0.00     0.003 A 
ATOM      3  C2  UNL d   1      -3.356   2.384  -5.985  0.00  0.00     0.048 A 
ATOM      4  C3  UNL d   1      -4.566   1.690  -5.983  0.00  0.00     0.023 A 
ATOM      5  C4  UNL d   1      -5.777   2.383  -5.989  0.00  0.00     0.048 A 
ATOM      6  C5  UNL d   1      -5.775   3.779  -5.997  0.00  0.00     0.003 A 
ATOM      7  I   UNL d   1      -4.564  -0.388  -5.969  0.00  0.00    -0.146 I 
ENDROOT
TORSDOF 0
ENDMDL
