MODEL 1
REMARK minimizedAffinity -0.0220885165
REMARK minimizedRMSD -1
REMARK  0 active torsions:
REMARK  status: ('A' for Active; 'I' for Inactive)
ROOT
ATOM      1  C   UNL d   1      -4.000   0.530  -5.998  0.00  0.00     0.023 A 
ATOM      2  C1  UNL d   1      -3.185   1.661  -6.000  0.00  0.00     0.003 A 
ATOM      3  C2  UNL d   1      -3.756   2.935  -5.996  0.00  0.00     0.048 A 
ATOM      4  C3  UNL d   1      -5.144   3.071  -5.989  0.00  0.00     0.023 A 
ATOM      5  C4  UNL d   1      -5.964   1.941  -5.987  0.00  0.00     0.048 A 
ATOM      6  C5  UNL d   1      -5.388   0.669  -5.992  0.00  0.00     0.003 A 
ATOM      7  I   UNL d   1      -5.997   4.966  -5.983  0.00  0.00    -0.146 I 
ENDROOT
TORSDOF 0
ENDMDL
