MODEL 1
REMARK minimizedAffinity -0.698385179
REMARK minimizedRMSD -1
REMARK  0 active torsions:
REMARK  status: ('A' for Active; 'I' for Inactive)
ROOT
ATOM      1  C   UNL d   1      -3.709   3.780  -5.993  0.00  0.00     0.023 A 
ATOM      2  C1  UNL d   1      -5.013   3.284  -5.994  0.00  0.00     0.003 A 
ATOM      3  C2  UNL d   1      -5.237   1.905  -5.996  0.00  0.00     0.048 A 
ATOM      4  C3  UNL d   1      -4.153   1.029  -5.996  0.00  0.00     0.023 A 
ATOM      5  C4  UNL d   1      -2.847   1.520  -5.994  0.00  0.00     0.048 A 
ATOM      6  C5  UNL d   1      -2.627   2.899  -5.993  0.00  0.00     0.003 A 
ATOM      7  I   UNL d   1      -4.484  -1.023  -5.998  0.00  0.00    -0.146 I 
ENDROOT
TORSDOF 0
ENDMDL
