MODEL 1
REMARK minimizedAffinity -2.38591623
REMARK minimizedRMSD -1
REMARK  0 active torsions:
REMARK  status: ('A' for Active; 'I' for Inactive)
ROOT
ATOM      1  C   UNL d   1      -4.877  -0.887  -5.677  0.00  0.00     0.023 A 
ATOM      2  C1  UNL d   1      -5.611   0.276  -5.907  0.00  0.00     0.003 A 
ATOM      3  C2  UNL d   1      -4.960   1.508  -5.999  0.00  0.00     0.048 A 
ATOM      4  C3  UNL d   1      -3.574   1.569  -5.861  0.00  0.00     0.023 A 
ATOM      5  C4  UNL d   1      -2.835   0.407  -5.631  0.00  0.00     0.048 A 
ATOM      6  C5  UNL d   1      -3.491  -0.822  -5.539  0.00  0.00     0.003 A 
ATOM      7  I   UNL d   1      -2.601   3.401  -5.998  0.00  0.00    -0.146 I 
ENDROOT
TORSDOF 0
ENDMDL
