MODEL 1
REMARK minimizedAffinity -1.85396135
REMARK minimizedRMSD -1
REMARK  0 active torsions:
REMARK  status: ('A' for Active; 'I' for Inactive)
ROOT
ATOM      1  C   UNL d   1      -3.317   3.879  -5.970  0.00  0.00     0.023 A 
ATOM      2  C1  UNL d   1      -4.698   3.679  -5.961  0.00  0.00     0.003 A 
ATOM      3  C2  UNL d   1      -5.217   2.382  -5.970  0.00  0.00     0.048 A 
ATOM      4  C3  UNL d   1      -4.350   1.290  -5.986  0.00  0.00     0.023 A 
ATOM      5  C4  UNL d   1      -2.968   1.486  -5.993  0.00  0.00     0.048 A 
ATOM      6  C5  UNL d   1      -2.453   2.784  -5.986  0.00  0.00     0.003 A 
ATOM      7  I   UNL d   1      -5.120  -0.640  -5.998  0.00  0.00    -0.146 I 
ENDROOT
TORSDOF 0
ENDMDL
