MODEL 1
REMARK minimizedAffinity -1.42290509
REMARK minimizedRMSD -1
REMARK  0 active torsions:
REMARK  status: ('A' for Active; 'I' for Inactive)
ROOT
ATOM      1  C   UNL d   1      -4.140   4.660  -5.967  0.00  0.00     0.023 A 
ATOM      2  C1  UNL d   1      -3.247   3.588  -5.974  0.00  0.00     0.003 A 
ATOM      3  C2  UNL d   1      -3.727   2.277  -5.983  0.00  0.00     0.048 A 
ATOM      4  C3  UNL d   1      -5.102   2.045  -5.985  0.00  0.00     0.023 A 
ATOM      5  C4  UNL d   1      -6.000   3.114  -5.979  0.00  0.00     0.048 A 
ATOM      6  C5  UNL d   1      -5.514   4.423  -5.970  0.00  0.00     0.003 A 
ATOM      7  I   UNL d   1      -5.820   0.095  -5.998  0.00  0.00    -0.146 I 
ENDROOT
TORSDOF 0
ENDMDL
