MODEL 1
REMARK minimizedAffinity -1.79024768
REMARK minimizedRMSD -1
REMARK  0 active torsions:
REMARK  status: ('A' for Active; 'I' for Inactive)
ROOT
ATOM      1  C   UNL d   1      -4.214   4.059  -5.988  0.00  0.00     0.023 A 
ATOM      2  C1  UNL d   1      -2.996   3.380  -5.990  0.00  0.00     0.003 A 
ATOM      3  C2  UNL d   1      -2.974   1.984  -5.993  0.00  0.00     0.048 A 
ATOM      4  C3  UNL d   1      -4.173   1.273  -5.995  0.00  0.00     0.023 A 
ATOM      5  C4  UNL d   1      -5.395   1.949  -5.994  0.00  0.00     0.048 A 
ATOM      6  C5  UNL d   1      -5.412   3.345  -5.989  0.00  0.00     0.003 A 
ATOM      7  I   UNL d   1      -4.143  -0.805  -6.000  0.00  0.00    -0.146 I 
ENDROOT
TORSDOF 0
ENDMDL
