MODEL 1
REMARK minimizedAffinity -2.23648024
REMARK minimizedRMSD -1
REMARK  0 active torsions:
REMARK  status: ('A' for Active; 'I' for Inactive)
ROOT
ATOM      1  C   UNL d   1      -4.237   3.627  -5.995  0.00  0.00     0.023 A 
ATOM      2  C1  UNL d   1      -5.506   3.048  -5.992  0.00  0.00     0.003 A 
ATOM      3  C2  UNL d   1      -5.640   1.658  -5.994  0.00  0.00     0.048 A 
ATOM      4  C3  UNL d   1      -4.501   0.853  -5.998  0.00  0.00     0.023 A 
ATOM      5  C4  UNL d   1      -3.229   1.429  -6.000  0.00  0.00     0.048 A 
ATOM      6  C5  UNL d   1      -3.100   2.819  -5.999  0.00  0.00     0.003 A 
ATOM      7  I   UNL d   1      -4.697  -1.216  -6.000  0.00  0.00    -0.146 I 
ENDROOT
TORSDOF 0
ENDMDL
