MODEL 1
REMARK minimizedAffinity 2.65834451
REMARK minimizedRMSD -1
REMARK  0 active torsions:
REMARK  status: ('A' for Active; 'I' for Inactive)
ROOT
ATOM      1  C   UNL d   1      -5.263   4.597  -5.995  0.00  0.00     0.023 A 
ATOM      2  C1  UNL d   1      -5.611   3.246  -5.989  0.00  0.00     0.003 A 
ATOM      3  C2  UNL d   1      -4.615   2.267  -5.984  0.00  0.00     0.048 A 
ATOM      4  C3  UNL d   1      -3.273   2.646  -5.983  0.00  0.00     0.023 A 
ATOM      5  C4  UNL d   1      -2.920   3.996  -5.988  0.00  0.00     0.048 A 
ATOM      6  C5  UNL d   1      -3.919   4.971  -5.994  0.00  0.00     0.003 A 
ATOM      7  I   UNL d   1      -1.790   1.190  -5.976  0.00  0.00    -0.146 I 
ENDROOT
TORSDOF 0
ENDMDL
