MODEL 1
REMARK minimizedAffinity -1.39533603
REMARK minimizedRMSD -1
REMARK  0 active torsions:
REMARK  status: ('A' for Active; 'I' for Inactive)
ROOT
ATOM      1  C   UNL d   1      -5.971  -3.915  -5.997  0.00  0.00     0.023 A 
ATOM      2  C1  UNL d   1      -5.858  -5.305  -5.999  0.00  0.00     0.003 A 
ATOM      3  C2  UNL d   1      -4.602  -5.905  -5.886  0.00  0.00     0.048 A 
ATOM      4  C3  UNL d   1      -3.463  -5.109  -5.771  0.00  0.00     0.023 A 
ATOM      5  C4  UNL d   1      -3.572  -3.717  -5.767  0.00  0.00     0.048 A 
ATOM      6  C5  UNL d   1      -4.829  -3.122  -5.881  0.00  0.00     0.003 A 
ATOM      7  I   UNL d   1      -1.593  -6.000  -5.602  0.00  0.00    -0.146 I 
ENDROOT
TORSDOF 0
ENDMDL
