MODEL 1
REMARK minimizedAffinity 1.26177347
REMARK minimizedRMSD -1
REMARK  0 active torsions:
REMARK  status: ('A' for Active; 'I' for Inactive)
ROOT
ATOM      1  C   UNL d   1      -3.665  -5.522  -6.000  0.00  0.00     0.023 A 
ATOM      2  C1  UNL d   1      -5.039  -5.281  -5.999  0.00  0.00     0.003 A 
ATOM      3  C2  UNL d   1      -5.519  -3.973  -5.899  0.00  0.00     0.048 A 
ATOM      4  C3  UNL d   1      -4.620  -2.912  -5.801  0.00  0.00     0.023 A 
ATOM      5  C4  UNL d   1      -3.244  -3.149  -5.802  0.00  0.00     0.048 A 
ATOM      6  C5  UNL d   1      -2.769  -4.458  -5.901  0.00  0.00     0.003 A 
ATOM      7  I   UNL d   1      -5.332  -0.965  -5.652  0.00  0.00    -0.146 I 
ENDROOT
TORSDOF 0
ENDMDL
