MODEL 1
REMARK minimizedAffinity 17.6997032
REMARK minimizedRMSD -1
REMARK  0 active torsions:
REMARK  status: ('A' for Active; 'I' for Inactive)
ROOT
ATOM      1  C   UNL d   1      -1.513  -4.536  -6.000  0.00  0.00     0.077 C 
ATOM      2  C1  UNL d   1      -1.161  -3.264  -5.287  0.00  0.00    -0.074 A 
ATOM      3  C2  UNL d   1      -0.397  -2.275  -5.916  0.00  0.00    -0.005 A 
ATOM      4  C3  UNL d   1      -0.087  -1.093  -5.243  0.00  0.00     0.006 A 
ATOM      5  C4  UNL d   1      -0.536  -0.888  -3.938  0.00  0.00    -0.005 A 
ATOM      6  C5  UNL d   1      -1.301  -1.865  -3.294  0.00  0.00    -0.074 A 
ATOM      7  C6  UNL d   1      -1.800  -1.657  -1.895  0.00  0.00     0.077 C 
ATOM      8  C7  UNL d   1      -1.615  -3.047  -3.979  0.00  0.00    -0.001 A 
ENDROOT
TORSDOF 0
ENDMDL
