MODEL 1
REMARK minimizedAffinity 13.9651489
REMARK minimizedRMSD -1
REMARK  0 active torsions:
REMARK  status: ('A' for Active; 'I' for Inactive)
ROOT
ATOM      1  C   UNL d   1      -1.792  -2.244  -1.473  0.00  0.00     0.077 C 
ATOM      2  C1  UNL d   1      -1.889  -1.335  -0.283  0.00  0.00    -0.074 A 
ATOM      3  C2  UNL d   1      -3.112  -0.770   0.091  0.00  0.00    -0.005 A 
ATOM      4  C3  UNL d   1      -3.189   0.065   1.206  0.00  0.00     0.006 A 
ATOM      5  C4  UNL d   1      -2.046   0.344   1.955  0.00  0.00    -0.005 A 
ATOM      6  C5  UNL d   1      -0.814  -0.213   1.596  0.00  0.00    -0.074 A 
ATOM      7  C6  UNL d   1       0.423   0.068   2.397  0.00  0.00     0.077 C 
ATOM      8  C7  UNL d   1      -0.746  -1.057   0.480  0.00  0.00    -0.001 A 
ENDROOT
TORSDOF 0
ENDMDL
