MODEL 1
REMARK minimizedAffinity 7.91844225
REMARK minimizedRMSD -1
REMARK  0 active torsions:
REMARK  status: ('A' for Active; 'I' for Inactive)
ROOT
ATOM      1  C   UNL d   1       1.426  -1.997   4.875  0.00  0.00     0.077 C 
ATOM      2  C1  UNL d   1       0.858  -0.763   4.241  0.00  0.00    -0.074 A 
ATOM      3  C2  UNL d   1       0.393  -0.781   2.922  0.00  0.00    -0.005 A 
ATOM      4  C3  UNL d   1      -0.142   0.373   2.349  0.00  0.00     0.006 A 
ATOM      5  C4  UNL d   1      -0.217   1.555   3.088  0.00  0.00    -0.005 A 
ATOM      6  C5  UNL d   1       0.242   1.591   4.408  0.00  0.00    -0.074 A 
ATOM      7  C6  UNL d   1       0.160   2.850   5.220  0.00  0.00     0.077 C 
ATOM      8  C7  UNL d   1       0.772   0.426   4.979  0.00  0.00    -0.001 A 
ENDROOT
TORSDOF 0
ENDMDL
