MODEL 1
REMARK minimizedAffinity 12.0983315
REMARK minimizedRMSD -1
REMARK  0 active torsions:
REMARK  status: ('A' for Active; 'I' for Inactive)
ROOT
ATOM      1  C   UNL d   1       4.749   0.704   5.148  0.00  0.00     0.077 C 
ATOM      2  C1  UNL d   1       3.800   1.825   5.451  0.00  0.00    -0.074 A 
ATOM      3  C2  UNL d   1       4.259   3.139   5.590  0.00  0.00    -0.005 A 
ATOM      4  C3  UNL d   1       3.363   4.172   5.862  0.00  0.00     0.006 A 
ATOM      5  C4  UNL d   1       2.001   3.903   6.000  0.00  0.00    -0.005 A 
ATOM      6  C5  UNL d   1       1.523   2.596   5.864  0.00  0.00    -0.074 A 
ATOM      7  C6  UNL d   1       0.061   2.291   5.999  0.00  0.00     0.077 C 
ATOM      8  C7  UNL d   1       2.429   1.564   5.583  0.00  0.00    -0.001 A 
ENDROOT
TORSDOF 0
ENDMDL
