MODEL 1
REMARK minimizedAffinity 8.22788525
REMARK minimizedRMSD -1
REMARK  0 active torsions:
REMARK  status: ('A' for Active; 'I' for Inactive)
ROOT
ATOM      1  C   UNL d   1       1.144   0.004  -4.870  0.00  0.00     0.077 C 
ATOM      2  C1  UNL d   1      -0.064  -0.605  -4.221  0.00  0.00    -0.074 A 
ATOM      3  C2  UNL d   1      -1.191  -0.945  -4.976  0.00  0.00    -0.005 A 
ATOM      4  C3  UNL d   1      -2.303  -1.519  -4.360  0.00  0.00     0.006 A 
ATOM      5  C4  UNL d   1      -2.299  -1.759  -2.986  0.00  0.00    -0.005 A 
ATOM      6  C5  UNL d   1      -1.181  -1.427  -2.215  0.00  0.00    -0.074 A 
ATOM      7  C6  UNL d   1      -1.156  -1.687  -0.738  0.00  0.00     0.077 C 
ATOM      8  C7  UNL d   1      -0.065  -0.857  -2.842  0.00  0.00    -0.001 A 
ENDROOT
TORSDOF 0
ENDMDL
