MODEL 1
REMARK minimizedAffinity 4.91336107
REMARK minimizedRMSD -1
REMARK  0 active torsions:
REMARK  status: ('A' for Active; 'I' for Inactive)
ROOT
ATOM      1  C   UNL d   1       3.726   5.537   1.092  0.00  0.00     0.077 C 
ATOM      2  C1  UNL d   1       4.527   5.082   2.276  0.00  0.00    -0.074 A 
ATOM      3  C2  UNL d   1       5.256   5.996   3.043  0.00  0.00    -0.005 A 
ATOM      4  C3  UNL d   1       5.989   5.560   4.147  0.00  0.00     0.006 A 
ATOM      5  C4  UNL d   1       5.999   4.208   4.494  0.00  0.00    -0.005 A 
ATOM      6  C5  UNL d   1       5.275   3.280   3.739  0.00  0.00    -0.074 A 
ATOM      7  C6  UNL d   1       5.267   1.826   4.105  0.00  0.00     0.077 C 
ATOM      8  C7  UNL d   1       4.536   3.727   2.636  0.00  0.00    -0.001 A 
ENDROOT
TORSDOF 0
ENDMDL
