MODEL 1
REMARK minimizedAffinity 11.3155279
REMARK minimizedRMSD -1
REMARK  0 active torsions:
REMARK  status: ('A' for Active; 'I' for Inactive)
ROOT
ATOM      1  C   UNL d   1      -0.984  -0.752   1.366  0.00  0.00     0.077 C 
ATOM      2  C1  UNL d   1      -0.041  -0.545   2.513  0.00  0.00    -0.074 A 
ATOM      3  C2  UNL d   1       0.288   0.743   2.949  0.00  0.00    -0.005 A 
ATOM      4  C3  UNL d   1       1.160   0.920   4.023  0.00  0.00     0.006 A 
ATOM      5  C4  UNL d   1       1.711  -0.187   4.671  0.00  0.00    -0.005 A 
ATOM      6  C5  UNL d   1       1.393  -1.482   4.249  0.00  0.00    -0.074 A 
ATOM      7  C6  UNL d   1       1.969  -2.682   4.941  0.00  0.00     0.077 C 
ATOM      8  C7  UNL d   1       0.511  -1.652   3.174  0.00  0.00    -0.001 A 
ENDROOT
TORSDOF 0
ENDMDL
