MODEL 1
REMARK minimizedAffinity 8.79674149
REMARK minimizedRMSD -1
REMARK  0 active torsions:
REMARK  status: ('A' for Active; 'I' for Inactive)
ROOT
ATOM      1  C   UNL d   1      -3.262  -0.188   2.117  0.00  0.00     0.077 C 
ATOM      2  C1  UNL d   1      -1.847  -0.039   2.591  0.00  0.00    -0.074 A 
ATOM      3  C2  UNL d   1      -1.201   1.201   2.547  0.00  0.00    -0.005 A 
ATOM      4  C3  UNL d   1       0.112   1.326   3.000  0.00  0.00     0.006 A 
ATOM      5  C4  UNL d   1       0.792   0.215   3.501  0.00  0.00    -0.005 A 
ATOM      6  C5  UNL d   1       0.162  -1.032   3.554  0.00  0.00    -0.074 A 
ATOM      7  C6  UNL d   1       0.874  -2.235   4.098  0.00  0.00     0.077 C 
ATOM      8  C7  UNL d   1      -1.160  -1.149   3.103  0.00  0.00    -0.001 A 
ENDROOT
TORSDOF 0
ENDMDL
