MODEL 1
REMARK minimizedAffinity -5.76086617
REMARK minimizedRMSD -1
REMARK  1 active torsions:
REMARK  status: ('A' for Active; 'I' for Inactive)
REMARK    1  A    between atoms: C1_2  and  C2_3 
ROOT
ATOM      1  C2  UNL d   1      -0.437   0.254   0.884  0.00  0.00    -0.076 A 
ATOM      2  C3  UNL d   1       0.829   0.333   1.491  0.00  0.00     0.004 A 
ATOM      3  C4  UNL d   1       1.062  -0.241   2.740  0.00  0.00    -0.003 A 
ATOM      4  C5  UNL d   1       0.034  -0.903   3.402  0.00  0.00     0.000 A 
ATOM      5  C6  UNL d   1      -1.223  -1.006   2.807  0.00  0.00     0.000 A 
ATOM      6  C7  UNL d   1      -1.470  -0.447   1.541  0.00  0.00    -0.073 A 
ATOM      7  C8  UNL d   1      -2.846  -0.583   0.949  0.00  0.00     0.078 C 
ENDROOT
BRANCH   1   8
ATOM      8  C1  UNL d   1      -0.638   0.918  -0.459  0.00  0.00     0.053 C 
ATOM      9  C   UNL d   1       0.209   0.288  -1.554  0.00  0.00     0.018 C 
ENDBRANCH   1   8
TORSDOF 1
ENDMDL
