MODEL 1
REMARK minimizedAffinity -5.17911959
REMARK minimizedRMSD -1
REMARK  1 active torsions:
REMARK  status: ('A' for Active; 'I' for Inactive)
REMARK    1  A    between atoms: C1_2  and  C2_3 
ROOT
ATOM      1  C2  UNL d   1       0.514   0.660   0.650  0.00  0.00    -0.076 A 
ATOM      2  C3  UNL d   1       0.088   0.923  -0.664  0.00  0.00     0.004 A 
ATOM      3  C4  UNL d   1      -1.248   0.771  -1.029  0.00  0.00    -0.003 A 
ATOM      4  C5  UNL d   1      -2.181   0.355  -0.086  0.00  0.00     0.000 A 
ATOM      5  C6  UNL d   1      -1.780   0.107   1.226  0.00  0.00     0.000 A 
ATOM      6  C7  UNL d   1      -0.440   0.271   1.615  0.00  0.00    -0.073 A 
ATOM      7  C8  UNL d   1      -0.061  -0.017   3.042  0.00  0.00     0.078 C 
ENDROOT
BRANCH   1   8
ATOM      8  C1  UNL d   1       1.981   0.816   0.980  0.00  0.00     0.053 C 
ATOM      9  C   UNL d   1       2.519   2.189   0.610  0.00  0.00     0.018 C 
ENDBRANCH   1   8
TORSDOF 1
ENDMDL
