MODEL 1
REMARK minimizedAffinity -4.20701313
REMARK minimizedRMSD -1
REMARK  1 active torsions:
REMARK  status: ('A' for Active; 'I' for Inactive)
REMARK    1  A    between atoms: C1_2  and  C2_3 
ROOT
ATOM      1  C2  UNL d   1       0.566   0.879   1.294  0.00  0.00    -0.076 A 
ATOM      2  C3  UNL d   1       0.554   0.587   2.669  0.00  0.00     0.004 A 
ATOM      3  C4  UNL d   1      -0.414  -0.254   3.216  0.00  0.00    -0.003 A 
ATOM      4  C5  UNL d   1      -1.384  -0.819   2.396  0.00  0.00     0.000 A 
ATOM      5  C6  UNL d   1      -1.377  -0.555   1.026  0.00  0.00     0.000 A 
ATOM      6  C7  UNL d   1      -0.399   0.278   0.457  0.00  0.00    -0.073 A 
ATOM      7  C8  UNL d   1      -0.442   0.534  -1.025  0.00  0.00     0.078 C 
ENDROOT
BRANCH   1   8
ATOM      8  C1  UNL d   1       1.623   1.820   0.762  0.00  0.00     0.053 C 
ATOM      9  C   UNL d   1       3.013   1.489   1.283  0.00  0.00     0.018 C 
ENDBRANCH   1   8
TORSDOF 1
ENDMDL
