MODEL 1
REMARK minimizedAffinity -4.94399929
REMARK minimizedRMSD -1
REMARK  1 active torsions:
REMARK  status: ('A' for Active; 'I' for Inactive)
REMARK    1  A    between atoms: C1_2  and  C2_3 
ROOT
ATOM      1  C2  UNL d   1      -0.237   0.510   0.055  0.00  0.00    -0.076 A 
ATOM      2  C3  UNL d   1      -1.359  -0.265   0.395  0.00  0.00     0.004 A 
ATOM      3  C4  UNL d   1      -1.515  -0.775   1.683  0.00  0.00    -0.003 A 
ATOM      4  C5  UNL d   1      -0.551  -0.518   2.651  0.00  0.00     0.000 A 
ATOM      5  C6  UNL d   1       0.560   0.263   2.336  0.00  0.00     0.000 A 
ATOM      6  C7  UNL d   1       0.724   0.799   1.047  0.00  0.00    -0.073 A 
ATOM      7  C8  UNL d   1       1.945   1.630   0.761  0.00  0.00     0.078 C 
ENDROOT
BRANCH   1   8
ATOM      8  C1  UNL d   1      -0.108   1.014  -1.365  0.00  0.00     0.053 C 
ATOM      9  C   UNL d   1       0.520  -0.014  -2.294  0.00  0.00     0.018 C 
ENDBRANCH   1   8
TORSDOF 1
ENDMDL
