MODEL 1
REMARK minimizedAffinity -5.25364637
REMARK minimizedRMSD -1
REMARK  1 active torsions:
REMARK  status: ('A' for Active; 'I' for Inactive)
REMARK    1  A    between atoms: C1_2  and  C2_3 
ROOT
ATOM      1  C2  UNL d   1       1.172   0.495   1.364  0.00  0.00    -0.076 A 
ATOM      2  C3  UNL d   1       0.840   0.411   2.728  0.00  0.00     0.004 A 
ATOM      3  C4  UNL d   1      -0.448   0.063   3.132  0.00  0.00    -0.003 A 
ATOM      4  C5  UNL d   1      -1.425  -0.206   2.180  0.00  0.00     0.000 A 
ATOM      5  C6  UNL d   1      -1.109  -0.145   0.824  0.00  0.00     0.000 A 
ATOM      6  C7  UNL d   1       0.189   0.188   0.399  0.00  0.00    -0.073 A 
ATOM      7  C8  UNL d   1       0.473   0.246  -1.077  0.00  0.00     0.078 C 
ENDROOT
BRANCH   1   8
ATOM      8  C1  UNL d   1       2.577   0.903   0.985  0.00  0.00     0.053 C 
ATOM      9  C   UNL d   1       2.658   2.347   0.514  0.00  0.00     0.018 C 
ENDBRANCH   1   8
TORSDOF 1
ENDMDL
