MODEL 1
REMARK minimizedAffinity -4.54677582
REMARK minimizedRMSD -1
REMARK  1 active torsions:
REMARK  status: ('A' for Active; 'I' for Inactive)
REMARK    1  A    between atoms: C1_2  and  C2_3 
ROOT
ATOM      1  C2  UNL d   1      -1.459   0.748   1.610  0.00  0.00    -0.076 A 
ATOM      2  C3  UNL d   1      -0.980   1.255   0.390  0.00  0.00     0.004 A 
ATOM      3  C4  UNL d   1       0.309   0.961  -0.053  0.00  0.00    -0.003 A 
ATOM      4  C5  UNL d   1       1.139   0.155   0.718  0.00  0.00     0.000 A 
ATOM      5  C6  UNL d   1       0.674  -0.372   1.922  0.00  0.00     0.000 A 
ATOM      6  C7  UNL d   1      -0.629  -0.098   2.375  0.00  0.00    -0.073 A 
ATOM      7  C8  UNL d   1      -1.076  -0.687   3.685  0.00  0.00     0.078 C 
ENDROOT
BRANCH   1   8
ATOM      8  C1  UNL d   1      -2.856   1.123   2.051  0.00  0.00     0.053 C 
ATOM      9  C   UNL d   1      -3.826   1.231   0.885  0.00  0.00     0.018 C 
ENDBRANCH   1   8
TORSDOF 1
ENDMDL
