MODEL 1
REMARK minimizedAffinity -1.95506048
REMARK minimizedRMSD -1
REMARK  1 active torsions:
REMARK  status: ('A' for Active; 'I' for Inactive)
REMARK    1  A    between atoms: C1_2  and  C2_3 
ROOT
ATOM      1  C2  UNL d   1      -0.636  -0.040   0.573  0.00  0.00    -0.076 A 
ATOM      2  C3  UNL d   1       0.521   0.501   1.159  0.00  0.00     0.004 A 
ATOM      3  C4  UNL d   1       0.792   0.318   2.514  0.00  0.00    -0.003 A 
ATOM      4  C5  UNL d   1      -0.090  -0.411   3.305  0.00  0.00     0.000 A 
ATOM      5  C6  UNL d   1      -1.234  -0.970   2.736  0.00  0.00     0.000 A 
ATOM      6  C7  UNL d   1      -1.513  -0.808   1.368  0.00  0.00    -0.073 A 
ATOM      7  C8  UNL d   1      -2.764  -1.428   0.809  0.00  0.00     0.078 C 
ENDROOT
BRANCH   1   8
ATOM      8  C1  UNL d   1      -0.891   0.215  -0.895  0.00  0.00     0.053 C 
ATOM      9  C   UNL d   1       0.395   0.396  -1.687  0.00  0.00     0.018 C 
ENDBRANCH   1   8
TORSDOF 1
ENDMDL
