MODEL 1
REMARK minimizedAffinity -5.82283068
REMARK minimizedRMSD -1
REMARK  1 active torsions:
REMARK  status: ('A' for Active; 'I' for Inactive)
REMARK    1  A    between atoms: C1_2  and  C2_3 
ROOT
ATOM      1  C2  UNL d   1      -0.286   0.082   0.249  0.00  0.00    -0.076 A 
ATOM      2  C3  UNL d   1       0.949   0.189   0.912  0.00  0.00     0.004 A 
ATOM      3  C4  UNL d   1       1.019   0.183   2.304  0.00  0.00    -0.003 A 
ATOM      4  C5  UNL d   1      -0.146   0.069   3.056  0.00  0.00     0.000 A 
ATOM      5  C6  UNL d   1      -1.378  -0.056   2.415  0.00  0.00     0.000 A 
ATOM      6  C7  UNL d   1      -1.464  -0.068   1.012  0.00  0.00    -0.073 A 
ATOM      7  C8  UNL d   1      -2.819  -0.199   0.373  0.00  0.00     0.078 C 
ENDROOT
BRANCH   1   8
ATOM      8  C1  UNL d   1      -0.302   0.122  -1.262  0.00  0.00     0.053 C 
ATOM      9  C   UNL d   1      -0.335   1.541  -1.808  0.00  0.00     0.018 C 
ENDBRANCH   1   8
TORSDOF 1
ENDMDL
