MODEL 1
REMARK minimizedAffinity -4.65773392
REMARK minimizedRMSD -1
REMARK  1 active torsions:
REMARK  status: ('A' for Active; 'I' for Inactive)
REMARK    1  A    between atoms: C1_2  and  C2_3 
ROOT
ATOM      1  C2  UNL d   1      -0.384   0.384  -0.211  0.00  0.00    -0.076 A 
ATOM      2  C3  UNL d   1      -1.737   0.071   0.004  0.00  0.00     0.004 A 
ATOM      3  C4  UNL d   1      -2.199  -0.281   1.272  0.00  0.00    -0.003 A 
ATOM      4  C5  UNL d   1      -1.316  -0.324   2.344  0.00  0.00     0.000 A 
ATOM      5  C6  UNL d   1       0.027   0.001   2.152  0.00  0.00     0.000 A 
ATOM      6  C7  UNL d   1       0.506   0.373   0.884  0.00  0.00    -0.073 A 
ATOM      7  C8  UNL d   1       1.965   0.707   0.733  0.00  0.00     0.078 C 
ENDROOT
BRANCH   1   8
ATOM      8  C1  UNL d   1       0.064   0.731  -1.613  0.00  0.00     0.053 C 
ATOM      9  C   UNL d   1       0.475  -0.495  -2.414  0.00  0.00     0.018 C 
ENDBRANCH   1   8
TORSDOF 1
ENDMDL
