MODEL 1
REMARK minimizedAffinity -5.88868284
REMARK minimizedRMSD -1
REMARK  1 active torsions:
REMARK  status: ('A' for Active; 'I' for Inactive)
REMARK    1  A    between atoms: C1_2  and  C2_3 
ROOT
ATOM      1  C2  UNL d   1      -0.198   0.084   0.449  0.00  0.00    -0.076 A 
ATOM      2  C3  UNL d   1       0.832  -0.143   1.379  0.00  0.00     0.004 A 
ATOM      3  C4  UNL d   1       0.544  -0.496   2.696  0.00  0.00    -0.003 A 
ATOM      4  C5  UNL d   1      -0.778  -0.630   3.104  0.00  0.00     0.000 A 
ATOM      5  C6  UNL d   1      -1.812  -0.427   2.191  0.00  0.00     0.000 A 
ATOM      6  C7  UNL d   1      -1.539  -0.086   0.855  0.00  0.00    -0.073 A 
ATOM      7  C8  UNL d   1      -2.692   0.128  -0.086  0.00  0.00     0.078 C 
ENDROOT
BRANCH   1   8
ATOM      8  C1  UNL d   1       0.174   0.491  -0.959  0.00  0.00     0.053 C 
ATOM      9  C   UNL d   1       0.487  -0.703  -1.848  0.00  0.00     0.018 C 
ENDBRANCH   1   8
TORSDOF 1
ENDMDL
