MODEL 1
REMARK minimizedAffinity -3.28294158
REMARK minimizedRMSD -1
REMARK  1 active torsions:
REMARK  status: ('A' for Active; 'I' for Inactive)
REMARK    1  A    between atoms: C1_2  and  C2_3 
ROOT
ATOM      1  C2  UNL d   1       0.126   0.132   1.210  0.00  0.00    -0.076 A 
ATOM      2  C3  UNL d   1       1.362   0.595   0.725  0.00  0.00     0.004 A 
ATOM      3  C4  UNL d   1       1.569   0.790  -0.639  0.00  0.00    -0.003 A 
ATOM      4  C5  UNL d   1       0.544   0.527  -1.541  0.00  0.00     0.000 A 
ATOM      5  C6  UNL d   1      -0.694   0.084  -1.076  0.00  0.00     0.000 A 
ATOM      6  C7  UNL d   1      -0.925  -0.102   0.298  0.00  0.00    -0.073 A 
ATOM      7  C8  UNL d   1      -2.278  -0.586   0.743  0.00  0.00     0.078 C 
ENDROOT
BRANCH   1   8
ATOM      8  C1  UNL d   1      -0.032  -0.087   2.698  0.00  0.00     0.053 C 
ATOM      9  C   UNL d   1       0.331   1.147   3.510  0.00  0.00     0.018 C 
ENDBRANCH   1   8
TORSDOF 1
ENDMDL
