MODEL 1
REMARK minimizedAffinity -5.53940487
REMARK minimizedRMSD -1
REMARK  1 active torsions:
REMARK  status: ('A' for Active; 'I' for Inactive)
REMARK    1  A    between atoms: C1_2  and  C2_3 
ROOT
ATOM      1  C2  UNL d   1      -0.584   0.069   0.794  0.00  0.00    -0.076 A 
ATOM      2  C3  UNL d   1      -1.891  -0.317   1.138  0.00  0.00     0.004 A 
ATOM      3  C4  UNL d   1      -2.224  -0.626   2.456  0.00  0.00    -0.003 A 
ATOM      4  C5  UNL d   1      -1.256  -0.552   3.451  0.00  0.00     0.000 A 
ATOM      5  C6  UNL d   1       0.041  -0.153   3.131  0.00  0.00     0.000 A 
ATOM      6  C7  UNL d   1       0.390   0.177   1.810  0.00  0.00    -0.073 A 
ATOM      7  C8  UNL d   1       1.805   0.595   1.520  0.00  0.00     0.078 C 
ENDROOT
BRANCH   1   8
ATOM      8  C1  UNL d   1      -0.274   0.365  -0.656  0.00  0.00     0.053 C 
ATOM      9  C   UNL d   1      -1.424   1.062  -1.367  0.00  0.00     0.018 C 
ENDBRANCH   1   8
TORSDOF 1
ENDMDL
