MODEL 1
REMARK minimizedAffinity 2.21994138
REMARK minimizedRMSD -1
REMARK  1 active torsions:
REMARK  status: ('A' for Active; 'I' for Inactive)
REMARK    1  A    between atoms: C1_2  and  C2_3 
ROOT
ATOM      1  C2  UNL d   1       0.705   0.412   1.409  0.00  0.00    -0.076 A 
ATOM      2  C3  UNL d   1      -0.278  -0.359   0.765  0.00  0.00     0.004 A 
ATOM      3  C4  UNL d   1      -0.508  -0.230  -0.604  0.00  0.00    -0.003 A 
ATOM      4  C5  UNL d   1       0.242   0.672  -1.350  0.00  0.00     0.000 A 
ATOM      5  C6  UNL d   1       1.234   1.432  -0.731  0.00  0.00     0.000 A 
ATOM      6  C7  UNL d   1       1.489   1.302   0.645  0.00  0.00    -0.073 A 
ATOM      7  C8  UNL d   1       2.567   2.151   1.262  0.00  0.00     0.078 C 
ENDROOT
BRANCH   1   8
ATOM      8  C1  UNL d   1       0.892   0.248   2.901  0.00  0.00     0.053 C 
ATOM      9  C   UNL d   1      -0.430   0.195   3.651  0.00  0.00     0.018 C 
ENDBRANCH   1   8
TORSDOF 1
ENDMDL
