MODEL 1
REMARK minimizedAffinity 17.3136654
REMARK minimizedRMSD -1
REMARK  1 active torsions:
REMARK  status: ('A' for Active; 'I' for Inactive)
REMARK    1  A    between atoms: C1_2  and  C2_3 
ROOT
ATOM      1  C2  UNL d   1       3.131  -3.034   4.859  0.00  0.00    -0.081 A 
ATOM      2  C3  UNL d   1       2.415  -4.197   4.550  0.00  0.00     0.006 A 
ATOM      3  C4  UNL d   1       1.370  -4.160   3.623  0.00  0.00     0.002 A 
ATOM      4  C5  UNL d   1       1.029  -2.962   2.986  0.00  0.00    -0.080 A 
ATOM      5  C6  UNL d   1      -0.071  -2.914   1.968  0.00  0.00     0.076 C 
ATOM      6  C7  UNL d   1       1.733  -1.796   3.309  0.00  0.00     0.002 A 
ATOM      7  C8  UNL d   1       2.778  -1.833   4.235  0.00  0.00     0.006 A 
ENDROOT
BRANCH   1   8
ATOM      8  C1  UNL d   1       4.301  -3.085   5.809  0.00  0.00     0.054 C 
ATOM      9  C   UNL d   1       5.624  -3.083   5.058  0.00  0.00     0.018 C 
ENDBRANCH   1   8
TORSDOF 1
ENDMDL
