MODEL 1
REMARK minimizedAffinity 13.2693129
REMARK minimizedRMSD -1
REMARK  1 active torsions:
REMARK  status: ('A' for Active; 'I' for Inactive)
REMARK    1  A    between atoms: C1_2  and  C2_3 
ROOT
ATOM      1  C2  UNL d   1      -2.556   2.447   0.615  0.00  0.00    -0.081 A 
ATOM      2  C3  UNL d   1      -2.245   3.185  -0.534  0.00  0.00     0.006 A 
ATOM      3  C4  UNL d   1      -2.698   2.768  -1.788  0.00  0.00     0.002 A 
ATOM      4  C5  UNL d   1      -3.475   1.611  -1.914  0.00  0.00    -0.080 A 
ATOM      5  C6  UNL d   1      -3.993   1.169  -3.250  0.00  0.00     0.076 C 
ATOM      6  C7  UNL d   1      -3.771   0.864  -0.768  0.00  0.00     0.002 A 
ATOM      7  C8  UNL d   1      -3.318   1.280   0.486  0.00  0.00     0.006 A 
ENDROOT
BRANCH   1   8
ATOM      8  C1  UNL d   1      -2.124   2.929   1.976  0.00  0.00     0.054 C 
ATOM      9  C   UNL d   1      -0.616   3.124   2.041  0.00  0.00     0.018 C 
ENDBRANCH   1   8
TORSDOF 1
ENDMDL
