MODEL 1
REMARK minimizedAffinity 9.07361126
REMARK minimizedRMSD -1
REMARK  1 active torsions:
REMARK  status: ('A' for Active; 'I' for Inactive)
REMARK    1  A    between atoms: C1_2  and  C2_3 
ROOT
ATOM      1  C2  UNL d   1      -5.182   3.572  -0.932  0.00  0.00    -0.081 A 
ATOM      2  C3  UNL d   1      -3.845   3.169  -0.831  0.00  0.00     0.006 A 
ATOM      3  C4  UNL d   1      -3.333   2.194  -1.690  0.00  0.00     0.002 A 
ATOM      4  C5  UNL d   1      -4.146   1.612  -2.668  0.00  0.00    -0.080 A 
ATOM      5  C6  UNL d   1      -3.600   0.586  -3.616  0.00  0.00     0.076 C 
ATOM      6  C7  UNL d   1      -5.486   2.002  -2.757  0.00  0.00     0.002 A 
ATOM      7  C8  UNL d   1      -5.999   2.976  -1.898  0.00  0.00     0.006 A 
ENDROOT
BRANCH   1   8
ATOM      8  C1  UNL d   1      -5.720   4.670  -0.050  0.00  0.00     0.054 C 
ATOM      9  C   UNL d   1      -5.813   5.989  -0.802  0.00  0.00     0.018 C 
ENDBRANCH   1   8
TORSDOF 1
ENDMDL
