MODEL 1
REMARK minimizedAffinity 3.10038352
REMARK minimizedRMSD -1
REMARK  1 active torsions:
REMARK  status: ('A' for Active; 'I' for Inactive)
REMARK    1  A    between atoms: C1_2  and  C2_3 
ROOT
ATOM      1  C2  UNL d   1       4.989  -2.839  -5.039  0.00  0.00    -0.081 A 
ATOM      2  C3  UNL d   1       5.999  -1.893  -4.827  0.00  0.00     0.006 A 
ATOM      3  C4  UNL d   1       5.746  -0.741  -4.078  0.00  0.00     0.002 A 
ATOM      4  C5  UNL d   1       4.481  -0.520  -3.522  0.00  0.00    -0.080 A 
ATOM      5  C6  UNL d   1       4.205   0.697  -2.690  0.00  0.00     0.076 C 
ATOM      6  C7  UNL d   1       3.467  -1.457  -3.748  0.00  0.00     0.002 A 
ATOM      7  C8  UNL d   1       3.719  -2.608  -4.497  0.00  0.00     0.006 A 
ENDROOT
BRANCH   1   8
ATOM      8  C1  UNL d   1       5.277  -4.112  -5.791  0.00  0.00     0.054 C 
ATOM      9  C   UNL d   1       5.989  -5.127  -4.909  0.00  0.00     0.018 C 
ENDBRANCH   1   8
TORSDOF 1
ENDMDL
