MODEL 1
REMARK minimizedAffinity 3.45685196
REMARK minimizedRMSD -1
REMARK  2 active torsions:
REMARK  status: ('A' for Active; 'I' for Inactive)
REMARK    1  A    between atoms: C1_2  and  C2_3 
REMARK    2  A    between atoms: C2_3  and  C3_4 
ROOT
ATOM      1  C3  UNL d   1       2.270   4.484   5.768  0.00  0.00    -0.075 A 
ATOM      2  C4  UNL d   1       3.507   5.143   5.815  0.00  0.00     0.002 A 
ATOM      3  C5  UNL d   1       4.693   4.416   5.923  0.00  0.00     0.002 A 
ATOM      4  C6  UNL d   1       4.657   3.025   5.996  0.00  0.00    -0.004 A 
ATOM      5  C7  UNL d   1       3.432   2.361   5.967  0.00  0.00     0.002 A 
ATOM      6  C8  UNL d   1       2.244   3.086   5.854  0.00  0.00     0.002 A 
ENDROOT
BRANCH   1   7
ATOM      7  C2  UNL d   1       0.985   5.264   5.621  0.00  0.00     0.056 C 
BRANCH   7   8
ATOM      8  C1  UNL d   1       0.614   5.587   4.169  0.00  0.00     0.007 C 
ATOM      9  C   UNL d   1      -0.863   5.906   3.984  0.00  0.00     0.009 C 
ENDBRANCH   7   8
ENDBRANCH   1   7
TORSDOF 2
ENDMDL
