MODEL 1
REMARK minimizedAffinity -1.5117228
REMARK minimizedRMSD -1
REMARK  2 active torsions:
REMARK  status: ('A' for Active; 'I' for Inactive)
REMARK    1  A    between atoms: C1_2  and  C2_3 
REMARK    2  A    between atoms: C2_3  and  C3_4 
ROOT
ATOM      1  C3  UNL d   1       2.511   1.809   5.691  0.00  0.00    -0.075 A 
ATOM      2  C4  UNL d   1       3.755   2.265   5.232  0.00  0.00     0.002 A 
ATOM      3  C5  UNL d   1       4.006   3.631   5.106  0.00  0.00     0.002 A 
ATOM      4  C6  UNL d   1       3.016   4.557   5.427  0.00  0.00    -0.004 A 
ATOM      5  C7  UNL d   1       1.771   4.115   5.868  0.00  0.00     0.002 A 
ATOM      6  C8  UNL d   1       1.518   2.749   5.999  0.00  0.00     0.002 A 
ENDROOT
BRANCH   1   7
ATOM      7  C2  UNL d   1       2.243   0.332   5.858  0.00  0.00     0.056 C 
BRANCH   7   8
ATOM      8  C1  UNL d   1       2.305  -0.464   4.550  0.00  0.00     0.007 C 
ATOM      9  C   UNL d   1       1.508  -1.761   4.599  0.00  0.00     0.009 C 
ENDBRANCH   7   8
ENDBRANCH   1   7
TORSDOF 2
ENDMDL
