MODEL 1
REMARK minimizedAffinity 0.485419124
REMARK minimizedRMSD -1
REMARK  2 active torsions:
REMARK  status: ('A' for Active; 'I' for Inactive)
REMARK    1  A    between atoms: C1_2  and  C2_3 
REMARK    2  A    between atoms: C2_3  and  C3_4 
ROOT
ATOM      1  C3  UNL d   1      -0.116  -3.837   4.882  0.00  0.00    -0.075 A 
ATOM      2  C4  UNL d   1      -0.239  -4.640   3.739  0.00  0.00     0.002 A 
ATOM      3  C5  UNL d   1      -1.153  -5.694   3.709  0.00  0.00     0.002 A 
ATOM      4  C6  UNL d   1      -1.946  -5.964   4.821  0.00  0.00    -0.004 A 
ATOM      5  C7  UNL d   1      -1.820  -5.183   5.968  0.00  0.00     0.002 A 
ATOM      6  C8  UNL d   1      -0.910  -4.125   6.000  0.00  0.00     0.002 A 
ENDROOT
BRANCH   1   7
ATOM      7  C2  UNL d   1       0.851  -2.677   4.911  0.00  0.00     0.056 C 
BRANCH   7   8
ATOM      8  C1  UNL d   1       0.778  -1.774   3.675  0.00  0.00     0.007 C 
ATOM      9  C   UNL d   1       1.994  -1.902   2.766  0.00  0.00     0.009 C 
ENDBRANCH   7   8
ENDBRANCH   1   7
TORSDOF 2
ENDMDL
