MODEL 1
REMARK minimizedAffinity -2.32983279
REMARK minimizedRMSD -1
REMARK  1 active torsions:
REMARK  status: ('A' for Active; 'I' for Inactive)
REMARK    1  A    between atoms: C1_2  and  C2_3 
ROOT
ATOM      1  C2  UNL d   1      -0.062   0.368   1.779  0.00  0.00    -0.073 A 
ATOM      2  C3  UNL d   1       1.289   0.309   2.140  0.00  0.00    -0.002 A 
ATOM      3  C4  UNL d   1       2.246  -0.127   1.222  0.00  0.00     0.004 A 
ATOM      4  C5  UNL d   1       1.864  -0.501  -0.066  0.00  0.00    -0.004 A 
ATOM      5  C6  UNL d   1       0.520  -0.438  -0.450  0.00  0.00    -0.075 A 
ATOM      6  C7  UNL d   1       0.092  -0.839  -1.831  0.00  0.00     0.076 C 
ATOM      7  C8  UNL d   1      -0.435  -0.002   0.479  0.00  0.00     0.001 A 
ENDROOT
BRANCH   1   8
ATOM      8  C1  UNL d   1      -1.097   0.844   2.764  0.00  0.00     0.053 C 
ATOM      9  C   UNL d   1      -0.619   2.051   3.556  0.00  0.00     0.018 C 
ENDBRANCH   1   8
TORSDOF 1
ENDMDL
