MODEL 1
REMARK minimizedAffinity 4.38240194
REMARK minimizedRMSD -1
REMARK  1 active torsions:
REMARK  status: ('A' for Active; 'I' for Inactive)
REMARK    1  A    between atoms: C1_2  and  C2_3 
ROOT
ATOM      1  C2  UNL d   1      -0.878  -0.483  -0.535  0.00  0.00    -0.073 A 
ATOM      2  C3  UNL d   1      -2.188  -0.264  -0.976  0.00  0.00    -0.002 A 
ATOM      3  C4  UNL d   1      -3.188   0.085  -0.067  0.00  0.00     0.004 A 
ATOM      4  C5  UNL d   1      -2.888   0.226   1.287  0.00  0.00    -0.004 A 
ATOM      5  C6  UNL d   1      -1.582   0.023   1.745  0.00  0.00    -0.075 A 
ATOM      6  C7  UNL d   1      -1.244   0.168   3.200  0.00  0.00     0.076 C 
ATOM      7  C8  UNL d   1      -0.584  -0.330   0.828  0.00  0.00     0.001 A 
ENDROOT
BRANCH   1   8
ATOM      8  C1  UNL d   1       0.207  -0.854  -1.513  0.00  0.00     0.053 C 
ATOM      9  C   UNL d   1       0.288   0.127  -2.672  0.00  0.00     0.018 C 
ENDBRANCH   1   8
TORSDOF 1
ENDMDL
