MODEL 1
REMARK minimizedAffinity 2.94527578
REMARK minimizedRMSD -1
REMARK  1 active torsions:
REMARK  status: ('A' for Active; 'I' for Inactive)
REMARK    1  A    between atoms: C1_2  and  C2_3 
ROOT
ATOM      1  C2  UNL d   1       0.298  -0.501   0.056  0.00  0.00    -0.073 A 
ATOM      2  C3  UNL d   1       1.077  -1.296   0.904  0.00  0.00    -0.002 A 
ATOM      3  C4  UNL d   1       2.470  -1.245   0.835  0.00  0.00     0.004 A 
ATOM      4  C5  UNL d   1       3.097  -0.396  -0.077  0.00  0.00    -0.004 A 
ATOM      5  C6  UNL d   1       2.336   0.414  -0.925  0.00  0.00    -0.075 A 
ATOM      6  C7  UNL d   1       2.995   1.331  -1.913  0.00  0.00     0.076 C 
ATOM      7  C8  UNL d   1       0.937   0.356  -0.851  0.00  0.00     0.001 A 
ENDROOT
BRANCH   1   8
ATOM      8  C1  UNL d   1      -1.207  -0.547   0.131  0.00  0.00     0.053 C 
ATOM      9  C   UNL d   1      -1.855  -0.194  -1.198  0.00  0.00     0.018 C 
ENDBRANCH   1   8
TORSDOF 1
ENDMDL
