MODEL 1
REMARK minimizedAffinity -4.49755764
REMARK minimizedRMSD -1
REMARK  1 active torsions:
REMARK  status: ('A' for Active; 'I' for Inactive)
REMARK    1  A    between atoms: C1_2  and  C2_3 
ROOT
ATOM      1  C2  UNL d   1       0.498  -0.667   1.725  0.00  0.00    -0.073 A 
ATOM      2  C3  UNL d   1       0.277  -0.312   3.061  0.00  0.00    -0.002 A 
ATOM      3  C4  UNL d   1      -1.011  -0.012   3.506  0.00  0.00     0.004 A 
ATOM      4  C5  UNL d   1      -2.090  -0.071   2.625  0.00  0.00    -0.004 A 
ATOM      5  C6  UNL d   1      -1.891  -0.435   1.290  0.00  0.00    -0.075 A 
ATOM      6  C7  UNL d   1      -3.042  -0.501   0.328  0.00  0.00     0.076 C 
ATOM      7  C8  UNL d   1      -0.595  -0.732   0.849  0.00  0.00     0.001 A 
ENDROOT
BRANCH   1   8
ATOM      8  C1  UNL d   1       1.886  -0.998   1.241  0.00  0.00     0.053 C 
ATOM      9  C   UNL d   1       2.801   0.217   1.260  0.00  0.00     0.018 C 
ENDBRANCH   1   8
TORSDOF 1
ENDMDL
