MODEL 1
REMARK minimizedAffinity -1.14046299
REMARK minimizedRMSD -1
REMARK  1 active torsions:
REMARK  status: ('A' for Active; 'I' for Inactive)
REMARK    1  A    between atoms: C1_2  and  C2_3 
ROOT
ATOM      1  C2  UNL d   1       2.080   0.511   0.216  0.00  0.00    -0.073 A 
ATOM      2  C3  UNL d   1       2.147   1.757   0.851  0.00  0.00    -0.002 A 
ATOM      3  C4  UNL d   1       2.975   2.761   0.347  0.00  0.00     0.004 A 
ATOM      4  C5  UNL d   1       3.737   2.533  -0.799  0.00  0.00    -0.004 A 
ATOM      5  C6  UNL d   1       3.675   1.299  -1.454  0.00  0.00    -0.075 A 
ATOM      6  C7  UNL d   1       4.491   1.038  -2.686  0.00  0.00     0.076 C 
ATOM      7  C8  UNL d   1       2.844   0.295  -0.940  0.00  0.00     0.001 A 
ENDROOT
BRANCH   1   8
ATOM      8  C1  UNL d   1       1.183  -0.574   0.753  0.00  0.00     0.053 C 
ATOM      9  C   UNL d   1      -0.236  -0.456   0.221  0.00  0.00     0.018 C 
ENDBRANCH   1   8
TORSDOF 1
ENDMDL
