MODEL 1
REMARK minimizedAffinity -3.65129185
REMARK minimizedRMSD -1
REMARK  1 active torsions:
REMARK  status: ('A' for Active; 'I' for Inactive)
REMARK    1  A    between atoms: C1_2  and  C2_3 
ROOT
ATOM      1  C2  UNL d   1      -1.142   0.653   0.351  0.00  0.00    -0.073 A 
ATOM      2  C3  UNL d   1      -2.338   0.858   1.047  0.00  0.00    -0.002 A 
ATOM      3  C4  UNL d   1      -2.482   0.391   2.355  0.00  0.00     0.004 A 
ATOM      4  C5  UNL d   1      -1.431  -0.278   2.981  0.00  0.00    -0.004 A 
ATOM      5  C6  UNL d   1      -0.223  -0.483   2.306  0.00  0.00    -0.075 A 
ATOM      6  C7  UNL d   1       0.917  -1.203   2.964  0.00  0.00     0.076 C 
ATOM      7  C8  UNL d   1      -0.087  -0.014   0.992  0.00  0.00     0.001 A 
ENDROOT
BRANCH   1   8
ATOM      8  C1  UNL d   1      -0.979   1.160  -1.058  0.00  0.00     0.053 C 
ATOM      9  C   UNL d   1       0.083   0.387  -1.824  0.00  0.00     0.018 C 
ENDBRANCH   1   8
TORSDOF 1
ENDMDL
