MODEL 1
REMARK minimizedAffinity -2.3580842
REMARK minimizedRMSD -1
REMARK  1 active torsions:
REMARK  status: ('A' for Active; 'I' for Inactive)
REMARK    1  A    between atoms: C1_2  and  C2_3 
ROOT
ATOM      1  C2  UNL d   1      -0.586  -0.527   3.064  0.00  0.00    -0.073 A 
ATOM      2  C3  UNL d   1      -1.826  -0.074   2.600  0.00  0.00    -0.002 A 
ATOM      3  C4  UNL d   1      -2.021   0.181   1.242  0.00  0.00     0.004 A 
ATOM      4  C5  UNL d   1      -0.982  -0.021   0.334  0.00  0.00    -0.004 A 
ATOM      5  C6  UNL d   1       0.261  -0.485   0.776  0.00  0.00    -0.075 A 
ATOM      6  C7  UNL d   1       1.390  -0.705  -0.188  0.00  0.00     0.076 C 
ATOM      7  C8  UNL d   1       0.450  -0.736   2.142  0.00  0.00     0.001 A 
ENDROOT
BRANCH   1   8
ATOM      8  C1  UNL d   1      -0.372  -0.810   4.528  0.00  0.00     0.053 C 
ATOM      9  C   UNL d   1       0.879  -1.639   4.773  0.00  0.00     0.018 C 
ENDBRANCH   1   8
TORSDOF 1
ENDMDL
