MODEL 1
REMARK minimizedAffinity 2.49082685
REMARK minimizedRMSD -1
REMARK  1 active torsions:
REMARK  status: ('A' for Active; 'I' for Inactive)
REMARK    1  A    between atoms: C1_2  and  C2_3 
ROOT
ATOM      1  C2  UNL d   1       3.651   0.690  -2.637  0.00  0.00    -0.073 A 
ATOM      2  C3  UNL d   1       4.846  -0.020  -2.473  0.00  0.00    -0.002 A 
ATOM      3  C4  UNL d   1       5.317  -0.321  -1.195  0.00  0.00     0.004 A 
ATOM      4  C5  UNL d   1       4.597   0.078  -0.069  0.00  0.00    -0.004 A 
ATOM      5  C6  UNL d   1       3.394   0.778  -0.213  0.00  0.00    -0.075 A 
ATOM      6  C7  UNL d   1       2.608   1.216   0.988  0.00  0.00     0.076 C 
ATOM      7  C8  UNL d   1       2.929   1.078  -1.500  0.00  0.00     0.001 A 
ENDROOT
BRANCH   1   8
ATOM      8  C1  UNL d   1       3.135   1.011  -4.016  0.00  0.00     0.053 C 
ATOM      9  C   UNL d   1       1.616   1.020  -4.069  0.00  0.00     0.018 C 
ENDBRANCH   1   8
TORSDOF 1
ENDMDL
