MODEL 1
REMARK minimizedAffinity -1.21326065
REMARK minimizedRMSD -1
REMARK  1 active torsions:
REMARK  status: ('A' for Active; 'I' for Inactive)
REMARK    1  A    between atoms: C1_2  and  C2_3 
ROOT
ATOM      1  C2  UNL d   1      -0.769  -0.197   2.784  0.00  0.00    -0.073 A 
ATOM      2  C3  UNL d   1       0.349  -0.518   2.005  0.00  0.00    -0.002 A 
ATOM      3  C4  UNL d   1       0.229  -0.654   0.621  0.00  0.00     0.004 A 
ATOM      4  C5  UNL d   1      -1.007  -0.465   0.002  0.00  0.00    -0.004 A 
ATOM      5  C6  UNL d   1      -2.133  -0.132   0.762  0.00  0.00    -0.075 A 
ATOM      6  C7  UNL d   1      -3.469   0.073   0.111  0.00  0.00     0.076 C 
ATOM      7  C8  UNL d   1      -2.005   0.000   2.151  0.00  0.00     0.001 A 
ENDROOT
BRANCH   1   8
ATOM      8  C1  UNL d   1      -0.643  -0.042   4.277  0.00  0.00     0.053 C 
ATOM      9  C   UNL d   1       0.239  -1.119   4.889  0.00  0.00     0.018 C 
ENDBRANCH   1   8
TORSDOF 1
ENDMDL
