MODEL 1
REMARK minimizedAffinity -4.6635499
REMARK minimizedRMSD -1
REMARK  1 active torsions:
REMARK  status: ('A' for Active; 'I' for Inactive)
REMARK    1  A    between atoms: C3_4  and  O_7 
ROOT
ATOM      1  C   UNL d   1       1.843   2.524   1.577  0.00  0.00    -0.033 A 
ATOM      2  C1  UNL d   1       2.678   1.869   0.671  0.00  0.00     0.039 A 
ATOM      3  C2  UNL d   1       2.168   0.855  -0.143  0.00  0.00    -0.080 A 
ATOM      4  C3  UNL d   1       0.823   0.509  -0.042  0.00  0.00     0.150 A 
ATOM      5  C4  UNL d   1      -0.015   1.161   0.857  0.00  0.00    -0.007 A 
ATOM      6  C5  UNL d   1       0.496   2.172   1.669  0.00  0.00     0.039 A 
ENDROOT
BRANCH   4   7
ATOM      7  O   UNL d   1       0.281  -0.477  -0.812  0.00  0.00    -0.526 OA
ATOM      8  H5  UNL d   1       0.985  -0.858  -1.365  0.00  0.00     0.418 HD
ENDBRANCH   4   7
TORSDOF 1
ENDMDL
