MODEL 1
REMARK minimizedAffinity -3.80422711
REMARK minimizedRMSD -1
REMARK  1 active torsions:
REMARK  status: ('A' for Active; 'I' for Inactive)
REMARK    1  A    between atoms: C3_4  and  O_7 
ROOT
ATOM      1  C   UNL d   1       1.566   3.042   1.983  0.00  0.00    -0.033 A 
ATOM      2  C1  UNL d   1       0.190   3.101   1.749  0.00  0.00     0.039 A 
ATOM      3  C2  UNL d   1      -0.457   2.041   1.110  0.00  0.00    -0.080 A 
ATOM      4  C3  UNL d   1       0.282   0.930   0.711  0.00  0.00     0.150 A 
ATOM      5  C4  UNL d   1       1.651   0.864   0.945  0.00  0.00    -0.007 A 
ATOM      6  C5  UNL d   1       2.296   1.923   1.582  0.00  0.00     0.039 A 
ENDROOT
BRANCH   4   7
ATOM      7  O   UNL d   1      -0.305  -0.126   0.080  0.00  0.00    -0.526 OA
ATOM      8  H5  UNL d   1      -1.249   0.072  -0.039  0.00  0.00     0.418 HD
ENDBRANCH   4   7
TORSDOF 1
ENDMDL
