MODEL 1
REMARK minimizedAffinity -4.71404362
REMARK minimizedRMSD -1
REMARK  1 active torsions:
REMARK  status: ('A' for Active; 'I' for Inactive)
REMARK    1  A    between atoms: C3_4  and  O_7 
ROOT
ATOM      1  C   UNL d   1       2.098   2.755   1.051  0.00  0.00    -0.033 A 
ATOM      2  C1  UNL d   1       2.848   1.940   0.202  0.00  0.00     0.039 A 
ATOM      3  C2  UNL d   1       2.346   0.703  -0.207  0.00  0.00    -0.080 A 
ATOM      4  C3  UNL d   1       1.092   0.294   0.240  0.00  0.00     0.150 A 
ATOM      5  C4  UNL d   1       0.337   1.103   1.083  0.00  0.00    -0.007 A 
ATOM      6  C5  UNL d   1       0.841   2.337   1.491  0.00  0.00     0.039 A 
ENDROOT
BRANCH   4   7
ATOM      7  O   UNL d   1       0.562  -0.907  -0.127  0.00  0.00    -0.526 OA
ATOM      8  H5  UNL d   1       1.207  -1.370  -0.687  0.00  0.00     0.418 HD
ENDBRANCH   4   7
TORSDOF 1
ENDMDL
