MODEL 1
REMARK minimizedAffinity -1.85991907
REMARK minimizedRMSD -1
REMARK  1 active torsions:
REMARK  status: ('A' for Active; 'I' for Inactive)
REMARK    1  A    between atoms: C3_4  and  O_7 
ROOT
ATOM      1  C   UNL d   1      -0.950  -0.303   0.377  0.00  0.00    -0.033 A 
ATOM      2  C1  UNL d   1      -1.169   0.277   1.628  0.00  0.00     0.039 A 
ATOM      3  C2  UNL d   1      -0.432   1.397   2.018  0.00  0.00    -0.080 A 
ATOM      4  C3  UNL d   1       0.518   1.927   1.150  0.00  0.00     0.150 A 
ATOM      5  C4  UNL d   1       0.738   1.356  -0.100  0.00  0.00    -0.007 A 
ATOM      6  C5  UNL d   1       0.002   0.237  -0.487  0.00  0.00     0.039 A 
ENDROOT
BRANCH   4   7
ATOM      7  O   UNL d   1       1.265   3.016   1.488  0.00  0.00    -0.526 OA
ATOM      8  H5  UNL d   1       1.024   3.285   2.391  0.00  0.00     0.418 HD
ENDBRANCH   4   7
TORSDOF 1
ENDMDL
