MODEL 1
REMARK minimizedAffinity -4.76153612
REMARK minimizedRMSD -1
REMARK  1 active torsions:
REMARK  status: ('A' for Active; 'I' for Inactive)
REMARK    1  A    between atoms: C3_4  and  O_7 
ROOT
ATOM      1  C   UNL d   1       1.863   2.426   1.312  0.00  0.00    -0.033 A 
ATOM      2  C1  UNL d   1       0.479   2.321   1.461  0.00  0.00     0.039 A 
ATOM      3  C2  UNL d   1      -0.208   1.251   0.885  0.00  0.00    -0.080 A 
ATOM      4  C3  UNL d   1       0.500   0.292   0.165  0.00  0.00     0.150 A 
ATOM      5  C4  UNL d   1       1.880   0.388   0.016  0.00  0.00    -0.007 A 
ATOM      6  C5  UNL d   1       2.564   1.458   0.590  0.00  0.00     0.039 A 
ENDROOT
BRANCH   4   7
ATOM      7  O   UNL d   1      -0.128  -0.768  -0.419  0.00  0.00    -0.526 OA
ATOM      8  H5  UNL d   1      -1.082  -0.687  -0.257  0.00  0.00     0.418 HD
ENDBRANCH   4   7
TORSDOF 1
ENDMDL
