MODEL 1
REMARK minimizedAffinity -3.32545066
REMARK minimizedRMSD -1
REMARK  1 active torsions:
REMARK  status: ('A' for Active; 'I' for Inactive)
REMARK    1  A    between atoms: C3_4  and  O_7 
ROOT
ATOM      1  C   UNL d   1       3.652   2.331   0.487  0.00  0.00    -0.033 A 
ATOM      2  C1  UNL d   1       3.830   1.198  -0.309  0.00  0.00     0.039 A 
ATOM      3  C2  UNL d   1       2.727   0.440  -0.705  0.00  0.00    -0.080 A 
ATOM      4  C3  UNL d   1       1.452   0.825  -0.300  0.00  0.00     0.150 A 
ATOM      5  C4  UNL d   1       1.266   1.955   0.491  0.00  0.00    -0.007 A 
ATOM      6  C5  UNL d   1       2.370   2.710   0.886  0.00  0.00     0.039 A 
ENDROOT
BRANCH   4   7
ATOM      7  O   UNL d   1       0.345   0.114  -0.657  0.00  0.00    -0.526 OA
ATOM      8  H5  UNL d   1       0.629  -0.656  -1.178  0.00  0.00     0.418 HD
ENDBRANCH   4   7
TORSDOF 1
ENDMDL
