MODEL 1
REMARK minimizedAffinity -5.00595093
REMARK minimizedRMSD -1
REMARK  1 active torsions:
REMARK  status: ('A' for Active; 'I' for Inactive)
REMARK    1  A    between atoms: C3_4  and  O_7 
ROOT
ATOM      1  C   UNL d   1       1.939   2.656   1.259  0.00  0.00    -0.033 A 
ATOM      2  C1  UNL d   1       2.608   1.600   0.637  0.00  0.00     0.039 A 
ATOM      3  C2  UNL d   1       1.883   0.562   0.048  0.00  0.00    -0.080 A 
ATOM      4  C3  UNL d   1       0.492   0.593   0.086  0.00  0.00     0.150 A 
ATOM      5  C4  UNL d   1      -0.181   1.644   0.700  0.00  0.00    -0.007 A 
ATOM      6  C5  UNL d   1       0.544   2.679   1.289  0.00  0.00     0.039 A 
ENDROOT
BRANCH   4   7
ATOM      7  O   UNL d   1      -0.259  -0.400  -0.471  0.00  0.00    -0.526 OA
ATOM      8  H5  UNL d   1       0.341  -1.073  -0.833  0.00  0.00     0.418 HD
ENDBRANCH   4   7
TORSDOF 1
ENDMDL
