MODEL 1
REMARK minimizedAffinity -4.23547935
REMARK minimizedRMSD -1
REMARK  1 active torsions:
REMARK  status: ('A' for Active; 'I' for Inactive)
REMARK    1  A    between atoms: C3_4  and  O_7 
ROOT
ATOM      1  C   UNL d   1      -0.751  -0.062   0.820  0.00  0.00    -0.033 A 
ATOM      2  C1  UNL d   1      -0.466   0.281   2.143  0.00  0.00     0.039 A 
ATOM      3  C2  UNL d   1       0.422   1.322   2.421  0.00  0.00    -0.080 A 
ATOM      4  C3  UNL d   1       1.018   2.011   1.368  0.00  0.00     0.150 A 
ATOM      5  C4  UNL d   1       0.736   1.676   0.047  0.00  0.00    -0.007 A 
ATOM      6  C5  UNL d   1      -0.151   0.636  -0.228  0.00  0.00     0.039 A 
ENDROOT
BRANCH   4   7
ATOM      7  O   UNL d   1       1.895   3.030   1.589  0.00  0.00    -0.526 OA
ATOM      8  H5  UNL d   1       2.016   3.130   2.548  0.00  0.00     0.418 HD
ENDBRANCH   4   7
TORSDOF 1
ENDMDL
