MODEL 1
REMARK minimizedAffinity -2.9746027
REMARK minimizedRMSD -1
REMARK  1 active torsions:
REMARK  status: ('A' for Active; 'I' for Inactive)
REMARK    1  A    between atoms: C3_4  and  O_7 
ROOT
ATOM      1  C   UNL d   1      -0.915  -0.860   0.104  0.00  0.00    -0.033 A 
ATOM      2  C1  UNL d   1      -1.587  -0.088   1.055  0.00  0.00     0.039 A 
ATOM      3  C2  UNL d   1      -1.063   1.143   1.454  0.00  0.00    -0.080 A 
ATOM      4  C3  UNL d   1       0.130   1.591   0.895  0.00  0.00     0.150 A 
ATOM      5  C4  UNL d   1       0.803   0.830  -0.056  0.00  0.00    -0.007 A 
ATOM      6  C5  UNL d   1       0.279  -0.400  -0.452  0.00  0.00     0.039 A 
ENDROOT
BRANCH   4   7
ATOM      7  O   UNL d   1       0.683   2.784   1.256  0.00  0.00    -0.526 OA
ATOM      8  H5  UNL d   1       0.124   3.187   1.942  0.00  0.00     0.418 HD
ENDBRANCH   4   7
TORSDOF 1
ENDMDL
