MODEL 1
REMARK minimizedAffinity -3.81966043
REMARK minimizedRMSD -1
REMARK  1 active torsions:
REMARK  status: ('A' for Active; 'I' for Inactive)
REMARK    1  A    between atoms: C3_4  and  O_7 
ROOT
ATOM      1  C   UNL d   1       0.696   2.438   1.559  0.00  0.00    -0.033 A 
ATOM      2  C1  UNL d   1       0.177   1.403   0.779  0.00  0.00     0.039 A 
ATOM      3  C2  UNL d   1       1.035   0.583   0.043  0.00  0.00    -0.080 A 
ATOM      4  C3  UNL d   1       2.408   0.808   0.097  0.00  0.00     0.150 A 
ATOM      5  C4  UNL d   1       2.932   1.835   0.875  0.00  0.00    -0.007 A 
ATOM      6  C5  UNL d   1       2.073   2.653   1.608  0.00  0.00     0.039 A 
ENDROOT
BRANCH   4   7
ATOM      7  O   UNL d   1       3.284   0.037  -0.607  0.00  0.00    -0.526 OA
ATOM      8  H5  UNL d   1       2.777  -0.613  -1.121  0.00  0.00     0.418 HD
ENDBRANCH   4   7
TORSDOF 1
ENDMDL
