MODEL 1
REMARK minimizedAffinity -4.03832483
REMARK minimizedRMSD -1
REMARK  1 active torsions:
REMARK  status: ('A' for Active; 'I' for Inactive)
REMARK    1  A    between atoms: C3_4  and  O_7 
ROOT
ATOM      1  C   UNL d   1       0.945   2.074   1.332  0.00  0.00    -0.033 A 
ATOM      2  C1  UNL d   1       1.478   1.538   0.159  0.00  0.00     0.039 A 
ATOM      3  C2  UNL d   1       0.881   0.424  -0.436  0.00  0.00    -0.080 A 
ATOM      4  C3  UNL d   1      -0.247  -0.141   0.151  0.00  0.00     0.150 A 
ATOM      5  C4  UNL d   1      -0.786   0.391   1.318  0.00  0.00    -0.007 A 
ATOM      6  C5  UNL d   1      -0.188   1.502   1.911  0.00  0.00     0.039 A 
ENDROOT
BRANCH   4   7
ATOM      7  O   UNL d   1      -0.861  -1.231  -0.390  0.00  0.00    -0.526 OA
ATOM      8  H5  UNL d   1      -0.363  -1.507  -1.177  0.00  0.00     0.418 HD
ENDBRANCH   4   7
TORSDOF 1
ENDMDL
