MODEL 1
REMARK minimizedAffinity -5.11106348
REMARK minimizedRMSD -1
REMARK  1 active torsions:
REMARK  status: ('A' for Active; 'I' for Inactive)
REMARK    1  A    between atoms: C3_4  and  O_7 
ROOT
ATOM      1  C   UNL d   1      -0.778  -0.774   0.929  0.00  0.00    -0.033 A 
ATOM      2  C1  UNL d   1      -1.311   0.119   1.861  0.00  0.00     0.039 A 
ATOM      3  C2  UNL d   1      -0.915   1.458   1.853  0.00  0.00    -0.080 A 
ATOM      4  C3  UNL d   1       0.012   1.891   0.909  0.00  0.00     0.150 A 
ATOM      5  C4  UNL d   1       0.544   1.007  -0.025  0.00  0.00    -0.007 A 
ATOM      6  C5  UNL d   1       0.148  -0.329  -0.014  0.00  0.00     0.039 A 
ENDROOT
BRANCH   4   7
ATOM      7  O   UNL d   1       0.432   3.187   0.865  0.00  0.00    -0.526 OA
ATOM      8  H5  UNL d   1       0.002   3.674   1.587  0.00  0.00     0.418 HD
ENDBRANCH   4   7
TORSDOF 1
ENDMDL
