MODEL 1
REMARK minimizedAffinity -4.11509037
REMARK minimizedRMSD -1
REMARK  1 active torsions:
REMARK  status: ('A' for Active; 'I' for Inactive)
REMARK    1  A    between atoms: C3_4  and  O_7 
ROOT
ATOM      1  C   UNL d   1       1.481   2.451   1.442  0.00  0.00    -0.033 A 
ATOM      2  C1  UNL d   1       2.023   1.956   0.254  0.00  0.00     0.039 A 
ATOM      3  C2  UNL d   1       1.410   0.886  -0.402  0.00  0.00    -0.080 A 
ATOM      4  C3  UNL d   1       0.257   0.323   0.139  0.00  0.00     0.150 A 
ATOM      5  C4  UNL d   1      -0.290   0.814   1.320  0.00  0.00    -0.007 A 
ATOM      6  C5  UNL d   1       0.325   1.881   1.974  0.00  0.00     0.039 A 
ENDROOT
BRANCH   4   7
ATOM      7  O   UNL d   1      -0.374  -0.725  -0.463  0.00  0.00    -0.526 OA
ATOM      8  H5  UNL d   1       0.133  -0.976  -1.254  0.00  0.00     0.418 HD
ENDBRANCH   4   7
TORSDOF 1
ENDMDL
