MODEL 1
REMARK minimizedAffinity -1.26057768
REMARK minimizedRMSD -1
REMARK  1 active torsions:
REMARK  status: ('A' for Active; 'I' for Inactive)
REMARK    1  A    between atoms: C3_4  and  O_7 
ROOT
ATOM      1  C   UNL d   1       1.334   2.518   1.635  0.00  0.00    -0.033 A 
ATOM      2  C1  UNL d   1       1.152   2.641   3.014  0.00  0.00     0.039 A 
ATOM      3  C2  UNL d   1       1.936   1.891   3.893  0.00  0.00    -0.080 A 
ATOM      4  C3  UNL d   1       2.897   1.024   3.382  0.00  0.00     0.150 A 
ATOM      5  C4  UNL d   1       3.086   0.899   2.009  0.00  0.00    -0.007 A 
ATOM      6  C5  UNL d   1       2.302   1.648   1.133  0.00  0.00     0.039 A 
ENDROOT
BRANCH   4   7
ATOM      7  O   UNL d   1       3.682   0.268   4.200  0.00  0.00    -0.526 OA
ATOM      8  H5  UNL d   1       3.420   0.437   5.120  0.00  0.00     0.418 HD
ENDBRANCH   4   7
TORSDOF 1
ENDMDL
