MODEL 1
REMARK minimizedAffinity 8.36258221
REMARK minimizedRMSD -1
REMARK  0 active torsions:
REMARK  status: ('A' for Active; 'I' for Inactive)
ROOT
ATOM      1  C   UNL d   1       3.117  -5.998  -1.129  0.00  0.00     0.077 C 
ATOM      2  C1  UNL d   1       3.950  -4.893  -1.708  0.00  0.00    -0.074 A 
ATOM      3  C2  UNL d   1       4.110  -4.764  -3.092  0.00  0.00    -0.005 A 
ATOM      4  C3  UNL d   1       4.880  -3.726  -3.617  0.00  0.00     0.006 A 
ATOM      5  C4  UNL d   1       5.497  -2.809  -2.765  0.00  0.00    -0.005 A 
ATOM      6  C5  UNL d   1       5.348  -2.922  -1.379  0.00  0.00    -0.074 A 
ATOM      7  C6  UNL d   1       5.997  -1.940  -0.450  0.00  0.00     0.077 C 
ATOM      8  C7  UNL d   1       4.567  -3.964  -0.860  0.00  0.00    -0.001 A 
ENDROOT
TORSDOF 0
ENDMDL
