MODEL 1
REMARK minimizedAffinity 10.8428431
REMARK minimizedRMSD -1
REMARK  0 active torsions:
REMARK  status: ('A' for Active; 'I' for Inactive)
ROOT
ATOM      1  C   UNL d   1       1.513  -1.318   4.661  0.00  0.00     0.077 C 
ATOM      2  C1  UNL d   1       1.018  -0.212   3.777  0.00  0.00    -0.074 A 
ATOM      3  C2  UNL d   1       1.896   0.493   2.947  0.00  0.00    -0.005 A 
ATOM      4  C3  UNL d   1       1.420   1.513   2.124  0.00  0.00     0.006 A 
ATOM      5  C4  UNL d   1       0.063   1.838   2.122  0.00  0.00    -0.005 A 
ATOM      6  C5  UNL d   1      -0.830   1.144   2.945  0.00  0.00    -0.074 A 
ATOM      7  C6  UNL d   1      -2.293   1.475   2.947  0.00  0.00     0.077 C 
ATOM      8  C7  UNL d   1      -0.345   0.116   3.764  0.00  0.00    -0.001 A 
ENDROOT
TORSDOF 0
ENDMDL
