MODEL 1
REMARK minimizedAffinity 7.65511036
REMARK minimizedRMSD -1
REMARK  0 active torsions:
REMARK  status: ('A' for Active; 'I' for Inactive)
ROOT
ATOM      1  C   UNL d   1       5.334  -5.551   0.257  0.00  0.00     0.077 C 
ATOM      2  C1  UNL d   1       5.177  -4.244  -0.463  0.00  0.00    -0.074 A 
ATOM      3  C2  UNL d   1       4.904  -3.065   0.239  0.00  0.00    -0.005 A 
ATOM      4  C3  UNL d   1       4.770  -1.856  -0.443  0.00  0.00     0.006 A 
ATOM      5  C4  UNL d   1       4.908  -1.813  -1.831  0.00  0.00    -0.005 A 
ATOM      6  C5  UNL d   1       5.181  -2.981  -2.550  0.00  0.00    -0.074 A 
ATOM      7  C6  UNL d   1       5.341  -2.951  -4.041  0.00  0.00     0.077 C 
ATOM      8  C7  UNL d   1       5.321  -4.191  -1.856  0.00  0.00    -0.001 A 
ENDROOT
TORSDOF 0
ENDMDL
