MODEL 1
REMARK minimizedAffinity 4.6243453
REMARK minimizedRMSD -1
REMARK  0 active torsions:
REMARK  status: ('A' for Active; 'I' for Inactive)
ROOT
ATOM      1  C   UNL d   1       1.710  -0.429   3.206  0.00  0.00     0.077 C 
ATOM      2  C1  UNL d   1       0.784   0.659   2.751  0.00  0.00    -0.074 A 
ATOM      3  C2  UNL d   1      -0.484   0.811   3.322  0.00  0.00    -0.005 A 
ATOM      4  C3  UNL d   1      -1.330   1.833   2.895  0.00  0.00     0.006 A 
ATOM      5  C4  UNL d   1      -0.919   2.714   1.894  0.00  0.00    -0.005 A 
ATOM      6  C5  UNL d   1       0.345   2.578   1.311  0.00  0.00    -0.074 A 
ATOM      7  C6  UNL d   1       0.807   3.522   0.240  0.00  0.00     0.077 C 
ATOM      8  C7  UNL d   1       1.193   1.552   1.751  0.00  0.00    -0.001 A 
ENDROOT
TORSDOF 0
ENDMDL
