MODEL 1
REMARK minimizedAffinity 4.65068245
REMARK minimizedRMSD -1
REMARK  0 active torsions:
REMARK  status: ('A' for Active; 'I' for Inactive)
ROOT
ATOM      1  C   UNL d   1       1.607   1.132   3.112  0.00  0.00     0.077 C 
ATOM      2  C1  UNL d   1       0.633   1.895   2.263  0.00  0.00    -0.074 A 
ATOM      3  C2  UNL d   1      -0.731   1.586   2.280  0.00  0.00    -0.005 A 
ATOM      4  C3  UNL d   1      -1.625   2.311   1.493  0.00  0.00     0.006 A 
ATOM      5  C4  UNL d   1      -1.166   3.350   0.682  0.00  0.00    -0.005 A 
ATOM      6  C5  UNL d   1       0.194   3.674   0.654  0.00  0.00    -0.074 A 
ATOM      7  C6  UNL d   1       0.703   4.794  -0.204  0.00  0.00     0.077 C 
ATOM      8  C7  UNL d   1       1.086   2.945   1.453  0.00  0.00    -0.001 A 
ENDROOT
TORSDOF 0
ENDMDL
