MODEL 1
REMARK minimizedAffinity 10.3357134
REMARK minimizedRMSD -1
REMARK  0 active torsions:
REMARK  status: ('A' for Active; 'I' for Inactive)
ROOT
ATOM      1  C   UNL d   1       0.009   3.340   0.166  0.00  0.00     0.077 C 
ATOM      2  C1  UNL d   1       1.128   3.187   1.152  0.00  0.00    -0.074 A 
ATOM      3  C2  UNL d   1       2.162   4.126   1.218  0.00  0.00    -0.005 A 
ATOM      4  C3  UNL d   1       3.191   3.976   2.147  0.00  0.00     0.006 A 
ATOM      5  C4  UNL d   1       3.197   2.886   3.019  0.00  0.00    -0.005 A 
ATOM      6  C5  UNL d   1       2.171   1.937   2.969  0.00  0.00    -0.074 A 
ATOM      7  C6  UNL d   1       2.157   0.766   3.905  0.00  0.00     0.077 C 
ATOM      8  C7  UNL d   1       1.137   2.099   2.037  0.00  0.00    -0.001 A 
ENDROOT
TORSDOF 0
ENDMDL
