MODEL 1
REMARK minimizedAffinity 10.7272348
REMARK minimizedRMSD -1
REMARK  0 active torsions:
REMARK  status: ('A' for Active; 'I' for Inactive)
ROOT
ATOM      1  C   UNL d   1       5.775  -1.602  -1.081  0.00  0.00     0.077 C 
ATOM      2  C1  UNL d   1       4.358  -1.772  -0.620  0.00  0.00    -0.074 A 
ATOM      3  C2  UNL d   1       3.996  -2.837   0.211  0.00  0.00    -0.005 A 
ATOM      4  C3  UNL d   1       2.676  -2.977   0.640  0.00  0.00     0.006 A 
ATOM      5  C4  UNL d   1       1.707  -2.055   0.243  0.00  0.00    -0.005 A 
ATOM      6  C5  UNL d   1       2.051  -0.983  -0.586  0.00  0.00    -0.074 A 
ATOM      7  C6  UNL d   1       1.023   0.022  -1.014  0.00  0.00     0.077 C 
ATOM      8  C7  UNL d   1       3.380  -0.846  -1.008  0.00  0.00    -0.001 A 
ENDROOT
TORSDOF 0
ENDMDL
