MODEL 1
REMARK minimizedAffinity 10.5997677
REMARK minimizedRMSD -1
REMARK  0 active torsions:
REMARK  status: ('A' for Active; 'I' for Inactive)
ROOT
ATOM      1  C   UNL d   1       0.535   2.989   1.427  0.00  0.00     0.077 C 
ATOM      2  C1  UNL d   1       1.471   2.424   2.453  0.00  0.00    -0.074 A 
ATOM      3  C2  UNL d   1       2.708   3.025   2.706  0.00  0.00    -0.005 A 
ATOM      4  C3  UNL d   1       3.564   2.493   3.671  0.00  0.00     0.006 A 
ATOM      5  C4  UNL d   1       3.193   1.356   4.390  0.00  0.00    -0.005 A 
ATOM      6  C5  UNL d   1       1.959   0.742   4.151  0.00  0.00    -0.074 A 
ATOM      7  C6  UNL d   1       1.540  -0.474   4.922  0.00  0.00     0.077 C 
ATOM      8  C7  UNL d   1       1.102   1.287   3.185  0.00  0.00    -0.001 A 
ENDROOT
TORSDOF 0
ENDMDL
