MODEL 1
REMARK minimizedAffinity -4.0079813
REMARK minimizedRMSD -1
REMARK  1 active torsions:
REMARK  status: ('A' for Active; 'I' for Inactive)
REMARK    1  A    between atoms: C1_2  and  C2_3 
ROOT
ATOM      1  C2  UNL d   1      -0.407  -1.240  -0.569  0.00  0.00    -0.081 A 
ATOM      2  C3  UNL d   1       0.264  -0.238  -1.281  0.00  0.00     0.006 A 
ATOM      3  C4  UNL d   1       0.326   1.065  -0.782  0.00  0.00     0.002 A 
ATOM      4  C5  UNL d   1      -0.273   1.386   0.441  0.00  0.00    -0.080 A 
ATOM      5  C6  UNL d   1      -0.187   2.774   1.002  0.00  0.00     0.076 C 
ATOM      6  C7  UNL d   1      -0.958   0.390   1.144  0.00  0.00     0.002 A 
ATOM      7  C8  UNL d   1      -1.021  -0.913   0.645  0.00  0.00     0.006 A 
ENDROOT
BRANCH   1   8
ATOM      8  C1  UNL d   1      -0.420  -2.660  -1.073  0.00  0.00     0.054 C 
ATOM      9  C   UNL d   1       0.038  -2.737  -2.522  0.00  0.00     0.018 C 
ENDBRANCH   1   8
TORSDOF 1
ENDMDL
