MODEL 1
REMARK minimizedAffinity -2.3468473
REMARK minimizedRMSD -1
REMARK  1 active torsions:
REMARK  status: ('A' for Active; 'I' for Inactive)
REMARK    1  A    between atoms: C1_2  and  C2_3 
ROOT
ATOM      1  C2  UNL d   1      -0.693  -0.874   0.226  0.00  0.00    -0.081 A 
ATOM      2  C3  UNL d   1      -1.600   0.114   0.630  0.00  0.00     0.006 A 
ATOM      3  C4  UNL d   1      -1.245   1.464   0.577  0.00  0.00     0.002 A 
ATOM      4  C5  UNL d   1       0.017   1.849   0.113  0.00  0.00    -0.080 A 
ATOM      5  C6  UNL d   1       0.399   3.297   0.023  0.00  0.00     0.076 C 
ATOM      6  C7  UNL d   1       0.929   0.861  -0.273  0.00  0.00     0.002 A 
ATOM      7  C8  UNL d   1       0.576  -0.489  -0.220  0.00  0.00     0.006 A 
ENDROOT
BRANCH   1   8
ATOM      8  C1  UNL d   1      -1.095  -2.327   0.221  0.00  0.00     0.054 C 
ATOM      9  C   UNL d   1      -1.064  -2.904  -1.187  0.00  0.00     0.018 C 
ENDBRANCH   1   8
TORSDOF 1
ENDMDL
