MODEL 1
REMARK minimizedAffinity -5.38938904
REMARK minimizedRMSD -1
REMARK  1 active torsions:
REMARK  status: ('A' for Active; 'I' for Inactive)
REMARK    1  A    between atoms: C1_2  and  C2_3 
ROOT
ATOM      1  C2  UNL d   1       0.151  -0.004   0.134  0.00  0.00    -0.081 A 
ATOM      2  C3  UNL d   1       1.517   0.301   0.120  0.00  0.00     0.006 A 
ATOM      3  C4  UNL d   1       1.947   1.629   0.075  0.00  0.00     0.002 A 
ATOM      4  C5  UNL d   1       1.018   2.675   0.051  0.00  0.00    -0.080 A 
ATOM      5  C6  UNL d   1       1.465   4.106   0.033  0.00  0.00     0.076 C 
ATOM      6  C7  UNL d   1      -0.348   2.371   0.047  0.00  0.00     0.002 A 
ATOM      7  C8  UNL d   1      -0.778   1.043   0.092  0.00  0.00     0.006 A 
ENDROOT
BRANCH   1   8
ATOM      8  C1  UNL d   1      -0.315  -1.433   0.249  0.00  0.00     0.054 C 
ATOM      9  C   UNL d   1      -0.267  -2.140  -1.098  0.00  0.00     0.018 C 
ENDBRANCH   1   8
TORSDOF 1
ENDMDL
