MODEL 1
REMARK minimizedAffinity -2.21206689
REMARK minimizedRMSD -1
REMARK  1 active torsions:
REMARK  status: ('A' for Active; 'I' for Inactive)
REMARK    1  A    between atoms: C1_2  and  C2_3 
ROOT
ATOM      1  C2  UNL d   1      -0.633  -1.392  -0.729  0.00  0.00    -0.081 A 
ATOM      2  C3  UNL d   1      -1.617  -0.396  -0.720  0.00  0.00     0.006 A 
ATOM      3  C4  UNL d   1      -1.421   0.788  -0.005  0.00  0.00     0.002 A 
ATOM      4  C5  UNL d   1      -0.235   0.999   0.706  0.00  0.00    -0.080 A 
ATOM      5  C6  UNL d   1       0.001   2.278   1.453  0.00  0.00     0.076 C 
ATOM      6  C7  UNL d   1       0.741  -0.003   0.712  0.00  0.00     0.002 A 
ATOM      7  C8  UNL d   1       0.546  -1.187  -0.002  0.00  0.00     0.006 A 
ENDROOT
BRANCH   1   8
ATOM      8  C1  UNL d   1      -0.814  -2.642  -1.551  0.00  0.00     0.054 C 
ATOM      9  C   UNL d   1      -0.094  -2.534  -2.888  0.00  0.00     0.018 C 
ENDBRANCH   1   8
TORSDOF 1
ENDMDL
