MODEL 1
REMARK minimizedAffinity -4.17748737
REMARK minimizedRMSD -1
REMARK  1 active torsions:
REMARK  status: ('A' for Active; 'I' for Inactive)
REMARK    1  A    between atoms: C1_2  and  C2_3 
ROOT
ATOM      1  C2  UNL d   1       0.024  -0.476   0.020  0.00  0.00    -0.081 A 
ATOM      2  C3  UNL d   1      -1.002   0.396   0.404  0.00  0.00     0.006 A 
ATOM      3  C4  UNL d   1      -0.749   1.760   0.567  0.00  0.00     0.002 A 
ATOM      4  C5  UNL d   1       0.531   2.276   0.341  0.00  0.00    -0.080 A 
ATOM      5  C6  UNL d   1       0.809   3.743   0.483  0.00  0.00     0.076 C 
ATOM      6  C7  UNL d   1       1.561   1.403  -0.026  0.00  0.00     0.002 A 
ATOM      7  C8  UNL d   1       1.308   0.039  -0.188  0.00  0.00     0.006 A 
ENDROOT
BRANCH   1   8
ATOM      8  C1  UNL d   1      -0.260  -1.937  -0.219  0.00  0.00     0.054 C 
ATOM      9  C   UNL d   1      -0.469  -2.225  -1.699  0.00  0.00     0.018 C 
ENDBRANCH   1   8
TORSDOF 1
ENDMDL
