MODEL 1
REMARK minimizedAffinity 3.23322606
REMARK minimizedRMSD -1
REMARK  1 active torsions:
REMARK  status: ('A' for Active; 'I' for Inactive)
REMARK    1  A    between atoms: C1_2  and  C2_3 
ROOT
ATOM      1  C2  UNL d   1      -2.933  -4.520  -1.054  0.00  0.00    -0.081 A 
ATOM      2  C3  UNL d   1      -2.251  -3.629  -0.216  0.00  0.00     0.006 A 
ATOM      3  C4  UNL d   1      -1.143  -2.921  -0.687  0.00  0.00     0.002 A 
ATOM      4  C5  UNL d   1      -0.704  -3.085  -2.005  0.00  0.00    -0.080 A 
ATOM      5  C6  UNL d   1       0.466  -2.308  -2.532  0.00  0.00     0.076 C 
ATOM      6  C7  UNL d   1      -1.374  -3.989  -2.837  0.00  0.00     0.002 A 
ATOM      7  C8  UNL d   1      -2.482  -4.697  -2.366  0.00  0.00     0.006 A 
ENDROOT
BRANCH   1   8
ATOM      8  C1  UNL d   1      -4.167  -5.237  -0.568  0.00  0.00     0.054 C 
ATOM      9  C   UNL d   1      -3.893  -6.000   0.720  0.00  0.00     0.018 C 
ENDBRANCH   1   8
TORSDOF 1
ENDMDL
