MODEL 1
REMARK minimizedAffinity -3.54886365
REMARK minimizedRMSD -1
REMARK  1 active torsions:
REMARK  status: ('A' for Active; 'I' for Inactive)
REMARK    1  A    between atoms: C1_2  and  C2_3 
ROOT
ATOM      1  C2  UNL d   1       1.303   2.402   0.169  0.00  0.00    -0.081 A 
ATOM      2  C3  UNL d   1       2.346   1.952   0.988  0.00  0.00     0.006 A 
ATOM      3  C4  UNL d   1       2.558   2.523   2.244  0.00  0.00     0.002 A 
ATOM      4  C5  UNL d   1       1.726   3.549   2.707  0.00  0.00    -0.080 A 
ATOM      5  C6  UNL d   1       1.924   4.150   4.067  0.00  0.00     0.076 C 
ATOM      6  C7  UNL d   1       0.695   4.011   1.883  0.00  0.00     0.002 A 
ATOM      7  C8  UNL d   1       0.483   3.440   0.626  0.00  0.00     0.006 A 
ENDROOT
BRANCH   1   8
ATOM      8  C1  UNL d   1       1.031   1.744  -1.159  0.00  0.00     0.054 C 
ATOM      9  C   UNL d   1       0.321   0.410  -0.981  0.00  0.00     0.018 C 
ENDBRANCH   1   8
TORSDOF 1
ENDMDL
