MODEL 1
REMARK minimizedAffinity -6.05393124
REMARK minimizedRMSD -1
REMARK  1 active torsions:
REMARK  status: ('A' for Active; 'I' for Inactive)
REMARK    1  A    between atoms: C1_2  and  C2_3 
ROOT
ATOM      1  C2  UNL d   1       0.162  -0.747   0.201  0.00  0.00    -0.081 A 
ATOM      2  C3  UNL d   1      -1.010  -0.007   0.403  0.00  0.00     0.006 A 
ATOM      3  C4  UNL d   1      -0.984   1.388   0.348  0.00  0.00     0.002 A 
ATOM      4  C5  UNL d   1       0.210   2.067   0.082  0.00  0.00    -0.080 A 
ATOM      5  C6  UNL d   1       0.245   3.563  -0.009  0.00  0.00     0.076 C 
ATOM      6  C7  UNL d   1       1.384   1.328  -0.102  0.00  0.00     0.002 A 
ATOM      7  C8  UNL d   1       1.359  -0.067  -0.046  0.00  0.00     0.006 A 
ENDROOT
BRANCH   1   8
ATOM      8  C1  UNL d   1       0.125  -2.254   0.195  0.00  0.00     0.054 C 
ATOM      9  C   UNL d   1      -0.308  -2.792  -1.161  0.00  0.00     0.018 C 
ENDBRANCH   1   8
TORSDOF 1
ENDMDL
