MODEL 1
REMARK minimizedAffinity -5.79951239
REMARK minimizedRMSD -1
REMARK  1 active torsions:
REMARK  status: ('A' for Active; 'I' for Inactive)
REMARK    1  A    between atoms: C1_2  and  C2_3 
ROOT
ATOM      1  C2  UNL d   1      -0.258  -1.080  -0.012  0.00  0.00    -0.081 A 
ATOM      2  C3  UNL d   1      -1.377  -0.239  -0.076  0.00  0.00     0.006 A 
ATOM      3  C4  UNL d   1      -1.234   1.142   0.073  0.00  0.00     0.002 A 
ATOM      4  C5  UNL d   1       0.029   1.707   0.281  0.00  0.00    -0.080 A 
ATOM      5  C6  UNL d   1       0.201   3.191   0.413  0.00  0.00     0.076 C 
ATOM      6  C7  UNL d   1       1.144   0.865   0.363  0.00  0.00     0.002 A 
ATOM      7  C8  UNL d   1       1.002  -0.516   0.215  0.00  0.00     0.006 A 
ENDROOT
BRANCH   1   8
ATOM      8  C1  UNL d   1      -0.401  -2.564  -0.237  0.00  0.00     0.054 C 
ATOM      9  C   UNL d   1      -0.030  -2.945  -1.663  0.00  0.00     0.018 C 
ENDBRANCH   1   8
TORSDOF 1
ENDMDL
