MODEL 1
REMARK minimizedAffinity -2.84557056
REMARK minimizedRMSD -1
REMARK  1 active torsions:
REMARK  status: ('A' for Active; 'I' for Inactive)
REMARK    1  A    between atoms: C1_2  and  C2_3 
ROOT
ATOM      1  C2  UNL d   1      -0.018  -0.465  -0.029  0.00  0.00    -0.081 A 
ATOM      2  C3  UNL d   1       1.190   0.155  -0.371  0.00  0.00     0.006 A 
ATOM      3  C4  UNL d   1       1.299   1.548  -0.358  0.00  0.00     0.002 A 
ATOM      4  C5  UNL d   1       0.206   2.342   0.003  0.00  0.00    -0.080 A 
ATOM      5  C6  UNL d   1       0.319   3.837   0.050  0.00  0.00     0.076 C 
ATOM      6  C7  UNL d   1      -1.006   1.723   0.328  0.00  0.00     0.002 A 
ATOM      7  C8  UNL d   1      -1.116   0.331   0.315  0.00  0.00     0.006 A 
ENDROOT
BRANCH   1   8
ATOM      8  C1  UNL d   1      -0.120  -1.968   0.021  0.00  0.00     0.054 C 
ATOM      9  C   UNL d   1      -0.851  -2.514  -1.197  0.00  0.00     0.018 C 
ENDBRANCH   1   8
TORSDOF 1
ENDMDL
