MODEL 1
REMARK minimizedAffinity -3.65621829
REMARK minimizedRMSD -1
REMARK  0 active torsions:
REMARK  status: ('A' for Active; 'I' for Inactive)
ROOT
ATOM      1  C2' OXE d   1      -2.107  -0.174   1.844  0.00  0.00     0.078 C 
ATOM      2  C1' OXE d   1      -1.511  -2.679   0.727  0.00  0.00     0.078 C 
ATOM      3  C1  OXE d   1      -0.886  -1.460   0.095  0.00  0.00    -0.078 A 
ATOM      4  C2  OXE d   1      -1.220  -0.235   0.619  0.00  0.00    -0.078 A 
ATOM      5  C3  OXE d   1      -0.629   0.917   0.109  0.00  0.00     0.003 A 
ATOM      6  C4  OXE d   1       0.182   0.853  -1.031  0.00  0.00    -0.002 A 
ATOM      7  C5  OXE d   1       0.503  -0.382  -1.605  0.00  0.00    -0.002 A 
ATOM      8  C6  OXE d   1       0.012  -1.549  -1.029  0.00  0.00     0.003 A 
ENDROOT
TORSDOF 0
ENDMDL
