MODEL 1
REMARK minimizedAffinity -5.09828281
REMARK minimizedRMSD -1
REMARK  0 active torsions:
REMARK  status: ('A' for Active; 'I' for Inactive)
ROOT
ATOM      1  C2' OXE d   1       0.971  -1.131  -2.208  0.00  0.00     0.078 C 
ATOM      2  C1' OXE d   1       0.478   1.133  -0.624  0.00  0.00     0.078 C 
ATOM      3  C1  OXE d   1       0.071  -0.212  -0.075  0.00  0.00    -0.078 A 
ATOM      4  C2  OXE d   1       0.273  -1.309  -0.877  0.00  0.00    -0.078 A 
ATOM      5  C3  OXE d   1      -0.034  -2.579  -0.398  0.00  0.00     0.003 A 
ATOM      6  C4  OXE d   1      -0.689  -2.734   0.830  0.00  0.00    -0.002 A 
ATOM      7  C5  OXE d   1      -0.941  -1.626   1.645  0.00  0.00    -0.002 A 
ATOM      8  C6  OXE d   1      -0.530  -0.365   1.227  0.00  0.00     0.003 A 
ENDROOT
TORSDOF 0
ENDMDL
