MODEL 1
REMARK minimizedAffinity -5.18774128
REMARK minimizedRMSD -1
REMARK  0 active torsions:
REMARK  status: ('A' for Active; 'I' for Inactive)
ROOT
ATOM      1  C2' OXE d   1      -1.860   0.324   0.774  0.00  0.00     0.078 C 
ATOM      2  C1' OXE d   1       0.729   0.936  -0.122  0.00  0.00     0.078 C 
ATOM      3  C1  OXE d   1       0.394  -0.514   0.125  0.00  0.00    -0.078 A 
ATOM      4  C2  OXE d   1      -0.860  -0.800   0.607  0.00  0.00    -0.078 A 
ATOM      5  C3  OXE d   1      -1.239  -2.126   0.800  0.00  0.00     0.003 A 
ATOM      6  C4  OXE d   1      -0.305  -3.158   0.653  0.00  0.00    -0.002 A 
ATOM      7  C5  OXE d   1       0.990  -2.885   0.200  0.00  0.00    -0.002 A 
ATOM      8  C6  OXE d   1       1.342  -1.576  -0.108  0.00  0.00     0.003 A 
ENDROOT
TORSDOF 0
ENDMDL
