MODEL 1
REMARK minimizedAffinity -0.193850353
REMARK minimizedRMSD -1
REMARK  0 active torsions:
REMARK  status: ('A' for Active; 'I' for Inactive)
ROOT
ATOM      1  C2' OXE d   1       0.547  -1.267  -2.302  0.00  0.00     0.078 C 
ATOM      2  C1' OXE d   1      -1.070  -2.196  -0.203  0.00  0.00     0.078 C 
ATOM      3  C1  OXE d   1      -0.583  -0.770  -0.138  0.00  0.00    -0.078 A 
ATOM      4  C2  OXE d   1       0.246  -0.338  -1.146  0.00  0.00    -0.078 A 
ATOM      5  C3  OXE d   1       0.679   0.985  -1.163  0.00  0.00     0.003 A 
ATOM      6  C4  OXE d   1       0.405   1.835  -0.084  0.00  0.00    -0.002 A 
ATOM      7  C5  OXE d   1      -0.405   1.403   0.972  0.00  0.00    -0.002 A 
ATOM      8  C6  OXE d   1      -0.940   0.120   0.939  0.00  0.00     0.003 A 
ENDROOT
TORSDOF 0
ENDMDL
