MODEL 1
REMARK minimizedAffinity -5.08804035
REMARK minimizedRMSD -1
REMARK  0 active torsions:
REMARK  status: ('A' for Active; 'I' for Inactive)
ROOT
ATOM      1  C2' OXE d   1       0.730  -1.647  -1.914  0.00  0.00     0.078 C 
ATOM      2  C1' OXE d   1       0.054  -3.182   0.338  0.00  0.00     0.078 C 
ATOM      3  C1  OXE d   1      -0.447  -1.760   0.279  0.00  0.00    -0.078 A 
ATOM      4  C2  OXE d   1      -0.072  -1.002  -0.804  0.00  0.00    -0.078 A 
ATOM      5  C3  OXE d   1      -0.552   0.298  -0.935  0.00  0.00     0.003 A 
ATOM      6  C4  OXE d   1      -1.286   0.890   0.100  0.00  0.00    -0.002 A 
ATOM      7  C5  OXE d   1      -1.645   0.148   1.231  0.00  0.00    -0.002 A 
ATOM      8  C6  OXE d   1      -1.270  -1.188   1.316  0.00  0.00     0.003 A 
ENDROOT
TORSDOF 0
ENDMDL
