MODEL 1
REMARK minimizedAffinity -4.57662249
REMARK minimizedRMSD -1
REMARK  0 active torsions:
REMARK  status: ('A' for Active; 'I' for Inactive)
ROOT
ATOM      1  C2' OXE d   1      -2.304   0.467   1.507  0.00  0.00     0.078 C 
ATOM      2  C1' OXE d   1      -0.302   1.315  -0.270  0.00  0.00     0.078 C 
ATOM      3  C1  OXE d   1      -0.357  -0.151   0.080  0.00  0.00    -0.078 A 
ATOM      4  C2  OXE d   1      -1.310  -0.550   0.986  0.00  0.00    -0.078 A 
ATOM      5  C3  OXE d   1      -1.439  -1.899   1.302  0.00  0.00     0.003 A 
ATOM      6  C4  OXE d   1      -0.510  -2.831   0.824  0.00  0.00    -0.002 A 
ATOM      7  C5  OXE d   1       0.493  -2.440  -0.069  0.00  0.00    -0.002 A 
ATOM      8  C6  OXE d   1       0.557  -1.114  -0.483  0.00  0.00     0.003 A 
ENDROOT
TORSDOF 0
ENDMDL
