MODEL 1
REMARK minimizedAffinity -5.61955023
REMARK minimizedRMSD -1
REMARK  0 active torsions:
REMARK  status: ('A' for Active; 'I' for Inactive)
ROOT
ATOM      1  C2' OXE d   1      -1.462  -0.130   0.743  0.00  0.00     0.078 C 
ATOM      2  C1' OXE d   1      -0.469   0.528  -1.799  0.00  0.00     0.078 C 
ATOM      3  C1  OXE d   1      -0.205  -0.863  -1.279  0.00  0.00    -0.078 A 
ATOM      4  C2  OXE d   1      -0.655  -1.161  -0.015  0.00  0.00    -0.078 A 
ATOM      5  C3  OXE d   1      -0.486  -2.447   0.490  0.00  0.00     0.003 A 
ATOM      6  C4  OXE d   1       0.270  -3.392  -0.213  0.00  0.00    -0.002 A 
ATOM      7  C5  OXE d   1       0.771  -3.096  -1.485  0.00  0.00    -0.002 A 
ATOM      8  C6  OXE d   1       0.507  -1.853  -2.049  0.00  0.00     0.003 A 
ENDROOT
TORSDOF 0
ENDMDL
