MODEL 1
REMARK minimizedAffinity -3.66695142
REMARK minimizedRMSD -1
REMARK  0 active torsions:
REMARK  status: ('A' for Active; 'I' for Inactive)
ROOT
ATOM      1  C2' OXE d   1       0.163  -1.620  -2.379  0.00  0.00     0.078 C 
ATOM      2  C1' OXE d   1      -0.296  -3.067  -0.017  0.00  0.00     0.078 C 
ATOM      3  C1  OXE d   1      -0.330  -1.561   0.062  0.00  0.00    -0.078 A 
ATOM      4  C2  OXE d   1      -0.058  -0.861  -1.088  0.00  0.00    -0.078 A 
ATOM      5  C3  OXE d   1      -0.130   0.530  -1.082  0.00  0.00     0.003 A 
ATOM      6  C4  OXE d   1      -0.325   1.224   0.118  0.00  0.00    -0.002 A 
ATOM      7  C5  OXE d   1      -0.564   0.531   1.309  0.00  0.00    -0.002 A 
ATOM      8  C6  OXE d   1      -0.612  -0.859   1.290  0.00  0.00     0.003 A 
ENDROOT
TORSDOF 0
ENDMDL
