MODEL 1
REMARK minimizedAffinity -5.1701417
REMARK minimizedRMSD -1
REMARK  0 active torsions:
REMARK  status: ('A' for Active; 'I' for Inactive)
ROOT
ATOM      1  C2' OXE d   1      -1.825   0.261   1.484  0.00  0.00     0.078 C 
ATOM      2  C1' OXE d   1       0.007   1.297  -0.373  0.00  0.00     0.078 C 
ATOM      3  C1  OXE d   1      -0.013  -0.197  -0.163  0.00  0.00    -0.078 A 
ATOM      4  C2  OXE d   1      -0.880  -0.690   0.782  0.00  0.00    -0.078 A 
ATOM      5  C3  OXE d   1      -0.978  -2.065   0.977  0.00  0.00     0.003 A 
ATOM      6  C4  OXE d   1      -0.093  -2.937   0.331  0.00  0.00    -0.002 A 
ATOM      7  C5  OXE d   1       0.825  -2.451  -0.605  0.00  0.00    -0.002 A 
ATOM      8  C6  OXE d   1       0.849  -1.091  -0.895  0.00  0.00     0.003 A 
ENDROOT
TORSDOF 0
ENDMDL
