MODEL 1
REMARK minimizedAffinity -4.83452034
REMARK minimizedRMSD -1
REMARK  0 active torsions:
REMARK  status: ('A' for Active; 'I' for Inactive)
ROOT
ATOM      1  C2' OXE d   1      -0.253   1.292   0.185  0.00  0.00     0.078 C 
ATOM      2  C1' OXE d   1      -0.834   0.034   2.627  0.00  0.00     0.078 C 
ATOM      3  C1  OXE d   1      -0.388  -0.834   1.477  0.00  0.00    -0.078 A 
ATOM      4  C2  OXE d   1      -0.150  -0.215   0.273  0.00  0.00    -0.078 A 
ATOM      5  C3  OXE d   1       0.317  -0.962  -0.805  0.00  0.00     0.003 A 
ATOM      6  C4  OXE d   1       0.400  -2.357  -0.718  0.00  0.00    -0.002 A 
ATOM      7  C5  OXE d   1       0.124  -3.011   0.487  0.00  0.00    -0.002 A 
ATOM      8  C6  OXE d   1      -0.229  -2.261   1.604  0.00  0.00     0.003 A 
ENDROOT
TORSDOF 0
ENDMDL
