MODEL 1
REMARK minimizedAffinity -5.01170921
REMARK minimizedRMSD -1
REMARK  0 active torsions:
REMARK  status: ('A' for Active; 'I' for Inactive)
ROOT
ATOM      1  C2' OXE d   1      -0.740  -0.323   1.853  0.00  0.00     0.078 C 
ATOM      2  C1' OXE d   1       0.123  -2.651   0.544  0.00  0.00     0.078 C 
ATOM      3  C1  OXE d   1       0.006  -1.387  -0.272  0.00  0.00    -0.078 A 
ATOM      4  C2  OXE d   1      -0.461  -0.264   0.367  0.00  0.00    -0.078 A 
ATOM      5  C3  OXE d   1      -0.537   0.941  -0.325  0.00  0.00     0.003 A 
ATOM      6  C4  OXE d   1      -0.287   0.985  -1.702  0.00  0.00    -0.002 A 
ATOM      7  C5  OXE d   1       0.153  -0.157  -2.381  0.00  0.00    -0.002 A 
ATOM      8  C6  OXE d   1       0.345  -1.338  -1.673  0.00  0.00     0.003 A 
ENDROOT
TORSDOF 0
ENDMDL
