MODEL 1
REMARK minimizedAffinity -1.47995508
REMARK minimizedRMSD -1
REMARK  0 active torsions:
REMARK  status: ('A' for Active; 'I' for Inactive)
ROOT
ATOM      1  C2' OXE d   1       0.817  -1.136  -2.046  0.00  0.00     0.078 C 
ATOM      2  C1' OXE d   1       0.394   1.241  -0.614  0.00  0.00     0.078 C 
ATOM      3  C1  OXE d   1      -0.289  -0.010  -0.119  0.00  0.00    -0.078 A 
ATOM      4  C2  OXE d   1      -0.114  -1.158  -0.853  0.00  0.00    -0.078 A 
ATOM      5  C3  OXE d   1      -0.677  -2.352  -0.410  0.00  0.00     0.003 A 
ATOM      6  C4  OXE d   1      -1.545  -2.361   0.688  0.00  0.00    -0.002 A 
ATOM      7  C5  OXE d   1      -1.768  -1.194   1.427  0.00  0.00    -0.002 A 
ATOM      8  C6  OXE d   1      -1.116  -0.022   1.062  0.00  0.00     0.003 A 
ENDROOT
TORSDOF 0
ENDMDL
