MODEL 1
REMARK minimizedAffinity -4.88925266
REMARK minimizedRMSD -1
REMARK  0 active torsions:
REMARK  status: ('A' for Active; 'I' for Inactive)
ROOT
ATOM      1  C2' OXE d   1       0.329   1.471   0.159  0.00  0.00     0.078 C 
ATOM      2  C1' OXE d   1      -1.362   0.451   2.154  0.00  0.00     0.078 C 
ATOM      3  C1  OXE d   1      -0.683  -0.534   1.236  0.00  0.00    -0.078 A 
ATOM      4  C2  OXE d   1       0.106  -0.024   0.233  0.00  0.00    -0.078 A 
ATOM      5  C3  OXE d   1       0.798  -0.891  -0.607  0.00  0.00     0.003 A 
ATOM      6  C4  OXE d   1       0.578  -2.272  -0.539  0.00  0.00    -0.002 A 
ATOM      7  C5  OXE d   1      -0.252  -2.810   0.450  0.00  0.00    -0.002 A 
ATOM      8  C6  OXE d   1      -0.856  -1.960   1.370  0.00  0.00     0.003 A 
ENDROOT
TORSDOF 0
ENDMDL
