MODEL 1
REMARK minimizedAffinity -2.42256212
REMARK minimizedRMSD -1
REMARK  0 active torsions:
REMARK  status: ('A' for Active; 'I' for Inactive)
ROOT
ATOM      1  C2' OXE d   1       0.258   0.676  -2.065  0.00  0.00     0.078 C 
ATOM      2  C1' OXE d   1       0.423   2.033   0.387  0.00  0.00     0.078 C 
ATOM      3  C1  OXE d   1       0.027   0.578   0.413  0.00  0.00    -0.078 A 
ATOM      4  C2  OXE d   1      -0.097  -0.066  -0.794  0.00  0.00    -0.078 A 
ATOM      5  C3  OXE d   1      -0.406  -1.422  -0.824  0.00  0.00     0.003 A 
ATOM      6  C4  OXE d   1      -0.742  -2.099   0.355  0.00  0.00    -0.002 A 
ATOM      7  C5  OXE d   1      -0.661  -1.451   1.593  0.00  0.00    -0.002 A 
ATOM      8  C6  OXE d   1      -0.238  -0.128   1.643  0.00  0.00     0.003 A 
ENDROOT
TORSDOF 0
ENDMDL
