MODEL 1
REMARK minimizedAffinity -4.75957727
REMARK minimizedRMSD -1
REMARK  0 active torsions:
REMARK  status: ('A' for Active; 'I' for Inactive)
ROOT
ATOM      1  C2' OXE d   1      -0.031   1.178  -0.041  0.00  0.00     0.078 C 
ATOM      2  C1' OXE d   1      -2.231   0.078   1.312  0.00  0.00     0.078 C 
ATOM      3  C1  OXE d   1      -1.162  -0.867   0.822  0.00  0.00    -0.078 A 
ATOM      4  C2  OXE d   1      -0.112  -0.325   0.120  0.00  0.00    -0.078 A 
ATOM      5  C3  OXE d   1       0.928  -1.145  -0.308  0.00  0.00     0.003 A 
ATOM      6  C4  OXE d   1       0.840  -2.535  -0.163  0.00  0.00    -0.002 A 
ATOM      7  C5  OXE d   1      -0.240  -3.112   0.514  0.00  0.00    -0.002 A 
ATOM      8  C6  OXE d   1      -1.226  -2.290   1.048  0.00  0.00     0.003 A 
ENDROOT
TORSDOF 0
ENDMDL
