MODEL 1
REMARK minimizedAffinity -5.29362822
REMARK minimizedRMSD -1
REMARK  0 active torsions:
REMARK  status: ('A' for Active; 'I' for Inactive)
ROOT
ATOM      1  C2' OXE d   1      -0.220   1.109   0.089  0.00  0.00     0.078 C 
ATOM      2  C1' OXE d   1      -1.216  -0.334   2.281  0.00  0.00     0.078 C 
ATOM      3  C1  OXE d   1      -0.633  -1.116   1.130  0.00  0.00    -0.078 A 
ATOM      4  C2  OXE d   1      -0.191  -0.404   0.042  0.00  0.00    -0.078 A 
ATOM      5  C3  OXE d   1       0.406  -1.072  -1.024  0.00  0.00     0.003 A 
ATOM      6  C4  OXE d   1       0.420  -2.472  -1.064  0.00  0.00    -0.002 A 
ATOM      7  C5  OXE d   1      -0.061  -3.218   0.017  0.00  0.00    -0.002 A 
ATOM      8  C6  OXE d   1      -0.551  -2.556   1.138  0.00  0.00     0.003 A 
ENDROOT
TORSDOF 0
ENDMDL
