MODEL 1
REMARK minimizedAffinity -3.09778666
REMARK minimizedRMSD -1
REMARK  0 active torsions:
REMARK  status: ('A' for Active; 'I' for Inactive)
ROOT
ATOM      1  C2' OXE d   1      -0.234  -2.998   0.159  0.00  0.00     0.078 C 
ATOM      2  C1' OXE d   1       1.177  -1.757  -1.926  0.00  0.00     0.078 C 
ATOM      3  C1  OXE d   1       0.392  -0.876  -0.985  0.00  0.00    -0.078 A 
ATOM      4  C2  OXE d   1      -0.333  -1.496   0.004  0.00  0.00    -0.078 A 
ATOM      5  C3  OXE d   1      -1.030  -0.728   0.932  0.00  0.00     0.003 A 
ATOM      6  C4  OXE d   1      -1.125   0.660   0.775  0.00  0.00    -0.002 A 
ATOM      7  C5  OXE d   1      -0.426   1.308  -0.250  0.00  0.00    -0.002 A 
ATOM      8  C6  OXE d   1       0.369   0.560  -1.111  0.00  0.00     0.003 A 
ENDROOT
TORSDOF 0
ENDMDL
