MODEL 1
REMARK minimizedAffinity -6.72311783
REMARK minimizedRMSD -1
REMARK  0 active torsions:
REMARK  status: ('A' for Active; 'I' for Inactive)
ROOT
ATOM      1  C2' OXE d   1      -0.065   1.086  -0.353  0.00  0.00     0.078 C 
ATOM      2  C1' OXE d   1      -1.605  -0.190   1.617  0.00  0.00     0.078 C 
ATOM      3  C1  OXE d   1      -0.913  -1.056   0.594  0.00  0.00    -0.078 A 
ATOM      4  C2  OXE d   1      -0.200  -0.421  -0.394  0.00  0.00    -0.078 A 
ATOM      5  C3  OXE d   1       0.503  -1.174  -1.330  0.00  0.00     0.003 A 
ATOM      6  C4  OXE d   1       0.365  -2.567  -1.366  0.00  0.00    -0.002 A 
ATOM      7  C5  OXE d   1      -0.389  -3.231  -0.393  0.00  0.00    -0.002 A 
ATOM      8  C6  OXE d   1      -0.998  -2.495   0.617  0.00  0.00     0.003 A 
ENDROOT
TORSDOF 0
ENDMDL
