MODEL 1
REMARK minimizedAffinity -3.44073343
REMARK minimizedRMSD -1
REMARK  0 active torsions:
REMARK  status: ('A' for Active; 'I' for Inactive)
ROOT
ATOM      1  C2' OXE d   1      -0.271   0.805  -1.866  0.00  0.00     0.078 C 
ATOM      2  C1' OXE d   1       0.016  -1.764  -2.961  0.00  0.00     0.078 C 
ATOM      3  C1  OXE d   1      -0.241  -1.656  -1.479  0.00  0.00    -0.078 A 
ATOM      4  C2  OXE d   1      -0.334  -0.394  -0.944  0.00  0.00    -0.078 A 
ATOM      5  C3  OXE d   1      -0.625  -0.238   0.408  0.00  0.00     0.003 A 
ATOM      6  C4  OXE d   1      -0.672  -1.351   1.256  0.00  0.00    -0.002 A 
ATOM      7  C5  OXE d   1      -0.540  -2.644   0.738  0.00  0.00    -0.002 A 
ATOM      8  C6  OXE d   1      -0.368  -2.815  -0.631  0.00  0.00     0.003 A 
ENDROOT
TORSDOF 0
ENDMDL
