MODEL 1
REMARK minimizedAffinity 6.17124081
REMARK minimizedRMSD -1
REMARK  0 active torsions:
REMARK  status: ('A' for Active; 'I' for Inactive)
ROOT
ATOM      1  C2' OXE d   1       0.352   2.148   2.495  0.00  0.00     0.078 C 
ATOM      2  C1' OXE d   1       2.664   3.660   2.001  0.00  0.00     0.078 C 
ATOM      3  C1  OXE d   1       1.551   3.725   0.986  0.00  0.00    -0.078 A 
ATOM      4  C2  OXE d   1       0.442   2.945   1.212  0.00  0.00    -0.078 A 
ATOM      5  C3  OXE d   1      -0.636   3.009   0.335  0.00  0.00     0.003 A 
ATOM      6  C4  OXE d   1      -0.540   3.742  -0.854  0.00  0.00    -0.002 A 
ATOM      7  C5  OXE d   1       0.596   4.512  -1.124  0.00  0.00    -0.002 A 
ATOM      8  C6  OXE d   1       1.631   4.548  -0.196  0.00  0.00     0.003 A 
ENDROOT
TORSDOF 0
ENDMDL
