MODEL 1
REMARK minimizedAffinity 12.7421789
REMARK minimizedRMSD -1
REMARK  0 active torsions:
REMARK  status: ('A' for Active; 'I' for Inactive)
ROOT
ATOM      1  C2' OXE d   1      -0.525   2.167  -0.537  0.00  0.00     0.078 C 
ATOM      2  C1' OXE d   1       1.064   0.214  -1.777  0.00  0.00     0.078 C 
ATOM      3  C1  OXE d   1      -0.340  -0.169  -1.381  0.00  0.00    -0.078 A 
ATOM      4  C2  OXE d   1      -1.095   0.778  -0.733  0.00  0.00    -0.078 A 
ATOM      5  C3  OXE d   1      -2.415   0.495  -0.395  0.00  0.00     0.003 A 
ATOM      6  C4  OXE d   1      -2.931  -0.795  -0.571  0.00  0.00    -0.002 A 
ATOM      7  C5  OXE d   1      -2.165  -1.787  -1.193  0.00  0.00    -0.002 A 
ATOM      8  C6  OXE d   1      -0.886  -1.479  -1.642  0.00  0.00     0.003 A 
ENDROOT
TORSDOF 0
ENDMDL
