MODEL 1
REMARK minimizedAffinity 8.69961452
REMARK minimizedRMSD -1
REMARK  0 active torsions:
REMARK  status: ('A' for Active; 'I' for Inactive)
ROOT
ATOM      1  C2' OXE d   1      -2.622  -3.206  -5.955  0.00  0.00     0.078 C 
ATOM      2  C1' OXE d   1      -2.684  -5.951  -5.369  0.00  0.00     0.078 C 
ATOM      3  C1  OXE d   1      -1.335  -5.284  -5.474  0.00  0.00    -0.078 A 
ATOM      4  C2  OXE d   1      -1.313  -3.951  -5.807  0.00  0.00    -0.078 A 
ATOM      5  C3  OXE d   1      -0.098  -3.275  -5.863  0.00  0.00     0.003 A 
ATOM      6  C4  OXE d   1       1.109  -3.973  -5.734  0.00  0.00    -0.002 A 
ATOM      7  C5  OXE d   1       1.110  -5.339  -5.435  0.00  0.00    -0.002 A 
ATOM      8  C6  OXE d   1      -0.101  -5.999  -5.259  0.00  0.00     0.003 A 
ENDROOT
TORSDOF 0
ENDMDL
