MODEL 1
REMARK minimizedAffinity 7.40624905
REMARK minimizedRMSD -1
REMARK  0 active torsions:
REMARK  status: ('A' for Active; 'I' for Inactive)
ROOT
ATOM      1  C2' OXE d   1      -0.578   1.745  -0.596  0.00  0.00     0.078 C 
ATOM      2  C1' OXE d   1       0.846   3.952   0.393  0.00  0.00     0.078 C 
ATOM      3  C1  OXE d   1       0.769   2.720   1.259  0.00  0.00    -0.078 A 
ATOM      4  C2  OXE d   1       0.031   1.661   0.787  0.00  0.00    -0.078 A 
ATOM      5  C3  OXE d   1      -0.027   0.480   1.521  0.00  0.00     0.003 A 
ATOM      6  C4  OXE d   1       0.531   0.414   2.804  0.00  0.00    -0.002 A 
ATOM      7  C5  OXE d   1       1.253   1.495   3.320  0.00  0.00    -0.002 A 
ATOM      8  C6  OXE d   1       1.418   2.637   2.544  0.00  0.00     0.003 A 
ENDROOT
TORSDOF 0
ENDMDL
