MODEL 1
REMARK minimizedAffinity 0.807855248
REMARK minimizedRMSD -1
REMARK  0 active torsions:
REMARK  status: ('A' for Active; 'I' for Inactive)
ROOT
ATOM      1  C2' OXE d   1       5.264  -6.000  -1.117  0.00  0.00     0.078 C 
ATOM      2  C1' OXE d   1       2.516  -5.549  -1.478  0.00  0.00     0.078 C 
ATOM      3  C1  OXE d   1       3.478  -4.578  -2.116  0.00  0.00    -0.078 A 
ATOM      4  C2  OXE d   1       4.820  -4.780  -1.895  0.00  0.00    -0.078 A 
ATOM      5  C3  OXE d   1       5.752  -3.945  -2.505  0.00  0.00     0.003 A 
ATOM      6  C4  OXE d   1       5.333  -2.814  -3.214  0.00  0.00    -0.002 A 
ATOM      7  C5  OXE d   1       3.971  -2.567  -3.418  0.00  0.00    -0.002 A 
ATOM      8  C6  OXE d   1       3.034  -3.462  -2.912  0.00  0.00     0.003 A 
ENDROOT
TORSDOF 0
ENDMDL
