MODEL 1
REMARK minimizedAffinity 1.23482156
REMARK minimizedRMSD -1
REMARK  0 active torsions:
REMARK  status: ('A' for Active; 'I' for Inactive)
ROOT
ATOM      1  C2' OXE d   1       1.413  -5.261  -1.139  0.00  0.00     0.078 C 
ATOM      2  C1' OXE d   1       1.764  -2.768   0.103  0.00  0.00     0.078 C 
ATOM      3  C1  OXE d   1       2.654  -3.102  -1.068  0.00  0.00    -0.078 A 
ATOM      4  C2  OXE d   1       2.506  -4.342  -1.640  0.00  0.00    -0.078 A 
ATOM      5  C3  OXE d   1       3.264  -4.680  -2.758  0.00  0.00     0.003 A 
ATOM      6  C4  OXE d   1       4.281  -3.829  -3.209  0.00  0.00    -0.002 A 
ATOM      7  C5  OXE d   1       4.474  -2.577  -2.615  0.00  0.00    -0.002 A 
ATOM      8  C6  OXE d   1       3.642  -2.182  -1.573  0.00  0.00     0.003 A 
ENDROOT
TORSDOF 0
ENDMDL
