MODEL 1
REMARK minimizedAffinity 6.60118771
REMARK minimizedRMSD -1
REMARK  0 active torsions:
REMARK  status: ('A' for Active; 'I' for Inactive)
ROOT
ATOM      1  C2' OXE d   1       2.947  -3.901   0.962  0.00  0.00     0.078 C 
ATOM      2  C1' OXE d   1       2.410  -5.659  -1.160  0.00  0.00     0.078 C 
ATOM      3  C1  OXE d   1       3.127  -4.370  -1.478  0.00  0.00    -0.078 A 
ATOM      4  C2  OXE d   1       3.344  -3.495  -0.441  0.00  0.00    -0.078 A 
ATOM      5  C3  OXE d   1       4.050  -2.317  -0.669  0.00  0.00     0.003 A 
ATOM      6  C4  OXE d   1       4.405  -1.945  -1.971  0.00  0.00    -0.002 A 
ATOM      7  C5  OXE d   1       4.157  -2.803  -3.048  0.00  0.00    -0.002 A 
ATOM      8  C6  OXE d   1       3.559  -4.036  -2.812  0.00  0.00     0.003 A 
ENDROOT
TORSDOF 0
ENDMDL
