MODEL 1
REMARK minimizedAffinity -2.29559469
REMARK minimizedRMSD -1
REMARK  0 active torsions:
REMARK  status: ('A' for Active; 'I' for Inactive)
ROOT
ATOM      1  C2' OXE d   1       5.222  -5.831  -0.977  0.00  0.00     0.078 C 
ATOM      2  C1' OXE d   1       4.864  -5.498  -3.741  0.00  0.00     0.078 C 
ATOM      3  C1  OXE d   1       4.615  -4.306  -2.851  0.00  0.00    -0.078 A 
ATOM      4  C2  OXE d   1       4.747  -4.491  -1.496  0.00  0.00    -0.078 A 
ATOM      5  C3  OXE d   1       4.583  -3.410  -0.634  0.00  0.00     0.003 A 
ATOM      6  C4  OXE d   1       4.134  -2.177  -1.121  0.00  0.00    -0.002 A 
ATOM      7  C5  OXE d   1       3.955  -1.979  -2.495  0.00  0.00    -0.002 A 
ATOM      8  C6  OXE d   1       4.231  -3.019  -3.375  0.00  0.00     0.003 A 
ENDROOT
TORSDOF 0
ENDMDL
