MODEL 1
REMARK minimizedAffinity 5.15136337
REMARK minimizedRMSD -1
REMARK  0 active torsions:
REMARK  status: ('A' for Active; 'I' for Inactive)
ROOT
ATOM      1  C2' OXE d   1       4.944  -2.211  -0.657  0.00  0.00     0.078 C 
ATOM      2  C1' OXE d   1       3.889  -2.328  -3.255  0.00  0.00     0.078 C 
ATOM      3  C1  OXE d   1       3.536  -3.442  -2.302  0.00  0.00    -0.078 A 
ATOM      4  C2  OXE d   1       4.094  -3.401  -1.047  0.00  0.00    -0.078 A 
ATOM      5  C3  OXE d   1       3.758  -4.374  -0.110  0.00  0.00     0.003 A 
ATOM      6  C4  OXE d   1       2.980  -5.477  -0.482  0.00  0.00    -0.002 A 
ATOM      7  C5  OXE d   1       2.433  -5.559  -1.767  0.00  0.00    -0.002 A 
ATOM      8  C6  OXE d   1       2.666  -4.531  -2.674  0.00  0.00     0.003 A 
ENDROOT
TORSDOF 0
ENDMDL
