MODEL 1
REMARK minimizedAffinity 7.73000479
REMARK minimizedRMSD -1
REMARK  0 active torsions:
REMARK  status: ('A' for Active; 'I' for Inactive)
ROOT
ATOM      1  C2' OXE d   1       1.972  -4.893  -1.360  0.00  0.00     0.078 C 
ATOM      2  C1' OXE d   1       2.612  -3.965  -3.931  0.00  0.00     0.078 C 
ATOM      3  C1  OXE d   1       3.686  -4.686  -3.155  0.00  0.00    -0.078 A 
ATOM      4  C2  OXE d   1       3.379  -5.096  -1.880  0.00  0.00    -0.078 A 
ATOM      5  C3  OXE d   1       4.315  -5.814  -1.142  0.00  0.00     0.003 A 
ATOM      6  C4  OXE d   1       5.617  -5.988  -1.626  0.00  0.00    -0.002 A 
ATOM      7  C5  OXE d   1       5.964  -5.543  -2.907  0.00  0.00    -0.002 A 
ATOM      8  C6  OXE d   1       5.000  -4.930  -3.699  0.00  0.00     0.003 A 
ENDROOT
TORSDOF 0
ENDMDL
