MODEL 1
REMARK minimizedAffinity 3.49206185
REMARK minimizedRMSD -1
REMARK  0 active torsions:
REMARK  status: ('A' for Active; 'I' for Inactive)
ROOT
ATOM      1  C2' OXE d   1       3.141  -1.667  -2.608  0.00  0.00     0.078 C 
ATOM      2  C1' OXE d   1       2.131  -4.040  -1.498  0.00  0.00     0.078 C 
ATOM      3  C1  OXE d   1       3.379  -4.132  -2.340  0.00  0.00    -0.078 A 
ATOM      4  C2  OXE d   1       3.840  -2.973  -2.917  0.00  0.00    -0.078 A 
ATOM      5  C3  OXE d   1       5.018  -2.993  -3.658  0.00  0.00     0.003 A 
ATOM      6  C4  OXE d   1       5.653  -4.207  -3.948  0.00  0.00    -0.002 A 
ATOM      7  C5  OXE d   1       5.178  -5.405  -3.403  0.00  0.00    -0.002 A 
ATOM      8  C6  OXE d   1       4.069  -5.379  -2.563  0.00  0.00     0.003 A 
ENDROOT
TORSDOF 0
ENDMDL
