MODEL 1
REMARK minimizedAffinity 13.9519157
REMARK minimizedRMSD -1
REMARK  3 active torsions:
REMARK  status: ('A' for Active; 'I' for Inactive)
REMARK    1  A    between atoms: C3'_2  and  C2'_3 
REMARK    2  A    between atoms: C2'_3  and  C1'_4 
REMARK    3  A    between atoms: C1'_4  and  C1_5 
ROOT
ATOM      1  C1  N4B d   1       2.408  -0.612  -1.044  0.00  0.00    -0.075 A 
ATOM      2  C2  N4B d   1       2.963   0.115   0.032  0.00  0.00     0.002 A 
ATOM      3  C3  N4B d   1       3.309   1.434  -0.137  0.00  0.00     0.002 A 
ATOM      4  C4  N4B d   1       3.128   2.038  -1.372  0.00  0.00    -0.004 A 
ATOM      5  C5  N4B d   1       2.568   1.336  -2.399  0.00  0.00     0.002 A 
ATOM      6  C6  N4B d   1       2.212   0.011  -2.243  0.00  0.00     0.002 A 
ENDROOT
BRANCH   1   7
ATOM      7  C1' N4B d   1       2.094  -2.079  -0.933  0.00  0.00     0.057 C 
BRANCH   7   8
ATOM      8  C2' N4B d   1       2.566  -2.590   0.425  0.00  0.00     0.009 C 
BRANCH   8   9
ATOM      9  C3' N4B d   1       3.938  -3.238   0.342  0.00  0.00     0.004 C 
ATOM     10  C4' N4B d   1       5.054  -2.268   0.597  0.00  0.00     0.003 C 
ENDBRANCH   8   9
ENDBRANCH   7   8
ENDBRANCH   1   7
TORSDOF 3
ENDMDL
