MODEL 1
REMARK minimizedAffinity 12.1599112
REMARK minimizedRMSD -1
REMARK  3 active torsions:
REMARK  status: ('A' for Active; 'I' for Inactive)
REMARK    1  A    between atoms: C3'_2  and  C2'_3 
REMARK    2  A    between atoms: C2'_3  and  C1'_4 
REMARK    3  A    between atoms: C1'_4  and  C1_5 
ROOT
ATOM      1  C1  N4B d   1       2.806   0.948  -1.610  0.00  0.00    -0.075 A 
ATOM      2  C2  N4B d   1       2.085  -0.250  -1.806  0.00  0.00     0.002 A 
ATOM      3  C3  N4B d   1       2.321  -1.334  -0.997  0.00  0.00     0.002 A 
ATOM      4  C4  N4B d   1       3.284  -1.251  -0.003  0.00  0.00    -0.004 A 
ATOM      5  C5  N4B d   1       3.959  -0.082   0.197  0.00  0.00     0.002 A 
ATOM      6  C6  N4B d   1       3.728   1.017  -0.606  0.00  0.00     0.002 A 
ENDROOT
BRANCH   1   7
ATOM      7  C1' N4B d   1       2.643   2.132  -2.523  0.00  0.00     0.057 C 
BRANCH   7   8
ATOM      8  C2' N4B d   1       3.289   3.355  -1.878  0.00  0.00     0.009 C 
BRANCH   8   9
ATOM      9  C3' N4B d   1       2.289   4.476  -1.659  0.00  0.00     0.004 C 
ATOM     10  C4' N4B d   1       2.023   4.742  -0.207  0.00  0.00     0.003 C 
ENDBRANCH   8   9
ENDBRANCH   7   8
ENDBRANCH   1   7
TORSDOF 3
ENDMDL
