MODEL 1
REMARK minimizedAffinity 9.91954422
REMARK minimizedRMSD -1
REMARK  3 active torsions:
REMARK  status: ('A' for Active; 'I' for Inactive)
REMARK    1  A    between atoms: C3'_2  and  C2'_3 
REMARK    2  A    between atoms: C2'_3  and  C1'_4 
REMARK    3  A    between atoms: C1'_4  and  C1_5 
ROOT
ATOM      1  C1  N4B d   1      -3.587   1.450   3.763  0.00  0.00    -0.075 A 
ATOM      2  C2  N4B d   1      -2.957   1.553   5.023  0.00  0.00     0.002 A 
ATOM      3  C3  N4B d   1      -3.502   2.350   6.000  0.00  0.00     0.002 A 
ATOM      4  C4  N4B d   1      -4.661   3.064   5.735  0.00  0.00    -0.004 A 
ATOM      5  C5  N4B d   1      -5.277   2.939   4.524  0.00  0.00     0.002 A 
ATOM      6  C6  N4B d   1      -4.743   2.139   3.534  0.00  0.00     0.002 A 
ENDROOT
BRANCH   1   7
ATOM      7  C1' N4B d   1      -2.983   0.659   2.635  0.00  0.00     0.057 C 
BRANCH   7   8
ATOM      8  C2' N4B d   1      -1.982   1.536   1.889  0.00  0.00     0.009 C 
BRANCH   8   9
ATOM      9  C3' N4B d   1      -0.863   2.019   2.796  0.00  0.00     0.004 C 
ATOM     10  C4' N4B d   1       0.397   1.221   2.639  0.00  0.00     0.003 C 
ENDBRANCH   8   9
ENDBRANCH   7   8
ENDBRANCH   1   7
TORSDOF 3
ENDMDL
