MODEL 1
REMARK minimizedAffinity 15.2060413
REMARK minimizedRMSD -1
REMARK  3 active torsions:
REMARK  status: ('A' for Active; 'I' for Inactive)
REMARK    1  A    between atoms: C3'_2  and  C2'_3 
REMARK    2  A    between atoms: C2'_3  and  C1'_4 
REMARK    3  A    between atoms: C1'_4  and  C1_5 
ROOT
ATOM      1  C1  N4B d   1      -0.261   1.637   2.752  0.00  0.00    -0.075 A 
ATOM      2  C2  N4B d   1       0.801   1.675   1.821  0.00  0.00     0.002 A 
ATOM      3  C3  N4B d   1       2.098   1.541   2.253  0.00  0.00     0.002 A 
ATOM      4  C4  N4B d   1       2.358   1.388   3.606  0.00  0.00    -0.004 A 
ATOM      5  C5  N4B d   1       1.325   1.326   4.496  0.00  0.00     0.002 A 
ATOM      6  C6  N4B d   1       0.017   1.455   4.076  0.00  0.00     0.002 A 
ENDROOT
BRANCH   1   7
ATOM      7  C1' N4B d   1      -1.689   1.865   2.338  0.00  0.00     0.057 C 
BRANCH   7   8
ATOM      8  C2' N4B d   1      -2.617   1.236   3.374  0.00  0.00     0.009 C 
BRANCH   8   9
ATOM      9  C3' N4B d   1      -4.074   1.310   2.950  0.00  0.00     0.004 C 
ATOM     10  C4' N4B d   1      -4.848   2.344   3.712  0.00  0.00     0.003 C 
ENDBRANCH   8   9
ENDBRANCH   7   8
ENDBRANCH   1   7
TORSDOF 3
ENDMDL
