MODEL 1
REMARK minimizedAffinity 15.18717
REMARK minimizedRMSD -1
REMARK  3 active torsions:
REMARK  status: ('A' for Active; 'I' for Inactive)
REMARK    1  A    between atoms: C3'_2  and  C2'_3 
REMARK    2  A    between atoms: C2'_3  and  C1'_4 
REMARK    3  A    between atoms: C1'_4  and  C1_5 
ROOT
ATOM      1  C1  N4B d   1       2.713   0.528   0.088  0.00  0.00    -0.075 A 
ATOM      2  C2  N4B d   1       2.674  -0.867   0.307  0.00  0.00     0.002 A 
ATOM      3  C3  N4B d   1       2.260  -1.708  -0.696  0.00  0.00     0.002 A 
ATOM      4  C4  N4B d   1       1.864  -1.179  -1.915  0.00  0.00    -0.004 A 
ATOM      5  C5  N4B d   1       1.929   0.167  -2.127  0.00  0.00     0.002 A 
ATOM      6  C6  N4B d   1       2.347   1.024  -1.129  0.00  0.00     0.002 A 
ENDROOT
BRANCH   1   7
ATOM      7  C1' N4B d   1       3.077   1.494   1.182  0.00  0.00     0.057 C 
BRANCH   7   8
ATOM      8  C2' N4B d   1       1.826   2.250   1.618  0.00  0.00     0.009 C 
BRANCH   8   9
ATOM      9  C3' N4B d   1       0.958   1.424   2.552  0.00  0.00     0.004 C 
ATOM     10  C4' N4B d   1      -0.497   1.483   2.196  0.00  0.00     0.003 C 
ENDBRANCH   8   9
ENDBRANCH   7   8
ENDBRANCH   1   7
TORSDOF 3
ENDMDL
