MODEL 1
REMARK minimizedAffinity 14.8253136
REMARK minimizedRMSD -1
REMARK  3 active torsions:
REMARK  status: ('A' for Active; 'I' for Inactive)
REMARK    1  A    between atoms: C3'_2  and  C2'_3 
REMARK    2  A    between atoms: C2'_3  and  C1'_4 
REMARK    3  A    between atoms: C1'_4  and  C1_5 
ROOT
ATOM      1  C1  N4B d   1       2.411  -0.199  -1.682  0.00  0.00    -0.075 A 
ATOM      2  C2  N4B d   1       2.884  -0.824  -0.507  0.00  0.00     0.002 A 
ATOM      3  C3  N4B d   1       3.832  -0.202   0.268  0.00  0.00     0.002 A 
ATOM      4  C4  N4B d   1       4.333   1.031  -0.120  0.00  0.00    -0.004 A 
ATOM      5  C5  N4B d   1       3.852   1.640  -1.242  0.00  0.00     0.002 A 
ATOM      6  C6  N4B d   1       2.897   1.029  -2.028  0.00  0.00     0.002 A 
ENDROOT
BRANCH   1   7
ATOM      7  C1' N4B d   1       1.438  -0.878  -2.607  0.00  0.00     0.057 C 
BRANCH   7   8
ATOM      8  C2' N4B d   1       1.392  -2.367  -2.279  0.00  0.00     0.009 C 
BRANCH   8   9
ATOM      9  C3' N4B d   1       0.810  -3.182  -3.421  0.00  0.00     0.004 C 
ATOM     10  C4' N4B d   1      -0.590  -3.647  -3.150  0.00  0.00     0.003 C 
ENDBRANCH   8   9
ENDBRANCH   7   8
ENDBRANCH   1   7
TORSDOF 3
ENDMDL
