MODEL 1
REMARK minimizedAffinity 16.1168861
REMARK minimizedRMSD -1
REMARK  3 active torsions:
REMARK  status: ('A' for Active; 'I' for Inactive)
REMARK    1  A    between atoms: C3'_2  and  C2'_3 
REMARK    2  A    between atoms: C2'_3  and  C1'_4 
REMARK    3  A    between atoms: C1'_4  and  C1_5 
ROOT
ATOM      1  C1  N4B d   1      -3.722   1.700   3.815  0.00  0.00    -0.075 A 
ATOM      2  C2  N4B d   1      -3.249   1.854   5.137  0.00  0.00     0.002 A 
ATOM      3  C3  N4B d   1      -3.876   2.726   5.993  0.00  0.00     0.002 A 
ATOM      4  C4  N4B d   1      -4.960   3.466   5.546  0.00  0.00    -0.004 A 
ATOM      5  C5  N4B d   1      -5.426   3.293   4.276  0.00  0.00     0.002 A 
ATOM      6  C6  N4B d   1      -4.809   2.417   3.405  0.00  0.00     0.002 A 
ENDROOT
BRANCH   1   7
ATOM      7  C1' N4B d   1      -3.018   0.823   2.816  0.00  0.00     0.057 C 
BRANCH   7   8
ATOM      8  C2' N4B d   1      -1.919   1.628   2.129  0.00  0.00     0.009 C 
BRANCH   8   9
ATOM      9  C3' N4B d   1      -0.554   0.981   2.292  0.00  0.00     0.004 C 
ATOM     10  C4' N4B d   1       0.440   1.883   2.959  0.00  0.00     0.003 C 
ENDBRANCH   8   9
ENDBRANCH   7   8
ENDBRANCH   1   7
TORSDOF 3
ENDMDL
