MODEL 1
REMARK minimizedAffinity 10.2030525
REMARK minimizedRMSD -1
REMARK  3 active torsions:
REMARK  status: ('A' for Active; 'I' for Inactive)
REMARK    1  A    between atoms: C3'_2  and  C2'_3 
REMARK    2  A    between atoms: C2'_3  and  C1'_4 
REMARK    3  A    between atoms: C1'_4  and  C1_5 
ROOT
ATOM      1  C1  N4B d   1       3.019  -1.364   0.293  0.00  0.00    -0.075 A 
ATOM      2  C2  N4B d   1       2.376  -2.621   0.295  0.00  0.00     0.002 A 
ATOM      3  C3  N4B d   1       3.100  -3.763   0.536  0.00  0.00     0.002 A 
ATOM      4  C4  N4B d   1       4.466  -3.674   0.758  0.00  0.00    -0.004 A 
ATOM      5  C5  N4B d   1       5.075  -2.454   0.781  0.00  0.00     0.002 A 
ATOM      6  C6  N4B d   1       4.359  -1.298   0.544  0.00  0.00     0.002 A 
ENDROOT
BRANCH   1   7
ATOM      7  C1' N4B d   1       2.285  -0.097  -0.050  0.00  0.00     0.057 C 
BRANCH   7   8
ATOM      8  C2' N4B d   1       2.149   0.759   1.206  0.00  0.00     0.009 C 
BRANCH   8   9
ATOM      9  C3' N4B d   1       0.725   0.767   1.736  0.00  0.00     0.004 C 
ATOM     10  C4' N4B d   1       0.647   1.158   3.182  0.00  0.00     0.003 C 
ENDBRANCH   8   9
ENDBRANCH   7   8
ENDBRANCH   1   7
TORSDOF 3
ENDMDL
