MODEL 1
REMARK minimizedAffinity 7.47324705
REMARK minimizedRMSD -1
REMARK  3 active torsions:
REMARK  status: ('A' for Active; 'I' for Inactive)
REMARK    1  A    between atoms: C3'_2  and  C2'_3 
REMARK    2  A    between atoms: C2'_3  and  C1'_4 
REMARK    3  A    between atoms: C1'_4  and  C1_5 
ROOT
ATOM      1  C1  N4B d   1      -0.304   1.056   1.552  0.00  0.00    -0.075 A 
ATOM      2  C2  N4B d   1       0.412   0.592   0.426  0.00  0.00     0.002 A 
ATOM      3  C3  N4B d   1       1.783   0.670   0.405  0.00  0.00     0.002 A 
ATOM      4  C4  N4B d   1       2.455   1.224   1.484  0.00  0.00    -0.004 A 
ATOM      5  C5  N4B d   1       1.758   1.647   2.577  0.00  0.00     0.002 A 
ATOM      6  C6  N4B d   1       0.380   1.571   2.614  0.00  0.00     0.002 A 
ENDROOT
BRANCH   1   7
ATOM      7  C1' N4B d   1      -1.808   1.071   1.586  0.00  0.00     0.057 C 
BRANCH   7   8
ATOM      8  C2' N4B d   1      -2.273   1.530   2.964  0.00  0.00     0.009 C 
BRANCH   8   9
ATOM      9  C3' N4B d   1      -3.709   1.119   3.245  0.00  0.00     0.004 C 
ATOM     10  C4' N4B d   1      -4.348   1.943   4.323  0.00  0.00     0.003 C 
ENDBRANCH   8   9
ENDBRANCH   7   8
ENDBRANCH   1   7
TORSDOF 3
ENDMDL
