MODEL 1
REMARK minimizedAffinity 8.0215807
REMARK minimizedRMSD -1
REMARK  3 active torsions:
REMARK  status: ('A' for Active; 'I' for Inactive)
REMARK    1  A    between atoms: C3'_2  and  C2'_3 
REMARK    2  A    between atoms: C2'_3  and  C1'_4 
REMARK    3  A    between atoms: C1'_4  and  C1_5 
ROOT
ATOM      1  C1  N4B d   1      -0.810  -3.169  -3.018  0.00  0.00    -0.075 A 
ATOM      2  C2  N4B d   1      -1.492  -2.278  -3.876  0.00  0.00     0.002 A 
ATOM      3  C3  N4B d   1      -2.798  -2.523  -4.221  0.00  0.00     0.002 A 
ATOM      4  C4  N4B d   1      -3.434  -3.657  -3.739  0.00  0.00    -0.004 A 
ATOM      5  C5  N4B d   1      -2.776  -4.499  -2.891  0.00  0.00     0.002 A 
ATOM      6  C6  N4B d   1      -1.464  -4.263  -2.532  0.00  0.00     0.002 A 
ENDROOT
BRANCH   1   7
ATOM      7  C1' N4B d   1       0.645  -2.989  -2.681  0.00  0.00     0.057 C 
BRANCH   7   8
ATOM      8  C2' N4B d   1       0.913  -1.515  -2.389  0.00  0.00     0.009 C 
BRANCH   8   9
ATOM      9  C3' N4B d   1       1.716  -1.326  -1.113  0.00  0.00     0.004 C 
ATOM     10  C4' N4B d   1       1.969  -2.614  -0.389  0.00  0.00     0.003 C 
ENDBRANCH   8   9
ENDBRANCH   7   8
ENDBRANCH   1   7
TORSDOF 3
ENDMDL
