MODEL 1
REMARK minimizedAffinity 12.2495737
REMARK minimizedRMSD -1
REMARK  3 active torsions:
REMARK  status: ('A' for Active; 'I' for Inactive)
REMARK    1  A    between atoms: C3'_2  and  C2'_3 
REMARK    2  A    between atoms: C2'_3  and  C1'_4 
REMARK    3  A    between atoms: C1'_4  and  C1_5 
ROOT
ATOM      1  C1  N4B d   1       3.472  -2.130   4.085  0.00  0.00    -0.075 A 
ATOM      2  C2  N4B d   1       4.618  -2.206   3.264  0.00  0.00     0.002 A 
ATOM      3  C3  N4B d   1       5.868  -2.247   3.831  0.00  0.00     0.002 A 
ATOM      4  C4  N4B d   1       5.997  -2.194   5.211  0.00  0.00    -0.004 A 
ATOM      5  C5  N4B d   1       4.884  -2.146   5.998  0.00  0.00     0.002 A 
ATOM      6  C6  N4B d   1       3.621  -2.108   5.442  0.00  0.00     0.002 A 
ENDROOT
BRANCH   1   7
ATOM      7  C1' N4B d   1       2.089  -1.996   3.508  0.00  0.00     0.057 C 
BRANCH   7   8
ATOM      8  C2' N4B d   1       2.108  -0.949   2.399  0.00  0.00     0.009 C 
BRANCH   8   9
ATOM      9  C3' N4B d   1       2.235   0.461   2.951  0.00  0.00     0.004 C 
ATOM     10  C4' N4B d   1       2.745   1.439   1.935  0.00  0.00     0.003 C 
ENDBRANCH   8   9
ENDBRANCH   7   8
ENDBRANCH   1   7
TORSDOF 3
ENDMDL
