MODEL 1
REMARK minimizedAffinity -0.400534987
REMARK minimizedRMSD -1
REMARK  3 active torsions:
REMARK  status: ('A' for Active; 'I' for Inactive)
REMARK    1  A    between atoms: C3'_2  and  C2'_3 
REMARK    2  A    between atoms: C2'_3  and  C1'_4 
REMARK    3  A    between atoms: C1'_4  and  C1_5 
ROOT
ATOM      1  C1  N4B d   1       2.802   0.105   3.444  0.00  0.00    -0.075 A 
ATOM      2  C2  N4B d   1       3.364   0.408   2.184  0.00  0.00     0.002 A 
ATOM      3  C3  N4B d   1       3.544   1.717   1.809  0.00  0.00     0.002 A 
ATOM      4  C4  N4B d   1       3.153   2.735   2.665  0.00  0.00    -0.004 A 
ATOM      5  C5  N4B d   1       2.635   2.434   3.891  0.00  0.00     0.002 A 
ATOM      6  C6  N4B d   1       2.452   1.123   4.282  0.00  0.00     0.002 A 
ENDROOT
BRANCH   1   7
ATOM      7  C1' N4B d   1       2.508  -1.310   3.863  0.00  0.00     0.057 C 
BRANCH   7   8
ATOM      8  C2' N4B d   1       3.308  -1.636   5.120  0.00  0.00     0.009 C 
BRANCH   8   9
ATOM      9  C3' N4B d   1       4.670  -2.222   4.791  0.00  0.00     0.004 C 
ATOM     10  C4' N4B d   1       5.551  -2.358   5.997  0.00  0.00     0.003 C 
ENDBRANCH   8   9
ENDBRANCH   7   8
ENDBRANCH   1   7
TORSDOF 3
ENDMDL
