MODEL 1
REMARK minimizedAffinity 4.35007954
REMARK minimizedRMSD -1
REMARK  3 active torsions:
REMARK  status: ('A' for Active; 'I' for Inactive)
REMARK    1  A    between atoms: C3'_2  and  C2'_3 
REMARK    2  A    between atoms: C2'_3  and  C1'_4 
REMARK    3  A    between atoms: C1'_4  and  C1_5 
ROOT
ATOM      1  C1  N4B d   1       3.579  -2.170   4.021  0.00  0.00    -0.075 A 
ATOM      2  C2  N4B d   1       4.779  -1.860   3.344  0.00  0.00     0.002 A 
ATOM      3  C3  N4B d   1       5.977  -1.906   4.014  0.00  0.00     0.002 A 
ATOM      4  C4  N4B d   1       5.998  -2.241   5.360  0.00  0.00    -0.004 A 
ATOM      5  C5  N4B d   1       4.837  -2.564   6.000  0.00  0.00     0.002 A 
ATOM      6  C6  N4B d   1       3.626  -2.525   5.338  0.00  0.00     0.002 A 
ENDROOT
BRANCH   1   7
ATOM      7  C1' N4B d   1       2.236  -2.050   3.353  0.00  0.00     0.057 C 
BRANCH   7   8
ATOM      8  C2' N4B d   1       1.897  -0.573   3.174  0.00  0.00     0.009 C 
BRANCH   8   9
ATOM      9  C3' N4B d   1       2.786   0.094   2.139  0.00  0.00     0.004 C 
ATOM     10  C4' N4B d   1       2.992   1.555   2.405  0.00  0.00     0.003 C 
ENDBRANCH   8   9
ENDBRANCH   7   8
ENDBRANCH   1   7
TORSDOF 3
ENDMDL
