MODEL 1
REMARK minimizedAffinity 4.11245966
REMARK minimizedRMSD -1
REMARK  3 active torsions:
REMARK  status: ('A' for Active; 'I' for Inactive)
REMARK    1  A    between atoms: C3'_2  and  C2'_3 
REMARK    2  A    between atoms: C2'_3  and  C1'_4 
REMARK    3  A    between atoms: C1'_4  and  C1_5 
ROOT
ATOM      1  C1  N4B d   1       2.236  -0.065   3.343  0.00  0.00    -0.075 A 
ATOM      2  C2  N4B d   1       1.912   0.813   4.400  0.00  0.00     0.002 A 
ATOM      3  C3  N4B d   1       2.278   2.136   4.331  0.00  0.00     0.002 A 
ATOM      4  C4  N4B d   1       2.981   2.596   3.228  0.00  0.00    -0.004 A 
ATOM      5  C5  N4B d   1       3.267   1.747   2.199  0.00  0.00     0.002 A 
ATOM      6  C6  N4B d   1       2.903   0.416   2.253  0.00  0.00     0.002 A 
ENDROOT
BRANCH   1   7
ATOM      7  C1' N4B d   1       1.933  -1.537   3.412  0.00  0.00     0.057 C 
BRANCH   7   8
ATOM      8  C2' N4B d   1       3.176  -2.282   3.888  0.00  0.00     0.009 C 
BRANCH   8   9
ATOM      9  C3' N4B d   1       3.071  -3.778   3.644  0.00  0.00     0.004 C 
ATOM     10  C4' N4B d   1       2.733  -4.547   4.887  0.00  0.00     0.003 C 
ENDBRANCH   8   9
ENDBRANCH   7   8
ENDBRANCH   1   7
TORSDOF 3
ENDMDL
