MODEL 1
REMARK minimizedAffinity 1.49733794
REMARK minimizedRMSD -1
REMARK  3 active torsions:
REMARK  status: ('A' for Active; 'I' for Inactive)
REMARK    1  A    between atoms: C3'_2  and  C2'_3 
REMARK    2  A    between atoms: C2'_3  and  C1'_4 
REMARK    3  A    between atoms: C1'_4  and  C1_5 
ROOT
ATOM      1  C1  N4B d   1       1.870  -2.651   4.080  0.00  0.00    -0.075 A 
ATOM      2  C2  N4B d   1       2.625  -3.211   3.026  0.00  0.00     0.002 A 
ATOM      3  C3  N4B d   1       2.967  -2.441   1.942  0.00  0.00     0.002 A 
ATOM      4  C4  N4B d   1       2.552  -1.119   1.882  0.00  0.00    -0.004 A 
ATOM      5  C5  N4B d   1       1.846  -0.578   2.916  0.00  0.00     0.002 A 
ATOM      6  C6  N4B d   1       1.498  -1.340   4.013  0.00  0.00     0.002 A 
ENDROOT
BRANCH   1   7
ATOM      7  C1' N4B d   1       1.399  -3.477   5.246  0.00  0.00     0.057 C 
BRANCH   7   8
ATOM      8  C2' N4B d   1       1.535  -4.957   4.899  0.00  0.00     0.009 C 
BRANCH   8   9
ATOM      9  C3' N4B d   1       0.272  -5.735   5.224  0.00  0.00     0.004 C 
ATOM     10  C4' N4B d   1      -0.730  -4.924   5.989  0.00  0.00     0.003 C 
ENDBRANCH   8   9
ENDBRANCH   7   8
ENDBRANCH   1   7
TORSDOF 3
ENDMDL
