MODEL 1
REMARK minimizedAffinity -2.09976053
REMARK minimizedRMSD -1
REMARK  0 active torsions:
REMARK  status: ('A' for Active; 'I' for Inactive)
ROOT
ATOM      1  C   UNL d   1      -0.597   0.372   0.120  0.00  0.00     0.078 C 
ATOM      2  C1  UNL d   1      -1.207   0.598   1.471  0.00  0.00    -0.077 A 
ATOM      3  C2  UNL d   1      -0.579   1.417   2.418  0.00  0.00    -0.001 A 
ATOM      4  C3  UNL d   1      -1.153   1.610   3.675  0.00  0.00     0.003 A 
ATOM      5  C4  UNL d   1      -2.357   0.988   3.998  0.00  0.00    -0.005 A 
ATOM      6  C5  UNL d   1      -2.988   0.170   3.063  0.00  0.00     0.003 A 
ATOM      7  C6  UNL d   1      -2.416  -0.025   1.805  0.00  0.00    -0.001 A 
ENDROOT
TORSDOF 0
ENDMDL
