MODEL 1
REMARK minimizedAffinity -2.77467823
REMARK minimizedRMSD -1
REMARK  0 active torsions:
REMARK  status: ('A' for Active; 'I' for Inactive)
ROOT
ATOM      1  C   UNL d   1      -2.705  -2.696  -0.870  0.00  0.00     0.078 C 
ATOM      2  C1  UNL d   1      -1.406  -2.067  -0.465  0.00  0.00    -0.077 A 
ATOM      3  C2  UNL d   1      -1.275  -0.676  -0.375  0.00  0.00    -0.001 A 
ATOM      4  C3  UNL d   1      -0.057  -0.103  -0.005  0.00  0.00     0.003 A 
ATOM      5  C4  UNL d   1       1.040  -0.915   0.276  0.00  0.00    -0.005 A 
ATOM      6  C5  UNL d   1       0.921  -2.300   0.188  0.00  0.00     0.003 A 
ATOM      7  C6  UNL d   1      -0.297  -2.874  -0.182  0.00  0.00    -0.001 A 
ENDROOT
TORSDOF 0
ENDMDL
