MODEL 1
REMARK minimizedAffinity -4.82705307
REMARK minimizedRMSD -1
REMARK  0 active torsions:
REMARK  status: ('A' for Active; 'I' for Inactive)
ROOT
ATOM      1  C   UNL d   1       3.344  -0.399  -1.560  0.00  0.00     0.078 C 
ATOM      2  C1  UNL d   1       1.979  -0.109  -1.012  0.00  0.00    -0.077 A 
ATOM      3  C2  UNL d   1       1.234  -1.105  -0.369  0.00  0.00    -0.001 A 
ATOM      4  C3  UNL d   1      -0.040  -0.823   0.129  0.00  0.00     0.003 A 
ATOM      5  C4  UNL d   1      -0.579   0.454  -0.013  0.00  0.00    -0.005 A 
ATOM      6  C5  UNL d   1       0.154   1.450  -0.653  0.00  0.00     0.003 A 
ATOM      7  C6  UNL d   1       1.428   1.171  -1.151  0.00  0.00    -0.001 A 
ENDROOT
TORSDOF 0
ENDMDL
