MODEL 1
REMARK minimizedAffinity -4.03642368
REMARK minimizedRMSD -1
REMARK  0 active torsions:
REMARK  status: ('A' for Active; 'I' for Inactive)
ROOT
ATOM      1  C   UNL d   1      -2.893  -1.557   0.033  0.00  0.00     0.078 C 
ATOM      2  C1  UNL d   1      -2.597  -0.657   1.195  0.00  0.00    -0.077 A 
ATOM      3  C2  UNL d   1      -1.433   0.121   1.225  0.00  0.00    -0.001 A 
ATOM      4  C3  UNL d   1      -1.164   0.947   2.318  0.00  0.00     0.003 A 
ATOM      5  C4  UNL d   1      -2.055   1.003   3.388  0.00  0.00    -0.005 A 
ATOM      6  C5  UNL d   1      -3.215   0.231   3.368  0.00  0.00     0.003 A 
ATOM      7  C6  UNL d   1      -3.484  -0.596   2.276  0.00  0.00    -0.001 A 
ENDROOT
TORSDOF 0
ENDMDL
