MODEL 1
REMARK minimizedAffinity -3.04409528
REMARK minimizedRMSD -1
REMARK  0 active torsions:
REMARK  status: ('A' for Active; 'I' for Inactive)
ROOT
ATOM      1  C   UNL d   1      -2.693  -3.275  -0.486  0.00  0.00     0.078 C 
ATOM      2  C1  UNL d   1      -1.762  -2.139  -0.185  0.00  0.00    -0.077 A 
ATOM      3  C2  UNL d   1      -2.244  -0.832  -0.036  0.00  0.00    -0.001 A 
ATOM      4  C3  UNL d   1      -1.365   0.217   0.235  0.00  0.00     0.003 A 
ATOM      5  C4  UNL d   1       0.002  -0.028   0.357  0.00  0.00    -0.005 A 
ATOM      6  C5  UNL d   1       0.490  -1.324   0.208  0.00  0.00     0.003 A 
ATOM      7  C6  UNL d   1      -0.387  -2.376  -0.063  0.00  0.00    -0.001 A 
ENDROOT
TORSDOF 0
ENDMDL
