MODEL 1
REMARK minimizedAffinity -3.86121178
REMARK minimizedRMSD -1
REMARK  0 active torsions:
REMARK  status: ('A' for Active; 'I' for Inactive)
ROOT
ATOM      1  C   UNL d   1       3.372  -0.365  -1.148  0.00  0.00     0.078 C 
ATOM      2  C1  UNL d   1       1.968   0.013  -0.781  0.00  0.00    -0.077 A 
ATOM      3  C2  UNL d   1       1.443   1.264  -1.128  0.00  0.00    -0.001 A 
ATOM      4  C3  UNL d   1       0.138   1.605  -0.772  0.00  0.00     0.003 A 
ATOM      5  C4  UNL d   1      -0.654   0.702  -0.065  0.00  0.00    -0.005 A 
ATOM      6  C5  UNL d   1      -0.139  -0.544   0.287  0.00  0.00     0.003 A 
ATOM      7  C6  UNL d   1       1.166  -0.888  -0.069  0.00  0.00    -0.001 A 
ENDROOT
TORSDOF 0
ENDMDL
