MODEL 1
REMARK minimizedAffinity -3.01956511
REMARK minimizedRMSD -1
REMARK  0 active torsions:
REMARK  status: ('A' for Active; 'I' for Inactive)
ROOT
ATOM      1  C   UNL d   1      -2.665  -2.921  -1.108  0.00  0.00     0.078 C 
ATOM      2  C1  UNL d   1      -1.593  -1.947  -0.718  0.00  0.00    -0.077 A 
ATOM      3  C2  UNL d   1      -0.255  -2.348  -0.623  0.00  0.00    -0.001 A 
ATOM      4  C3  UNL d   1       0.731  -1.433  -0.250  0.00  0.00     0.003 A 
ATOM      5  C4  UNL d   1       0.390  -0.112   0.031  0.00  0.00    -0.005 A 
ATOM      6  C5  UNL d   1      -0.940   0.296  -0.059  0.00  0.00     0.003 A 
ATOM      7  C6  UNL d   1      -1.927  -0.618  -0.431  0.00  0.00    -0.001 A 
ENDROOT
TORSDOF 0
ENDMDL
