MODEL 1
REMARK minimizedAffinity -3.66328788
REMARK minimizedRMSD -1
REMARK  0 active torsions:
REMARK  status: ('A' for Active; 'I' for Inactive)
ROOT
ATOM      1  C   UNL d   1       1.753  -3.235  -2.997  0.00  0.00     0.078 C 
ATOM      2  C1  UNL d   1       1.807  -2.244  -1.872  0.00  0.00    -0.077 A 
ATOM      3  C2  UNL d   1       0.864  -2.275  -0.838  0.00  0.00    -0.001 A 
ATOM      4  C3  UNL d   1       0.920  -1.340   0.197  0.00  0.00     0.003 A 
ATOM      5  C4  UNL d   1       1.918  -0.367   0.208  0.00  0.00    -0.005 A 
ATOM      6  C5  UNL d   1       2.860  -0.328  -0.819  0.00  0.00     0.003 A 
ATOM      7  C6  UNL d   1       2.804  -1.261  -1.855  0.00  0.00    -0.001 A 
ENDROOT
TORSDOF 0
ENDMDL
