MODEL 1
REMARK minimizedAffinity 0.379428834
REMARK minimizedRMSD -1
REMARK  0 active torsions:
REMARK  status: ('A' for Active; 'I' for Inactive)
ROOT
ATOM      1  C   UNL d   1       5.617   5.999  -1.562  0.00  0.00     0.078 C 
ATOM      2  C1  UNL d   1       4.503   5.992  -2.565  0.00  0.00    -0.077 A 
ATOM      3  C2  UNL d   1       4.770   5.994  -3.940  0.00  0.00    -0.001 A 
ATOM      4  C3  UNL d   1       3.723   5.997  -4.862  0.00  0.00     0.003 A 
ATOM      5  C4  UNL d   1       2.402   5.999  -4.421  0.00  0.00    -0.005 A 
ATOM      6  C5  UNL d   1       2.126   5.998  -3.055  0.00  0.00     0.003 A 
ATOM      7  C6  UNL d   1       3.172   5.995  -2.131  0.00  0.00    -0.001 A 
ENDROOT
TORSDOF 0
ENDMDL
