MODEL 1
REMARK minimizedAffinity -1.39950705
REMARK minimizedRMSD -1
REMARK  0 active torsions:
REMARK  status: ('A' for Active; 'I' for Inactive)
ROOT
ATOM      1  C   UNL d   1       4.501   1.988   4.571  0.00  0.00     0.078 C 
ATOM      2  C1  UNL d   1       4.800   3.380   4.102  0.00  0.00    -0.077 A 
ATOM      3  C2  UNL d   1       4.196   3.898   2.950  0.00  0.00    -0.001 A 
ATOM      4  C3  UNL d   1       4.491   5.193   2.519  0.00  0.00     0.003 A 
ATOM      5  C4  UNL d   1       5.392   5.979   3.233  0.00  0.00    -0.005 A 
ATOM      6  C5  UNL d   1       6.000   5.472   4.380  0.00  0.00     0.003 A 
ATOM      7  C6  UNL d   1       5.706   4.178   4.812  0.00  0.00    -0.001 A 
ENDROOT
TORSDOF 0
ENDMDL
