MODEL 1
REMARK minimizedAffinity -4.40541935
REMARK minimizedRMSD -1
REMARK  0 active torsions:
REMARK  status: ('A' for Active; 'I' for Inactive)
ROOT
ATOM      1  C   UNL d   1       5.264   0.694   4.352  0.00  0.00     0.078 C 
ATOM      2  C1  UNL d   1       5.353   2.142   3.974  0.00  0.00    -0.077 A 
ATOM      3  C2  UNL d   1       5.198   2.551   2.643  0.00  0.00    -0.001 A 
ATOM      4  C3  UNL d   1       5.293   3.901   2.304  0.00  0.00     0.003 A 
ATOM      5  C4  UNL d   1       5.546   4.854   3.289  0.00  0.00    -0.005 A 
ATOM      6  C5  UNL d   1       5.705   4.456   4.615  0.00  0.00     0.003 A 
ATOM      7  C6  UNL d   1       5.609   3.106   4.956  0.00  0.00    -0.001 A 
ENDROOT
TORSDOF 0
ENDMDL
