MODEL 1
REMARK minimizedAffinity -2.5512991
REMARK minimizedRMSD -1
REMARK  0 active torsions:
REMARK  status: ('A' for Active; 'I' for Inactive)
ROOT
ATOM      1  C   UNL d   1       5.674   2.095   4.773  0.00  0.00     0.078 C 
ATOM      2  C1  UNL d   1       5.690   0.596   4.779  0.00  0.00    -0.077 A 
ATOM      3  C2  UNL d   1       5.394  -0.133   3.621  0.00  0.00    -0.001 A 
ATOM      4  C3  UNL d   1       5.402  -1.529   3.643  0.00  0.00     0.003 A 
ATOM      5  C4  UNL d   1       5.706  -2.208   4.822  0.00  0.00    -0.005 A 
ATOM      6  C5  UNL d   1       6.000  -1.491   5.980  0.00  0.00     0.003 A 
ATOM      7  C6  UNL d   1       5.992  -0.095   5.959  0.00  0.00    -0.001 A 
ENDROOT
TORSDOF 0
ENDMDL
