MODEL 1
REMARK minimizedAffinity -4.09446526
REMARK minimizedRMSD -1
REMARK  0 active torsions:
REMARK  status: ('A' for Active; 'I' for Inactive)
ROOT
ATOM      1  C   UNL d   1       5.643  -2.704   4.504  0.00  0.00     0.078 C 
ATOM      2  C1  UNL d   1       5.546  -1.350   3.866  0.00  0.00    -0.077 A 
ATOM      3  C2  UNL d   1       5.051  -1.199   2.565  0.00  0.00    -0.001 A 
ATOM      4  C3  UNL d   1       4.976   0.066   1.981  0.00  0.00     0.003 A 
ATOM      5  C4  UNL d   1       5.396   1.190   2.690  0.00  0.00    -0.005 A 
ATOM      6  C5  UNL d   1       5.892   1.050   3.985  0.00  0.00     0.003 A 
ATOM      7  C6  UNL d   1       5.968  -0.215   4.570  0.00  0.00    -0.001 A 
ENDROOT
TORSDOF 0
ENDMDL
