MODEL 1
REMARK minimizedAffinity -2.89612341
REMARK minimizedRMSD -1
REMARK  0 active torsions:
REMARK  status: ('A' for Active; 'I' for Inactive)
ROOT
ATOM      1  C   UNL d   1       5.510   3.259   4.858  0.00  0.00     0.078 C 
ATOM      2  C1  UNL d   1       5.502   1.759   4.879  0.00  0.00    -0.077 A 
ATOM      3  C2  UNL d   1       5.021   1.056   5.990  0.00  0.00    -0.001 A 
ATOM      4  C3  UNL d   1       5.028  -0.340   5.999  0.00  0.00     0.003 A 
ATOM      5  C4  UNL d   1       5.516  -1.044   4.901  0.00  0.00    -0.005 A 
ATOM      6  C5  UNL d   1       5.999  -0.353   3.791  0.00  0.00     0.003 A 
ATOM      7  C6  UNL d   1       5.993   1.043   3.780  0.00  0.00    -0.001 A 
ENDROOT
TORSDOF 0
ENDMDL
