MODEL 1
REMARK minimizedAffinity -1.64514256
REMARK minimizedRMSD -1
REMARK  0 active torsions:
REMARK  status: ('A' for Active; 'I' for Inactive)
ROOT
ATOM      1  C   UNL d   1       5.544   2.412   3.671  0.00  0.00     0.078 C 
ATOM      2  C1  UNL d   1       5.150   3.594   2.837  0.00  0.00    -0.077 A 
ATOM      3  C2  UNL d   1       5.379   4.901   3.284  0.00  0.00    -0.001 A 
ATOM      4  C3  UNL d   1       4.998   5.992   2.502  0.00  0.00     0.003 A 
ATOM      5  C4  UNL d   1       4.384   5.787   1.268  0.00  0.00    -0.005 A 
ATOM      6  C5  UNL d   1       4.150   4.491   0.815  0.00  0.00     0.003 A 
ATOM      7  C6  UNL d   1       4.530   3.398   1.596  0.00  0.00    -0.001 A 
ENDROOT
TORSDOF 0
ENDMDL
