MODEL 1
REMARK minimizedAffinity 7.01611853
REMARK minimizedRMSD -1
REMARK  2 active torsions:
REMARK  status: ('A' for Active; 'I' for Inactive)
REMARK    1  A    between atoms: C1_2  and  C2_3 
REMARK    2  A    between atoms: C2_3  and  C3_4 
ROOT
ATOM      1  C3  UNL d   1      -0.770   0.546  -0.019  0.00  0.00    -0.075 A 
ATOM      2  C4  UNL d   1      -0.122   0.128  -1.191  0.00  0.00     0.002 A 
ATOM      3  C5  UNL d   1      -0.290  -1.172  -1.668  0.00  0.00     0.002 A 
ATOM      4  C6  UNL d   1      -1.098  -2.072  -0.978  0.00  0.00    -0.004 A 
ATOM      5  C7  UNL d   1      -1.734  -1.673   0.196  0.00  0.00     0.002 A 
ATOM      6  C8  UNL d   1      -1.571  -0.372   0.674  0.00  0.00     0.002 A 
ENDROOT
BRANCH   1   7
ATOM      7  C2  UNL d   1      -0.616   1.960   0.487  0.00  0.00     0.056 C 
BRANCH   7   8
ATOM      8  C1  UNL d   1       0.717   2.227   1.194  0.00  0.00     0.007 C 
ATOM      9  C   UNL d   1       0.827   3.640   1.753  0.00  0.00     0.009 C 
ENDBRANCH   7   8
ENDBRANCH   1   7
TORSDOF 2
ENDMDL
