MODEL 1
REMARK minimizedAffinity 6.80092859
REMARK minimizedRMSD -1
REMARK  2 active torsions:
REMARK  status: ('A' for Active; 'I' for Inactive)
REMARK    1  A    between atoms: C1_2  and  C2_3 
REMARK    2  A    between atoms: C2_3  and  C3_4 
ROOT
ATOM      1  C3  UNL d   1      -2.015  -1.472   0.220  0.00  0.00    -0.075 A 
ATOM      2  C4  UNL d   1      -1.030  -1.377  -0.773  0.00  0.00     0.002 A 
ATOM      3  C5  UNL d   1      -1.153  -2.094  -1.964  0.00  0.00     0.002 A 
ATOM      4  C6  UNL d   1      -2.255  -2.921  -2.172  0.00  0.00    -0.004 A 
ATOM      5  C7  UNL d   1      -3.232  -3.035  -1.185  0.00  0.00     0.002 A 
ATOM      6  C8  UNL d   1      -3.113  -2.315   0.006  0.00  0.00     0.002 A 
ENDROOT
BRANCH   1   7
ATOM      7  C2  UNL d   1      -1.902  -0.676   1.498  0.00  0.00     0.056 C 
BRANCH   7   8
ATOM      8  C1  UNL d   1      -3.191  -0.638   2.326  0.00  0.00     0.007 C 
ATOM      9  C   UNL d   1      -3.002  -1.130   3.755  0.00  0.00     0.009 C 
ENDBRANCH   7   8
ENDBRANCH   1   7
TORSDOF 2
ENDMDL
