MODEL 1
REMARK minimizedAffinity 0.0984690487
REMARK minimizedRMSD -1
REMARK  2 active torsions:
REMARK  status: ('A' for Active; 'I' for Inactive)
REMARK    1  A    between atoms: C1_2  and  C2_3 
REMARK    2  A    between atoms: C2_3  and  C3_4 
ROOT
ATOM      1  C3  UNL d   1      -1.709  -0.642   1.149  0.00  0.00    -0.075 A 
ATOM      2  C4  UNL d   1      -2.058  -1.631   0.218  0.00  0.00     0.002 A 
ATOM      3  C5  UNL d   1      -1.226  -1.907  -0.867  0.00  0.00     0.002 A 
ATOM      4  C6  UNL d   1      -0.043  -1.192  -1.042  0.00  0.00    -0.004 A 
ATOM      5  C7  UNL d   1       0.305  -0.196  -0.133  0.00  0.00     0.002 A 
ATOM      6  C8  UNL d   1      -0.523   0.079   0.957  0.00  0.00     0.002 A 
ENDROOT
BRANCH   1   7
ATOM      7  C2  UNL d   1      -2.590  -0.359   2.343  0.00  0.00     0.056 C 
BRANCH   7   8
ATOM      8  C1  UNL d   1      -3.633   0.737   2.102  0.00  0.00     0.007 C 
ATOM      9  C   UNL d   1      -4.376   1.148   3.366  0.00  0.00     0.009 C 
ENDBRANCH   7   8
ENDBRANCH   1   7
TORSDOF 2
ENDMDL
