MODEL 1
REMARK minimizedAffinity 8.44246578
REMARK minimizedRMSD -1
REMARK  2 active torsions:
REMARK  status: ('A' for Active; 'I' for Inactive)
REMARK    1  A    between atoms: C1_2  and  C2_3 
REMARK    2  A    between atoms: C2_3  and  C3_4 
ROOT
ATOM      1  C3  UNL d   1       4.706  -2.758  -1.681  0.00  0.00    -0.075 A 
ATOM      2  C4  UNL d   1       3.553  -2.429  -2.407  0.00  0.00     0.002 A 
ATOM      3  C5  UNL d   1       3.621  -2.206  -3.783  0.00  0.00     0.002 A 
ATOM      4  C6  UNL d   1       4.843  -2.299  -4.446  0.00  0.00    -0.004 A 
ATOM      5  C7  UNL d   1       5.998  -2.610  -3.732  0.00  0.00     0.002 A 
ATOM      6  C8  UNL d   1       5.931  -2.838  -2.356  0.00  0.00     0.002 A 
ENDROOT
BRANCH   1   7
ATOM      7  C2  UNL d   1       4.634  -3.030  -0.197  0.00  0.00     0.056 C 
BRANCH   7   8
ATOM      8  C1  UNL d   1       5.997  -3.035   0.503  0.00  0.00     0.007 C 
ATOM      9  C   UNL d   1       5.905  -2.757   1.998  0.00  0.00     0.009 C 
ENDBRANCH   7   8
ENDBRANCH   1   7
TORSDOF 2
ENDMDL
