MODEL 1
REMARK minimizedAffinity 4.77006245
REMARK minimizedRMSD -1
REMARK  2 active torsions:
REMARK  status: ('A' for Active; 'I' for Inactive)
REMARK    1  A    between atoms: C1_2  and  C2_3 
REMARK    2  A    between atoms: C2_3  and  C3_4 
ROOT
ATOM      1  C3  UNL d   1      -0.482   0.489  -0.541  0.00  0.00    -0.075 A 
ATOM      2  C4  UNL d   1      -1.237  -0.532   0.055  0.00  0.00     0.002 A 
ATOM      3  C5  UNL d   1      -1.213  -1.826  -0.466  0.00  0.00     0.002 A 
ATOM      4  C6  UNL d   1      -0.445  -2.113  -1.592  0.00  0.00    -0.004 A 
ATOM      5  C7  UNL d   1       0.295  -1.103  -2.202  0.00  0.00     0.002 A 
ATOM      6  C8  UNL d   1       0.277   0.192  -1.680  0.00  0.00     0.002 A 
ENDROOT
BRANCH   1   7
ATOM      7  C2  UNL d   1      -0.480   1.885   0.035  0.00  0.00     0.056 C 
BRANCH   7   8
ATOM      8  C1  UNL d   1       0.850   2.293   0.678  0.00  0.00     0.007 C 
ATOM      9  C   UNL d   1       0.757   3.581   1.484  0.00  0.00     0.009 C 
ENDBRANCH   7   8
ENDBRANCH   1   7
TORSDOF 2
ENDMDL
