MODEL 1
REMARK minimizedAffinity 6.35045481
REMARK minimizedRMSD -1
REMARK  2 active torsions:
REMARK  status: ('A' for Active; 'I' for Inactive)
REMARK    1  A    between atoms: C1_2  and  C2_3 
REMARK    2  A    between atoms: C2_3  and  C3_4 
ROOT
ATOM      1  C3  UNL d   1       0.171   0.304   0.225  0.00  0.00    -0.075 A 
ATOM      2  C4  UNL d   1      -0.710  -0.772   0.408  0.00  0.00     0.002 A 
ATOM      3  C5  UNL d   1      -1.055  -1.595  -0.664  0.00  0.00     0.002 A 
ATOM      4  C6  UNL d   1      -0.534  -1.347  -1.932  0.00  0.00    -0.004 A 
ATOM      5  C7  UNL d   1       0.329  -0.271  -2.129  0.00  0.00     0.002 A 
ATOM      6  C8  UNL d   1       0.679   0.552  -1.057  0.00  0.00     0.002 A 
ENDROOT
BRANCH   1   7
ATOM      7  C2  UNL d   1       0.571   1.181   1.387  0.00  0.00     0.056 C 
BRANCH   7   8
ATOM      8  C1  UNL d   1       0.786   2.652   1.014  0.00  0.00     0.007 C 
ATOM      9  C   UNL d   1       0.597   3.603   2.189  0.00  0.00     0.009 C 
ENDBRANCH   7   8
ENDBRANCH   1   7
TORSDOF 2
ENDMDL
