MODEL 1
REMARK minimizedAffinity 8.23147106
REMARK minimizedRMSD -1
REMARK  2 active torsions:
REMARK  status: ('A' for Active; 'I' for Inactive)
REMARK    1  A    between atoms: C1_2  and  C2_3 
REMARK    2  A    between atoms: C2_3  and  C3_4 
ROOT
ATOM      1  C3  UNL d   1       1.177  -1.616  -0.667  0.00  0.00    -0.075 A 
ATOM      2  C4  UNL d   1       1.046  -0.234  -0.471  0.00  0.00     0.002 A 
ATOM      3  C5  UNL d   1      -0.210   0.372  -0.513  0.00  0.00     0.002 A 
ATOM      4  C6  UNL d   1      -1.348  -0.393  -0.760  0.00  0.00    -0.004 A 
ATOM      5  C7  UNL d   1      -1.228  -1.765  -0.971  0.00  0.00     0.002 A 
ATOM      6  C8  UNL d   1       0.027  -2.374  -0.926  0.00  0.00     0.002 A 
ENDROOT
BRANCH   1   7
ATOM      7  C2  UNL d   1       2.530  -2.282  -0.594  0.00  0.00     0.056 C 
BRANCH   7   8
ATOM      8  C1  UNL d   1       3.312  -2.252  -1.911  0.00  0.00     0.007 C 
ATOM      9  C   UNL d   1       4.653  -2.970  -1.830  0.00  0.00     0.009 C 
ENDBRANCH   7   8
ENDBRANCH   1   7
TORSDOF 2
ENDMDL
