MODEL 1
REMARK minimizedAffinity 2.92456031
REMARK minimizedRMSD -1
REMARK  2 active torsions:
REMARK  status: ('A' for Active; 'I' for Inactive)
REMARK    1  A    between atoms: C1_2  and  C2_3 
REMARK    2  A    between atoms: C2_3  and  C3_4 
ROOT
ATOM      1  C3  UNL d   1      -2.090  -3.268  -2.655  0.00  0.00    -0.075 A 
ATOM      2  C4  UNL d   1      -2.681  -4.535  -2.768  0.00  0.00     0.002 A 
ATOM      3  C5  UNL d   1      -2.628  -5.236  -3.973  0.00  0.00     0.002 A 
ATOM      4  C6  UNL d   1      -1.994  -4.678  -5.080  0.00  0.00    -0.004 A 
ATOM      5  C7  UNL d   1      -1.418  -3.413  -4.984  0.00  0.00     0.002 A 
ATOM      6  C8  UNL d   1      -1.465  -2.710  -3.779  0.00  0.00     0.002 A 
ENDROOT
BRANCH   1   7
ATOM      7  C2  UNL d   1      -2.118  -2.516  -1.346  0.00  0.00     0.056 C 
BRANCH   7   8
ATOM      8  C1  UNL d   1      -0.795  -1.830  -0.992  0.00  0.00     0.007 C 
ATOM      9  C   UNL d   1      -0.945  -0.748   0.069  0.00  0.00     0.009 C 
ENDBRANCH   7   8
ENDBRANCH   1   7
TORSDOF 2
ENDMDL
