MODEL 1
REMARK minimizedAffinity 8.99543858
REMARK minimizedRMSD -1
REMARK  2 active torsions:
REMARK  status: ('A' for Active; 'I' for Inactive)
REMARK    1  A    between atoms: C1_2  and  C2_3 
REMARK    2  A    between atoms: C2_3  and  C3_4 
ROOT
ATOM      1  C3  UNL d   1      -3.060   0.117   1.802  0.00  0.00    -0.075 A 
ATOM      2  C4  UNL d   1      -4.076   1.012   2.169  0.00  0.00     0.002 A 
ATOM      3  C5  UNL d   1      -4.556   1.041   3.479  0.00  0.00     0.002 A 
ATOM      4  C6  UNL d   1      -4.035   0.171   4.434  0.00  0.00    -0.004 A 
ATOM      5  C7  UNL d   1      -3.037  -0.734   4.077  0.00  0.00     0.002 A 
ATOM      6  C8  UNL d   1      -2.552  -0.762   2.768  0.00  0.00     0.002 A 
ENDROOT
BRANCH   1   7
ATOM      7  C2  UNL d   1      -2.516   0.102   0.394  0.00  0.00     0.056 C 
BRANCH   7   8
ATOM      8  C1  UNL d   1      -1.143  -0.566   0.263  0.00  0.00     0.007 C 
ATOM      9  C   UNL d   1      -1.038  -1.492  -0.942  0.00  0.00     0.009 C 
ENDBRANCH   7   8
ENDBRANCH   1   7
TORSDOF 2
ENDMDL
