MODEL 1
REMARK minimizedAffinity 6.46659088
REMARK minimizedRMSD -1
REMARK  2 active torsions:
REMARK  status: ('A' for Active; 'I' for Inactive)
REMARK    1  A    between atoms: C1_2  and  C2_3 
REMARK    2  A    between atoms: C2_3  and  C3_4 
ROOT
ATOM      1  C3  UNL d   1      -0.670  -0.146  -0.044  0.00  0.00    -0.075 A 
ATOM      2  C4  UNL d   1       0.532  -0.620  -0.587  0.00  0.00     0.002 A 
ATOM      3  C5  UNL d   1       0.570  -1.839  -1.266  0.00  0.00     0.002 A 
ATOM      4  C6  UNL d   1      -0.587  -2.601  -1.400  0.00  0.00    -0.004 A 
ATOM      5  C7  UNL d   1      -1.784  -2.148  -0.849  0.00  0.00     0.002 A 
ATOM      6  C8  UNL d   1      -1.826  -0.927  -0.174  0.00  0.00     0.002 A 
ENDROOT
BRANCH   1   7
ATOM      7  C2  UNL d   1      -0.725   1.186   0.666  0.00  0.00     0.056 C 
BRANCH   7   8
ATOM      8  C1  UNL d   1       0.539   1.518   1.467  0.00  0.00     0.007 C 
ATOM      9  C   UNL d   1       0.752   3.014   1.658  0.00  0.00     0.009 C 
ENDBRANCH   7   8
ENDBRANCH   1   7
TORSDOF 2
ENDMDL
