MODEL 1
REMARK minimizedAffinity 12.9098053
REMARK minimizedRMSD -1
REMARK  2 active torsions:
REMARK  status: ('A' for Active; 'I' for Inactive)
REMARK    1  A    between atoms: C1_2  and  C2_3 
REMARK    2  A    between atoms: C2_3  and  C3_4 
ROOT
ATOM      1  C3  UNL d   1       0.324  -1.100  -1.189  0.00  0.00    -0.075 A 
ATOM      2  C4  UNL d   1      -0.623  -2.024  -1.654  0.00  0.00     0.002 A 
ATOM      3  C5  UNL d   1      -1.791  -2.266  -0.930  0.00  0.00     0.002 A 
ATOM      4  C6  UNL d   1      -2.022  -1.595   0.269  0.00  0.00    -0.004 A 
ATOM      5  C7  UNL d   1      -1.081  -0.687   0.748  0.00  0.00     0.002 A 
ATOM      6  C8  UNL d   1       0.087  -0.441   0.024  0.00  0.00     0.002 A 
ENDROOT
BRANCH   1   7
ATOM      7  C2  UNL d   1       1.577  -0.812  -1.982  0.00  0.00     0.056 C 
BRANCH   7   8
ATOM      8  C1  UNL d   1       1.389   0.234  -3.086  0.00  0.00     0.007 C 
ATOM      9  C   UNL d   1       2.452   1.324  -3.066  0.00  0.00     0.009 C 
ENDBRANCH   7   8
ENDBRANCH   1   7
TORSDOF 2
ENDMDL
