MODEL 1
REMARK minimizedAffinity 2.22581291
REMARK minimizedRMSD -1
REMARK  2 active torsions:
REMARK  status: ('A' for Active; 'I' for Inactive)
REMARK    1  A    between atoms: C1_2  and  C2_3 
REMARK    2  A    between atoms: C2_3  and  C3_4 
ROOT
ATOM      1  C3  UNL d   1       1.380  -1.332  -1.106  0.00  0.00    -0.075 A 
ATOM      2  C4  UNL d   1       2.224  -1.204  -2.219  0.00  0.00     0.002 A 
ATOM      3  C5  UNL d   1       3.448  -1.872  -2.261  0.00  0.00     0.002 A 
ATOM      4  C6  UNL d   1       3.847  -2.668  -1.189  0.00  0.00    -0.004 A 
ATOM      5  C7  UNL d   1       3.024  -2.789  -0.072  0.00  0.00     0.002 A 
ATOM      6  C8  UNL d   1       1.797  -2.125  -0.029  0.00  0.00     0.002 A 
ENDROOT
BRANCH   1   7
ATOM      7  C2  UNL d   1       0.041  -0.635  -1.068  0.00  0.00     0.056 C 
BRANCH   7   8
ATOM      8  C1  UNL d   1      -0.947  -1.237  -0.063  0.00  0.00     0.007 C 
ATOM      9  C   UNL d   1      -1.730  -2.416  -0.625  0.00  0.00     0.009 C 
ENDBRANCH   7   8
ENDBRANCH   1   7
TORSDOF 2
ENDMDL
