MODEL 1
REMARK minimizedAffinity -3.44451118
REMARK minimizedRMSD -1
REMARK  1 active torsions:
REMARK  status: ('A' for Active; 'I' for Inactive)
REMARK    1  A    between atoms: C3_4  and  O_7 
ROOT
ATOM      1  C   UNL d   1      -1.951   1.692   1.577  0.00  0.00    -0.033 A 
ATOM      2  C1  UNL d   1      -1.889   0.451   2.214  0.00  0.00     0.039 A 
ATOM      3  C2  UNL d   1      -1.113  -0.576   1.674  0.00  0.00    -0.080 A 
ATOM      4  C3  UNL d   1      -0.403  -0.349   0.498  0.00  0.00     0.150 A 
ATOM      5  C4  UNL d   1      -0.456   0.886  -0.140  0.00  0.00    -0.007 A 
ATOM      6  C5  UNL d   1      -1.233   1.910   0.400  0.00  0.00     0.039 A 
ENDROOT
BRANCH   4   7
ATOM      7  O   UNL d   1       0.365  -1.322  -0.070  0.00  0.00    -0.526 OA
ATOM      8  H5  UNL d   1       0.283  -2.129   0.465  0.00  0.00     0.418 HD
ENDBRANCH   4   7
TORSDOF 1
ENDMDL
