MODEL 1
REMARK minimizedAffinity -3.06195307
REMARK minimizedRMSD -1
REMARK  1 active torsions:
REMARK  status: ('A' for Active; 'I' for Inactive)
REMARK    1  A    between atoms: C3_4  and  O_7 
ROOT
ATOM      1  C   UNL d   1      -1.067   3.066   1.742  0.00  0.00    -0.033 A 
ATOM      2  C1  UNL d   1      -0.417   3.249   0.520  0.00  0.00     0.039 A 
ATOM      3  C2  UNL d   1      -0.034   2.144  -0.241  0.00  0.00    -0.080 A 
ATOM      4  C3  UNL d   1      -0.307   0.862   0.229  0.00  0.00     0.150 A 
ATOM      5  C4  UNL d   1      -0.958   0.672   1.443  0.00  0.00    -0.007 A 
ATOM      6  C5  UNL d   1      -1.339   1.778   2.203  0.00  0.00     0.039 A 
ENDROOT
BRANCH   4   7
ATOM      7  O   UNL d   1       0.052  -0.247  -0.477  0.00  0.00    -0.526 OA
ATOM      8  H5  UNL d   1       0.518   0.037  -1.281  0.00  0.00     0.418 HD
ENDBRANCH   4   7
TORSDOF 1
ENDMDL
