MODEL 1
REMARK minimizedAffinity -4.40788269
REMARK minimizedRMSD -1
REMARK  1 active torsions:
REMARK  status: ('A' for Active; 'I' for Inactive)
REMARK    1  A    between atoms: C3_4  and  O_7 
ROOT
ATOM      1  C   UNL d   1      -1.367   2.202   1.518  0.00  0.00    -0.033 A 
ATOM      2  C1  UNL d   1      -0.786   1.179   2.270  0.00  0.00     0.039 A 
ATOM      3  C2  UNL d   1      -0.376  -0.002   1.647  0.00  0.00    -0.080 A 
ATOM      4  C3  UNL d   1      -0.550  -0.145   0.273  0.00  0.00     0.150 A 
ATOM      5  C4  UNL d   1      -1.124   0.872  -0.483  0.00  0.00    -0.007 A 
ATOM      6  C5  UNL d   1      -1.534   2.049   0.141  0.00  0.00     0.039 A 
ENDROOT
BRANCH   4   7
ATOM      7  O   UNL d   1      -0.169  -1.281  -0.378  0.00  0.00    -0.526 OA
ATOM      8  H5  UNL d   1       0.185  -1.907   0.275  0.00  0.00     0.418 HD
ENDBRANCH   4   7
TORSDOF 1
ENDMDL
