MODEL 1
REMARK minimizedAffinity -3.80358815
REMARK minimizedRMSD -1
REMARK  1 active torsions:
REMARK  status: ('A' for Active; 'I' for Inactive)
REMARK    1  A    between atoms: C3_4  and  O_7 
ROOT
ATOM      1  C   UNL d   1      -2.207   2.706   1.655  0.00  0.00    -0.033 A 
ATOM      2  C1  UNL d   1      -1.444   3.078   0.547  0.00  0.00     0.039 A 
ATOM      3  C2  UNL d   1      -0.612   2.145  -0.076  0.00  0.00    -0.080 A 
ATOM      4  C3  UNL d   1      -0.555   0.845   0.417  0.00  0.00     0.150 A 
ATOM      5  C4  UNL d   1      -1.316   0.466   1.518  0.00  0.00    -0.007 A 
ATOM      6  C5  UNL d   1      -2.145   1.399   2.140  0.00  0.00     0.039 A 
ENDROOT
BRANCH   4   7
ATOM      7  O   UNL d   1       0.245  -0.100  -0.154  0.00  0.00    -0.526 OA
ATOM      8  H5  UNL d   1       0.733   0.313  -0.886  0.00  0.00     0.418 HD
ENDBRANCH   4   7
TORSDOF 1
ENDMDL
