MODEL 1
REMARK minimizedAffinity -5.45016623
REMARK minimizedRMSD -1
REMARK  1 active torsions:
REMARK  status: ('A' for Active; 'I' for Inactive)
REMARK    1  A    between atoms: C3_4  and  O_7 
ROOT
ATOM      1  C   UNL d   1      -2.213   2.641   0.897  0.00  0.00    -0.033 A 
ATOM      2  C1  UNL d   1      -2.060   1.455   1.619  0.00  0.00     0.039 A 
ATOM      3  C2  UNL d   1      -1.073   0.537   1.254  0.00  0.00    -0.080 A 
ATOM      4  C3  UNL d   1      -0.247   0.817   0.169  0.00  0.00     0.150 A 
ATOM      5  C4  UNL d   1      -0.391   1.998  -0.551  0.00  0.00    -0.007 A 
ATOM      6  C5  UNL d   1      -1.378   2.913  -0.187  0.00  0.00     0.039 A 
ENDROOT
BRANCH   4   7
ATOM      7  O   UNL d   1       0.727  -0.051  -0.227  0.00  0.00    -0.526 OA
ATOM      8  H5  UNL d   1       0.692  -0.836   0.345  0.00  0.00     0.418 HD
ENDBRANCH   4   7
TORSDOF 1
ENDMDL
