MODEL 1
REMARK minimizedAffinity -5.42902708
REMARK minimizedRMSD -1
REMARK  1 active torsions:
REMARK  status: ('A' for Active; 'I' for Inactive)
REMARK    1  A    between atoms: C3_4  and  O_7 
ROOT
ATOM      1  C   UNL d   1       0.159   2.399  -0.851  0.00  0.00    -0.033 A 
ATOM      2  C1  UNL d   1      -0.594   1.267  -0.531  0.00  0.00     0.039 A 
ATOM      3  C2  UNL d   1      -1.631   1.357   0.399  0.00  0.00    -0.080 A 
ATOM      4  C3  UNL d   1      -1.906   2.582   1.000  0.00  0.00     0.150 A 
ATOM      5  C4  UNL d   1      -1.163   3.714   0.683  0.00  0.00    -0.007 A 
ATOM      6  C5  UNL d   1      -0.127   3.623  -0.245  0.00  0.00     0.039 A 
ENDROOT
BRANCH   4   7
ATOM      7  O   UNL d   1      -2.906   2.717   1.918  0.00  0.00    -0.526 OA
ATOM      8  H5  UNL d   1      -3.314   1.847   2.058  0.00  0.00     0.418 HD
ENDBRANCH   4   7
TORSDOF 1
ENDMDL
