MODEL 1
REMARK minimizedAffinity -3.64116192
REMARK minimizedRMSD -1
REMARK  1 active torsions:
REMARK  status: ('A' for Active; 'I' for Inactive)
REMARK    1  A    between atoms: C3_4  and  O_7 
ROOT
ATOM      1  C   UNL d   1       0.770  -3.905  -2.279  0.00  0.00    -0.033 A 
ATOM      2  C1  UNL d   1       1.816  -3.014  -2.029  0.00  0.00     0.039 A 
ATOM      3  C2  UNL d   1       1.560  -1.794  -1.400  0.00  0.00    -0.080 A 
ATOM      4  C3  UNL d   1       0.257  -1.477  -1.027  0.00  0.00     0.150 A 
ATOM      5  C4  UNL d   1      -0.789  -2.361  -1.270  0.00  0.00    -0.007 A 
ATOM      6  C5  UNL d   1      -0.532  -3.579  -1.898  0.00  0.00     0.039 A 
ENDROOT
BRANCH   4   7
ATOM      7  O   UNL d   1      -0.042  -0.296  -0.416  0.00  0.00    -0.526 OA
ATOM      8  H5  UNL d   1       0.774   0.226  -0.339  0.00  0.00     0.418 HD
ENDBRANCH   4   7
TORSDOF 1
ENDMDL
