MODEL 1
REMARK minimizedAffinity -4.24565554
REMARK minimizedRMSD -1
REMARK  1 active torsions:
REMARK  status: ('A' for Active; 'I' for Inactive)
REMARK    1  A    between atoms: C3_4  and  O_7 
ROOT
ATOM      1  C   UNL d   1       0.504  -0.042   0.307  0.00  0.00    -0.033 A 
ATOM      2  C1  UNL d   1      -0.174  -0.827   1.242  0.00  0.00     0.039 A 
ATOM      3  C2  UNL d   1      -1.384  -0.385   1.781  0.00  0.00    -0.080 A 
ATOM      4  C3  UNL d   1      -1.905   0.841   1.376  0.00  0.00     0.150 A 
ATOM      5  C4  UNL d   1      -1.237   1.626   0.442  0.00  0.00    -0.007 A 
ATOM      6  C5  UNL d   1      -0.028   1.184  -0.094  0.00  0.00     0.039 A 
ENDROOT
BRANCH   4   7
ATOM      7  O   UNL d   1      -3.080   1.316   1.878  0.00  0.00    -0.526 OA
ATOM      8  H5  UNL d   1      -3.414   0.681   2.533  0.00  0.00     0.418 HD
ENDBRANCH   4   7
TORSDOF 1
ENDMDL
