MODEL 1
REMARK minimizedAffinity -4.88079834
REMARK minimizedRMSD -1
REMARK  1 active torsions:
REMARK  status: ('A' for Active; 'I' for Inactive)
REMARK    1  A    between atoms: C3_4  and  O_7 
ROOT
ATOM      1  C   UNL d   1      -1.666   3.221   1.123  0.00  0.00    -0.033 A 
ATOM      2  C1  UNL d   1      -0.791   3.458   0.061  0.00  0.00     0.039 A 
ATOM      3  C2  UNL d   1      -0.111   2.395  -0.537  0.00  0.00    -0.080 A 
ATOM      4  C3  UNL d   1      -0.316   1.101  -0.065  0.00  0.00     0.150 A 
ATOM      5  C4  UNL d   1      -1.190   0.857   0.990  0.00  0.00    -0.007 A 
ATOM      6  C5  UNL d   1      -1.866   1.920   1.586  0.00  0.00     0.039 A 
ENDROOT
BRANCH   4   7
ATOM      7  O   UNL d   1       0.328   0.032  -0.614  0.00  0.00    -0.526 OA
ATOM      8  H5  UNL d   1       0.920   0.356  -1.313  0.00  0.00     0.418 HD
ENDBRANCH   4   7
TORSDOF 1
ENDMDL
