MODEL 1
REMARK minimizedAffinity -2.29495811
REMARK minimizedRMSD -1
REMARK  1 active torsions:
REMARK  status: ('A' for Active; 'I' for Inactive)
REMARK    1  A    between atoms: C3_4  and  O_7 
ROOT
ATOM      1  C   UNL d   1      -0.544   0.138   1.637  0.00  0.00    -0.033 A 
ATOM      2  C1  UNL d   1      -0.723   0.799   0.420  0.00  0.00     0.039 A 
ATOM      3  C2  UNL d   1       0.034   0.431  -0.694  0.00  0.00    -0.080 A 
ATOM      4  C3  UNL d   1       0.964  -0.598  -0.578  0.00  0.00     0.150 A 
ATOM      5  C4  UNL d   1       1.145  -1.263   0.631  0.00  0.00    -0.007 A 
ATOM      6  C5  UNL d   1       0.389  -0.894   1.742  0.00  0.00     0.039 A 
ENDROOT
BRANCH   4   7
ATOM      7  O   UNL d   1       1.730  -0.989  -1.636  0.00  0.00    -0.526 OA
ATOM      8  H5  UNL d   1       1.517  -0.422  -2.396  0.00  0.00     0.418 HD
ENDBRANCH   4   7
TORSDOF 1
ENDMDL
