MODEL 1
REMARK minimizedAffinity -5.01831102
REMARK minimizedRMSD -1
REMARK  1 active torsions:
REMARK  status: ('A' for Active; 'I' for Inactive)
REMARK    1  A    between atoms: C3_4  and  O_7 
ROOT
ATOM      1  C   UNL d   1      -1.586   2.319   1.628  0.00  0.00    -0.033 A 
ATOM      2  C1  UNL d   1      -1.016   1.271   2.353  0.00  0.00     0.039 A 
ATOM      3  C2  UNL d   1      -0.313   0.262   1.691  0.00  0.00    -0.080 A 
ATOM      4  C3  UNL d   1      -0.186   0.314   0.306  0.00  0.00     0.150 A 
ATOM      5  C4  UNL d   1      -0.747   1.357  -0.423  0.00  0.00    -0.007 A 
ATOM      6  C5  UNL d   1      -1.450   2.363   0.240  0.00  0.00     0.039 A 
ENDROOT
BRANCH   4   7
ATOM      7  O   UNL d   1       0.488  -0.650  -0.384  0.00  0.00    -0.526 OA
ATOM      8  H5  UNL d   1       0.796  -1.321   0.247  0.00  0.00     0.418 HD
ENDBRANCH   4   7
TORSDOF 1
ENDMDL
