MODEL 1
REMARK minimizedAffinity -5.3031826
REMARK minimizedRMSD -1
REMARK  1 active torsions:
REMARK  status: ('A' for Active; 'I' for Inactive)
REMARK    1  A    between atoms: C3_4  and  O_7 
ROOT
ATOM      1  C   UNL d   1      -0.928   3.887   0.243  0.00  0.00    -0.033 A 
ATOM      2  C1  UNL d   1      -1.709   3.237   1.201  0.00  0.00     0.039 A 
ATOM      3  C2  UNL d   1      -1.669   1.846   1.310  0.00  0.00    -0.080 A 
ATOM      4  C3  UNL d   1      -0.845   1.117   0.457  0.00  0.00     0.150 A 
ATOM      5  C4  UNL d   1      -0.062   1.758  -0.498  0.00  0.00    -0.007 A 
ATOM      6  C5  UNL d   1      -0.104   3.147  -0.605  0.00  0.00     0.039 A 
ENDROOT
BRANCH   4   7
ATOM      7  O   UNL d   1      -0.777  -0.243   0.522  0.00  0.00    -0.526 OA
ATOM      8  H5  UNL d   1      -1.393  -0.550   1.208  0.00  0.00     0.418 HD
ENDBRANCH   4   7
TORSDOF 1
ENDMDL
