MODEL 1
REMARK minimizedAffinity -5.05946922
REMARK minimizedRMSD -1
REMARK  1 active torsions:
REMARK  status: ('A' for Active; 'I' for Inactive)
REMARK    1  A    between atoms: C3_4  and  O_7 
ROOT
ATOM      1  C   UNL d   1      -1.836   2.758   1.307  0.00  0.00    -0.033 A 
ATOM      2  C1  UNL d   1      -1.150   3.069   0.131  0.00  0.00     0.039 A 
ATOM      3  C2  UNL d   1      -0.448   2.075  -0.553  0.00  0.00    -0.080 A 
ATOM      4  C3  UNL d   1      -0.440   0.776  -0.053  0.00  0.00     0.150 A 
ATOM      5  C4  UNL d   1      -1.125   0.458   1.116  0.00  0.00    -0.007 A 
ATOM      6  C5  UNL d   1      -1.824   1.452   1.799  0.00  0.00     0.039 A 
ENDROOT
BRANCH   4   7
ATOM      7  O   UNL d   1       0.235  -0.227  -0.683  0.00  0.00    -0.526 OA
ATOM      8  H5  UNL d   1       0.683   0.146  -1.460  0.00  0.00     0.418 HD
ENDBRANCH   4   7
TORSDOF 1
ENDMDL
