MODEL 1
REMARK minimizedAffinity -5.41669083
REMARK minimizedRMSD -1
REMARK  1 active torsions:
REMARK  status: ('A' for Active; 'I' for Inactive)
REMARK    1  A    between atoms: C3_4  and  O_7 
ROOT
ATOM      1  C   UNL d   1      -1.986   2.022   1.549  0.00  0.00    -0.033 A 
ATOM      2  C1  UNL d   1      -1.756   3.380   1.322  0.00  0.00     0.039 A 
ATOM      3  C2  UNL d   1      -0.873   3.782   0.317  0.00  0.00    -0.080 A 
ATOM      4  C3  UNL d   1      -0.229   2.818  -0.453  0.00  0.00     0.150 A 
ATOM      5  C4  UNL d   1      -0.457   1.463  -0.235  0.00  0.00    -0.007 A 
ATOM      6  C5  UNL d   1      -1.338   1.063   0.769  0.00  0.00     0.039 A 
ENDROOT
BRANCH   4   7
ATOM      7  O   UNL d   1       0.644   3.161  -1.441  0.00  0.00    -0.526 OA
ATOM      8  H5  UNL d   1       0.724   4.130  -1.458  0.00  0.00     0.418 HD
ENDBRANCH   4   7
TORSDOF 1
ENDMDL
