MODEL 1
REMARK minimizedAffinity 4.36961699
REMARK minimizedRMSD -1
REMARK  0 active torsions:
REMARK  status: ('A' for Active; 'I' for Inactive)
ROOT
ATOM      1  O1  BZF d   1      -4.729  -3.371  -6.000  0.00  0.00    -0.204 OA
ATOM      2  C2  BZF d   1      -5.581  -2.918  -5.011  0.00  0.00     0.174 A 
ATOM      3  C3  BZF d   1      -5.231  -3.422  -3.810  0.00  0.00    -0.012 A 
ATOM      4  C3A BZF d   1      -4.032  -4.166  -4.050  0.00  0.00    -0.107 A 
ATOM      5  C4  BZF d   1      -3.197  -4.886  -3.243  0.00  0.00     0.055 A 
ATOM      6  C5  BZF d   1      -2.154  -5.553  -3.801  0.00  0.00    -0.016 A 
ATOM      7  C6  BZF d   1      -1.919  -5.528  -5.161  0.00  0.00     0.022 A 
ATOM      8  C7  BZF d   1      -2.716  -4.824  -6.000  0.00  0.00     0.029 A 
ATOM      9  C7A BZF d   1      -3.753  -4.121  -5.435  0.00  0.00     0.058 A 
ENDROOT
TORSDOF 0
ENDMDL
