MODEL 1
REMARK minimizedAffinity -4.15491486
REMARK minimizedRMSD -1
REMARK  0 active torsions:
REMARK  status: ('A' for Active; 'I' for Inactive)
ROOT
ATOM      1  O1  BZF d   1      -4.003  -4.870  -4.700  0.00  0.00    -0.204 OA
ATOM      2  C2  BZF d   1      -4.571  -5.303  -3.517  0.00  0.00     0.174 A 
ATOM      3  C3  BZF d   1      -5.324  -4.330  -2.964  0.00  0.00    -0.012 A 
ATOM      4  C3A BZF d   1      -5.295  -3.252  -3.904  0.00  0.00    -0.107 A 
ATOM      5  C4  BZF d   1      -5.867  -2.012  -3.928  0.00  0.00     0.055 A 
ATOM      6  C5  BZF d   1      -5.581  -1.172  -4.958  0.00  0.00    -0.016 A 
ATOM      7  C6  BZF d   1      -4.724  -1.537  -5.976  0.00  0.00     0.022 A 
ATOM      8  C7  BZF d   1      -4.137  -2.758  -5.998  0.00  0.00     0.029 A 
ATOM      9  C7A BZF d   1      -4.450  -3.621  -4.976  0.00  0.00     0.058 A 
ENDROOT
TORSDOF 0
ENDMDL
