MODEL 1
REMARK minimizedAffinity -0.820285916
REMARK minimizedRMSD -1
REMARK  0 active torsions:
REMARK  status: ('A' for Active; 'I' for Inactive)
ROOT
ATOM      1  O1  BZF d   1      -1.293  -5.358  -5.972  0.00  0.00    -0.204 OA
ATOM      2  C2  BZF d   1      -0.598  -6.000  -4.966  0.00  0.00     0.174 A 
ATOM      3  C3  BZF d   1      -1.047  -5.616  -3.754  0.00  0.00    -0.012 A 
ATOM      4  C3A BZF d   1      -2.151  -4.745  -4.020  0.00  0.00    -0.107 A 
ATOM      5  C4  BZF d   1      -3.018  -4.057  -3.220  0.00  0.00     0.055 A 
ATOM      6  C5  BZF d   1      -3.937  -3.237  -3.794  0.00  0.00    -0.016 A 
ATOM      7  C6  BZF d   1      -4.013  -3.077  -5.163  0.00  0.00     0.022 A 
ATOM      8  C7  BZF d   1      -3.178  -3.743  -5.997  0.00  0.00     0.029 A 
ATOM      9  C7A BZF d   1      -2.270  -4.597  -5.421  0.00  0.00     0.058 A 
ENDROOT
TORSDOF 0
ENDMDL
