MODEL 1
REMARK minimizedAffinity -3.15338397
REMARK minimizedRMSD -1
REMARK  0 active torsions:
REMARK  status: ('A' for Active; 'I' for Inactive)
ROOT
ATOM      1  O1  BZF d   1      -1.997  -3.907  -4.944  0.00  0.00    -0.204 OA
ATOM      2  C2  BZF d   1      -1.424  -5.106  -5.319  0.00  0.00     0.174 A 
ATOM      3  C3  BZF d   1      -2.366  -5.980  -5.728  0.00  0.00    -0.012 A 
ATOM      4  C3A BZF d   1      -3.597  -5.252  -5.689  0.00  0.00    -0.107 A 
ATOM      5  C4  BZF d   1      -4.888  -5.573  -5.996  0.00  0.00     0.055 A 
ATOM      6  C5  BZF d   1      -5.867  -4.656  -5.776  0.00  0.00    -0.016 A 
ATOM      7  C6  BZF d   1      -5.591  -3.412  -5.247  0.00  0.00     0.022 A 
ATOM      8  C7  BZF d   1      -4.325  -3.046  -4.932  0.00  0.00     0.029 A 
ATOM      9  C7A BZF d   1      -3.330  -3.958  -5.183  0.00  0.00     0.058 A 
ENDROOT
TORSDOF 0
ENDMDL
