MODEL 1
REMARK minimizedAffinity -3.02296376
REMARK minimizedRMSD -1
REMARK  0 active torsions:
REMARK  status: ('A' for Active; 'I' for Inactive)
ROOT
ATOM      1  O1  BZF d   1      -2.520  -5.051  -4.371  0.00  0.00    -0.204 OA
ATOM      2  C2  BZF d   1      -2.637  -5.994  -5.375  0.00  0.00     0.174 A 
ATOM      3  C3  BZF d   1      -3.827  -5.881  -6.000  0.00  0.00    -0.012 A 
ATOM      4  C3A BZF d   1      -4.457  -4.742  -5.407  0.00  0.00    -0.107 A 
ATOM      5  C4  BZF d   1      -5.652  -4.115  -5.617  0.00  0.00     0.055 A 
ATOM      6  C5  BZF d   1      -6.000  -3.072  -4.820  0.00  0.00    -0.016 A 
ATOM      7  C6  BZF d   1      -5.180  -2.632  -3.801  0.00  0.00     0.022 A 
ATOM      8  C7  BZF d   1      -3.983  -3.219  -3.558  0.00  0.00     0.029 A 
ATOM      9  C7A BZF d   1      -3.614  -4.252  -4.383  0.00  0.00     0.058 A 
ENDROOT
TORSDOF 0
ENDMDL
