MODEL 1
REMARK minimizedAffinity -3.74159074
REMARK minimizedRMSD -1
REMARK  0 active torsions:
REMARK  status: ('A' for Active; 'I' for Inactive)
ROOT
ATOM      1  O1  BZF d   1      -1.731  -3.760  -5.994  0.00  0.00    -0.204 OA
ATOM      2  C2  BZF d   1      -1.341  -5.047  -5.680  0.00  0.00     0.174 A 
ATOM      3  C3  BZF d   1      -2.318  -5.693  -5.011  0.00  0.00    -0.012 A 
ATOM      4  C3A BZF d   1      -3.420  -4.781  -4.980  0.00  0.00    -0.107 A 
ATOM      5  C4  BZF d   1      -4.684  -4.853  -4.468  0.00  0.00     0.055 A 
ATOM      6  C5  BZF d   1      -5.489  -3.761  -4.542  0.00  0.00    -0.016 A 
ATOM      7  C6  BZF d   1      -5.062  -2.581  -5.114  0.00  0.00     0.022 A 
ATOM      8  C7  BZF d   1      -3.818  -2.463  -5.640  0.00  0.00     0.029 A 
ATOM      9  C7A BZF d   1      -3.013  -3.575  -5.597  0.00  0.00     0.058 A 
ENDROOT
TORSDOF 0
ENDMDL
