MODEL 1
REMARK minimizedAffinity -2.37844014
REMARK minimizedRMSD -1
REMARK  0 active torsions:
REMARK  status: ('A' for Active; 'I' for Inactive)
ROOT
ATOM      1  O1  BZF d   1      -4.549  -2.807  -4.196  0.00  0.00    -0.204 OA
ATOM      2  C2  BZF d   1      -5.873  -3.025  -4.525  0.00  0.00     0.174 A 
ATOM      3  C3  BZF d   1      -6.000  -4.124  -5.296  0.00  0.00    -0.012 A 
ATOM      4  C3A BZF d   1      -4.683  -4.677  -5.383  0.00  0.00    -0.107 A 
ATOM      5  C4  BZF d   1      -4.167  -5.781  -5.999  0.00  0.00     0.055 A 
ATOM      6  C5  BZF d   1      -2.826  -5.997  -5.951  0.00  0.00    -0.016 A 
ATOM      7  C6  BZF d   1      -1.973  -5.129  -5.302  0.00  0.00     0.022 A 
ATOM      8  C7  BZF d   1      -2.439  -4.024  -4.672  0.00  0.00     0.029 A 
ATOM      9  C7A BZF d   1      -3.797  -3.819  -4.690  0.00  0.00     0.058 A 
ENDROOT
TORSDOF 0
ENDMDL
