MODEL 1
REMARK minimizedAffinity -0.970391333
REMARK minimizedRMSD -1
REMARK  0 active torsions:
REMARK  status: ('A' for Active; 'I' for Inactive)
ROOT
ATOM      1  O1  BZF d   1      -3.027  -5.999  -5.981  0.00  0.00    -0.204 OA
ATOM      2  C2  BZF d   1      -1.838  -5.821  -5.299  0.00  0.00     0.174 A 
ATOM      3  C3  BZF d   1      -1.910  -4.748  -4.485  0.00  0.00    -0.012 A 
ATOM      4  C3A BZF d   1      -3.257  -4.278  -4.599  0.00  0.00    -0.107 A 
ATOM      5  C4  BZF d   1      -3.945  -3.250  -4.020  0.00  0.00     0.055 A 
ATOM      6  C5  BZF d   1      -5.228  -3.017  -4.402  0.00  0.00    -0.016 A 
ATOM      7  C6  BZF d   1      -5.851  -3.787  -5.362  0.00  0.00     0.022 A 
ATOM      8  C7  BZF d   1      -5.211  -4.821  -5.961  0.00  0.00     0.029 A 
ATOM      9  C7A BZF d   1      -3.925  -5.080  -5.553  0.00  0.00     0.058 A 
ENDROOT
TORSDOF 0
ENDMDL
