MODEL 1
REMARK minimizedAffinity -1.67568374
REMARK minimizedRMSD -1
REMARK  0 active torsions:
REMARK  status: ('A' for Active; 'I' for Inactive)
ROOT
ATOM      1  O1  BZF d   1      -4.191  -2.089  -5.950  0.00  0.00    -0.204 OA
ATOM      2  C2  BZF d   1      -5.570  -2.182  -5.941  0.00  0.00     0.174 A 
ATOM      3  C3  BZF d   1      -5.963  -3.470  -5.999  0.00  0.00    -0.012 A 
ATOM      4  C3A BZF d   1      -4.755  -4.235  -5.954  0.00  0.00    -0.107 A 
ATOM      5  C4  BZF d   1      -4.491  -5.575  -5.962  0.00  0.00     0.055 A 
ATOM      6  C5  BZF d   1      -3.198  -5.993  -5.982  0.00  0.00    -0.016 A 
ATOM      7  C6  BZF d   1      -2.146  -5.101  -6.000  0.00  0.00     0.022 A 
ATOM      8  C7  BZF d   1      -2.358  -3.762  -5.987  0.00  0.00     0.029 A 
ATOM      9  C7A BZF d   1      -3.663  -3.337  -5.934  0.00  0.00     0.058 A 
ENDROOT
TORSDOF 0
ENDMDL
