MODEL 1
REMARK minimizedAffinity -0.428780437
REMARK minimizedRMSD -1
REMARK  0 active torsions:
REMARK  status: ('A' for Active; 'I' for Inactive)
ROOT
ATOM      1  O1  BZF d   1      -1.165  -5.059  -5.994  0.00  0.00    -0.204 OA
ATOM      2  C2  BZF d   1      -0.738  -6.000  -5.077  0.00  0.00     0.174 A 
ATOM      3  C3  BZF d   1      -1.467  -5.928  -3.944  0.00  0.00    -0.012 A 
ATOM      4  C3A BZF d   1      -2.468  -4.939  -4.203  0.00  0.00    -0.107 A 
ATOM      5  C4  BZF d   1      -3.500  -4.432  -3.465  0.00  0.00     0.055 A 
ATOM      6  C5  BZF d   1      -4.247  -3.422  -3.982  0.00  0.00    -0.016 A 
ATOM      7  C6  BZF d   1      -3.988  -2.892  -5.229  0.00  0.00     0.022 A 
ATOM      8  C7  BZF d   1      -2.979  -3.365  -6.000  0.00  0.00     0.029 A 
ATOM      9  C7A BZF d   1      -2.242  -4.408  -5.494  0.00  0.00     0.058 A 
ENDROOT
TORSDOF 0
ENDMDL
