MODEL 1
REMARK minimizedAffinity 2.27375841
REMARK minimizedRMSD -1
REMARK  0 active torsions:
REMARK  status: ('A' for Active; 'I' for Inactive)
ROOT
ATOM      1  O1  BZF d   1      -2.542  -3.262  -5.987  0.00  0.00    -0.204 OA
ATOM      2  C2  BZF d   1      -2.476  -4.573  -5.556  0.00  0.00     0.174 A 
ATOM      3  C3  BZF d   1      -3.403  -4.812  -4.606  0.00  0.00    -0.012 A 
ATOM      4  C3A BZF d   1      -4.152  -3.598  -4.498  0.00  0.00    -0.107 A 
ATOM      5  C4  BZF d   1      -5.218  -3.218  -3.734  0.00  0.00     0.055 A 
ATOM      6  C5  BZF d   1      -5.666  -1.937  -3.816  0.00  0.00    -0.016 A 
ATOM      7  C6  BZF d   1      -5.069  -1.011  -4.646  0.00  0.00     0.022 A 
ATOM      8  C7  BZF d   1      -4.012  -1.343  -5.427  0.00  0.00     0.029 A 
ATOM      9  C7A BZF d   1      -3.578  -2.645  -5.371  0.00  0.00     0.058 A 
ENDROOT
TORSDOF 0
ENDMDL
