MODEL 1
REMARK minimizedAffinity 1.68469262
REMARK minimizedRMSD -1
REMARK  0 active torsions:
REMARK  status: ('A' for Active; 'I' for Inactive)
ROOT
ATOM      1  O1  BZF d   1      -5.799  -1.225  -5.946  0.00  0.00    -0.204 OA
ATOM      2  C2  BZF d   1      -6.000  -0.312  -4.928  0.00  0.00     0.174 A 
ATOM      3  C3  BZF d   1      -5.954  -0.920  -3.725  0.00  0.00    -0.012 A 
ATOM      4  C3A BZF d   1      -5.617  -2.282  -4.004  0.00  0.00    -0.107 A 
ATOM      5  C4  BZF d   1      -5.410  -3.379  -3.217  0.00  0.00     0.055 A 
ATOM      6  C5  BZF d   1      -5.168  -4.579  -3.806  0.00  0.00    -0.016 A 
ATOM      7  C6  BZF d   1      -5.131  -4.720  -5.177  0.00  0.00     0.022 A 
ATOM      8  C7  BZF d   1      -5.326  -3.661  -6.000  0.00  0.00     0.029 A 
ATOM      9  C7A BZF d   1      -5.538  -2.440  -5.407  0.00  0.00     0.058 A 
ENDROOT
TORSDOF 0
ENDMDL
