MODEL 1
REMARK minimizedAffinity 3.26225495
REMARK minimizedRMSD -1
REMARK  0 active torsions:
REMARK  status: ('A' for Active; 'I' for Inactive)
ROOT
ATOM      1  O1  BZF d   1      -2.166  -3.639  -5.948  0.00  0.00    -0.204 OA
ATOM      2  C2  BZF d   1      -1.509  -4.854  -5.938  0.00  0.00     0.174 A 
ATOM      3  C3  BZF d   1      -2.390  -5.874  -5.896  0.00  0.00    -0.012 A 
ATOM      4  C3A BZF d   1      -3.680  -5.261  -5.973  0.00  0.00    -0.107 A 
ATOM      5  C4  BZF d   1      -4.954  -5.753  -5.993  0.00  0.00     0.055 A 
ATOM      6  C5  BZF d   1      -5.998  -4.883  -6.000  0.00  0.00    -0.016 A 
ATOM      7  C6  BZF d   1      -5.805  -3.517  -5.983  0.00  0.00     0.022 A 
ATOM      8  C7  BZF d   1      -4.560  -2.982  -5.969  0.00  0.00     0.029 A 
ATOM      9  C7A BZF d   1      -3.502  -3.858  -5.995  0.00  0.00     0.058 A 
ENDROOT
TORSDOF 0
ENDMDL
