MODEL 1
REMARK minimizedAffinity 0.231457457
REMARK minimizedRMSD -1
REMARK  0 active torsions:
REMARK  status: ('A' for Active; 'I' for Inactive)
ROOT
ATOM      1  O1  BZF d   1      -3.419  -4.492  -5.999  0.00  0.00    -0.204 OA
ATOM      2  C2  BZF d   1      -4.774  -4.721  -5.856  0.00  0.00     0.174 A 
ATOM      3  C3  BZF d   1      -5.032  -5.365  -4.699  0.00  0.00    -0.012 A 
ATOM      4  C3A BZF d   1      -3.768  -5.468  -4.037  0.00  0.00    -0.107 A 
ATOM      5  C4  BZF d   1      -3.376  -5.994  -2.839  0.00  0.00     0.055 A 
ATOM      6  C5  BZF d   1      -2.055  -6.000  -2.521  0.00  0.00    -0.016 A 
ATOM      7  C6  BZF d   1      -1.099  -5.494  -3.378  0.00  0.00     0.022 A 
ATOM      8  C7  BZF d   1      -1.440  -4.957  -4.575  0.00  0.00     0.029 A 
ATOM      9  C7A BZF d   1      -2.778  -4.920  -4.885  0.00  0.00     0.058 A 
ENDROOT
TORSDOF 0
ENDMDL
