MODEL 1
REMARK minimizedAffinity -4.18107557
REMARK minimizedRMSD -1
REMARK  0 active torsions:
REMARK  status: ('A' for Active; 'I' for Inactive)
ROOT
ATOM      1  O1  BZF d   1      -1.740  -4.495  -5.590  0.00  0.00    -0.204 OA
ATOM      2  C2  BZF d   1      -1.499  -5.626  -4.834  0.00  0.00     0.174 A 
ATOM      3  C3  BZF d   1      -2.609  -6.000  -4.166  0.00  0.00    -0.012 A 
ATOM      4  C3A BZF d   1      -3.631  -5.097  -4.599  0.00  0.00    -0.107 A 
ATOM      5  C4  BZF d   1      -4.958  -4.969  -4.303  0.00  0.00     0.055 A 
ATOM      6  C5  BZF d   1      -5.658  -3.936  -4.841  0.00  0.00    -0.016 A 
ATOM      7  C6  BZF d   1      -5.063  -3.011  -5.673  0.00  0.00     0.022 A 
ATOM      8  C7  BZF d   1      -3.751  -3.099  -5.999  0.00  0.00     0.029 A 
ATOM      9  C7A BZF d   1      -3.048  -4.160  -5.484  0.00  0.00     0.058 A 
ENDROOT
TORSDOF 0
ENDMDL
