MODEL 1
REMARK minimizedAffinity 6.25244284
REMARK minimizedRMSD -1
REMARK  0 active torsions:
REMARK  status: ('A' for Active; 'I' for Inactive)
ROOT
ATOM      1  O1  BZF d   1      -1.954  -5.746  -5.312  0.00  0.00    -0.204 OA
ATOM      2  C2  BZF d   1      -1.302  -5.946  -4.111  0.00  0.00     0.174 A 
ATOM      3  C3  BZF d   1      -1.850  -5.191  -3.137  0.00  0.00    -0.012 A 
ATOM      4  C3A BZF d   1      -2.970  -4.544  -3.749  0.00  0.00    -0.107 A 
ATOM      5  C4  BZF d   1      -3.920  -3.678  -3.288  0.00  0.00     0.055 A 
ATOM      6  C5  BZF d   1      -4.834  -3.175  -4.160  0.00  0.00    -0.016 A 
ATOM      7  C6  BZF d   1      -4.824  -3.513  -5.497  0.00  0.00     0.022 A 
ATOM      8  C7  BZF d   1      -3.904  -4.372  -6.000  0.00  0.00     0.029 A 
ATOM      9  C7A BZF d   1      -3.000  -4.907  -5.115  0.00  0.00     0.058 A 
ENDROOT
TORSDOF 0
ENDMDL
