MODEL 1
REMARK minimizedAffinity 2.17002392
REMARK minimizedRMSD -1
REMARK  0 active torsions:
REMARK  status: ('A' for Active; 'I' for Inactive)
ROOT
ATOM      1  O1  BZF d   1      -2.238  -5.359  -3.807  0.00  0.00    -0.204 OA
ATOM      2  C2  BZF d   1      -1.863  -6.000  -4.971  0.00  0.00     0.174 A 
ATOM      3  C3  BZF d   1      -2.649  -5.622  -6.000  0.00  0.00    -0.012 A 
ATOM      4  C3A BZF d   1      -3.514  -4.617  -5.463  0.00  0.00    -0.107 A 
ATOM      5  C4  BZF d   1      -4.508  -3.849  -6.000  0.00  0.00     0.055 A 
ATOM      6  C5  BZF d   1      -5.209  -3.015  -5.188  0.00  0.00    -0.016 A 
ATOM      7  C6  BZF d   1      -4.947  -2.927  -3.836  0.00  0.00     0.022 A 
ATOM      8  C7  BZF d   1      -3.968  -3.665  -3.259  0.00  0.00     0.029 A 
ATOM      9  C7A BZF d   1      -3.235  -4.485  -4.083  0.00  0.00     0.058 A 
ENDROOT
TORSDOF 0
ENDMDL
