MODEL 1
REMARK minimizedAffinity 2.80594039
REMARK minimizedRMSD -1
REMARK  0 active torsions:
REMARK  status: ('A' for Active; 'I' for Inactive)
ROOT
ATOM      1  C4' PXY d   1      -2.043   5.997  -4.271  0.00  0.00     0.077 C 
ATOM      2  C1' PXY d   1       3.653   5.923  -5.253  0.00  0.00     0.077 C 
ATOM      3  C1  PXY d   1       2.161   5.937  -4.984  0.00  0.00    -0.082 A 
ATOM      4  C2  PXY d   1       1.313   5.955  -6.000  0.00  0.00     0.003 A 
ATOM      5  C3  PXY d   1      -0.039   6.000  -5.774  0.00  0.00     0.003 A 
ATOM      6  C4  PXY d   1      -0.529   5.973  -4.496  0.00  0.00    -0.082 A 
ATOM      7  C5  PXY d   1       0.329   5.944  -3.455  0.00  0.00     0.003 A 
ATOM      8  C6  PXY d   1       1.699   5.941  -3.704  0.00  0.00     0.003 A 
ENDROOT
TORSDOF 0
ENDMDL
