MODEL 1
REMARK minimizedAffinity -0.720108032
REMARK minimizedRMSD -1
REMARK  0 active torsions:
REMARK  status: ('A' for Active; 'I' for Inactive)
ROOT
ATOM      1  C4' PXY d   1      -3.802   5.978  -1.619  0.00  0.00     0.077 C 
ATOM      2  C1' PXY d   1       0.322   5.999  -5.670  0.00  0.00     0.077 C 
ATOM      3  C1  PXY d   1      -0.751   5.988  -4.599  0.00  0.00    -0.082 A 
ATOM      4  C2  PXY d   1      -2.027   5.977  -4.951  0.00  0.00     0.003 A 
ATOM      5  C3  PXY d   1      -3.010   5.999  -3.996  0.00  0.00     0.003 A 
ATOM      6  C4  PXY d   1      -2.685   5.980  -2.666  0.00  0.00    -0.082 A 
ATOM      7  C5  PXY d   1      -1.386   5.981  -2.299  0.00  0.00     0.003 A 
ATOM      8  C6  PXY d   1      -0.403   6.000  -3.284  0.00  0.00     0.003 A 
ENDROOT
TORSDOF 0
ENDMDL
