MODEL 1
REMARK minimizedAffinity 0.261153221
REMARK minimizedRMSD -1
REMARK  0 active torsions:
REMARK  status: ('A' for Active; 'I' for Inactive)
ROOT
ATOM      1  C4' PXY d   1      -2.873   6.000  -3.114  0.00  0.00     0.077 C 
ATOM      2  C1' PXY d   1       2.259   5.979  -5.773  0.00  0.00     0.077 C 
ATOM      3  C1  PXY d   1       0.907   5.989  -5.087  0.00  0.00    -0.082 A 
ATOM      4  C2  PXY d   1       0.846   6.000  -3.765  0.00  0.00     0.003 A 
ATOM      5  C3  PXY d   1      -0.368   5.977  -3.127  0.00  0.00     0.003 A 
ATOM      6  C4  PXY d   1      -1.531   5.998  -3.850  0.00  0.00    -0.082 A 
ATOM      7  C5  PXY d   1      -1.476   5.999  -5.199  0.00  0.00     0.003 A 
ATOM      8  C6  PXY d   1      -0.234   5.980  -5.827  0.00  0.00     0.003 A 
ENDROOT
TORSDOF 0
ENDMDL
