MODEL 1
REMARK minimizedAffinity -2.85065603
REMARK minimizedRMSD -1
REMARK  0 active torsions:
REMARK  status: ('A' for Active; 'I' for Inactive)
ROOT
ATOM      1  C4' PXY d   1       0.990   5.978  -5.999  0.00  0.00     0.077 C 
ATOM      2  C1' PXY d   1       5.999   3.728  -4.194  0.00  0.00     0.077 C 
ATOM      3  C1  PXY d   1       4.692   4.330  -4.669  0.00  0.00    -0.082 A 
ATOM      4  C2  PXY d   1       3.546   3.780  -4.300  0.00  0.00     0.003 A 
ATOM      5  C3  PXY d   1       2.355   4.292  -4.746  0.00  0.00     0.003 A 
ATOM      6  C4  PXY d   1       2.334   5.410  -5.536  0.00  0.00    -0.082 A 
ATOM      7  C5  PXY d   1       3.498   5.984  -5.908  0.00  0.00     0.003 A 
ATOM      8  C6  PXY d   1       4.698   5.424  -5.477  0.00  0.00     0.003 A 
ENDROOT
TORSDOF 0
ENDMDL
