MODEL 1
REMARK minimizedAffinity 4.88381767
REMARK minimizedRMSD -1
REMARK  0 active torsions:
REMARK  status: ('A' for Active; 'I' for Inactive)
ROOT
ATOM      1  C4' PXY d   1      -0.300   0.739   1.123  0.00  0.00     0.077 C 
ATOM      2  C1' PXY d   1      -2.219  -1.276  -3.944  0.00  0.00     0.077 C 
ATOM      3  C1  PXY d   1      -1.728  -0.742  -2.613  0.00  0.00    -0.082 A 
ATOM      4  C2  PXY d   1      -0.434  -0.535  -2.428  0.00  0.00     0.003 A 
ATOM      5  C3  PXY d   1       0.031  -0.084  -1.220  0.00  0.00     0.003 A 
ATOM      6  C4  PXY d   1      -0.842   0.210  -0.208  0.00  0.00    -0.082 A 
ATOM      7  C5  PXY d   1      -2.165   0.012  -0.391  0.00  0.00     0.003 A 
ATOM      8  C6  PXY d   1      -2.613  -0.486  -1.611  0.00  0.00     0.003 A 
ENDROOT
TORSDOF 0
ENDMDL
