MODEL 1
REMARK minimizedAffinity -2.62393212
REMARK minimizedRMSD -1
REMARK  0 active torsions:
REMARK  status: ('A' for Active; 'I' for Inactive)
ROOT
ATOM      1  C4' PXY d   1      -2.934   6.000  -0.751  0.00  0.00     0.077 C 
ATOM      2  C1' PXY d   1       1.049   5.978  -4.939  0.00  0.00     0.077 C 
ATOM      3  C1  PXY d   1      -0.004   5.989  -3.849  0.00  0.00    -0.082 A 
ATOM      4  C2  PXY d   1       0.369   5.998  -2.579  0.00  0.00     0.003 A 
ATOM      5  C3  PXY d   1      -0.571   5.976  -1.581  0.00  0.00     0.003 A 
ATOM      6  C4  PXY d   1      -1.906   5.998  -1.884  0.00  0.00    -0.082 A 
ATOM      7  C5  PXY d   1      -2.294   6.000  -3.177  0.00  0.00     0.003 A 
ATOM      8  C6  PXY d   1      -1.325   5.981  -4.176  0.00  0.00     0.003 A 
ENDROOT
TORSDOF 0
ENDMDL
