MODEL 1
REMARK minimizedAffinity -1.70978749
REMARK minimizedRMSD -1
REMARK  0 active torsions:
REMARK  status: ('A' for Active; 'I' for Inactive)
ROOT
ATOM      1  C4' PXY d   1      -4.139   5.983  -2.047  0.00  0.00     0.077 C 
ATOM      2  C1' PXY d   1       0.835   5.995  -4.992  0.00  0.00     0.077 C 
ATOM      3  C1  PXY d   1      -0.463   5.987  -4.210  0.00  0.00    -0.082 A 
ATOM      4  C2  PXY d   1      -1.617   5.975  -4.857  0.00  0.00     0.003 A 
ATOM      5  C3  PXY d   1      -2.801   5.999  -4.165  0.00  0.00     0.003 A 
ATOM      6  C4  PXY d   1      -2.803   5.982  -2.796  0.00  0.00    -0.082 A 
ATOM      7  C5  PXY d   1      -1.630   5.983  -2.128  0.00  0.00     0.003 A 
ATOM      8  C6  PXY d   1      -0.440   6.000  -2.849  0.00  0.00     0.003 A 
ENDROOT
TORSDOF 0
ENDMDL
