MODEL 1
REMARK minimizedAffinity -1.96147037
REMARK minimizedRMSD -1
REMARK  0 active torsions:
REMARK  status: ('A' for Active; 'I' for Inactive)
ROOT
ATOM      1  C4' PXY d   1      -2.037   5.955  -4.520  0.00  0.00     0.077 C 
ATOM      2  C1' PXY d   1       3.729   5.999  -4.928  0.00  0.00     0.077 C 
ATOM      3  C1  PXY d   1       2.216   5.993  -4.833  0.00  0.00    -0.082 A 
ATOM      4  C2  PXY d   1       1.635   5.984  -3.644  0.00  0.00     0.003 A 
ATOM      5  C3  PXY d   1       0.268   5.946  -3.540  0.00  0.00     0.003 A 
ATOM      6  C4  PXY d   1      -0.513   5.971  -4.664  0.00  0.00    -0.082 A 
ATOM      7  C5  PXY d   1       0.072   5.992  -5.881  0.00  0.00     0.003 A 
ATOM      8  C6  PXY d   1       1.461   5.988  -5.965  0.00  0.00     0.003 A 
ENDROOT
TORSDOF 0
ENDMDL
