MODEL 1
REMARK minimizedAffinity -0.846776903
REMARK minimizedRMSD -1
REMARK  0 active torsions:
REMARK  status: ('A' for Active; 'I' for Inactive)
ROOT
ATOM      1  C4' PXY d   1      -1.466   5.956  -4.746  0.00  0.00     0.077 C 
ATOM      2  C1' PXY d   1       4.298   5.584  -4.969  0.00  0.00     0.077 C 
ATOM      3  C1  PXY d   1       2.787   5.678  -4.898  0.00  0.00    -0.082 A 
ATOM      4  C2  PXY d   1       2.069   5.532  -6.000  0.00  0.00     0.003 A 
ATOM      5  C3  PXY d   1       0.704   5.646  -5.959  0.00  0.00     0.003 A 
ATOM      6  C4  PXY d   1       0.062   5.859  -4.769  0.00  0.00    -0.082 A 
ATOM      7  C5  PXY d   1       0.786   5.999  -3.638  0.00  0.00     0.003 A 
ATOM      8  C6  PXY d   1       2.174   5.921  -3.708  0.00  0.00     0.003 A 
ENDROOT
TORSDOF 0
ENDMDL
