MODEL 1
REMARK minimizedAffinity 8.59105301
REMARK minimizedRMSD -1
REMARK  0 active torsions:
REMARK  status: ('A' for Active; 'I' for Inactive)
ROOT
ATOM      1  C4' PXY d   1       4.764   6.000  -6.000  0.00  0.00     0.077 C 
ATOM      2  C1' PXY d   1       2.119   1.781  -3.064  0.00  0.00     0.077 C 
ATOM      3  C1  PXY d   1       2.823   2.886  -3.826  0.00  0.00    -0.082 A 
ATOM      4  C2  PXY d   1       2.109   3.793  -4.471  0.00  0.00     0.003 A 
ATOM      5  C3  PXY d   1       2.730   4.781  -5.192  0.00  0.00     0.003 A 
ATOM      6  C4  PXY d   1       4.096   4.872  -5.209  0.00  0.00    -0.082 A 
ATOM      7  C5  PXY d   1       4.832   3.956  -4.544  0.00  0.00     0.003 A 
ATOM      8  C6  PXY d   1       4.183   2.937  -3.853  0.00  0.00     0.003 A 
ENDROOT
TORSDOF 0
ENDMDL
