MODEL 1
REMARK minimizedAffinity 1.07535648
REMARK minimizedRMSD -1
REMARK  0 active torsions:
REMARK  status: ('A' for Active; 'I' for Inactive)
ROOT
ATOM      1  C4' PXY d   1       0.298  -5.654   1.910  0.00  0.00     0.077 C 
ATOM      2  C1' PXY d   1      -2.983  -2.636   5.589  0.00  0.00     0.077 C 
ATOM      3  C1  PXY d   1      -2.129  -3.423   4.614  0.00  0.00    -0.082 A 
ATOM      4  C2  PXY d   1      -1.541  -4.539   5.013  0.00  0.00     0.003 A 
ATOM      5  C3  PXY d   1      -0.739  -5.245   4.153  0.00  0.00     0.003 A 
ATOM      6  C4  PXY d   1      -0.581  -4.833   2.857  0.00  0.00    -0.082 A 
ATOM      7  C5  PXY d   1      -1.186  -3.701   2.440  0.00  0.00     0.003 A 
ATOM      8  C6  PXY d   1      -1.963  -2.977   3.339  0.00  0.00     0.003 A 
ENDROOT
TORSDOF 0
ENDMDL
