MODEL 1
REMARK minimizedAffinity -3.61503816
REMARK minimizedRMSD -1
REMARK  0 active torsions:
REMARK  status: ('A' for Active; 'I' for Inactive)
ROOT
ATOM      1  C4' PXY d   1       1.169   5.979  -4.748  0.00  0.00     0.077 C 
ATOM      2  C1' PXY d   1      -3.748   5.999  -1.709  0.00  0.00     0.077 C 
ATOM      3  C1  PXY d   1      -2.465   5.989  -2.516  0.00  0.00    -0.082 A 
ATOM      4  C2  PXY d   1      -1.299   5.977  -1.891  0.00  0.00     0.003 A 
ATOM      5  C3  PXY d   1      -0.128   6.000  -2.605  0.00  0.00     0.003 A 
ATOM      6  C4  PXY d   1      -0.152   5.980  -3.974  0.00  0.00    -0.082 A 
ATOM      7  C5  PXY d   1      -1.337   5.981  -4.619  0.00  0.00     0.003 A 
ATOM      8  C6  PXY d   1      -2.514   6.000  -3.876  0.00  0.00     0.003 A 
ENDROOT
TORSDOF 0
ENDMDL
