MODEL 1
REMARK minimizedAffinity -0.299873173
REMARK minimizedRMSD -1
REMARK  0 active torsions:
REMARK  status: ('A' for Active; 'I' for Inactive)
ROOT
ATOM      1  C4' PXY d   1      -3.751   5.602  -2.405  0.00  0.00     0.077 C 
ATOM      2  C1' PXY d   1       1.523   5.999  -4.737  0.00  0.00     0.077 C 
ATOM      3  C1  PXY d   1       0.146   5.891  -4.114  0.00  0.00    -0.082 A 
ATOM      4  C2  PXY d   1      -0.912   5.723  -4.891  0.00  0.00     0.003 A 
ATOM      5  C3  PXY d   1      -2.169   5.655  -4.347  0.00  0.00     0.003 A 
ATOM      6  C4  PXY d   1      -2.339   5.707  -2.989  0.00  0.00    -0.082 A 
ATOM      7  C5  PXY d   1      -1.264   5.868  -2.189  0.00  0.00     0.003 A 
ATOM      8  C6  PXY d   1      -0.001   5.975  -2.764  0.00  0.00     0.003 A 
ENDROOT
TORSDOF 0
ENDMDL
