MODEL 1
REMARK minimizedAffinity -2.9140985
REMARK minimizedRMSD -1
REMARK  0 active torsions:
REMARK  status: ('A' for Active; 'I' for Inactive)
ROOT
ATOM      1  C4' PXY d   1      -3.050   6.000  -2.091  0.00  0.00     0.077 C 
ATOM      2  C1' PXY d   1       1.580   5.877  -5.550  0.00  0.00     0.077 C 
ATOM      3  C1  PXY d   1       0.373   5.904  -4.633  0.00  0.00    -0.082 A 
ATOM      4  C2  PXY d   1      -0.844   5.905  -5.153  0.00  0.00     0.003 A 
ATOM      5  C3  PXY d   1      -1.946   5.962  -4.339  0.00  0.00     0.003 A 
ATOM      6  C4  PXY d   1      -1.803   5.964  -2.978  0.00  0.00    -0.082 A 
ATOM      7  C5  PXY d   1      -0.565   5.951  -2.439  0.00  0.00     0.003 A 
ATOM      8  C6  PXY d   1       0.542   5.935  -3.283  0.00  0.00     0.003 A 
ENDROOT
TORSDOF 0
ENDMDL
