MODEL 1
REMARK minimizedAffinity 3.2352798
REMARK minimizedRMSD -1
REMARK  0 active torsions:
REMARK  status: ('A' for Active; 'I' for Inactive)
ROOT
ATOM      1  C4' PXY d   1       0.446   5.998  -5.964  0.00  0.00     0.077 C 
ATOM      2  C1' PXY d   1       5.293   3.480  -4.070  0.00  0.00     0.077 C 
ATOM      3  C1  PXY d   1       4.028   4.152  -4.566  0.00  0.00    -0.082 A 
ATOM      4  C2  PXY d   1       2.864   3.539  -4.426  0.00  0.00     0.003 A 
ATOM      5  C3  PXY d   1       1.714   4.118  -4.897  0.00  0.00     0.003 A 
ATOM      6  C4  PXY d   1       1.748   5.361  -5.470  0.00  0.00    -0.082 A 
ATOM      7  C5  PXY d   1       2.930   5.998  -5.606  0.00  0.00     0.003 A 
ATOM      8  C6  PXY d   1       4.092   5.375  -5.158  0.00  0.00     0.003 A 
ENDROOT
TORSDOF 0
ENDMDL
