MODEL 1
REMARK minimizedAffinity 4.00744534
REMARK minimizedRMSD -1
REMARK  0 active torsions:
REMARK  status: ('A' for Active; 'I' for Inactive)
ROOT
ATOM      1  C4' PXY d   1       2.669   2.523  -2.092  0.00  0.00     0.077 C 
ATOM      2  C1' PXY d   1      -0.325   1.121   2.650  0.00  0.00     0.077 C 
ATOM      3  C1  PXY d   1       0.455   1.501   1.407  0.00  0.00    -0.082 A 
ATOM      4  C2  PXY d   1       0.854   0.556   0.571  0.00  0.00     0.003 A 
ATOM      5  C3  PXY d   1       1.588   0.878  -0.541  0.00  0.00     0.003 A 
ATOM      6  C4  PXY d   1       1.871   2.187  -0.829  0.00  0.00    -0.082 A 
ATOM      7  C5  PXY d   1       1.458   3.158   0.013  0.00  0.00     0.003 A 
ATOM      8  C6  PXY d   1       0.750   2.806   1.159  0.00  0.00     0.003 A 
ENDROOT
TORSDOF 0
ENDMDL
