MODEL 1
REMARK minimizedAffinity 3.55610251
REMARK minimizedRMSD -1
REMARK  0 active torsions:
REMARK  status: ('A' for Active; 'I' for Inactive)
ROOT
ATOM      1  C4' PXY d   1       0.757   3.616  -5.024  0.00  0.00     0.077 C 
ATOM      2  C1' PXY d   1       5.998   5.992  -5.583  0.00  0.00     0.077 C 
ATOM      3  C1  PXY d   1       4.618   5.381  -5.438  0.00  0.00    -0.082 A 
ATOM      4  C2  PXY d   1       4.472   4.247  -4.772  0.00  0.00     0.003 A 
ATOM      5  C3  PXY d   1       3.236   3.664  -4.659  0.00  0.00     0.003 A 
ATOM      6  C4  PXY d   1       2.130   4.275  -5.187  0.00  0.00    -0.082 A 
ATOM      7  C5  PXY d   1       2.270   5.437  -5.859  0.00  0.00     0.003 A 
ATOM      8  C6  PXY d   1       3.539   5.992  -5.998  0.00  0.00     0.003 A 
ENDROOT
TORSDOF 0
ENDMDL
