MODEL 1
REMARK minimizedAffinity -0.408966571
REMARK minimizedRMSD -1
REMARK  0 active torsions:
REMARK  status: ('A' for Active; 'I' for Inactive)
ROOT
ATOM      1  C4' PXY d   1       0.537   5.991  -5.776  0.00  0.00     0.077 C 
ATOM      2  C1' PXY d   1      -2.928   5.983  -1.150  0.00  0.00     0.077 C 
ATOM      3  C1  PXY d   1      -2.029   5.980  -2.370  0.00  0.00    -0.082 A 
ATOM      4  C2  PXY d   1      -0.715   5.967  -2.215  0.00  0.00     0.003 A 
ATOM      5  C3  PXY d   1       0.113   5.996  -3.307  0.00  0.00     0.003 A 
ATOM      6  C4  PXY d   1      -0.409   5.985  -4.573  0.00  0.00    -0.082 A 
ATOM      7  C5  PXY d   1      -1.749   5.988  -4.740  0.00  0.00     0.003 A 
ATOM      8  C6  PXY d   1      -2.572   6.000  -3.618  0.00  0.00     0.003 A 
ENDROOT
TORSDOF 0
ENDMDL
