MODEL 1
REMARK minimizedAffinity 2.6067903
REMARK minimizedRMSD -1
REMARK  0 active torsions:
REMARK  status: ('A' for Active; 'I' for Inactive)
ROOT
ATOM      1  C4' PXY d   1      -2.486   6.000  -3.568  0.00  0.00     0.077 C 
ATOM      2  C1' PXY d   1       2.907   5.928  -5.650  0.00  0.00     0.077 C 
ATOM      3  C1  PXY d   1       1.488   5.952  -5.115  0.00  0.00    -0.082 A 
ATOM      4  C2  PXY d   1       1.282   5.999  -3.809  0.00  0.00     0.003 A 
ATOM      5  C3  PXY d   1       0.006   5.989  -3.307  0.00  0.00     0.003 A 
ATOM      6  C4  PXY d   1      -1.071   5.984  -4.153  0.00  0.00    -0.082 A 
ATOM      7  C5  PXY d   1      -0.869   5.947  -5.487  0.00  0.00     0.003 A 
ATOM      8  C6  PXY d   1       0.434   5.916  -5.975  0.00  0.00     0.003 A 
ENDROOT
TORSDOF 0
ENDMDL
