MODEL 1
REMARK minimizedAffinity 0.620088458
REMARK minimizedRMSD -1
REMARK  0 active torsions:
REMARK  status: ('A' for Active; 'I' for Inactive)
ROOT
ATOM      1  C   UNL d   1      -3.414  -1.098   3.793  0.00  0.00     0.172 C 
ATOM      2  N   UNL d   1      -3.671  -1.140   2.373  0.00  0.00    -0.070 N 
ATOM      3  C1  UNL d   1      -4.889  -0.951   1.776  0.00  0.00    -0.004 A 
ATOM      4  C2  UNL d   1      -4.715  -1.069   0.414  0.00  0.00    -0.047 A 
ATOM      5  C3  UNL d   1      -3.345  -1.341   0.185  0.00  0.00    -0.047 A 
ATOM      6  C4  UNL d   1      -2.722  -1.379   1.414  0.00  0.00    -0.004 A 
ENDROOT
TORSDOF 0
ENDMDL
