MODEL 1
REMARK minimizedAffinity 2.61457658
REMARK minimizedRMSD -1
REMARK  0 active torsions:
REMARK  status: ('A' for Active; 'I' for Inactive)
ROOT
ATOM      1  C   UNL d   1      -3.602   5.220  -0.001  0.00  0.00     0.172 C 
ATOM      2  N   UNL d   1      -2.967   3.944  -0.231  0.00  0.00    -0.070 N 
ATOM      3  C1  UNL d   1      -1.650   3.653   0.006  0.00  0.00    -0.004 A 
ATOM      4  C2  UNL d   1      -1.440   2.335  -0.340  0.00  0.00    -0.047 A 
ATOM      5  C3  UNL d   1      -2.673   1.817  -0.802  0.00  0.00    -0.047 A 
ATOM      6  C4  UNL d   1      -3.601   2.834  -0.724  0.00  0.00    -0.004 A 
ENDROOT
TORSDOF 0
ENDMDL
