MODEL 1
REMARK minimizedAffinity 0.232991323
REMARK minimizedRMSD -1
REMARK  0 active torsions:
REMARK  status: ('A' for Active; 'I' for Inactive)
ROOT
ATOM      1  C   UNL d   1       4.504   2.638   2.624  0.00  0.00     0.172 C 
ATOM      2  N   UNL d   1       5.109   1.747   3.586  0.00  0.00    -0.070 N 
ATOM      3  C1  UNL d   1       5.454   2.075   4.870  0.00  0.00    -0.004 A 
ATOM      4  C2  UNL d   1       6.000   0.955   5.460  0.00  0.00    -0.047 A 
ATOM      5  C3  UNL d   1       5.982  -0.081   4.496  0.00  0.00    -0.047 A 
ATOM      6  C4  UNL d   1       5.426   0.436   3.346  0.00  0.00    -0.004 A 
ENDROOT
TORSDOF 0
ENDMDL
