MODEL 1
REMARK minimizedAffinity 0.542922556
REMARK minimizedRMSD -1
REMARK  0 active torsions:
REMARK  status: ('A' for Active; 'I' for Inactive)
ROOT
ATOM      1  C   UNL d   1       3.964   2.569   2.624  0.00  0.00     0.172 C 
ATOM      2  N   UNL d   1       4.723   1.742   3.532  0.00  0.00    -0.070 N 
ATOM      3  C1  UNL d   1       4.876   0.384   3.437  0.00  0.00    -0.004 A 
ATOM      4  C2  UNL d   1       5.667  -0.026   4.489  0.00  0.00    -0.047 A 
ATOM      5  C3  UNL d   1       6.000   1.125   5.242  0.00  0.00    -0.047 A 
ATOM      6  C4  UNL d   1       5.403   2.205   4.628  0.00  0.00    -0.004 A 
ENDROOT
TORSDOF 0
ENDMDL
