MODEL 1
REMARK minimizedAffinity -3.89482856
REMARK minimizedRMSD -1
REMARK  0 active torsions:
REMARK  status: ('A' for Active; 'I' for Inactive)
ROOT
ATOM      1  C   UNL d   1      -2.570   2.527   2.393  0.00  0.00     0.172 C 
ATOM      2  N   UNL d   1      -3.113   1.190   2.332  0.00  0.00    -0.070 N 
ATOM      3  C1  UNL d   1      -3.844   0.580   3.316  0.00  0.00    -0.004 A 
ATOM      4  C2  UNL d   1      -4.174  -0.683   2.874  0.00  0.00    -0.047 A 
ATOM      5  C3  UNL d   1      -3.621  -0.838   1.581  0.00  0.00    -0.047 A 
ATOM      6  C4  UNL d   1      -2.970   0.337   1.270  0.00  0.00    -0.004 A 
ENDROOT
TORSDOF 0
ENDMDL
