MODEL 1
REMARK minimizedAffinity 0.929781199
REMARK minimizedRMSD -1
REMARK  0 active torsions:
REMARK  status: ('A' for Active; 'I' for Inactive)
ROOT
ATOM      1  C   UNL d   1       4.498   2.249   2.700  0.00  0.00     0.172 C 
ATOM      2  N   UNL d   1       5.034   1.390   3.730  0.00  0.00    -0.070 N 
ATOM      3  C1  UNL d   1       5.043   0.021   3.703  0.00  0.00    -0.004 A 
ATOM      4  C2  UNL d   1       5.639  -0.420   4.865  0.00  0.00    -0.047 A 
ATOM      5  C3  UNL d   1       5.999   0.724   5.617  0.00  0.00    -0.047 A 
ATOM      6  C4  UNL d   1       5.613   1.831   4.891  0.00  0.00    -0.004 A 
ENDROOT
TORSDOF 0
ENDMDL
