MODEL 1
REMARK minimizedAffinity 3.30823326
REMARK minimizedRMSD -1
REMARK  0 active torsions:
REMARK  status: ('A' for Active; 'I' for Inactive)
ROOT
ATOM      1  C   UNL d   1       0.423  -1.659  -2.264  0.00  0.00     0.172 C 
ATOM      2  N   UNL d   1       0.449  -0.220  -2.380  0.00  0.00    -0.070 N 
ATOM      3  C1  UNL d   1      -0.062   0.664  -1.467  0.00  0.00    -0.004 A 
ATOM      4  C2  UNL d   1       0.161   1.938  -1.942  0.00  0.00    -0.047 A 
ATOM      5  C3  UNL d   1       0.828   1.816  -3.184  0.00  0.00    -0.047 A 
ATOM      6  C4  UNL d   1       0.993   0.470  -3.431  0.00  0.00    -0.004 A 
ENDROOT
TORSDOF 0
ENDMDL
