MODEL 1
REMARK minimizedAffinity -4.33269644
REMARK minimizedRMSD -1
REMARK  0 active torsions:
REMARK  status: ('A' for Active; 'I' for Inactive)
ROOT
ATOM      1  C   UNL d   1      -4.536   4.919   4.256  0.00  0.00     0.172 C 
ATOM      2  N   UNL d   1      -3.925   3.865   3.480  0.00  0.00    -0.070 N 
ATOM      3  C1  UNL d   1      -3.334   4.017   2.254  0.00  0.00    -0.004 A 
ATOM      4  C2  UNL d   1      -2.874   2.781   1.851  0.00  0.00    -0.047 A 
ATOM      5  C3  UNL d   1      -3.201   1.855   2.870  0.00  0.00    -0.047 A 
ATOM      6  C4  UNL d   1      -3.851   2.553   3.866  0.00  0.00    -0.004 A 
ENDROOT
TORSDOF 0
ENDMDL
