MODEL 1
REMARK minimizedAffinity -1.64810729
REMARK minimizedRMSD -1
REMARK  0 active torsions:
REMARK  status: ('A' for Active; 'I' for Inactive)
ROOT
ATOM      1  C   UNL d   1       2.620   0.776  -3.520  0.00  0.00     0.172 C 
ATOM      2  N   UNL d   1       3.845   0.829  -4.283  0.00  0.00    -0.070 N 
ATOM      3  C1  UNL d   1       4.116   1.709  -5.297  0.00  0.00    -0.004 A 
ATOM      4  C2  UNL d   1       5.383   1.436  -5.765  0.00  0.00    -0.047 A 
ATOM      5  C3  UNL d   1       5.891   0.354  -5.007  0.00  0.00    -0.047 A 
ATOM      6  C4  UNL d   1       4.918  -0.002  -4.097  0.00  0.00    -0.004 A 
ENDROOT
TORSDOF 0
ENDMDL
