MODEL 1
REMARK minimizedAffinity 1.05017877
REMARK minimizedRMSD -1
REMARK  0 active torsions:
REMARK  status: ('A' for Active; 'I' for Inactive)
ROOT
ATOM      1  C   UNL d   1       5.999   1.829   5.743  0.00  0.00     0.172 C 
ATOM      2  N   UNL d   1       5.362   1.693   4.455  0.00  0.00    -0.070 N 
ATOM      3  C1  UNL d   1       5.280   0.539   3.723  0.00  0.00    -0.004 A 
ATOM      4  C2  UNL d   1       4.598   0.824   2.560  0.00  0.00    -0.047 A 
ATOM      5  C3  UNL d   1       4.259   2.198   2.594  0.00  0.00    -0.047 A 
ATOM      6  C4  UNL d   1       4.744   2.711   3.778  0.00  0.00    -0.004 A 
ENDROOT
TORSDOF 0
ENDMDL
