MODEL 1
REMARK minimizedAffinity 2.9548471
REMARK minimizedRMSD -1
REMARK  0 active torsions:
REMARK  status: ('A' for Active; 'I' for Inactive)
ROOT
ATOM      1  C   UNL d   1       3.791   2.989   2.053  0.00  0.00     0.172 C 
ATOM      2  N   UNL d   1       4.566   2.118   2.905  0.00  0.00    -0.070 N 
ATOM      3  C1  UNL d   1       5.478   2.523   3.842  0.00  0.00    -0.004 A 
ATOM      4  C2  UNL d   1       5.999   1.395   4.439  0.00  0.00    -0.047 A 
ATOM      5  C3  UNL d   1       5.380   0.273   3.839  0.00  0.00    -0.047 A 
ATOM      6  C4  UNL d   1       4.497   0.749   2.892  0.00  0.00    -0.004 A 
ENDROOT
TORSDOF 0
ENDMDL
