MODEL 1
REMARK minimizedAffinity -0.878584981
REMARK minimizedRMSD -1
REMARK  0 active torsions:
REMARK  status: ('A' for Active; 'I' for Inactive)
ROOT
ATOM      1  C   UNL d   1       5.856   0.068  -4.494  0.00  0.00     0.172 C 
ATOM      2  N   UNL d   1       5.339   1.303  -5.035  0.00  0.00    -0.070 N 
ATOM      3  C1  UNL d   1       6.000   2.503  -5.058  0.00  0.00    -0.004 A 
ATOM      4  C2  UNL d   1       5.171   3.429  -5.654  0.00  0.00    -0.047 A 
ATOM      5  C3  UNL d   1       3.971   2.764  -6.000  0.00  0.00    -0.047 A 
ATOM      6  C4  UNL d   1       4.102   1.449  -5.605  0.00  0.00    -0.004 A 
ENDROOT
TORSDOF 0
ENDMDL
