MODEL 1
REMARK minimizedAffinity -0.687685609
REMARK minimizedRMSD -1
REMARK  0 active torsions:
REMARK  status: ('A' for Active; 'I' for Inactive)
ROOT
ATOM      1  C   UNL d   1       5.995   4.588   3.804  0.00  0.00     0.172 C 
ATOM      2  N   UNL d   1       5.741   3.168   3.868  0.00  0.00    -0.070 N 
ATOM      3  C1  UNL d   1       5.217   2.404   2.859  0.00  0.00    -0.004 A 
ATOM      4  C2  UNL d   1       5.132   1.105   3.314  0.00  0.00    -0.047 A 
ATOM      5  C3  UNL d   1       5.620   1.088   4.641  0.00  0.00    -0.047 A 
ATOM      6  C4  UNL d   1       5.991   2.378   4.959  0.00  0.00    -0.004 A 
ENDROOT
TORSDOF 0
ENDMDL
