MODEL 1
REMARK minimizedAffinity 0.235996544
REMARK minimizedRMSD -1
REMARK  0 active torsions:
REMARK  status: ('A' for Active; 'I' for Inactive)
ROOT
ATOM      1  C   UNL d   1      -3.500   5.244  -0.280  0.00  0.00     0.172 C 
ATOM      2  N   UNL d   1      -3.152   3.877   0.027  0.00  0.00    -0.070 N 
ATOM      3  C1  UNL d   1      -2.683   3.424   1.232  0.00  0.00    -0.004 A 
ATOM      4  C2  UNL d   1      -2.472   2.067   1.119  0.00  0.00    -0.047 A 
ATOM      5  C3  UNL d   1      -2.825   1.691  -0.199  0.00  0.00    -0.047 A 
ATOM      6  C4  UNL d   1      -3.243   2.831  -0.853  0.00  0.00    -0.004 A 
ENDROOT
TORSDOF 0
ENDMDL
