MODEL 1
REMARK minimizedAffinity 1.39281356
REMARK minimizedRMSD -1
REMARK  0 active torsions:
REMARK  status: ('A' for Active; 'I' for Inactive)
ROOT
ATOM      1  C   UNL d   1       3.116   4.125  -5.286  0.00  0.00     0.172 C 
ATOM      2  N   UNL d   1       4.097   3.071  -5.384  0.00  0.00    -0.070 N 
ATOM      3  C1  UNL d   1       3.912   1.862  -6.000  0.00  0.00    -0.004 A 
ATOM      4  C2  UNL d   1       5.080   1.142  -5.876  0.00  0.00    -0.047 A 
ATOM      5  C3  UNL d   1       5.999   1.945  -5.161  0.00  0.00    -0.047 A 
ATOM      6  C4  UNL d   1       5.365   3.134  -4.869  0.00  0.00    -0.004 A 
ENDROOT
TORSDOF 0
ENDMDL
