MODEL 1
REMARK minimizedAffinity 1.04473472
REMARK minimizedRMSD -1
REMARK  0 active torsions:
REMARK  status: ('A' for Active; 'I' for Inactive)
ROOT
ATOM      1  C   UNL d   1      -3.643   0.295   0.131  0.00  0.00     0.172 C 
ATOM      2  N   UNL d   1      -3.186   1.659   0.003  0.00  0.00    -0.070 N 
ATOM      3  C1  UNL d   1      -3.939   2.779   0.235  0.00  0.00    -0.004 A 
ATOM      4  C2  UNL d   1      -3.142   3.879   0.004  0.00  0.00    -0.047 A 
ATOM      5  C3  UNL d   1      -1.866   3.405  -0.380  0.00  0.00    -0.047 A 
ATOM      6  C4  UNL d   1      -1.921   2.027  -0.372  0.00  0.00    -0.004 A 
ENDROOT
TORSDOF 0
ENDMDL
