MODEL 1
REMARK minimizedAffinity 4.46139479
REMARK minimizedRMSD -1
REMARK  2 active torsions:
REMARK  status: ('A' for Active; 'I' for Inactive)
REMARK    1  A    between atoms: C2'_3  and  C1'_4 
REMARK    2  A    between atoms: C1'_4  and  C1_5 
ROOT
ATOM      1  C1  I4B d   1       3.690   1.044  -0.178  0.00  0.00    -0.075 A 
ATOM      2  C2  I4B d   1       3.931   2.357   0.141  0.00  0.00     0.003 A 
ATOM      3  C3  I4B d   1       5.089   3.009  -0.347  0.00  0.00     0.002 A 
ATOM      4  C4  I4B d   1       6.000   2.300  -1.104  0.00  0.00    -0.004 A 
ATOM      5  C5  I4B d   1       5.742   0.975  -1.445  0.00  0.00     0.002 A 
ATOM      6  C6  I4B d   1       4.574   0.347  -0.990  0.00  0.00     0.003 A 
ENDROOT
BRANCH   1   7
ATOM      7  C1' I4B d   1       2.473   0.378   0.382  0.00  0.00     0.060 C 
BRANCH   7   8
ATOM      8  C2' I4B d   1       1.732   1.394   1.227  0.00  0.00    -0.013 C 
ATOM      9  C4' I4B d   1       0.599   2.020   0.458  0.00  0.00     0.013 C 
ATOM     10  C3' I4B d   1       1.232   0.696   2.457  0.00  0.00     0.013 C 
ENDBRANCH   7   8
ENDBRANCH   1   7
TORSDOF 2
ENDMDL
