MODEL 1
REMARK minimizedAffinity 8.60878754
REMARK minimizedRMSD -1
REMARK  2 active torsions:
REMARK  status: ('A' for Active; 'I' for Inactive)
REMARK    1  A    between atoms: C2'_3  and  C1'_4 
REMARK    2  A    between atoms: C1'_4  and  C1_5 
ROOT
ATOM      1  C1  I4B d   1       2.856   1.893   2.303  0.00  0.00    -0.075 A 
ATOM      2  C2  I4B d   1       2.253   1.350   3.409  0.00  0.00     0.003 A 
ATOM      3  C3  I4B d   1       2.826   1.527   4.692  0.00  0.00     0.002 A 
ATOM      4  C4  I4B d   1       4.020   2.207   4.816  0.00  0.00    -0.004 A 
ATOM      5  C5  I4B d   1       4.618   2.777   3.695  0.00  0.00     0.002 A 
ATOM      6  C6  I4B d   1       4.026   2.630   2.432  0.00  0.00     0.003 A 
ENDROOT
BRANCH   1   7
ATOM      7  C1' I4B d   1       2.243   1.659   0.959  0.00  0.00     0.060 C 
BRANCH   7   8
ATOM      8  C2' I4B d   1       3.135   0.699   0.199  0.00  0.00    -0.013 C 
ATOM      9  C4' I4B d   1       2.325  -0.356  -0.508  0.00  0.00     0.013 C 
ATOM     10  C3' I4B d   1       3.952   1.497  -0.773  0.00  0.00     0.013 C 
ENDBRANCH   7   8
ENDBRANCH   1   7
TORSDOF 2
ENDMDL
