MODEL 1
REMARK minimizedAffinity 10.8651142
REMARK minimizedRMSD -1
REMARK  2 active torsions:
REMARK  status: ('A' for Active; 'I' for Inactive)
REMARK    1  A    between atoms: C2'_3  and  C1'_4 
REMARK    2  A    between atoms: C1'_4  and  C1_5 
ROOT
ATOM      1  C1  I4B d   1      -4.433   1.155  -3.221  0.00  0.00    -0.075 A 
ATOM      2  C2  I4B d   1      -3.107   0.895  -2.978  0.00  0.00     0.003 A 
ATOM      3  C3  I4B d   1      -2.284   0.372  -4.005  0.00  0.00     0.002 A 
ATOM      4  C4  I4B d   1      -2.836   0.077  -5.235  0.00  0.00    -0.004 A 
ATOM      5  C5  I4B d   1      -4.175   0.363  -5.486  0.00  0.00     0.002 A 
ATOM      6  C6  I4B d   1      -4.976   0.916  -4.477  0.00  0.00     0.003 A 
ENDROOT
BRANCH   1   7
ATOM      7  C1' I4B d   1      -5.281   1.677  -2.105  0.00  0.00     0.060 C 
BRANCH   7   8
ATOM      8  C2' I4B d   1      -5.994   0.500  -1.470  0.00  0.00    -0.013 C 
ATOM      9  C4' I4B d   1      -5.612  -0.794  -2.140  0.00  0.00     0.013 C 
ATOM     10  C3' I4B d   1      -5.645   0.478  -0.012  0.00  0.00     0.013 C 
ENDBRANCH   7   8
ENDBRANCH   1   7
TORSDOF 2
ENDMDL
