MODEL 1
REMARK minimizedAffinity 2.44889927
REMARK minimizedRMSD -1
REMARK  2 active torsions:
REMARK  status: ('A' for Active; 'I' for Inactive)
REMARK    1  A    between atoms: C2'_3  and  C1'_4 
REMARK    2  A    between atoms: C1'_4  and  C1_5 
ROOT
ATOM      1  C1  I4B d   1       3.260  -0.343  -0.036  0.00  0.00    -0.075 A 
ATOM      2  C2  I4B d   1       4.539  -0.326   0.461  0.00  0.00     0.003 A 
ATOM      3  C3  I4B d   1       5.418   0.735   0.130  0.00  0.00     0.002 A 
ATOM      4  C4  I4B d   1       4.994   1.723  -0.735  0.00  0.00    -0.004 A 
ATOM      5  C5  I4B d   1       3.689   1.716  -1.219  0.00  0.00     0.002 A 
ATOM      6  C6  I4B d   1       2.812   0.683  -0.857  0.00  0.00     0.003 A 
ENDROOT
BRANCH   1   7
ATOM      7  C1' I4B d   1       2.370  -1.495   0.308  0.00  0.00     0.060 C 
BRANCH   7   8
ATOM      8  C2' I4B d   1       1.739  -1.997  -0.976  0.00  0.00    -0.013 C 
ATOM      9  C4' I4B d   1       2.789  -2.368  -1.990  0.00  0.00     0.013 C 
ATOM     10  C3' I4B d   1       0.873  -3.174  -0.637  0.00  0.00     0.013 C 
ENDBRANCH   7   8
ENDBRANCH   1   7
TORSDOF 2
ENDMDL
