MODEL 1
REMARK minimizedAffinity 4.04781342
REMARK minimizedRMSD -1
REMARK  2 active torsions:
REMARK  status: ('A' for Active; 'I' for Inactive)
REMARK    1  A    between atoms: C2'_3  and  C1'_4 
REMARK    2  A    between atoms: C1'_4  and  C1_5 
ROOT
ATOM      1  C1  I4B d   1      -5.231   0.939  -2.632  0.00  0.00    -0.075 A 
ATOM      2  C2  I4B d   1      -3.864   0.856  -2.550  0.00  0.00     0.003 A 
ATOM      3  C3  I4B d   1      -3.109   0.401  -3.658  0.00  0.00     0.002 A 
ATOM      4  C4  I4B d   1      -3.761  -0.007  -4.803  0.00  0.00    -0.004 A 
ATOM      5  C5  I4B d   1      -5.146   0.099  -4.893  0.00  0.00     0.002 A 
ATOM      6  C6  I4B d   1      -5.885   0.586  -3.806  0.00  0.00     0.003 A 
ENDROOT
BRANCH   1   7
ATOM      7  C1' I4B d   1      -6.000   1.393  -1.432  0.00  0.00     0.060 C 
BRANCH   7   8
ATOM      8  C2' I4B d   1      -5.995   0.265  -0.420  0.00  0.00    -0.013 C 
ATOM      9  C4' I4B d   1      -5.700  -1.057  -1.079  0.00  0.00     0.013 C 
ATOM     10  C3' I4B d   1      -4.972   0.588   0.627  0.00  0.00     0.013 C 
ENDBRANCH   7   8
ENDBRANCH   1   7
TORSDOF 2
ENDMDL
