MODEL 1
REMARK minimizedAffinity 15.1948204
REMARK minimizedRMSD -1
REMARK  0 active torsions:
REMARK  status: ('A' for Active; 'I' for Inactive)
ROOT
ATOM      1  O1  BZF d   1       1.190   4.622  -0.016  0.00  0.00    -0.204 OA
ATOM      2  C2  BZF d   1       0.110   4.389  -0.844  0.00  0.00     0.174 A 
ATOM      3  C3  BZF d   1      -0.715   3.467  -0.307  0.00  0.00    -0.012 A 
ATOM      4  C3A BZF d   1      -0.160   3.169   0.978  0.00  0.00    -0.107 A 
ATOM      5  C4  BZF d   1      -0.538   2.339   1.994  0.00  0.00     0.055 A 
ATOM      6  C5  BZF d   1       0.263   2.225   3.086  0.00  0.00    -0.016 A 
ATOM      7  C6  BZF d   1       1.449   2.922   3.193  0.00  0.00     0.022 A 
ATOM      8  C7  BZF d   1       1.863   3.761   2.213  0.00  0.00     0.029 A 
ATOM      9  C7A BZF d   1       1.039   3.904   1.123  0.00  0.00     0.058 A 
ENDROOT
TORSDOF 0
ENDMDL
