MODEL 1
REMARK minimizedAffinity 9.90808964
REMARK minimizedRMSD -1
REMARK  0 active torsions:
REMARK  status: ('A' for Active; 'I' for Inactive)
ROOT
ATOM      1  O1  BZF d   1       2.486  -0.587  -1.836  0.00  0.00    -0.204 OA
ATOM      2  C2  BZF d   1       1.205  -0.958  -2.195  0.00  0.00     0.174 A 
ATOM      3  C3  BZF d   1       0.968  -2.244  -1.863  0.00  0.00    -0.012 A 
ATOM      4  C3A BZF d   1       2.145  -2.678  -1.176  0.00  0.00    -0.107 A 
ATOM      5  C4  BZF d   1       2.509  -3.856  -0.588  0.00  0.00     0.055 A 
ATOM      6  C5  BZF d   1       3.758  -3.976  -0.067  0.00  0.00    -0.016 A 
ATOM      7  C6  BZF d   1       4.670  -2.942  -0.120  0.00  0.00     0.022 A 
ATOM      8  C7  BZF d   1       4.353  -1.752  -0.688  0.00  0.00     0.029 A 
ATOM      9  C7A BZF d   1       3.080  -1.617  -1.186  0.00  0.00     0.058 A 
ENDROOT
TORSDOF 0
ENDMDL
