MODEL 1
REMARK minimizedAffinity 12.8020277
REMARK minimizedRMSD -1
REMARK  0 active torsions:
REMARK  status: ('A' for Active; 'I' for Inactive)
ROOT
ATOM      1  O1  BZF d   1       3.510  -1.160  -0.006  0.00  0.00    -0.204 OA
ATOM      2  C2  BZF d   1       2.580  -1.685   0.871  0.00  0.00     0.174 A 
ATOM      3  C3  BZF d   1       2.733  -3.020   0.985  0.00  0.00    -0.012 A 
ATOM      4  C3A BZF d   1       3.884  -3.337   0.198  0.00  0.00    -0.107 A 
ATOM      5  C4  BZF d   1       4.547  -4.500  -0.071  0.00  0.00     0.055 A 
ATOM      6  C5  BZF d   1       5.593  -4.479  -0.938  0.00  0.00    -0.016 A 
ATOM      7  C6  BZF d   1       6.000  -3.315  -1.558  0.00  0.00     0.022 A 
ATOM      8  C7  BZF d   1       5.376  -2.136  -1.319  0.00  0.00     0.029 A 
ATOM      9  C7A BZF d   1       4.340  -2.148  -0.418  0.00  0.00     0.058 A 
ENDROOT
TORSDOF 0
ENDMDL
