MODEL 1
REMARK minimizedAffinity 15.9235306
REMARK minimizedRMSD -1
REMARK  0 active torsions:
REMARK  status: ('A' for Active; 'I' for Inactive)
ROOT
ATOM      1  O1  BZF d   1       0.379   0.160  -1.315  0.00  0.00    -0.204 OA
ATOM      2  C2  BZF d   1       0.833  -1.058  -1.782  0.00  0.00     0.174 A 
ATOM      3  C3  BZF d   1      -0.198  -1.893  -2.024  0.00  0.00    -0.012 A 
ATOM      4  C3A BZF d   1      -1.375  -1.118  -1.773  0.00  0.00    -0.107 A 
ATOM      5  C4  BZF d   1      -2.711  -1.388  -1.855  0.00  0.00     0.055 A 
ATOM      6  C5  BZF d   1      -3.602  -0.436  -1.471  0.00  0.00    -0.016 A 
ATOM      7  C6  BZF d   1      -3.192   0.793  -0.997  0.00  0.00     0.022 A 
ATOM      8  C7  BZF d   1      -1.877   1.108  -0.903  0.00  0.00     0.029 A 
ATOM      9  C7A BZF d   1      -0.975   0.160  -1.321  0.00  0.00     0.058 A 
ENDROOT
TORSDOF 0
ENDMDL
