MODEL 1
REMARK minimizedAffinity 7.43159151
REMARK minimizedRMSD -1
REMARK  0 active torsions:
REMARK  status: ('A' for Active; 'I' for Inactive)
ROOT
ATOM      1  O1  BZF d   1       0.730   3.386   0.157  0.00  0.00    -0.204 OA
ATOM      2  C2  BZF d   1      -0.385   3.088  -0.602  0.00  0.00     0.174 A 
ATOM      3  C3  BZF d   1      -1.163   2.182   0.025  0.00  0.00    -0.012 A 
ATOM      4  C3A BZF d   1      -0.539   1.965   1.294  0.00  0.00    -0.107 A 
ATOM      5  C4  BZF d   1      -0.849   1.184   2.371  0.00  0.00     0.055 A 
ATOM      6  C5  BZF d   1       0.007   1.145   3.426  0.00  0.00    -0.016 A 
ATOM      7  C6  BZF d   1       1.182   1.868   3.435  0.00  0.00     0.022 A 
ATOM      8  C7  BZF d   1       1.529   2.660   2.392  0.00  0.00     0.029 A 
ATOM      9  C7A BZF d   1       0.650   2.728   1.339  0.00  0.00     0.058 A 
ENDROOT
TORSDOF 0
ENDMDL
