MODEL 1
REMARK minimizedAffinity 13.980299
REMARK minimizedRMSD -1
REMARK  0 active torsions:
REMARK  status: ('A' for Active; 'I' for Inactive)
ROOT
ATOM      1  O1  BZF d   1       0.804   0.296  -1.529  0.00  0.00    -0.204 OA
ATOM      2  C2  BZF d   1       0.952  -0.912  -2.184  0.00  0.00     0.174 A 
ATOM      3  C3  BZF d   1      -0.235  -1.539  -2.305  0.00  0.00    -0.012 A 
ATOM      4  C3A BZF d   1      -1.199  -0.628  -1.770  0.00  0.00    -0.107 A 
ATOM      5  C4  BZF d   1      -2.556  -0.675  -1.625  0.00  0.00     0.055 A 
ATOM      6  C5  BZF d   1      -3.189   0.350  -0.995  0.00  0.00    -0.016 A 
ATOM      7  C6  BZF d   1      -2.496   1.433  -0.494  0.00  0.00     0.022 A 
ATOM      8  C7  BZF d   1      -1.150   1.526  -0.618  0.00  0.00     0.029 A 
ATOM      9  C7A BZF d   1      -0.511   0.508  -1.283  0.00  0.00     0.058 A 
ENDROOT
TORSDOF 0
ENDMDL
