MODEL 1
REMARK minimizedAffinity 0.986968219
REMARK minimizedRMSD -1
REMARK  0 active torsions:
REMARK  status: ('A' for Active; 'I' for Inactive)
ROOT
ATOM      1  O1  BZF d   1      -0.607   4.255  -2.030  0.00  0.00    -0.204 OA
ATOM      2  C2  BZF d   1      -0.617   5.563  -1.587  0.00  0.00     0.174 A 
ATOM      3  C3  BZF d   1      -0.766   5.613  -0.248  0.00  0.00    -0.012 A 
ATOM      4  C3A BZF d   1      -0.764   4.249   0.183  0.00  0.00    -0.107 A 
ATOM      5  C4  BZF d   1      -0.862   3.650   1.406  0.00  0.00     0.055 A 
ATOM      6  C5  BZF d   1      -0.900   2.294   1.477  0.00  0.00    -0.016 A 
ATOM      7  C6  BZF d   1      -0.847   1.506   0.345  0.00  0.00     0.022 A 
ATOM      8  C7  BZF d   1      -0.744   2.054  -0.890  0.00  0.00     0.029 A 
ATOM      9  C7A BZF d   1      -0.672   3.424  -0.962  0.00  0.00     0.058 A 
ENDROOT
TORSDOF 0
ENDMDL
