MODEL 1
REMARK minimizedAffinity 12.1382294
REMARK minimizedRMSD -1
REMARK  0 active torsions:
REMARK  status: ('A' for Active; 'I' for Inactive)
ROOT
ATOM      1  O1  BZF d   1       0.888   4.017  -0.055  0.00  0.00    -0.204 OA
ATOM      2  C2  BZF d   1      -0.068   3.629  -0.974  0.00  0.00     0.174 A 
ATOM      3  C3  BZF d   1      -0.956   2.784  -0.413  0.00  0.00    -0.012 A 
ATOM      4  C3A BZF d   1      -0.582   2.706   0.966  0.00  0.00    -0.107 A 
ATOM      5  C4  BZF d   1      -1.094   2.037   2.041  0.00  0.00     0.055 A 
ATOM      6  C5  BZF d   1      -0.450   2.116   3.235  0.00  0.00    -0.016 A 
ATOM      7  C6  BZF d   1       0.708   2.850   3.389  0.00  0.00     0.022 A 
ATOM      8  C7  BZF d   1       1.250   3.535   2.353  0.00  0.00     0.029 A 
ATOM      9  C7A BZF d   1       0.584   3.483   1.152  0.00  0.00     0.058 A 
ENDROOT
TORSDOF 0
ENDMDL
