MODEL 1
REMARK minimizedAffinity -3.70256782
REMARK minimizedRMSD -1
REMARK  0 active torsions:
REMARK  status: ('A' for Active; 'I' for Inactive)
ROOT
ATOM      1  C1  BNZ d   1      -0.694  -1.246   1.061  0.00  0.00     0.000 A 
ATOM      2  C2  BNZ d   1       0.159  -0.505   0.287  0.00  0.00     0.000 A 
ATOM      3  C3  BNZ d   1       1.503  -0.755   0.291  0.00  0.00     0.000 A 
ATOM      4  C4  BNZ d   1       1.996  -1.717   1.098  0.00  0.00     0.000 A 
ATOM      5  C5  BNZ d   1       1.150  -2.466   1.891  0.00  0.00     0.000 A 
ATOM      6  C6  BNZ d   1      -0.207  -2.238   1.855  0.00  0.00     0.000 A 
ENDROOT
TORSDOF 0
ENDMDL
