MODEL 1
REMARK minimizedAffinity -2.59493089
REMARK minimizedRMSD -1
REMARK  0 active torsions:
REMARK  status: ('A' for Active; 'I' for Inactive)
ROOT
ATOM      1  C1  BNZ d   1       0.507  -1.020   0.721  0.00  0.00     0.000 A 
ATOM      2  C2  BNZ d   1       1.558  -0.201   0.402  0.00  0.00     0.000 A 
ATOM      3  C3  BNZ d   1       1.363   0.932  -0.337  0.00  0.00     0.000 A 
ATOM      4  C4  BNZ d   1       0.127   1.223  -0.791  0.00  0.00     0.000 A 
ATOM      5  C5  BNZ d   1      -0.941   0.402  -0.487  0.00  0.00     0.000 A 
ATOM      6  C6  BNZ d   1      -0.748  -0.716   0.291  0.00  0.00     0.000 A 
ENDROOT
TORSDOF 0
ENDMDL
