MODEL 1
REMARK minimizedAffinity -4.39121628
REMARK minimizedRMSD -1
REMARK  0 active torsions:
REMARK  status: ('A' for Active; 'I' for Inactive)
ROOT
ATOM      1  C1  BNZ d   1      -3.182  -0.229   2.049  0.00  0.00     0.000 A 
ATOM      2  C2  BNZ d   1      -2.855  -1.547   2.228  0.00  0.00     0.000 A 
ATOM      3  C3  BNZ d   1      -1.811  -2.107   1.547  0.00  0.00     0.000 A 
ATOM      4  C4  BNZ d   1      -1.121  -1.362   0.660  0.00  0.00     0.000 A 
ATOM      5  C5  BNZ d   1      -1.444  -0.034   0.462  0.00  0.00     0.000 A 
ATOM      6  C6  BNZ d   1      -2.471   0.537   1.177  0.00  0.00     0.000 A 
ENDROOT
TORSDOF 0
ENDMDL
