MODEL 1
REMARK minimizedAffinity -4.3701396
REMARK minimizedRMSD -1
REMARK  0 active torsions:
REMARK  status: ('A' for Active; 'I' for Inactive)
ROOT
ATOM      1  C1  BNZ d   1      -1.306   0.286   0.797  0.00  0.00     0.000 A 
ATOM      2  C2  BNZ d   1      -0.572   1.437   0.693  0.00  0.00     0.000 A 
ATOM      3  C3  BNZ d   1       0.774   1.389   0.458  0.00  0.00     0.000 A 
ATOM      4  C4  BNZ d   1       1.390   0.193   0.368  0.00  0.00     0.000 A 
ATOM      5  C5  BNZ d   1       0.664  -0.977   0.481  0.00  0.00     0.000 A 
ATOM      6  C6  BNZ d   1      -0.697  -0.925   0.678  0.00  0.00     0.000 A 
ENDROOT
TORSDOF 0
ENDMDL
