MODEL 1
REMARK minimizedAffinity -4.25635433
REMARK minimizedRMSD -1
REMARK  0 active torsions:
REMARK  status: ('A' for Active; 'I' for Inactive)
ROOT
ATOM      1  C1  BNZ d   1      -0.995   0.247   0.892  0.00  0.00     0.000 A 
ATOM      2  C2  BNZ d   1       0.037  -0.258   0.147  0.00  0.00     0.000 A 
ATOM      3  C3  BNZ d   1       0.352  -1.587   0.198  0.00  0.00     0.000 A 
ATOM      4  C4  BNZ d   1      -0.339  -2.401   1.022  0.00  0.00     0.000 A 
ATOM      5  C5  BNZ d   1      -1.376  -1.905   1.786  0.00  0.00     0.000 A 
ATOM      6  C6  BNZ d   1      -1.716  -0.574   1.704  0.00  0.00     0.000 A 
ENDROOT
TORSDOF 0
ENDMDL
