MODEL 1
REMARK minimizedAffinity -2.59678745
REMARK minimizedRMSD -1
REMARK  0 active torsions:
REMARK  status: ('A' for Active; 'I' for Inactive)
ROOT
ATOM      1  C1  BNZ d   1       1.358  -1.743   1.308  0.00  0.00     0.000 A 
ATOM      2  C2  BNZ d   1       1.076  -0.799   0.356  0.00  0.00     0.000 A 
ATOM      3  C3  BNZ d   1      -0.217  -0.490   0.038  0.00  0.00     0.000 A 
ATOM      4  C4  BNZ d   1      -1.225  -1.153   0.641  0.00  0.00     0.000 A 
ATOM      5  C5  BNZ d   1      -0.957  -2.114   1.595  0.00  0.00     0.000 A 
ATOM      6  C6  BNZ d   1       0.345  -2.395   1.941  0.00  0.00     0.000 A 
ENDROOT
TORSDOF 0
ENDMDL
