MODEL 1
REMARK minimizedAffinity -1.20144784
REMARK minimizedRMSD -1
REMARK  0 active torsions:
REMARK  status: ('A' for Active; 'I' for Inactive)
ROOT
ATOM      1  C1  BNZ d   1      -1.048   1.872   0.942  0.00  0.00     0.000 A 
ATOM      2  C2  BNZ d   1      -1.811   0.758   1.172  0.00  0.00     0.000 A 
ATOM      3  C3  BNZ d   1      -1.317  -0.492   0.925  0.00  0.00     0.000 A 
ATOM      4  C4  BNZ d   1      -0.077  -0.625   0.410  0.00  0.00     0.000 A 
ATOM      5  C5  BNZ d   1       0.701   0.488   0.164  0.00  0.00     0.000 A 
ATOM      6  C6  BNZ d   1       0.215   1.743   0.451  0.00  0.00     0.000 A 
ENDROOT
TORSDOF 0
ENDMDL
