MODEL 1
REMARK minimizedAffinity -2.8514688
REMARK minimizedRMSD -1
REMARK  0 active torsions:
REMARK  status: ('A' for Active; 'I' for Inactive)
ROOT
ATOM      1  C1  BNZ d   1      -0.712  -1.108   2.088  0.00  0.00     0.000 A 
ATOM      2  C2  BNZ d   1      -0.143  -2.353   2.037  0.00  0.00     0.000 A 
ATOM      3  C3  BNZ d   1       0.738  -2.680   1.044  0.00  0.00     0.000 A 
ATOM      4  C4  BNZ d   1       1.019  -1.777   0.083  0.00  0.00     0.000 A 
ATOM      5  C5  BNZ d   1       0.446  -0.521   0.115  0.00  0.00     0.000 A 
ATOM      6  C6  BNZ d   1      -0.410  -0.182   1.137  0.00  0.00     0.000 A 
ENDROOT
TORSDOF 0
ENDMDL
