MODEL 1
REMARK minimizedAffinity -3.83066773
REMARK minimizedRMSD -1
REMARK  0 active torsions:
REMARK  status: ('A' for Active; 'I' for Inactive)
ROOT
ATOM      1  C1  BNZ d   1       1.273  -1.410  -0.442  0.00  0.00     0.000 A 
ATOM      2  C2  BNZ d   1       1.175  -0.062  -0.664  0.00  0.00     0.000 A 
ATOM      3  C3  BNZ d   1       0.204   0.680  -0.052  0.00  0.00     0.000 A 
ATOM      4  C4  BNZ d   1      -0.692   0.068   0.749  0.00  0.00     0.000 A 
ATOM      5  C5  BNZ d   1      -0.613  -1.292   0.976  0.00  0.00     0.000 A 
ATOM      6  C6  BNZ d   1       0.390  -2.029   0.388  0.00  0.00     0.000 A 
ENDROOT
TORSDOF 0
ENDMDL
