MODEL 1
REMARK minimizedAffinity -3.65255761
REMARK minimizedRMSD -1
REMARK  0 active torsions:
REMARK  status: ('A' for Active; 'I' for Inactive)
ROOT
ATOM      1  C1  BNZ d   1      -2.093  -0.301   1.629  0.00  0.00     0.000 A 
ATOM      2  C2  BNZ d   1      -1.371   0.386   0.691  0.00  0.00     0.000 A 
ATOM      3  C3  BNZ d   1      -0.358  -0.222   0.004  0.00  0.00     0.000 A 
ATOM      4  C4  BNZ d   1      -0.043  -1.503   0.283  0.00  0.00     0.000 A 
ATOM      5  C5  BNZ d   1      -0.756  -2.207   1.233  0.00  0.00     0.000 A 
ATOM      6  C6  BNZ d   1      -1.801  -1.603   1.895  0.00  0.00     0.000 A 
ENDROOT
TORSDOF 0
ENDMDL
