MODEL 1
REMARK minimizedAffinity -3.63246322
REMARK minimizedRMSD -1
REMARK  0 active torsions:
REMARK  status: ('A' for Active; 'I' for Inactive)
ROOT
ATOM      1  C1  BNZ d   1      -0.025   0.729  -1.045  0.00  0.00     0.000 A 
ATOM      2  C2  BNZ d   1      -0.359   1.116  -2.315  0.00  0.00     0.000 A 
ATOM      3  C3  BNZ d   1       0.476   1.914  -3.046  0.00  0.00     0.000 A 
ATOM      4  C4  BNZ d   1       1.623   2.357  -2.492  0.00  0.00     0.000 A 
ATOM      5  C5  BNZ d   1       1.970   1.983  -1.209  0.00  0.00     0.000 A 
ATOM      6  C6  BNZ d   1       1.146   1.148  -0.491  0.00  0.00     0.000 A 
ENDROOT
TORSDOF 0
ENDMDL
