MODEL 1
REMARK minimizedAffinity -5.52745724
REMARK minimizedRMSD -1
REMARK  0 active torsions:
REMARK  status: ('A' for Active; 'I' for Inactive)
ROOT
ATOM      1  C1  BNZ d   1      -2.127  -1.407   1.739  0.00  0.00     0.000 A 
ATOM      2  C2  BNZ d   1      -1.075  -1.860   0.988  0.00  0.00     0.000 A 
ATOM      3  C3  BNZ d   1      -0.334  -0.998   0.229  0.00  0.00     0.000 A 
ATOM      4  C4  BNZ d   1      -0.668   0.308   0.191  0.00  0.00     0.000 A 
ATOM      5  C5  BNZ d   1      -1.731   0.779   0.935  0.00  0.00     0.000 A 
ATOM      6  C6  BNZ d   1      -2.451  -0.085   1.728  0.00  0.00     0.000 A 
ENDROOT
TORSDOF 0
ENDMDL
