MODEL 1
REMARK minimizedAffinity -4.38366365
REMARK minimizedRMSD -1
REMARK  0 active torsions:
REMARK  status: ('A' for Active; 'I' for Inactive)
ROOT
ATOM      1  C1  BNZ d   1      -2.157  -1.705   0.769  0.00  0.00     0.000 A 
ATOM      2  C2  BNZ d   1      -1.341  -0.929  -0.011  0.00  0.00     0.000 A 
ATOM      3  C3  BNZ d   1       0.009  -1.142  -0.039  0.00  0.00     0.000 A 
ATOM      4  C4  BNZ d   1       0.546  -2.101   0.742  0.00  0.00     0.000 A 
ATOM      5  C5  BNZ d   1      -0.262  -2.885   1.541  0.00  0.00     0.000 A 
ATOM      6  C6  BNZ d   1      -1.625  -2.694   1.537  0.00  0.00     0.000 A 
ENDROOT
TORSDOF 0
ENDMDL
