MODEL 1
REMARK minimizedAffinity -4.30038786
REMARK minimizedRMSD -1
REMARK  0 active torsions:
REMARK  status: ('A' for Active; 'I' for Inactive)
ROOT
ATOM      1  C1  BNZ d   1      -1.172  -1.209   0.663  0.00  0.00     0.000 A 
ATOM      2  C2  BNZ d   1      -1.340   0.127   0.414  0.00  0.00     0.000 A 
ATOM      3  C3  BNZ d   1      -0.276   0.915   0.075  0.00  0.00     0.000 A 
ATOM      4  C4  BNZ d   1       0.959   0.376   0.024  0.00  0.00     0.000 A 
ATOM      5  C5  BNZ d   1       1.146  -0.967   0.281  0.00  0.00     0.000 A 
ATOM      6  C6  BNZ d   1       0.067  -1.766   0.584  0.00  0.00     0.000 A 
ENDROOT
TORSDOF 0
ENDMDL
