MODEL 1
REMARK minimizedAffinity -4.16296816
REMARK minimizedRMSD -1
REMARK  0 active torsions:
REMARK  status: ('A' for Active; 'I' for Inactive)
ROOT
ATOM      1  C1  BNZ d   1       0.438  -1.849   0.749  0.00  0.00     0.000 A 
ATOM      2  C2  BNZ d   1      -0.223  -0.768   0.230  0.00  0.00     0.000 A 
ATOM      3  C3  BNZ d   1      -1.586  -0.758   0.139  0.00  0.00     0.000 A 
ATOM      4  C4  BNZ d   1      -2.285  -1.844   0.529  0.00  0.00     0.000 A 
ATOM      5  C5  BNZ d   1      -1.633  -2.945   1.046  0.00  0.00     0.000 A 
ATOM      6  C6  BNZ d   1      -0.263  -2.937   1.172  0.00  0.00     0.000 A 
ENDROOT
TORSDOF 0
ENDMDL
