MODEL 1
REMARK minimizedAffinity -4.72390842
REMARK minimizedRMSD -1
REMARK  0 active torsions:
REMARK  status: ('A' for Active; 'I' for Inactive)
ROOT
ATOM      1  C1  BNZ d   1      -2.267  -2.095   1.033  0.00  0.00     0.000 A 
ATOM      2  C2  BNZ d   1      -2.013  -0.751   1.095  0.00  0.00     0.000 A 
ATOM      3  C3  BNZ d   1      -0.838  -0.238   0.619  0.00  0.00     0.000 A 
ATOM      4  C4  BNZ d   1       0.096  -1.073   0.120  0.00  0.00     0.000 A 
ATOM      5  C5  BNZ d   1      -0.142  -2.432   0.059  0.00  0.00     0.000 A 
ATOM      6  C6  BNZ d   1      -1.341  -2.940   0.503  0.00  0.00     0.000 A 
ENDROOT
TORSDOF 0
ENDMDL
