MODEL 1
REMARK minimizedAffinity -4.75601673
REMARK minimizedRMSD -1
REMARK  0 active torsions:
REMARK  status: ('A' for Active; 'I' for Inactive)
ROOT
ATOM      1  C1  BNZ d   1      -2.543  -1.847   1.546  0.00  0.00     0.000 A 
ATOM      2  C2  BNZ d   1      -2.920  -0.532   1.479  0.00  0.00     0.000 A 
ATOM      3  C3  BNZ d   1      -2.153   0.383   0.814  0.00  0.00     0.000 A 
ATOM      4  C4  BNZ d   1      -0.991  -0.009   0.251  0.00  0.00     0.000 A 
ATOM      5  C5  BNZ d   1      -0.593  -1.330   0.318  0.00  0.00     0.000 A 
ATOM      6  C6  BNZ d   1      -1.387  -2.255   0.955  0.00  0.00     0.000 A 
ENDROOT
TORSDOF 0
ENDMDL
