MODEL 1
REMARK minimizedAffinity 9.19497967
REMARK minimizedRMSD -1
REMARK  2 active torsions:
REMARK  status: ('A' for Active; 'I' for Inactive)
REMARK    1  A    between atoms: C2'_3  and  C1'_4 
REMARK    2  A    between atoms: C1'_4  and  C1_5 
ROOT
ATOM      1  C1  I4B d   1       1.795  -0.137   2.032  0.00  0.00    -0.075 A 
ATOM      2  C2  I4B d   1       0.833  -0.440   1.101  0.00  0.00     0.003 A 
ATOM      3  C3  I4B d   1       0.054  -1.614   1.237  0.00  0.00     0.002 A 
ATOM      4  C4  I4B d   1       0.303  -2.478   2.284  0.00  0.00    -0.004 A 
ATOM      5  C5  I4B d   1       1.264  -2.158   3.239  0.00  0.00     0.002 A 
ATOM      6  C6  I4B d   1       2.006  -0.974   3.120  0.00  0.00     0.003 A 
ENDROOT
BRANCH   1   7
ATOM      7  C1' I4B d   1       2.622   1.094   1.839  0.00  0.00     0.060 C 
BRANCH   7   8
ATOM      8  C2' I4B d   1       2.455   1.965   3.068  0.00  0.00    -0.013 C 
ATOM      9  C4' I4B d   1       3.561   2.983   3.169  0.00  0.00     0.013 C 
ATOM     10  C3' I4B d   1       1.113   2.629   2.987  0.00  0.00     0.013 C 
ENDBRANCH   7   8
ENDBRANCH   1   7
TORSDOF 2
ENDMDL
