MODEL 1
REMARK minimizedAffinity 11.1893702
REMARK minimizedRMSD -1
REMARK  2 active torsions:
REMARK  status: ('A' for Active; 'I' for Inactive)
REMARK    1  A    between atoms: C2'_3  and  C1'_4 
REMARK    2  A    between atoms: C1'_4  and  C1_5 
ROOT
ATOM      1  C1  I4B d   1       2.276   1.022   1.140  0.00  0.00    -0.075 A 
ATOM      2  C2  I4B d   1       2.946   1.432   0.014  0.00  0.00     0.003 A 
ATOM      3  C3  I4B d   1       2.682   2.705  -0.549  0.00  0.00     0.002 A 
ATOM      4  C4  I4B d   1       1.712   3.509   0.013  0.00  0.00    -0.004 A 
ATOM      5  C5  I4B d   1       1.050   3.101   1.168  0.00  0.00     0.002 A 
ATOM      6  C6  I4B d   1       1.342   1.856   1.742  0.00  0.00     0.003 A 
ENDROOT
BRANCH   1   7
ATOM      7  C1' I4B d   1       2.555  -0.341   1.688  0.00  0.00     0.060 C 
BRANCH   7   8
ATOM      8  C2' I4B d   1       1.245  -0.923   2.180  0.00  0.00    -0.013 C 
ATOM      9  C4' I4B d   1       0.558  -1.712   1.097  0.00  0.00     0.013 C 
ATOM     10  C3' I4B d   1       1.540  -1.783   3.373  0.00  0.00     0.013 C 
ENDBRANCH   7   8
ENDBRANCH   1   7
TORSDOF 2
ENDMDL
