MODEL 1
REMARK minimizedAffinity 13.5098629
REMARK minimizedRMSD -1
REMARK  2 active torsions:
REMARK  status: ('A' for Active; 'I' for Inactive)
REMARK    1  A    between atoms: C2'_3  and  C1'_4 
REMARK    2  A    between atoms: C1'_4  and  C1_5 
ROOT
ATOM      1  C1  I4B d   1      -0.390  -2.860  -1.160  0.00  0.00    -0.075 A 
ATOM      2  C2  I4B d   1      -0.049  -2.066  -2.226  0.00  0.00     0.003 A 
ATOM      3  C3  I4B d   1       1.132  -2.328  -2.961  0.00  0.00     0.002 A 
ATOM      4  C4  I4B d   1       1.964  -3.356  -2.567  0.00  0.00    -0.004 A 
ATOM      5  C5  I4B d   1       1.605  -4.175  -1.500  0.00  0.00     0.002 A 
ATOM      6  C6  I4B d   1       0.415  -3.933  -0.799  0.00  0.00     0.003 A 
ENDROOT
BRANCH   1   7
ATOM      7  C1' I4B d   1      -1.627  -2.535  -0.385  0.00  0.00     0.060 C 
BRANCH   7   8
ATOM      8  C2' I4B d   1      -1.243  -1.587   0.733  0.00  0.00    -0.013 C 
ATOM      9  C4' I4B d   1       0.249  -1.565   0.940  0.00  0.00     0.013 C 
ATOM     10  C3' I4B d   1      -1.761  -0.224   0.382  0.00  0.00     0.013 C 
ENDBRANCH   7   8
ENDBRANCH   1   7
TORSDOF 2
ENDMDL
