MODEL 1
REMARK minimizedAffinity 3.90276122
REMARK minimizedRMSD -1
REMARK  2 active torsions:
REMARK  status: ('A' for Active; 'I' for Inactive)
REMARK    1  A    between atoms: C2'_3  and  C1'_4 
REMARK    2  A    between atoms: C1'_4  and  C1_5 
ROOT
ATOM      1  C1  I4B d   1       1.258   0.700   0.883  0.00  0.00    -0.075 A 
ATOM      2  C2  I4B d   1       0.559  -0.475   1.006  0.00  0.00     0.003 A 
ATOM      3  C3  I4B d   1      -0.704  -0.622   0.385  0.00  0.00     0.002 A 
ATOM      4  C4  I4B d   1      -1.250   0.442  -0.304  0.00  0.00    -0.004 A 
ATOM      5  C5  I4B d   1      -0.531   1.624  -0.448  0.00  0.00     0.002 A 
ATOM      6  C6  I4B d   1       0.737   1.751   0.139  0.00  0.00     0.003 A 
ENDROOT
BRANCH   1   7
ATOM      7  C1' I4B d   1       2.575   0.833   1.580  0.00  0.00     0.060 C 
BRANCH   7   8
ATOM      8  C2' I4B d   1       2.302   1.083   3.049  0.00  0.00    -0.013 C 
ATOM      9  C4' I4B d   1       2.727  -0.092   3.890  0.00  0.00     0.013 C 
ATOM     10  C3' I4B d   1       3.033   2.329   3.450  0.00  0.00     0.013 C 
ENDBRANCH   7   8
ENDBRANCH   1   7
TORSDOF 2
ENDMDL
