MODEL 1
REMARK minimizedAffinity -5.30622673
REMARK minimizedRMSD -1
REMARK  0 active torsions:
REMARK  status: ('A' for Active; 'I' for Inactive)
ROOT
ATOM      1  N1  IND d   1       0.662  -0.641  -0.086  0.00  0.00    -0.196 N 
ATOM      2  C2  IND d   1      -0.694  -0.817  -0.097  0.00  0.00     0.054 A 
ATOM      3  C3  IND d   1      -1.323   0.368   0.076  0.00  0.00    -0.031 A 
ATOM      4  C4  IND d   1      -0.327   2.732   0.292  0.00  0.00     0.051 A 
ATOM      5  C5  IND d   1       0.865   3.394   0.394  0.00  0.00    -0.031 A 
ATOM      6  C6  IND d   1       2.074   2.731   0.338  0.00  0.00     0.015 A 
ATOM      7  C7  IND d   1       2.137   1.377   0.165  0.00  0.00    -0.016 A 
ATOM      8  C8  IND d   1       0.929   0.701   0.068  0.00  0.00    -0.047 A 
ATOM      9  C9  IND d   1      -0.302   1.363   0.167  0.00  0.00    -0.096 A 
ATOM     10  HN1 IND d   1       1.249  -1.265  -0.163  0.00  0.00     0.298 HD
ENDROOT
TORSDOF 0
ENDMDL
