MODEL 1
REMARK minimizedAffinity -3.05533504
REMARK minimizedRMSD -1
REMARK  0 active torsions:
REMARK  status: ('A' for Active; 'I' for Inactive)
ROOT
ATOM      1  N1  IND d   1      -1.092   3.067   0.798  0.00  0.00    -0.196 N 
ATOM      2  C2  IND d   1      -0.333   3.820  -0.054  0.00  0.00     0.054 A 
ATOM      3  C3  IND d   1       0.413   3.021  -0.850  0.00  0.00    -0.031 A 
ATOM      4  C4  IND d   1       0.471   0.451  -0.994  0.00  0.00     0.051 A 
ATOM      5  C5  IND d   1      -0.020  -0.673  -0.392  0.00  0.00    -0.031 A 
ATOM      6  C6  IND d   1      -0.915  -0.607   0.657  0.00  0.00     0.015 A 
ATOM      7  C7  IND d   1      -1.361   0.592   1.137  0.00  0.00    -0.016 A 
ATOM      8  C8  IND d   1      -0.858   1.735   0.533  0.00  0.00    -0.047 A 
ATOM      9  C9  IND d   1       0.082   1.675  -0.504  0.00  0.00    -0.096 A 
ATOM     10  HN1 IND d   1      -1.625   3.374   1.398  0.00  0.00     0.298 HD
ENDROOT
TORSDOF 0
ENDMDL
