MODEL 1
REMARK minimizedAffinity -1.19026566
REMARK minimizedRMSD -1
REMARK  0 active torsions:
REMARK  status: ('A' for Active; 'I' for Inactive)
ROOT
ATOM      1  N1  IND d   1      -0.400  -0.461   0.775  0.00  0.00    -0.196 N 
ATOM      2  C2  IND d   1      -1.625   0.086   1.038  0.00  0.00     0.054 A 
ATOM      3  C3  IND d   1      -1.615   1.411   0.769  0.00  0.00    -0.031 A 
ATOM      4  C4  IND d   1       0.270   2.868  -0.207  0.00  0.00     0.051 A 
ATOM      5  C5  IND d   1       1.586   2.823  -0.575  0.00  0.00    -0.031 A 
ATOM      6  C6  IND d   1       2.321   1.656  -0.513  0.00  0.00     0.015 A 
ATOM      7  C7  IND d   1       1.762   0.484  -0.089  0.00  0.00    -0.016 A 
ATOM      8  C8  IND d   1       0.428   0.527   0.292  0.00  0.00    -0.047 A 
ATOM      9  C9  IND d   1      -0.311   1.717   0.271  0.00  0.00    -0.096 A 
ATOM     10  HN1 IND d   1      -0.184  -1.285   0.892  0.00  0.00     0.298 HD
ENDROOT
TORSDOF 0
ENDMDL
