MODEL 1
REMARK minimizedAffinity -3.76596475
REMARK minimizedRMSD -1
REMARK  0 active torsions:
REMARK  status: ('A' for Active; 'I' for Inactive)
ROOT
ATOM      1  N1  IND d   1      -0.168   0.469  -0.851  0.00  0.00    -0.196 N 
ATOM      2  C2  IND d   1      -0.163   0.510   0.516  0.00  0.00     0.054 A 
ATOM      3  C3  IND d   1      -0.251  -0.740   1.024  0.00  0.00    -0.031 A 
ATOM      4  C4  IND d   1      -0.312  -3.003  -0.202  0.00  0.00     0.051 A 
ATOM      5  C5  IND d   1      -0.376  -3.549  -1.453  0.00  0.00    -0.031 A 
ATOM      6  C6  IND d   1      -0.370  -2.768  -2.591  0.00  0.00     0.015 A 
ATOM      7  C7  IND d   1      -0.289  -1.406  -2.519  0.00  0.00    -0.016 A 
ATOM      8  C8  IND d   1      -0.232  -0.848  -1.250  0.00  0.00    -0.047 A 
ATOM      9  C9  IND d   1      -0.280  -1.633  -0.091  0.00  0.00    -0.096 A 
ATOM     10  HN1 IND d   1      -0.137   1.152  -1.373  0.00  0.00     0.298 HD
ENDROOT
TORSDOF 0
ENDMDL
