MODEL 1
REMARK minimizedAffinity -1.11696446
REMARK minimizedRMSD -1
REMARK  0 active torsions:
REMARK  status: ('A' for Active; 'I' for Inactive)
ROOT
ATOM      1  N1  IND d   1       1.112  -0.707   0.750  0.00  0.00    -0.196 N 
ATOM      2  C2  IND d   1       2.348  -0.122   0.748  0.00  0.00     0.054 A 
ATOM      3  C3  IND d   1       2.231   1.222   0.653  0.00  0.00    -0.031 A 
ATOM      4  C4  IND d   1       0.110   2.679   0.591  0.00  0.00     0.051 A 
ATOM      5  C5  IND d   1      -1.253   2.596   0.532  0.00  0.00    -0.031 A 
ATOM      6  C6  IND d   1      -1.911   1.382   0.546  0.00  0.00     0.015 A 
ATOM      7  C7  IND d   1      -1.227   0.203   0.631  0.00  0.00    -0.016 A 
ATOM      8  C8  IND d   1       0.158   0.283   0.684  0.00  0.00    -0.047 A 
ATOM      9  C9  IND d   1       0.832   1.510   0.627  0.00  0.00    -0.096 A 
ATOM     10  HN1 IND d   1       0.958  -1.552   0.786  0.00  0.00     0.298 HD
ENDROOT
TORSDOF 0
ENDMDL
