MODEL 1
REMARK minimizedAffinity -3.43188214
REMARK minimizedRMSD -1
REMARK  0 active torsions:
REMARK  status: ('A' for Active; 'I' for Inactive)
ROOT
ATOM      1  N1  IND d   1      -0.465   2.608   0.982  0.00  0.00    -0.196 N 
ATOM      2  C2  IND d   1       0.342   3.261   0.093  0.00  0.00     0.054 A 
ATOM      3  C3  IND d   1       0.918   2.379  -0.755  0.00  0.00    -0.031 A 
ATOM      4  C4  IND d   1       0.598  -0.169  -0.930  0.00  0.00     0.051 A 
ATOM      5  C5  IND d   1      -0.014  -1.223  -0.311  0.00  0.00    -0.031 A 
ATOM      6  C6  IND d   1      -0.825  -1.050   0.791  0.00  0.00     0.015 A 
ATOM      7  C7  IND d   1      -1.066   0.190   1.311  0.00  0.00    -0.016 A 
ATOM      8  C8  IND d   1      -0.441   1.262   0.689  0.00  0.00    -0.047 A 
ATOM      9  C9  IND d   1       0.417   1.088  -0.404  0.00  0.00    -0.096 A 
ATOM     10  HN1 IND d   1      -0.913   2.976   1.617  0.00  0.00     0.298 HD
ENDROOT
TORSDOF 0
ENDMDL
