MODEL 1
REMARK minimizedAffinity -5.47077751
REMARK minimizedRMSD -1
REMARK  0 active torsions:
REMARK  status: ('A' for Active; 'I' for Inactive)
ROOT
ATOM      1  N1  IND d   1       1.968  -0.930   0.351  0.00  0.00    -0.196 N 
ATOM      2  C2  IND d   1       1.082  -1.968   0.425  0.00  0.00     0.054 A 
ATOM      3  C3  IND d   1      -0.151  -1.562   0.047  0.00  0.00    -0.031 A 
ATOM      4  C4  IND d   1      -0.919   0.734  -0.830  0.00  0.00     0.051 A 
ATOM      5  C5  IND d   1      -0.476   2.009  -1.041  0.00  0.00    -0.031 A 
ATOM      6  C6  IND d   1       0.832   2.377  -0.797  0.00  0.00     0.015 A 
ATOM      7  C7  IND d   1       1.752   1.476  -0.341  0.00  0.00    -0.016 A 
ATOM      8  C8  IND d   1       1.304   0.181  -0.119  0.00  0.00    -0.047 A 
ATOM      9  C9  IND d   1      -0.032  -0.187  -0.324  0.00  0.00    -0.096 A 
ATOM     10  HN1 IND d   1       2.801  -0.966   0.562  0.00  0.00     0.298 HD
ENDROOT
TORSDOF 0
ENDMDL
