MODEL 1
REMARK minimizedAffinity -3.82970953
REMARK minimizedRMSD -1
REMARK  0 active torsions:
REMARK  status: ('A' for Active; 'I' for Inactive)
ROOT
ATOM      1  N1  IND d   1       1.782  -0.649   0.233  0.00  0.00    -0.196 N 
ATOM      2  C2  IND d   1       0.879  -1.651   0.458  0.00  0.00     0.054 A 
ATOM      3  C3  IND d   1      -0.369  -1.143   0.565  0.00  0.00    -0.031 A 
ATOM      4  C4  IND d   1      -1.174   1.288   0.301  0.00  0.00     0.051 A 
ATOM      5  C5  IND d   1      -0.713   2.562   0.125  0.00  0.00    -0.031 A 
ATOM      6  C6  IND d   1       0.631   2.837  -0.030  0.00  0.00     0.015 A 
ATOM      7  C7  IND d   1       1.566   1.841  -0.026  0.00  0.00    -0.016 A 
ATOM      8  C8  IND d   1       1.102   0.546   0.160  0.00  0.00    -0.047 A 
ATOM      9  C9  IND d   1      -0.256   0.266   0.360  0.00  0.00    -0.096 A 
ATOM     10  HN1 IND d   1       2.632  -0.750   0.151  0.00  0.00     0.298 HD
ENDROOT
TORSDOF 0
ENDMDL
