MODEL 1
REMARK minimizedAffinity -3.95102692
REMARK minimizedRMSD -1
REMARK  0 active torsions:
REMARK  status: ('A' for Active; 'I' for Inactive)
ROOT
ATOM      1  N1  IND d   1       0.263  -0.082  -1.287  0.00  0.00    -0.196 N 
ATOM      2  C2  IND d   1       0.262  -0.289   0.064  0.00  0.00     0.054 A 
ATOM      3  C3  IND d   1      -0.146  -1.547   0.346  0.00  0.00    -0.031 A 
ATOM      4  C4  IND d   1      -0.763  -3.465  -1.257  0.00  0.00     0.051 A 
ATOM      5  C5  IND d   1      -0.947  -3.744  -2.582  0.00  0.00    -0.031 A 
ATOM      6  C6  IND d   1      -0.731  -2.798  -3.563  0.00  0.00     0.015 A 
ATOM      7  C7  IND d   1      -0.309  -1.536  -3.255  0.00  0.00    -0.016 A 
ATOM      8  C8  IND d   1      -0.127  -1.247  -1.910  0.00  0.00    -0.047 A 
ATOM      9  C9  IND d   1      -0.386  -2.189  -0.907  0.00  0.00    -0.096 A 
ATOM     10  HN1 IND d   1       0.473   0.653  -1.681  0.00  0.00     0.298 HD
ENDROOT
TORSDOF 0
ENDMDL
