MODEL 1
REMARK minimizedAffinity -5.37479591
REMARK minimizedRMSD -1
REMARK  0 active torsions:
REMARK  status: ('A' for Active; 'I' for Inactive)
ROOT
ATOM      1  N1  IND d   1       0.762  -0.846  -0.715  0.00  0.00    -0.196 N 
ATOM      2  C2  IND d   1      -0.422  -1.477  -0.454  0.00  0.00     0.054 A 
ATOM      3  C3  IND d   1      -1.311  -0.609   0.079  0.00  0.00    -0.031 A 
ATOM      4  C4  IND d   1      -1.069   1.917   0.516  0.00  0.00     0.051 A 
ATOM      5  C5  IND d   1      -0.158   2.935   0.473  0.00  0.00    -0.031 A 
ATOM      6  C6  IND d   1       1.131   2.742   0.020  0.00  0.00     0.015 A 
ATOM      7  C7  IND d   1       1.556   1.520  -0.419  0.00  0.00    -0.016 A 
ATOM      8  C8  IND d   1       0.636   0.482  -0.370  0.00  0.00    -0.047 A 
ATOM      9  C9  IND d   1      -0.661   0.662   0.128  0.00  0.00    -0.096 A 
ATOM     10  HN1 IND d   1       1.467  -1.216  -1.039  0.00  0.00     0.298 HD
ENDROOT
TORSDOF 0
ENDMDL
