MODEL 1
REMARK minimizedAffinity -6.11190557
REMARK minimizedRMSD -1
REMARK  0 active torsions:
REMARK  status: ('A' for Active; 'I' for Inactive)
ROOT
ATOM      1  N1  IND d   1       1.519  -1.025   0.355  0.00  0.00    -0.196 N 
ATOM      2  C2  IND d   1       0.399  -1.807   0.309  0.00  0.00     0.054 A 
ATOM      3  C3  IND d   1      -0.704  -1.042   0.145  0.00  0.00    -0.031 A 
ATOM      4  C4  IND d   1      -0.893   1.506  -0.173  0.00  0.00     0.051 A 
ATOM      5  C5  IND d   1      -0.146   2.651  -0.168  0.00  0.00    -0.031 A 
ATOM      6  C6  IND d   1       1.222   2.628   0.012  0.00  0.00     0.015 A 
ATOM      7  C7  IND d   1       1.899   1.453   0.184  0.00  0.00    -0.016 A 
ATOM      8  C8  IND d   1       1.142   0.290   0.186  0.00  0.00    -0.047 A 
ATOM      9  C9  IND d   1      -0.251   0.310   0.047  0.00  0.00    -0.096 A 
ATOM     10  HN1 IND d   1       2.323  -1.307   0.469  0.00  0.00     0.298 HD
ENDROOT
TORSDOF 0
ENDMDL
