MODEL 1
REMARK minimizedAffinity 3.44331479
REMARK minimizedRMSD -1
REMARK  0 active torsions:
REMARK  status: ('A' for Active; 'I' for Inactive)
ROOT
ATOM      1  N1  IND d   1       2.562   1.053   0.598  0.00  0.00    -0.196 N 
ATOM      2  C2  IND d   1       3.000   2.236   1.123  0.00  0.00     0.054 A 
ATOM      3  C3  IND d   1       1.953   3.052   1.381  0.00  0.00    -0.031 A 
ATOM      4  C4  IND d   1      -0.569   2.611   1.116  0.00  0.00     0.051 A 
ATOM      5  C5  IND d   1      -1.457   1.687   0.640  0.00  0.00    -0.031 A 
ATOM      6  C6  IND d   1      -1.042   0.479   0.118  0.00  0.00     0.015 A 
ATOM      7  C7  IND d   1       0.281   0.143   0.062  0.00  0.00    -0.016 A 
ATOM      8  C8  IND d   1       1.186   1.082   0.538  0.00  0.00    -0.047 A 
ATOM      9  C9  IND d   1       0.774   2.327   1.030  0.00  0.00    -0.096 A 
ATOM     10  HN1 IND d   1       3.062   0.400   0.347  0.00  0.00     0.298 HD
ENDROOT
TORSDOF 0
ENDMDL
