MODEL 1
REMARK minimizedAffinity -5.88326073
REMARK minimizedRMSD -1
REMARK  0 active torsions:
REMARK  status: ('A' for Active; 'I' for Inactive)
ROOT
ATOM      1  N1  IND d   1       0.760  -0.715   0.530  0.00  0.00    -0.196 N 
ATOM      2  C2  IND d   1      -0.379  -1.251   1.061  0.00  0.00     0.054 A 
ATOM      3  C3  IND d   1      -1.328  -0.298   1.198  0.00  0.00    -0.031 A 
ATOM      4  C4  IND d   1      -1.262   2.185   0.522  0.00  0.00     0.051 A 
ATOM      5  C5  IND d   1      -0.422   3.146   0.032  0.00  0.00    -0.031 A 
ATOM      6  C6  IND d   1       0.880   2.863  -0.326  0.00  0.00     0.015 A 
ATOM      7  C7  IND d   1       1.390   1.600  -0.219  0.00  0.00    -0.016 A 
ATOM      8  C8  IND d   1       0.542   0.623   0.285  0.00  0.00    -0.047 A 
ATOM      9  C9  IND d   1      -0.767   0.914   0.691  0.00  0.00    -0.096 A 
ATOM     10  HN1 IND d   1       1.491  -1.141   0.376  0.00  0.00     0.298 HD
ENDROOT
TORSDOF 0
ENDMDL
