MODEL 1
REMARK minimizedAffinity -6.81893921
REMARK minimizedRMSD -1
REMARK  0 active torsions:
REMARK  status: ('A' for Active; 'I' for Inactive)
ROOT
ATOM      1  N1  IND d   1       2.372   0.041   0.618  0.00  0.00    -0.196 N 
ATOM      2  C2  IND d   1       1.317  -0.808   0.429  0.00  0.00     0.054 A 
ATOM      3  C3  IND d   1       0.191  -0.107   0.167  0.00  0.00    -0.031 A 
ATOM      4  C4  IND d   1      -0.129   2.433  -0.102  0.00  0.00     0.051 A 
ATOM      5  C5  IND d   1       0.536   3.621   0.015  0.00  0.00    -0.031 A 
ATOM      6  C6  IND d   1       1.876   3.677   0.343  0.00  0.00     0.015 A 
ATOM      7  C7  IND d   1       2.605   2.542   0.556  0.00  0.00    -0.016 A 
ATOM      8  C8  IND d   1       1.931   1.334   0.445  0.00  0.00    -0.047 A 
ATOM      9  C9  IND d   1       0.562   1.273   0.155  0.00  0.00    -0.096 A 
ATOM     10  HN1 IND d   1       3.176  -0.194   0.812  0.00  0.00     0.298 HD
ENDROOT
TORSDOF 0
ENDMDL
