MODEL 1
REMARK minimizedAffinity -3.79840803
REMARK minimizedRMSD -1
REMARK  0 active torsions:
REMARK  status: ('A' for Active; 'I' for Inactive)
ROOT
ATOM      1  N1  IND d   1       2.529   0.753   0.991  0.00  0.00    -0.196 N 
ATOM      2  C2  IND d   1       2.730   2.082   1.241  0.00  0.00     0.054 A 
ATOM      3  C3  IND d   1       1.563   2.759   1.150  0.00  0.00    -0.031 A 
ATOM      4  C4  IND d   1      -0.812   1.872   0.705  0.00  0.00     0.051 A 
ATOM      5  C5  IND d   1      -1.494   0.732   0.381  0.00  0.00    -0.031 A 
ATOM      6  C6  IND d   1      -0.856  -0.484   0.244  0.00  0.00     0.015 A 
ATOM      7  C7  IND d   1       0.491  -0.608   0.437  0.00  0.00    -0.016 A 
ATOM      8  C8  IND d   1       1.186   0.548   0.759  0.00  0.00    -0.047 A 
ATOM      9  C9  IND d   1       0.552   1.793   0.859  0.00  0.00    -0.096 A 
ATOM     10  HN1 IND d   1       3.139   0.147   0.980  0.00  0.00     0.298 HD
ENDROOT
TORSDOF 0
ENDMDL
