MODEL 1
REMARK minimizedAffinity -2.52818608
REMARK minimizedRMSD -1
REMARK  0 active torsions:
REMARK  status: ('A' for Active; 'I' for Inactive)
ROOT
ATOM      1  C   UNL d   1       0.242  -0.200  -0.770  0.00  0.00     0.078 C 
ATOM      2  C1  UNL d   1      -0.027   1.081  -1.501  0.00  0.00    -0.077 A 
ATOM      3  C2  UNL d   1      -1.338   1.496  -1.770  0.00  0.00    -0.001 A 
ATOM      4  C3  UNL d   1      -1.574   2.685  -2.461  0.00  0.00     0.003 A 
ATOM      5  C4  UNL d   1      -0.505   3.469  -2.890  0.00  0.00    -0.005 A 
ATOM      6  C5  UNL d   1       0.803   3.064  -2.629  0.00  0.00     0.003 A 
ATOM      7  C6  UNL d   1       1.041   1.874  -1.938  0.00  0.00    -0.001 A 
ENDROOT
TORSDOF 0
ENDMDL
