MODEL 1
REMARK minimizedAffinity -1.08542824
REMARK minimizedRMSD -1
REMARK  0 active torsions:
REMARK  status: ('A' for Active; 'I' for Inactive)
ROOT
ATOM      1  C   UNL d   1      -1.805   2.540  -2.236  0.00  0.00     0.078 C 
ATOM      2  C1  UNL d   1      -1.118   1.488  -1.417  0.00  0.00    -0.077 A 
ATOM      3  C2  UNL d   1      -1.465   1.277  -0.077  0.00  0.00    -0.001 A 
ATOM      4  C3  UNL d   1      -0.810   0.301   0.676  0.00  0.00     0.003 A 
ATOM      5  C4  UNL d   1       0.196  -0.470   0.099  0.00  0.00    -0.005 A 
ATOM      6  C5  UNL d   1       0.550  -0.265  -1.233  0.00  0.00     0.003 A 
ATOM      7  C6  UNL d   1      -0.104   0.710  -1.988  0.00  0.00    -0.001 A 
ENDROOT
TORSDOF 0
ENDMDL
