MODEL 1
REMARK minimizedAffinity 4.19159985
REMARK minimizedRMSD -1
REMARK  0 active torsions:
REMARK  status: ('A' for Active; 'I' for Inactive)
ROOT
ATOM      1  C   UNL d   1      -2.755   0.007  -6.000  0.00  0.00     0.078 C 
ATOM      2  C1  UNL d   1      -3.751   0.666  -5.094  0.00  0.00    -0.077 A 
ATOM      3  C2  UNL d   1      -5.086   0.829  -5.486  0.00  0.00    -0.001 A 
ATOM      4  C3  UNL d   1      -6.000   1.454  -4.636  0.00  0.00     0.003 A 
ATOM      5  C4  UNL d   1      -5.590   1.922  -3.389  0.00  0.00    -0.005 A 
ATOM      6  C5  UNL d   1      -4.263   1.766  -2.991  0.00  0.00     0.003 A 
ATOM      7  C6  UNL d   1      -3.348   1.142  -3.840  0.00  0.00    -0.001 A 
ENDROOT
TORSDOF 0
ENDMDL
