MODEL 1
REMARK minimizedAffinity -3.47788191
REMARK minimizedRMSD -1
REMARK  0 active torsions:
REMARK  status: ('A' for Active; 'I' for Inactive)
ROOT
ATOM      1  C   UNL d   1      -0.543   0.166  -1.103  0.00  0.00     0.078 C 
ATOM      2  C1  UNL d   1       0.218  -0.597  -0.060  0.00  0.00    -0.077 A 
ATOM      3  C2  UNL d   1       1.380  -1.305  -0.389  0.00  0.00    -0.001 A 
ATOM      4  C3  UNL d   1       2.072  -2.020   0.590  0.00  0.00     0.003 A 
ATOM      5  C4  UNL d   1       1.609  -2.035   1.904  0.00  0.00    -0.005 A 
ATOM      6  C5  UNL d   1       0.452  -1.335   2.240  0.00  0.00     0.003 A 
ATOM      7  C6  UNL d   1      -0.241  -0.620   1.263  0.00  0.00    -0.001 A 
ENDROOT
TORSDOF 0
ENDMDL
