MODEL 1
REMARK minimizedAffinity 1.42279816
REMARK minimizedRMSD -1
REMARK  0 active torsions:
REMARK  status: ('A' for Active; 'I' for Inactive)
ROOT
ATOM      1  C   UNL d   1      -2.107   1.231  -1.536  0.00  0.00     0.078 C 
ATOM      2  C1  UNL d   1      -1.656   0.614  -0.246  0.00  0.00    -0.077 A 
ATOM      3  C2  UNL d   1      -1.337  -0.748  -0.170  0.00  0.00    -0.001 A 
ATOM      4  C3  UNL d   1      -0.928  -1.311   1.039  0.00  0.00     0.003 A 
ATOM      5  C4  UNL d   1      -0.835  -0.521   2.183  0.00  0.00    -0.005 A 
ATOM      6  C5  UNL d   1      -1.152   0.835   2.118  0.00  0.00     0.003 A 
ATOM      7  C6  UNL d   1      -1.561   1.400   0.909  0.00  0.00    -0.001 A 
ENDROOT
TORSDOF 0
ENDMDL
