MODEL 1
REMARK minimizedAffinity -4.39042425
REMARK minimizedRMSD -1
REMARK  0 active torsions:
REMARK  status: ('A' for Active; 'I' for Inactive)
ROOT
ATOM      1  C   UNL d   1      -0.069   0.152   0.071  0.00  0.00     0.078 C 
ATOM      2  C1  UNL d   1       0.979  -0.584   0.852  0.00  0.00    -0.077 A 
ATOM      3  C2  UNL d   1       2.252  -0.810   0.315  0.00  0.00    -0.001 A 
ATOM      4  C3  UNL d   1       3.214  -1.505   1.050  0.00  0.00     0.003 A 
ATOM      5  C4  UNL d   1       2.913  -1.982   2.324  0.00  0.00    -0.005 A 
ATOM      6  C5  UNL d   1       1.647  -1.764   2.865  0.00  0.00     0.003 A 
ATOM      7  C6  UNL d   1       0.684  -1.069   2.133  0.00  0.00    -0.001 A 
ENDROOT
TORSDOF 0
ENDMDL
