MODEL 1
REMARK minimizedAffinity -5.24599981
REMARK minimizedRMSD -1
REMARK  0 active torsions:
REMARK  status: ('A' for Active; 'I' for Inactive)
ROOT
ATOM      1  C   UNL d   1      -1.524   0.034   1.525  0.00  0.00     0.078 C 
ATOM      2  C1  UNL d   1      -0.238  -0.653   1.175  0.00  0.00    -0.077 A 
ATOM      3  C2  UNL d   1       0.652  -1.069   2.172  0.00  0.00    -0.001 A 
ATOM      4  C3  UNL d   1       1.850  -1.699   1.831  0.00  0.00     0.003 A 
ATOM      5  C4  UNL d   1       2.169  -1.918   0.492  0.00  0.00    -0.005 A 
ATOM      6  C5  UNL d   1       1.290  -1.505  -0.507  0.00  0.00     0.003 A 
ATOM      7  C6  UNL d   1       0.092  -0.875  -0.168  0.00  0.00    -0.001 A 
ENDROOT
TORSDOF 0
ENDMDL
