MODEL 1
REMARK minimizedAffinity -2.38592768
REMARK minimizedRMSD -1
REMARK  1 active torsions:
REMARK  status: ('A' for Active; 'I' for Inactive)
REMARK    1  A    between atoms: C3_4  and  O_7 
ROOT
ATOM      1  C   UNL d   1       0.262   4.577  -1.403  0.00  0.00    -0.033 A 
ATOM      2  C1  UNL d   1       0.341   4.962  -0.063  0.00  0.00     0.039 A 
ATOM      3  C2  UNL d   1      -0.049   4.077   0.944  0.00  0.00    -0.080 A 
ATOM      4  C3  UNL d   1      -0.514   2.811   0.599  0.00  0.00     0.150 A 
ATOM      5  C4  UNL d   1      -0.593   2.419  -0.733  0.00  0.00    -0.007 A 
ATOM      6  C5  UNL d   1      -0.204   3.305  -1.738  0.00  0.00     0.039 A 
ENDROOT
BRANCH   4   7
ATOM      7  O   UNL d   1      -0.911   1.915   1.546  0.00  0.00    -0.526 OA
ATOM      8  H5  UNL d   1      -0.829   2.333   2.420  0.00  0.00     0.418 HD
ENDBRANCH   4   7
TORSDOF 1
ENDMDL
