MODEL 1
REMARK minimizedAffinity -3.15185142
REMARK minimizedRMSD -1
REMARK  1 active torsions:
REMARK  status: ('A' for Active; 'I' for Inactive)
REMARK    1  A    between atoms: C3_4  and  O_7 
ROOT
ATOM      1  C   UNL d   1       0.551   3.182   1.987  0.00  0.00    -0.033 A 
ATOM      2  C1  UNL d   1       0.955   4.272   1.214  0.00  0.00     0.039 A 
ATOM      3  C2  UNL d   1       0.536   4.381  -0.114  0.00  0.00    -0.080 A 
ATOM      4  C3  UNL d   1      -0.285   3.395  -0.655  0.00  0.00     0.150 A 
ATOM      5  C4  UNL d   1      -0.694   2.309   0.112  0.00  0.00    -0.007 A 
ATOM      6  C5  UNL d   1      -0.274   2.201   1.437  0.00  0.00     0.039 A 
ENDROOT
BRANCH   4   7
ATOM      7  O   UNL d   1      -0.715   3.456  -1.947  0.00  0.00    -0.526 OA
ATOM      8  H5  UNL d   1      -0.330   4.245  -2.362  0.00  0.00     0.418 HD
ENDBRANCH   4   7
TORSDOF 1
ENDMDL
