MODEL 1
REMARK minimizedAffinity 4.78073978
REMARK minimizedRMSD -1
REMARK  1 active torsions:
REMARK  status: ('A' for Active; 'I' for Inactive)
REMARK    1  A    between atoms: C3_4  and  O_7 
ROOT
ATOM      1  C   UNL d   1       0.560   3.037   0.448  0.00  0.00    -0.033 A 
ATOM      2  C1  UNL d   1       0.650   1.994   1.371  0.00  0.00     0.039 A 
ATOM      3  C2  UNL d   1      -0.490   1.561   2.051  0.00  0.00    -0.080 A 
ATOM      4  C3  UNL d   1      -1.712   2.177   1.797  0.00  0.00     0.150 A 
ATOM      5  C4  UNL d   1      -1.810   3.214   0.875  0.00  0.00    -0.007 A 
ATOM      6  C5  UNL d   1      -0.670   3.646   0.198  0.00  0.00     0.039 A 
ENDROOT
BRANCH   4   7
ATOM      7  O   UNL d   1      -2.851   1.791   2.440  0.00  0.00    -0.526 OA
ATOM      8  H5  UNL d   1      -2.626   1.085   3.068  0.00  0.00     0.418 HD
ENDBRANCH   4   7
TORSDOF 1
ENDMDL
