MODEL 1
REMARK minimizedAffinity 3.35659671
REMARK minimizedRMSD -1
REMARK  1 active torsions:
REMARK  status: ('A' for Active; 'I' for Inactive)
REMARK    1  A    between atoms: C3_4  and  O_7 
ROOT
ATOM      1  C   UNL d   1       0.031   3.936  -1.093  0.00  0.00    -0.033 A 
ATOM      2  C1  UNL d   1      -0.459   2.638  -1.249  0.00  0.00     0.039 A 
ATOM      3  C2  UNL d   1      -0.851   1.899  -0.132  0.00  0.00    -0.080 A 
ATOM      4  C3  UNL d   1      -0.750   2.469   1.134  0.00  0.00     0.150 A 
ATOM      5  C4  UNL d   1      -0.266   3.763   1.297  0.00  0.00    -0.007 A 
ATOM      6  C5  UNL d   1       0.126   4.499   0.180  0.00  0.00     0.039 A 
ENDROOT
BRANCH   4   7
ATOM      7  O   UNL d   1      -1.116   1.784   2.255  0.00  0.00    -0.526 OA
ATOM      8  H5  UNL d   1      -1.403   0.894   1.992  0.00  0.00     0.418 HD
ENDBRANCH   4   7
TORSDOF 1
ENDMDL
