MODEL 1
REMARK minimizedAffinity 6.77019358
REMARK minimizedRMSD -1
REMARK  1 active torsions:
REMARK  status: ('A' for Active; 'I' for Inactive)
REMARK    1  A    between atoms: C3_4  and  O_7 
ROOT
ATOM      1  C   UNL d   1       0.793   3.815   0.024  0.00  0.00    -0.033 A 
ATOM      2  C1  UNL d   1       0.706   4.697  -1.055  0.00  0.00     0.039 A 
ATOM      3  C2  UNL d   1       0.005   4.330  -2.205  0.00  0.00    -0.080 A 
ATOM      4  C3  UNL d   1      -0.604   3.079  -2.263  0.00  0.00     0.150 A 
ATOM      5  C4  UNL d   1      -0.525   2.197  -1.191  0.00  0.00    -0.007 A 
ATOM      6  C5  UNL d   1       0.176   2.565  -0.044  0.00  0.00     0.039 A 
ENDROOT
BRANCH   4   7
ATOM      7  O   UNL d   1      -1.295   2.675  -3.367  0.00  0.00    -0.526 OA
ATOM      8  H5  UNL d   1      -1.241   3.375  -4.038  0.00  0.00     0.418 HD
ENDBRANCH   4   7
TORSDOF 1
ENDMDL
