MODEL 1
REMARK minimizedAffinity 9.46039104
REMARK minimizedRMSD -1
REMARK  1 active torsions:
REMARK  status: ('A' for Active; 'I' for Inactive)
REMARK    1  A    between atoms: C3_4  and  O_7 
ROOT
ATOM      1  C   UNL d   1       0.855   4.204   0.136  0.00  0.00    -0.033 A 
ATOM      2  C1  UNL d   1       0.411   5.132  -0.808  0.00  0.00     0.039 A 
ATOM      3  C2  UNL d   1      -0.335   4.709  -1.909  0.00  0.00    -0.080 A 
ATOM      4  C3  UNL d   1      -0.631   3.356  -2.055  0.00  0.00     0.150 A 
ATOM      5  C4  UNL d   1      -0.195   2.426  -1.116  0.00  0.00    -0.007 A 
ATOM      6  C5  UNL d   1       0.550   2.851  -0.018  0.00  0.00     0.039 A 
ENDROOT
BRANCH   4   7
ATOM      7  O   UNL d   1      -1.352   2.895  -3.116  0.00  0.00    -0.526 OA
ATOM      8  H5  UNL d   1      -1.560   3.646  -3.696  0.00  0.00     0.418 HD
ENDBRANCH   4   7
TORSDOF 1
ENDMDL
