MODEL 1
REMARK minimizedAffinity -0.25888294
REMARK minimizedRMSD -1
REMARK  1 active torsions:
REMARK  status: ('A' for Active; 'I' for Inactive)
REMARK    1  A    between atoms: C3_4  and  O_7 
ROOT
ATOM      1  C   UNL d   1       0.254   2.598   1.151  0.00  0.00    -0.033 A 
ATOM      2  C1  UNL d   1       0.805   2.005   2.288  0.00  0.00     0.039 A 
ATOM      3  C2  UNL d   1      -0.021   1.371   3.218  0.00  0.00    -0.080 A 
ATOM      4  C3  UNL d   1      -1.396   1.336   2.998  0.00  0.00     0.150 A 
ATOM      5  C4  UNL d   1      -1.951   1.921   1.866  0.00  0.00    -0.007 A 
ATOM      6  C5  UNL d   1      -1.125   2.555   0.939  0.00  0.00     0.039 A 
ENDROOT
BRANCH   4   7
ATOM      7  O   UNL d   1      -2.243   0.733   3.880  0.00  0.00    -0.526 OA
ATOM      8  H5  UNL d   1      -1.721   0.398   4.628  0.00  0.00     0.418 HD
ENDBRANCH   4   7
TORSDOF 1
ENDMDL
