MODEL 1
REMARK minimizedAffinity 10.0830307
REMARK minimizedRMSD -1
REMARK  1 active torsions:
REMARK  status: ('A' for Active; 'I' for Inactive)
REMARK    1  A    between atoms: C3_4  and  O_7 
ROOT
ATOM      1  C   UNL d   1      -1.911   2.961  -3.213  0.00  0.00    -0.033 A 
ATOM      2  C1  UNL d   1      -1.243   4.070  -3.737  0.00  0.00     0.039 A 
ATOM      3  C2  UNL d   1      -0.171   4.633  -3.043  0.00  0.00    -0.080 A 
ATOM      4  C3  UNL d   1       0.224   4.078  -1.829  0.00  0.00     0.150 A 
ATOM      5  C4  UNL d   1      -0.434   2.971  -1.303  0.00  0.00    -0.007 A 
ATOM      6  C5  UNL d   1      -1.506   2.411  -1.997  0.00  0.00     0.039 A 
ENDROOT
BRANCH   4   7
ATOM      7  O   UNL d   1       1.263   4.595  -1.113  0.00  0.00    -0.526 OA
ATOM      8  H5  UNL d   1       1.603   5.374  -1.584  0.00  0.00     0.418 HD
ENDBRANCH   4   7
TORSDOF 1
ENDMDL
