MODEL 1
REMARK minimizedAffinity 0.917626202
REMARK minimizedRMSD -1
REMARK  1 active torsions:
REMARK  status: ('A' for Active; 'I' for Inactive)
REMARK    1  A    between atoms: C3_4  and  O_7 
ROOT
ATOM      1  C   UNL d   1      -5.960  -5.221   4.122  0.00  0.00    -0.033 A 
ATOM      2  C1  UNL d   1      -5.745  -5.114   5.498  0.00  0.00     0.039 A 
ATOM      3  C2  UNL d   1      -4.906  -4.117   6.000  0.00  0.00    -0.080 A 
ATOM      4  C3  UNL d   1      -4.289  -3.235   5.118  0.00  0.00     0.150 A 
ATOM      5  C4  UNL d   1      -4.502  -3.333   3.746  0.00  0.00    -0.007 A 
ATOM      6  C5  UNL d   1      -5.339  -4.329   3.247  0.00  0.00     0.039 A 
ENDROOT
BRANCH   4   7
ATOM      7  O   UNL d   1      -3.458  -2.249   5.560  0.00  0.00    -0.526 OA
ATOM      8  H5  UNL d   1      -3.384  -2.320   6.526  0.00  0.00     0.418 HD
ENDBRANCH   4   7
TORSDOF 1
ENDMDL
