MODEL 1
REMARK minimizedAffinity -1.04995763
REMARK minimizedRMSD -1
REMARK  1 active torsions:
REMARK  status: ('A' for Active; 'I' for Inactive)
REMARK    1  A    between atoms: C3_4  and  O_7 
ROOT
ATOM      1  C   UNL d   1      -5.995  -5.212   4.863  0.00  0.00    -0.033 A 
ATOM      2  C1  UNL d   1      -5.244  -4.899   3.729  0.00  0.00     0.039 A 
ATOM      3  C2  UNL d   1      -4.413  -3.777   3.727  0.00  0.00    -0.080 A 
ATOM      4  C3  UNL d   1      -4.342  -2.978   4.865  0.00  0.00     0.150 A 
ATOM      5  C4  UNL d   1      -5.085  -3.286   6.000  0.00  0.00    -0.007 A 
ATOM      6  C5  UNL d   1      -5.915  -4.406   5.999  0.00  0.00     0.039 A 
ENDROOT
BRANCH   4   7
ATOM      7  O   UNL d   1      -3.549  -1.870   4.909  0.00  0.00    -0.526 OA
ATOM      8  H5  UNL d   1      -3.117  -1.765   4.045  0.00  0.00     0.418 HD
ENDBRANCH   4   7
TORSDOF 1
ENDMDL
