MODEL 1
REMARK minimizedAffinity -0.984325767
REMARK minimizedRMSD -1
REMARK  1 active torsions:
REMARK  status: ('A' for Active; 'I' for Inactive)
REMARK    1  A    between atoms: C3_4  and  O_7 
ROOT
ATOM      1  C   UNL d   1      -0.353   2.143   2.495  0.00  0.00    -0.033 A 
ATOM      2  C1  UNL d   1       0.724   3.030   2.554  0.00  0.00     0.039 A 
ATOM      3  C2  UNL d   1       1.146   3.696   1.401  0.00  0.00    -0.080 A 
ATOM      4  C3  UNL d   1       0.483   3.468   0.199  0.00  0.00     0.150 A 
ATOM      5  C4  UNL d   1      -0.593   2.589   0.134  0.00  0.00    -0.007 A 
ATOM      6  C5  UNL d   1      -1.012   1.924   1.285  0.00  0.00     0.039 A 
ENDROOT
BRANCH   4   7
ATOM      7  O   UNL d   1       0.861   4.091  -0.953  0.00  0.00    -0.526 OA
ATOM      8  H5  UNL d   1       1.636   4.646  -0.763  0.00  0.00     0.418 HD
ENDBRANCH   4   7
TORSDOF 1
ENDMDL
