MODEL 1
REMARK minimizedAffinity 8.49144173
REMARK minimizedRMSD -1
REMARK  1 active torsions:
REMARK  status: ('A' for Active; 'I' for Inactive)
REMARK    1  A    between atoms: C3_4  and  O_7 
ROOT
ATOM      1  C   UNL d   1       5.177  -4.377  -2.538  0.00  0.00    -0.033 A 
ATOM      2  C1  UNL d   1       3.823  -4.064  -2.401  0.00  0.00     0.039 A 
ATOM      3  C2  UNL d   1       3.170  -3.332  -3.395  0.00  0.00    -0.080 A 
ATOM      4  C3  UNL d   1       3.881  -2.921  -4.519  0.00  0.00     0.150 A 
ATOM      5  C4  UNL d   1       5.229  -3.233  -4.664  0.00  0.00    -0.007 A 
ATOM      6  C5  UNL d   1       5.879  -3.963  -3.670  0.00  0.00     0.039 A 
ENDROOT
BRANCH   4   7
ATOM      7  O   UNL d   1       3.288  -2.200  -5.513  0.00  0.00    -0.526 OA
ATOM      8  H5  UNL d   1       2.364  -2.035  -5.263  0.00  0.00     0.418 HD
ENDBRANCH   4   7
TORSDOF 1
ENDMDL
