MODEL 1
REMARK minimizedAffinity -4.49167109
REMARK minimizedRMSD -1
REMARK  1 active torsions:
REMARK  status: ('A' for Active; 'I' for Inactive)
REMARK    1  A    between atoms: C3_4  and  O_7 
ROOT
ATOM      1  C   UNL d   1      -4.187  -1.085  -1.032  0.00  0.00    -0.033 A 
ATOM      2  C1  UNL d   1      -3.536   0.031  -1.559  0.00  0.00     0.039 A 
ATOM      3  C2  UNL d   1      -4.114   0.748  -2.609  0.00  0.00    -0.080 A 
ATOM      4  C3  UNL d   1      -5.342   0.339  -3.120  0.00  0.00     0.150 A 
ATOM      5  C4  UNL d   1      -5.999  -0.770  -2.597  0.00  0.00    -0.007 A 
ATOM      6  C5  UNL d   1      -5.419  -1.485  -1.550  0.00  0.00     0.039 A 
ENDROOT
BRANCH   4   7
ATOM      7  O   UNL d   1      -5.944   1.004  -4.148  0.00  0.00    -0.526 OA
ATOM      8  H5  UNL d   1      -5.362   1.730  -4.426  0.00  0.00     0.418 HD
ENDBRANCH   4   7
TORSDOF 1
ENDMDL
