MODEL 1
REMARK minimizedAffinity -1.61856401
REMARK minimizedRMSD -1
REMARK  1 active torsions:
REMARK  status: ('A' for Active; 'I' for Inactive)
REMARK    1  A    between atoms: C3_4  and  O_7 
ROOT
ATOM      1  C   UNL d   1      -5.473  -4.862   5.227  0.00  0.00    -0.033 A 
ATOM      2  C1  UNL d   1      -5.954  -5.981   4.542  0.00  0.00     0.039 A 
ATOM      3  C2  UNL d   1      -5.956  -5.999   3.146  0.00  0.00    -0.080 A 
ATOM      4  C3  UNL d   1      -5.476  -4.895   2.447  0.00  0.00     0.150 A 
ATOM      5  C4  UNL d   1      -4.992  -3.779   3.123  0.00  0.00    -0.007 A 
ATOM      6  C5  UNL d   1      -4.992  -3.762   4.517  0.00  0.00     0.039 A 
ENDROOT
BRANCH   4   7
ATOM      7  O   UNL d   1      -5.463  -4.865   1.085  0.00  0.00    -0.526 OA
ATOM      8  H5  UNL d   1      -5.853  -5.692   0.755  0.00  0.00     0.418 HD
ENDBRANCH   4   7
TORSDOF 1
ENDMDL
