MODEL 1
REMARK minimizedAffinity 0.252481461
REMARK minimizedRMSD -1
REMARK  1 active torsions:
REMARK  status: ('A' for Active; 'I' for Inactive)
REMARK    1  A    between atoms: C3_4  and  O_7 
ROOT
ATOM      1  C   UNL d   1      -0.853   1.664   3.086  0.00  0.00    -0.033 A 
ATOM      2  C1  UNL d   1      -0.029   2.777   2.911  0.00  0.00     0.039 A 
ATOM      3  C2  UNL d   1       0.385   3.148   1.631  0.00  0.00    -0.080 A 
ATOM      4  C3  UNL d   1      -0.033   2.400   0.534  0.00  0.00     0.150 A 
ATOM      5  C4  UNL d   1      -0.858   1.292   0.700  0.00  0.00    -0.007 A 
ATOM      6  C5  UNL d   1      -1.269   0.922   1.979  0.00  0.00     0.039 A 
ENDROOT
BRANCH   4   7
ATOM      7  O   UNL d   1       0.348   2.721  -0.735  0.00  0.00    -0.526 OA
ATOM      8  H5  UNL d   1       0.939   3.491  -0.693  0.00  0.00     0.418 HD
ENDBRANCH   4   7
TORSDOF 1
ENDMDL
