MODEL 1
REMARK minimizedAffinity -1.71209526
REMARK minimizedRMSD -1
REMARK  1 active torsions:
REMARK  status: ('A' for Active; 'I' for Inactive)
REMARK    1  A    between atoms: C3_4  and  O_7 
ROOT
ATOM      1  C   UNL d   1      -2.009  -2.545   4.859  0.00  0.00    -0.033 A 
ATOM      2  C1  UNL d   1      -2.812  -2.102   5.911  0.00  0.00     0.039 A 
ATOM      3  C2  UNL d   1      -4.158  -2.470   5.968  0.00  0.00    -0.080 A 
ATOM      4  C3  UNL d   1      -4.687  -3.282   4.968  0.00  0.00     0.150 A 
ATOM      5  C4  UNL d   1      -3.891  -3.730   3.919  0.00  0.00    -0.007 A 
ATOM      6  C5  UNL d   1      -2.548  -3.361   3.864  0.00  0.00     0.039 A 
ENDROOT
BRANCH   4   7
ATOM      7  O   UNL d   1      -5.996  -3.663   4.978  0.00  0.00    -0.526 OA
ATOM      8  H5  UNL d   1      -6.429  -3.255   5.746  0.00  0.00     0.418 HD
ENDBRANCH   4   7
TORSDOF 1
ENDMDL
