MODEL 1
REMARK minimizedAffinity -4.88802242
REMARK minimizedRMSD -1
REMARK  0 active torsions:
REMARK  status: ('A' for Active; 'I' for Inactive)
ROOT
ATOM      1  C   UNL d   1       1.065   0.350   0.397  0.00  0.00     0.078 C 
ATOM      2  C1  UNL d   1      -0.350   0.005   0.040  0.00  0.00    -0.077 A 
ATOM      3  C2  UNL d   1      -0.774  -0.008  -1.295  0.00  0.00    -0.001 A 
ATOM      4  C3  UNL d   1      -2.096  -0.323  -1.612  0.00  0.00     0.003 A 
ATOM      5  C4  UNL d   1      -3.005  -0.625  -0.601  0.00  0.00    -0.005 A 
ATOM      6  C5  UNL d   1      -2.593  -0.613   0.730  0.00  0.00     0.003 A 
ATOM      7  C6  UNL d   1      -1.271  -0.299   1.049  0.00  0.00    -0.001 A 
ENDROOT
TORSDOF 0
ENDMDL
