MODEL 1
REMARK minimizedAffinity -4.68401098
REMARK minimizedRMSD -1
REMARK  0 active torsions:
REMARK  status: ('A' for Active; 'I' for Inactive)
ROOT
ATOM      1  C   UNL d   1       1.902   0.738   0.467  0.00  0.00     0.078 C 
ATOM      2  C1  UNL d   1       0.530   0.184   0.708  0.00  0.00    -0.077 A 
ATOM      3  C2  UNL d   1      -0.610   0.857   0.251  0.00  0.00    -0.001 A 
ATOM      4  C3  UNL d   1      -1.882   0.335   0.491  0.00  0.00     0.003 A 
ATOM      5  C4  UNL d   1      -2.026  -0.862   1.190  0.00  0.00    -0.005 A 
ATOM      6  C5  UNL d   1      -0.898  -1.538   1.650  0.00  0.00     0.003 A 
ATOM      7  C6  UNL d   1       0.375  -1.017   1.410  0.00  0.00    -0.001 A 
ENDROOT
TORSDOF 0
ENDMDL
