MODEL 1
REMARK minimizedAffinity -4.61183453
REMARK minimizedRMSD -1
REMARK  0 active torsions:
REMARK  status: ('A' for Active; 'I' for Inactive)
ROOT
ATOM      1  C   UNL d   1       0.855   0.760   0.382  0.00  0.00     0.078 C 
ATOM      2  C1  UNL d   1      -0.462   0.115   0.069  0.00  0.00    -0.077 A 
ATOM      3  C2  UNL d   1      -1.398  -0.140   1.078  0.00  0.00    -0.001 A 
ATOM      4  C3  UNL d   1      -2.617  -0.749   0.774  0.00  0.00     0.003 A 
ATOM      5  C4  UNL d   1      -2.909  -1.111  -0.540  0.00  0.00    -0.005 A 
ATOM      6  C5  UNL d   1      -1.983  -0.863  -1.551  0.00  0.00     0.003 A 
ATOM      7  C6  UNL d   1      -0.764  -0.254  -1.248  0.00  0.00    -0.001 A 
ENDROOT
TORSDOF 0
ENDMDL
