MODEL 1
REMARK minimizedAffinity -5.11003017
REMARK minimizedRMSD -1
REMARK  0 active torsions:
REMARK  status: ('A' for Active; 'I' for Inactive)
ROOT
ATOM      1  C   UNL d   1      -3.304  -0.819   0.147  0.00  0.00     0.078 C 
ATOM      2  C1  UNL d   1      -1.871  -0.393   0.029  0.00  0.00    -0.077 A 
ATOM      3  C2  UNL d   1      -0.966  -0.609   1.076  0.00  0.00    -0.001 A 
ATOM      4  C3  UNL d   1       0.362  -0.200   0.956  0.00  0.00     0.003 A 
ATOM      5  C4  UNL d   1       0.798   0.430  -0.208  0.00  0.00    -0.005 A 
ATOM      6  C5  UNL d   1      -0.095   0.651  -1.254  0.00  0.00     0.003 A 
ATOM      7  C6  UNL d   1      -1.424   0.242  -1.136  0.00  0.00    -0.001 A 
ENDROOT
TORSDOF 0
ENDMDL
