MODEL 1
REMARK minimizedAffinity -4.28551483
REMARK minimizedRMSD -1
REMARK  0 active torsions:
REMARK  status: ('A' for Active; 'I' for Inactive)
ROOT
ATOM      1  C   UNL d   1       1.206   0.358   0.136  0.00  0.00     0.078 C 
ATOM      2  C1  UNL d   1      -0.134   0.043  -0.461  0.00  0.00    -0.077 A 
ATOM      3  C2  UNL d   1      -1.189  -0.415   0.338  0.00  0.00    -0.001 A 
ATOM      4  C3  UNL d   1      -2.427  -0.714  -0.233  0.00  0.00     0.003 A 
ATOM      5  C4  UNL d   1      -2.622  -0.559  -1.604  0.00  0.00    -0.005 A 
ATOM      6  C5  UNL d   1      -1.577  -0.105  -2.406  0.00  0.00     0.003 A 
ATOM      7  C6  UNL d   1      -0.338   0.194  -1.838  0.00  0.00    -0.001 A 
ENDROOT
TORSDOF 0
ENDMDL
