MODEL 1
REMARK minimizedAffinity -5.46403551
REMARK minimizedRMSD -1
REMARK  0 active torsions:
REMARK  status: ('A' for Active; 'I' for Inactive)
ROOT
ATOM      1  C   UNL d   1       0.775   0.636  -0.128  0.00  0.00     0.078 C 
ATOM      2  C1  UNL d   1      -0.588   0.098  -0.444  0.00  0.00    -0.077 A 
ATOM      3  C2  UNL d   1      -1.170   0.299  -1.702  0.00  0.00    -0.001 A 
ATOM      4  C3  UNL d   1      -2.444  -0.200  -1.978  0.00  0.00     0.003 A 
ATOM      5  C4  UNL d   1      -3.148  -0.901  -1.002  0.00  0.00    -0.005 A 
ATOM      6  C5  UNL d   1      -2.579  -1.103   0.254  0.00  0.00     0.003 A 
ATOM      7  C6  UNL d   1      -1.305  -0.606   0.532  0.00  0.00    -0.001 A 
ENDROOT
TORSDOF 0
ENDMDL
