MODEL 1
REMARK minimizedAffinity -1.4715395
REMARK minimizedRMSD -1
REMARK  0 active torsions:
REMARK  status: ('A' for Active; 'I' for Inactive)
ROOT
ATOM      1  C   UNL d   1      -2.788  -1.128  -0.078  0.00  0.00     0.078 C 
ATOM      2  C1  UNL d   1      -1.328  -0.911   0.186  0.00  0.00    -0.077 A 
ATOM      3  C2  UNL d   1      -0.674  -1.590   1.221  0.00  0.00    -0.001 A 
ATOM      4  C3  UNL d   1       0.684  -1.372   1.461  0.00  0.00     0.003 A 
ATOM      5  C4  UNL d   1       1.398  -0.473   0.672  0.00  0.00    -0.005 A 
ATOM      6  C5  UNL d   1       0.756   0.209  -0.359  0.00  0.00     0.003 A 
ATOM      7  C6  UNL d   1      -0.602  -0.008  -0.601  0.00  0.00    -0.001 A 
ENDROOT
TORSDOF 0
ENDMDL
