MODEL 1
REMARK minimizedAffinity 2.55277276
REMARK minimizedRMSD -1
REMARK  0 active torsions:
REMARK  status: ('A' for Active; 'I' for Inactive)
ROOT
ATOM      1  C   UNL d   1       0.499   0.425  -2.112  0.00  0.00     0.078 C 
ATOM      2  C1  UNL d   1      -0.576  -0.302  -1.361  0.00  0.00    -0.077 A 
ATOM      3  C2  UNL d   1      -1.599  -0.977  -2.039  0.00  0.00    -0.001 A 
ATOM      4  C3  UNL d   1      -2.599  -1.642  -1.327  0.00  0.00     0.003 A 
ATOM      5  C4  UNL d   1      -2.587  -1.637   0.067  0.00  0.00    -0.005 A 
ATOM      6  C5  UNL d   1      -1.575  -0.966   0.750  0.00  0.00     0.003 A 
ATOM      7  C6  UNL d   1      -0.574  -0.301   0.040  0.00  0.00    -0.001 A 
ENDROOT
TORSDOF 0
ENDMDL
