MODEL 1
REMARK minimizedAffinity -4.55848789
REMARK minimizedRMSD -1
REMARK  0 active torsions:
REMARK  status: ('A' for Active; 'I' for Inactive)
ROOT
ATOM      1  C   UNL d   1       2.225  -0.221   0.286  0.00  0.00     0.078 C 
ATOM      2  C1  UNL d   1       2.315   1.276   0.293  0.00  0.00    -0.077 A 
ATOM      3  C2  UNL d   1       3.042   1.959  -0.689  0.00  0.00    -0.001 A 
ATOM      4  C3  UNL d   1       3.125   3.352  -0.664  0.00  0.00     0.003 A 
ATOM      5  C4  UNL d   1       2.483   4.074   0.341  0.00  0.00    -0.005 A 
ATOM      6  C5  UNL d   1       1.759   3.402   1.323  0.00  0.00     0.003 A 
ATOM      7  C6  UNL d   1       1.675   2.009   1.300  0.00  0.00    -0.001 A 
ENDROOT
TORSDOF 0
ENDMDL
