MODEL 1
REMARK minimizedAffinity -2.72965002
REMARK minimizedRMSD -1
REMARK  0 active torsions:
REMARK  status: ('A' for Active; 'I' for Inactive)
ROOT
ATOM      1  C   UNL d   1      -2.331  -2.187  -3.871  0.00  0.00     0.078 C 
ATOM      2  C1  UNL d   1      -1.723  -1.483  -2.695  0.00  0.00    -0.077 A 
ATOM      3  C2  UNL d   1      -0.550  -0.730  -2.833  0.00  0.00    -0.001 A 
ATOM      4  C3  UNL d   1       0.010  -0.088  -1.727  0.00  0.00     0.003 A 
ATOM      5  C4  UNL d   1      -0.595  -0.193  -0.476  0.00  0.00    -0.005 A 
ATOM      6  C5  UNL d   1      -1.761  -0.941  -0.329  0.00  0.00     0.003 A 
ATOM      7  C6  UNL d   1      -2.322  -1.584  -1.433  0.00  0.00    -0.001 A 
ENDROOT
TORSDOF 0
ENDMDL
