MODEL 1
REMARK minimizedAffinity -5.67973518
REMARK minimizedRMSD -1
REMARK  0 active torsions:
REMARK  status: ('A' for Active; 'I' for Inactive)
ROOT
ATOM      1  C   UNL d   1      -3.500  -1.315  -0.376  0.00  0.00     0.078 C 
ATOM      2  C1  UNL d   1      -2.125  -0.737  -0.529  0.00  0.00    -0.077 A 
ATOM      3  C2  UNL d   1      -1.325  -0.475   0.590  0.00  0.00    -0.001 A 
ATOM      4  C3  UNL d   1      -0.050   0.073   0.434  0.00  0.00     0.003 A 
ATOM      5  C4  UNL d   1       0.435   0.364  -0.840  0.00  0.00    -0.005 A 
ATOM      6  C5  UNL d   1      -0.355   0.108  -1.959  0.00  0.00     0.003 A 
ATOM      7  C6  UNL d   1      -1.630  -0.439  -1.805  0.00  0.00    -0.001 A 
ENDROOT
TORSDOF 0
ENDMDL
