MODEL 1
REMARK minimizedAffinity -2.82188129
REMARK minimizedRMSD -1
REMARK  0 active torsions:
REMARK  status: ('A' for Active; 'I' for Inactive)
ROOT
ATOM      1  C   UNL d   1      -2.634  -0.036   0.961  0.00  0.00     0.078 C 
ATOM      2  C1  UNL d   1      -1.152  -0.242   0.869  0.00  0.00    -0.077 A 
ATOM      3  C2  UNL d   1      -0.493  -1.134   1.724  0.00  0.00    -0.001 A 
ATOM      4  C3  UNL d   1       0.889  -1.309   1.634  0.00  0.00     0.003 A 
ATOM      5  C4  UNL d   1       1.624  -0.594   0.689  0.00  0.00    -0.005 A 
ATOM      6  C5  UNL d   1       0.977   0.297  -0.165  0.00  0.00     0.003 A 
ATOM      7  C6  UNL d   1      -0.405   0.473  -0.075  0.00  0.00    -0.001 A 
ENDROOT
TORSDOF 0
ENDMDL
