MODEL 1
REMARK minimizedAffinity -5.2636776
REMARK minimizedRMSD -1
REMARK  0 active torsions:
REMARK  status: ('A' for Active; 'I' for Inactive)
ROOT
ATOM      1  C   UNL d   1      -3.034  -0.713   0.052  0.00  0.00     0.078 C 
ATOM      2  C1  UNL d   1      -1.548  -0.530  -0.031  0.00  0.00    -0.077 A 
ATOM      3  C2  UNL d   1      -0.710  -0.966   1.003  0.00  0.00    -0.001 A 
ATOM      4  C3  UNL d   1       0.671  -0.781   0.917  0.00  0.00     0.003 A 
ATOM      5  C4  UNL d   1       1.225  -0.158  -0.199  0.00  0.00    -0.005 A 
ATOM      6  C5  UNL d   1       0.399   0.281  -1.232  0.00  0.00     0.003 A 
ATOM      7  C6  UNL d   1      -0.982   0.096  -1.148  0.00  0.00    -0.001 A 
ENDROOT
TORSDOF 0
ENDMDL
