MODEL 1
REMARK minimizedAffinity -4.00260115
REMARK minimizedRMSD -1
REMARK  0 active torsions:
REMARK  status: ('A' for Active; 'I' for Inactive)
ROOT
ATOM      1  C   UNL d   1       0.690   1.000   0.324  0.00  0.00     0.078 C 
ATOM      2  C1  UNL d   1      -0.484   0.398  -0.390  0.00  0.00    -0.077 A 
ATOM      3  C2  UNL d   1      -1.636   0.020   0.309  0.00  0.00    -0.001 A 
ATOM      4  C3  UNL d   1      -2.717  -0.548  -0.367  0.00  0.00     0.003 A 
ATOM      5  C4  UNL d   1      -2.656  -0.744  -1.745  0.00  0.00    -0.005 A 
ATOM      6  C5  UNL d   1      -1.512  -0.372  -2.449  0.00  0.00     0.003 A 
ATOM      7  C6  UNL d   1      -0.430   0.196  -1.775  0.00  0.00    -0.001 A 
ENDROOT
TORSDOF 0
ENDMDL
