MODEL 1
REMARK minimizedAffinity -2.83476472
REMARK minimizedRMSD -1
REMARK  0 active torsions:
REMARK  status: ('A' for Active; 'I' for Inactive)
ROOT
ATOM      1  C   UNL d   1      -0.046   0.152  -0.731  0.00  0.00     0.078 C 
ATOM      2  C1  UNL d   1       0.864   0.991   0.117  0.00  0.00    -0.077 A 
ATOM      3  C2  UNL d   1       0.619   1.163   1.484  0.00  0.00    -0.001 A 
ATOM      4  C3  UNL d   1       1.468   1.954   2.259  0.00  0.00     0.003 A 
ATOM      5  C4  UNL d   1       2.567   2.581   1.675  0.00  0.00    -0.005 A 
ATOM      6  C5  UNL d   1       2.817   2.417   0.314  0.00  0.00     0.003 A 
ATOM      7  C6  UNL d   1       1.969   1.626  -0.462  0.00  0.00    -0.001 A 
ENDROOT
TORSDOF 0
ENDMDL
