MODEL 1
REMARK minimizedAffinity -2.52507567
REMARK minimizedRMSD -1
REMARK  0 active torsions:
REMARK  status: ('A' for Active; 'I' for Inactive)
ROOT
ATOM      1  C   UNL d   1      -0.147  -0.163   0.455  0.00  0.00     0.078 C 
ATOM      2  C1  UNL d   1       0.959   0.839   0.602  0.00  0.00    -0.077 A 
ATOM      3  C2  UNL d   1       0.748   2.057   1.259  0.00  0.00    -0.001 A 
ATOM      4  C3  UNL d   1       1.784   2.983   1.380  0.00  0.00     0.003 A 
ATOM      5  C4  UNL d   1       3.040   2.703   0.844  0.00  0.00    -0.005 A 
ATOM      6  C5  UNL d   1       3.259   1.494   0.186  0.00  0.00     0.003 A 
ATOM      7  C6  UNL d   1       2.224   0.566   0.065  0.00  0.00    -0.001 A 
ENDROOT
TORSDOF 0
ENDMDL
