MODEL 1
REMARK minimizedAffinity -3.86886978
REMARK minimizedRMSD -1
REMARK  0 active torsions:
REMARK  status: ('A' for Active; 'I' for Inactive)
ROOT
ATOM      1  C   UNL d   1      -2.477  -2.363  -3.514  0.00  0.00     0.078 C 
ATOM      2  C1  UNL d   1      -2.367  -1.677  -2.185  0.00  0.00    -0.077 A 
ATOM      3  C2  UNL d   1      -1.488  -0.603  -1.999  0.00  0.00    -0.001 A 
ATOM      4  C3  UNL d   1      -1.389   0.020  -0.754  0.00  0.00     0.003 A 
ATOM      5  C4  UNL d   1      -2.164  -0.425   0.315  0.00  0.00    -0.005 A 
ATOM      6  C5  UNL d   1      -3.039  -1.494   0.140  0.00  0.00     0.003 A 
ATOM      7  C6  UNL d   1      -3.140  -2.119  -1.104  0.00  0.00    -0.001 A 
ENDROOT
TORSDOF 0
ENDMDL
