MODEL 1
REMARK minimizedAffinity 12.0811558
REMARK minimizedRMSD -1
REMARK  2 active torsions:
REMARK  status: ('A' for Active; 'I' for Inactive)
REMARK    1  A    between atoms: C1_2  and  C2_3 
REMARK    2  A    between atoms: C2_3  and  C3_4 
ROOT
ATOM      1  C3  UNL d   1       3.151  -0.414  -0.335  0.00  0.00    -0.075 A 
ATOM      2  C4  UNL d   1       3.588  -1.630   0.208  0.00  0.00     0.002 A 
ATOM      3  C5  UNL d   1       3.341  -2.832  -0.456  0.00  0.00     0.002 A 
ATOM      4  C6  UNL d   1       2.647  -2.834  -1.664  0.00  0.00    -0.004 A 
ATOM      5  C7  UNL d   1       2.194  -1.633  -2.205  0.00  0.00     0.002 A 
ATOM      6  C8  UNL d   1       2.443  -0.428  -1.544  0.00  0.00     0.002 A 
ENDROOT
BRANCH   1   7
ATOM      7  C2  UNL d   1       3.441   0.893   0.364  0.00  0.00     0.056 C 
BRANCH   7   8
ATOM      8  C1  UNL d   1       4.900   1.056   0.802  0.00  0.00     0.007 C 
ATOM      9  C   UNL d   1       5.863   1.220  -0.366  0.00  0.00     0.009 C 
ENDBRANCH   7   8
ENDBRANCH   1   7
TORSDOF 2
ENDMDL
