MODEL 1
REMARK minimizedAffinity 15.6767406
REMARK minimizedRMSD -1
REMARK  2 active torsions:
REMARK  status: ('A' for Active; 'I' for Inactive)
REMARK    1  A    between atoms: C1_2  and  C2_3 
REMARK    2  A    between atoms: C2_3  and  C3_4 
ROOT
ATOM      1  C3  UNL d   1       2.348  -2.353  -0.825  0.00  0.00    -0.075 A 
ATOM      2  C4  UNL d   1       1.966  -2.005  -2.129  0.00  0.00     0.002 A 
ATOM      3  C5  UNL d   1       1.411  -2.959  -2.983  0.00  0.00     0.002 A 
ATOM      4  C6  UNL d   1       1.241  -4.272  -2.549  0.00  0.00    -0.004 A 
ATOM      5  C7  UNL d   1       1.632  -4.632  -1.261  0.00  0.00     0.002 A 
ATOM      6  C8  UNL d   1       2.183  -3.679  -0.403  0.00  0.00     0.002 A 
ENDROOT
BRANCH   1   7
ATOM      7  C2  UNL d   1       2.921  -1.319   0.114  0.00  0.00     0.056 C 
BRANCH   7   8
ATOM      8  C1  UNL d   1       2.319   0.080  -0.056  0.00  0.00     0.007 C 
ATOM      9  C   UNL d   1       3.108   1.165   0.664  0.00  0.00     0.009 C 
ENDBRANCH   7   8
ENDBRANCH   1   7
TORSDOF 2
ENDMDL
