MODEL 1
REMARK minimizedAffinity 15.5629749
REMARK minimizedRMSD -1
REMARK  2 active torsions:
REMARK  status: ('A' for Active; 'I' for Inactive)
REMARK    1  A    between atoms: C1_2  and  C2_3 
REMARK    2  A    between atoms: C2_3  and  C3_4 
ROOT
ATOM      1  C3  UNL d   1       2.430  -2.021  -0.143  0.00  0.00    -0.075 A 
ATOM      2  C4  UNL d   1       1.350  -2.912  -0.055  0.00  0.00     0.002 A 
ATOM      3  C5  UNL d   1       1.571  -4.285   0.053  0.00  0.00     0.002 A 
ATOM      4  C6  UNL d   1       2.871  -4.786   0.065  0.00  0.00    -0.004 A 
ATOM      5  C7  UNL d   1       3.951  -3.912  -0.038  0.00  0.00     0.002 A 
ATOM      6  C8  UNL d   1       3.733  -2.537  -0.143  0.00  0.00     0.002 A 
ENDROOT
BRANCH   1   7
ATOM      7  C2  UNL d   1       2.198  -0.532  -0.231  0.00  0.00     0.056 C 
BRANCH   7   8
ATOM      8  C1  UNL d   1       2.441   0.056  -1.625  0.00  0.00     0.007 C 
ATOM      9  C   UNL d   1       1.500  -0.503  -2.684  0.00  0.00     0.009 C 
ENDBRANCH   7   8
ENDBRANCH   1   7
TORSDOF 2
ENDMDL
