MODEL 1
REMARK minimizedAffinity 7.44973183
REMARK minimizedRMSD -1
REMARK  2 active torsions:
REMARK  status: ('A' for Active; 'I' for Inactive)
REMARK    1  A    between atoms: C1_2  and  C2_3 
REMARK    2  A    between atoms: C2_3  and  C3_4 
ROOT
ATOM      1  C3  UNL d   1      -2.724   3.669  -4.526  0.00  0.00    -0.075 A 
ATOM      2  C4  UNL d   1      -2.134   4.941  -4.502  0.00  0.00     0.002 A 
ATOM      3  C5  UNL d   1      -2.705   6.000  -5.209  0.00  0.00     0.002 A 
ATOM      4  C6  UNL d   1      -3.864   5.798  -5.955  0.00  0.00    -0.004 A 
ATOM      5  C7  UNL d   1      -4.449   4.535  -5.999  0.00  0.00     0.002 A 
ATOM      6  C8  UNL d   1      -3.883   3.475  -5.289  0.00  0.00     0.002 A 
ENDROOT
BRANCH   1   7
ATOM      7  C2  UNL d   1      -2.127   2.527  -3.739  0.00  0.00     0.056 C 
BRANCH   7   8
ATOM      8  C1  UNL d   1      -2.991   1.261  -3.726  0.00  0.00     0.007 C 
ATOM      9  C   UNL d   1      -2.280   0.056  -3.124  0.00  0.00     0.009 C 
ENDBRANCH   7   8
ENDBRANCH   1   7
TORSDOF 2
ENDMDL
