MODEL 1
REMARK minimizedAffinity 6.83095694
REMARK minimizedRMSD -1
REMARK  2 active torsions:
REMARK  status: ('A' for Active; 'I' for Inactive)
REMARK    1  A    between atoms: C1_2  and  C2_3 
REMARK    2  A    between atoms: C2_3  and  C3_4 
ROOT
ATOM      1  C3  UNL d   1      -2.891  -4.351  -4.985  0.00  0.00    -0.075 A 
ATOM      2  C4  UNL d   1      -2.047  -5.417  -5.331  0.00  0.00     0.002 A 
ATOM      3  C5  UNL d   1      -1.197  -5.984  -4.381  0.00  0.00     0.002 A 
ATOM      4  C6  UNL d   1      -1.172  -5.488  -3.079  0.00  0.00    -0.004 A 
ATOM      5  C7  UNL d   1      -1.993  -4.419  -2.729  0.00  0.00     0.002 A 
ATOM      6  C8  UNL d   1      -2.848  -3.852  -3.676  0.00  0.00     0.002 A 
ENDROOT
BRANCH   1   7
ATOM      7  C2  UNL d   1      -3.834  -3.752  -6.000  0.00  0.00     0.056 C 
BRANCH   7   8
ATOM      8  C1  UNL d   1      -4.152  -2.272  -5.759  0.00  0.00     0.007 C 
ATOM      9  C   UNL d   1      -5.616  -1.926  -5.998  0.00  0.00     0.009 C 
ENDBRANCH   7   8
ENDBRANCH   1   7
TORSDOF 2
ENDMDL
