MODEL 1
REMARK minimizedAffinity 15.1943245
REMARK minimizedRMSD -1
REMARK  2 active torsions:
REMARK  status: ('A' for Active; 'I' for Inactive)
REMARK    1  A    between atoms: C1_2  and  C2_3 
REMARK    2  A    between atoms: C2_3  and  C3_4 
ROOT
ATOM      1  C3  UNL d   1      -3.454   1.139   3.051  0.00  0.00    -0.075 A 
ATOM      2  C4  UNL d   1      -4.605   0.396   2.751  0.00  0.00     0.002 A 
ATOM      3  C5  UNL d   1      -5.870   0.893   3.064  0.00  0.00     0.002 A 
ATOM      4  C6  UNL d   1      -6.000   2.131   3.690  0.00  0.00    -0.004 A 
ATOM      5  C7  UNL d   1      -4.862   2.870   4.008  0.00  0.00     0.002 A 
ATOM      6  C8  UNL d   1      -3.595   2.377   3.692  0.00  0.00     0.002 A 
ENDROOT
BRANCH   1   7
ATOM      7  C2  UNL d   1      -2.083   0.619   2.688  0.00  0.00     0.056 C 
BRANCH   7   8
ATOM      8  C1  UNL d   1      -1.003   1.704   2.619  0.00  0.00     0.007 C 
ATOM      9  C   UNL d   1       0.412   1.151   2.730  0.00  0.00     0.009 C 
ENDBRANCH   7   8
ENDBRANCH   1   7
TORSDOF 2
ENDMDL
