MODEL 1
REMARK minimizedAffinity 9.09035683
REMARK minimizedRMSD -1
REMARK  2 active torsions:
REMARK  status: ('A' for Active; 'I' for Inactive)
REMARK    1  A    between atoms: C1_2  and  C2_3 
REMARK    2  A    between atoms: C2_3  and  C3_4 
ROOT
ATOM      1  C3  UNL d   1       3.006  -0.497  -0.248  0.00  0.00    -0.075 A 
ATOM      2  C4  UNL d   1       2.982  -1.898  -0.306  0.00  0.00     0.002 A 
ATOM      3  C5  UNL d   1       4.169  -2.629  -0.267  0.00  0.00     0.002 A 
ATOM      4  C6  UNL d   1       5.394  -1.971  -0.179  0.00  0.00    -0.004 A 
ATOM      5  C7  UNL d   1       5.431  -0.578  -0.137  0.00  0.00     0.002 A 
ATOM      6  C8  UNL d   1       4.244   0.156  -0.172  0.00  0.00     0.002 A 
ENDROOT
BRANCH   1   7
ATOM      7  C2  UNL d   1       1.723   0.299  -0.261  0.00  0.00     0.056 C 
BRANCH   7   8
ATOM      8  C1  UNL d   1       1.622   1.338   0.861  0.00  0.00     0.007 C 
ATOM      9  C   UNL d   1       0.335   1.229   1.667  0.00  0.00     0.009 C 
ENDBRANCH   7   8
ENDBRANCH   1   7
TORSDOF 2
ENDMDL
