MODEL 1
REMARK minimizedAffinity 12.4449883
REMARK minimizedRMSD -1
REMARK  2 active torsions:
REMARK  status: ('A' for Active; 'I' for Inactive)
REMARK    1  A    between atoms: C1_2  and  C2_3 
REMARK    2  A    between atoms: C2_3  and  C3_4 
ROOT
ATOM      1  C3  UNL d   1       3.680  -0.631   0.477  0.00  0.00    -0.075 A 
ATOM      2  C4  UNL d   1       2.456  -0.869  -0.165  0.00  0.00     0.002 A 
ATOM      3  C5  UNL d   1       2.097  -2.162  -0.548  0.00  0.00     0.002 A 
ATOM      4  C6  UNL d   1       2.959  -3.229  -0.305  0.00  0.00    -0.004 A 
ATOM      5  C7  UNL d   1       4.184  -3.001   0.317  0.00  0.00     0.002 A 
ATOM      6  C8  UNL d   1       4.544  -1.710   0.706  0.00  0.00     0.002 A 
ENDROOT
BRANCH   1   7
ATOM      7  C2  UNL d   1       4.062   0.761   0.921  0.00  0.00     0.056 C 
BRANCH   7   8
ATOM      8  C1  UNL d   1       3.987   1.813  -0.191  0.00  0.00     0.007 C 
ATOM      9  C   UNL d   1       5.351   2.188  -0.755  0.00  0.00     0.009 C 
ENDBRANCH   7   8
ENDBRANCH   1   7
TORSDOF 2
ENDMDL
