MODEL 1
REMARK minimizedAffinity 20.2757492
REMARK minimizedRMSD -1
REMARK  2 active torsions:
REMARK  status: ('A' for Active; 'I' for Inactive)
REMARK    1  A    between atoms: C1_2  and  C2_3 
REMARK    2  A    between atoms: C2_3  and  C3_4 
ROOT
ATOM      1  C3  UNL d   1      -2.512  -3.703  -3.596  0.00  0.00    -0.075 A 
ATOM      2  C4  UNL d   1      -1.131  -3.476  -3.501  0.00  0.00     0.002 A 
ATOM      3  C5  UNL d   1      -0.336  -4.280  -2.683  0.00  0.00     0.002 A 
ATOM      4  C6  UNL d   1      -0.911  -5.311  -1.944  0.00  0.00    -0.004 A 
ATOM      5  C7  UNL d   1      -2.284  -5.535  -2.018  0.00  0.00     0.002 A 
ATOM      6  C8  UNL d   1      -3.081  -4.736  -2.839  0.00  0.00     0.002 A 
ENDROOT
BRANCH   1   7
ATOM      7  C2  UNL d   1      -3.373  -2.857  -4.502  0.00  0.00     0.056 C 
BRANCH   7   8
ATOM      8  C1  UNL d   1      -3.769  -3.548  -5.811  0.00  0.00     0.007 C 
ATOM      9  C   UNL d   1      -5.277  -3.660  -5.999  0.00  0.00     0.009 C 
ENDBRANCH   7   8
ENDBRANCH   1   7
TORSDOF 2
ENDMDL
