MODEL 1
REMARK minimizedAffinity 15.2762051
REMARK minimizedRMSD -1
REMARK  2 active torsions:
REMARK  status: ('A' for Active; 'I' for Inactive)
REMARK    1  A    between atoms: C1_2  and  C2_3 
REMARK    2  A    between atoms: C2_3  and  C3_4 
ROOT
ATOM      1  C3  UNL d   1       1.428  -4.337  -2.015  0.00  0.00    -0.075 A 
ATOM      2  C4  UNL d   1       2.163  -4.866  -0.944  0.00  0.00     0.002 A 
ATOM      3  C5  UNL d   1       2.979  -4.041  -0.170  0.00  0.00     0.002 A 
ATOM      4  C6  UNL d   1       3.079  -2.683  -0.461  0.00  0.00    -0.004 A 
ATOM      5  C7  UNL d   1       2.367  -2.150  -1.533  0.00  0.00     0.002 A 
ATOM      6  C8  UNL d   1       1.546  -2.971  -2.307  0.00  0.00     0.002 A 
ENDROOT
BRANCH   1   7
ATOM      7  C2  UNL d   1       0.520  -5.218  -2.839  0.00  0.00     0.056 C 
BRANCH   7   8
ATOM      8  C1  UNL d   1      -0.924  -4.713  -2.931  0.00  0.00     0.007 C 
ATOM      9  C   UNL d   1      -1.927  -5.634  -2.251  0.00  0.00     0.009 C 
ENDBRANCH   7   8
ENDBRANCH   1   7
TORSDOF 2
ENDMDL
