MODEL 1
REMARK minimizedAffinity 6.81734037
REMARK minimizedRMSD -1
REMARK  2 active torsions:
REMARK  status: ('A' for Active; 'I' for Inactive)
REMARK    1  A    between atoms: C1_2  and  C2_3 
REMARK    2  A    between atoms: C2_3  and  C3_4 
ROOT
ATOM      1  C3  UNL d   1       3.405  -2.350   0.863  0.00  0.00    -0.075 A 
ATOM      2  C4  UNL d   1       4.697  -2.022   1.299  0.00  0.00     0.002 A 
ATOM      3  C5  UNL d   1       5.771  -2.874   1.035  0.00  0.00     0.002 A 
ATOM      4  C6  UNL d   1       5.565  -4.065   0.343  0.00  0.00    -0.004 A 
ATOM      5  C7  UNL d   1       4.283  -4.409  -0.080  0.00  0.00     0.002 A 
ATOM      6  C8  UNL d   1       3.208  -3.557   0.179  0.00  0.00     0.002 A 
ENDROOT
BRANCH   1   7
ATOM      7  C2  UNL d   1       2.244  -1.419   1.120  0.00  0.00     0.056 C 
BRANCH   7   8
ATOM      8  C1  UNL d   1       2.287  -0.127   0.297  0.00  0.00     0.007 C 
ATOM      9  C   UNL d   1       2.924   1.038   1.043  0.00  0.00     0.009 C 
ENDBRANCH   7   8
ENDBRANCH   1   7
TORSDOF 2
ENDMDL
