MODEL 1
REMARK minimizedAffinity 17.6452885
REMARK minimizedRMSD -1
REMARK  2 active torsions:
REMARK  status: ('A' for Active; 'I' for Inactive)
REMARK    1  A    between atoms: C1_2  and  C2_3 
REMARK    2  A    between atoms: C2_3  and  C3_4 
ROOT
ATOM      1  C3  UNL d   1      -3.978  -4.688  -3.982  0.00  0.00    -0.075 A 
ATOM      2  C4  UNL d   1      -4.828  -3.599  -4.224  0.00  0.00     0.002 A 
ATOM      3  C5  UNL d   1      -5.799  -3.666  -5.223  0.00  0.00     0.002 A 
ATOM      4  C6  UNL d   1      -5.926  -4.816  -5.999  0.00  0.00    -0.004 A 
ATOM      5  C7  UNL d   1      -5.076  -5.898  -5.779  0.00  0.00     0.002 A 
ATOM      6  C8  UNL d   1      -4.106  -5.835  -4.776  0.00  0.00     0.002 A 
ENDROOT
BRANCH   1   7
ATOM      7  C2  UNL d   1      -2.945  -4.632  -2.882  0.00  0.00     0.056 C 
BRANCH   7   8
ATOM      8  C1  UNL d   1      -2.803  -5.938  -2.093  0.00  0.00     0.007 C 
ATOM      9  C   UNL d   1      -3.101  -5.778  -0.608  0.00  0.00     0.009 C 
ENDBRANCH   7   8
ENDBRANCH   1   7
TORSDOF 2
ENDMDL
