MODEL 1
REMARK minimizedAffinity 15.0230188
REMARK minimizedRMSD -1
REMARK  2 active torsions:
REMARK  status: ('A' for Active; 'I' for Inactive)
REMARK    1  A    between atoms: C1_2  and  C2_3 
REMARK    2  A    between atoms: C2_3  and  C3_4 
ROOT
ATOM      1  C3  UNL d   1      -4.260   1.344   4.202  0.00  0.00    -0.075 A 
ATOM      2  C4  UNL d   1      -3.509   1.146   5.371  0.00  0.00     0.002 A 
ATOM      3  C5  UNL d   1      -3.075  -0.131   5.726  0.00  0.00     0.002 A 
ATOM      4  C6  UNL d   1      -3.392  -1.226   4.925  0.00  0.00    -0.004 A 
ATOM      5  C7  UNL d   1      -4.151  -1.044   3.771  0.00  0.00     0.002 A 
ATOM      6  C8  UNL d   1      -4.584   0.234   3.411  0.00  0.00     0.002 A 
ENDROOT
BRANCH   1   7
ATOM      7  C2  UNL d   1      -4.708   2.728   3.797  0.00  0.00     0.056 C 
BRANCH   7   8
ATOM      8  C1  UNL d   1      -5.998   3.191   4.481  0.00  0.00     0.007 C 
ATOM      9  C   UNL d   1      -5.819   3.482   5.965  0.00  0.00     0.009 C 
ENDBRANCH   7   8
ENDBRANCH   1   7
TORSDOF 2
ENDMDL
