MODEL 1
REMARK minimizedAffinity 22.2535095
REMARK minimizedRMSD -1
REMARK  2 active torsions:
REMARK  status: ('A' for Active; 'I' for Inactive)
REMARK    1  A    between atoms: C1_2  and  C2_3 
REMARK    2  A    between atoms: C2_3  and  C3_4 
ROOT
ATOM      1  C3  UNL d   1      -3.344   1.669   3.583  0.00  0.00    -0.075 A 
ATOM      2  C4  UNL d   1      -4.506   2.291   3.104  0.00  0.00     0.002 A 
ATOM      3  C5  UNL d   1      -5.401   2.894   3.988  0.00  0.00     0.002 A 
ATOM      4  C6  UNL d   1      -5.152   2.874   5.358  0.00  0.00    -0.004 A 
ATOM      5  C7  UNL d   1      -4.009   2.245   5.846  0.00  0.00     0.002 A 
ATOM      6  C8  UNL d   1      -3.109   1.644   4.964  0.00  0.00     0.002 A 
ENDROOT
BRANCH   1   7
ATOM      7  C2  UNL d   1      -2.356   1.040   2.630  0.00  0.00     0.056 C 
BRANCH   7   8
ATOM      8  C1  UNL d   1      -1.128   1.910   2.340  0.00  0.00     0.007 C 
ATOM      9  C   UNL d   1       0.167   1.321   2.884  0.00  0.00     0.009 C 
ENDBRANCH   7   8
ENDBRANCH   1   7
TORSDOF 2
ENDMDL
