MODEL 1
REMARK minimizedAffinity 12.3028164
REMARK minimizedRMSD -1
REMARK  0 active torsions:
REMARK  status: ('A' for Active; 'I' for Inactive)
ROOT
ATOM      1  C   UNL d   1       2.623   0.048  -0.061  0.00  0.00    -0.002 A 
ATOM      2  C1  UNL d   1       2.116   0.068   1.231  0.00  0.00     0.010 A 
ATOM      3  C2  UNL d   1       2.761   0.789   2.237  0.00  0.00     0.041 A 
ATOM      4  C3  UNL d   1       3.936   1.500   1.919  0.00  0.00    -0.075 A 
ATOM      5  S   UNL d   1       4.895   2.453   2.989  0.00  0.00     0.015 SA
ATOM      6  C4  UNL d   1       6.000   2.858   1.756  0.00  0.00     0.022 A 
ATOM      7  C5  UNL d   1       5.661   2.288   0.552  0.00  0.00     0.026 A 
ATOM      8  C6  UNL d   1       4.465   1.496   0.626  0.00  0.00    -0.082 A 
ATOM      9  C7  UNL d   1       3.788   0.754  -0.372  0.00  0.00     0.045 A 
ENDROOT
TORSDOF 0
ENDMDL
