MODEL 1
REMARK minimizedAffinity 7.25819492
REMARK minimizedRMSD -1
REMARK  0 active torsions:
REMARK  status: ('A' for Active; 'I' for Inactive)
ROOT
ATOM      1  C   UNL d   1      -4.530   5.258   0.921  0.00  0.00    -0.002 A 
ATOM      2  C1  UNL d   1      -4.074   5.714   2.150  0.00  0.00     0.010 A 
ATOM      3  C2  UNL d   1      -2.732   5.570   2.507  0.00  0.00     0.041 A 
ATOM      4  C3  UNL d   1      -1.847   4.957   1.600  0.00  0.00    -0.075 A 
ATOM      5  S   UNL d   1      -0.161   4.674   1.822  0.00  0.00     0.015 SA
ATOM      6  C4  UNL d   1      -0.005   3.943   0.290  0.00  0.00     0.022 A 
ATOM      7  C5  UNL d   1      -1.201   3.906  -0.387  0.00  0.00     0.026 A 
ATOM      8  C6  UNL d   1      -2.282   4.490   0.356  0.00  0.00    -0.082 A 
ATOM      9  C7  UNL d   1      -3.649   4.650   0.023  0.00  0.00     0.045 A 
ENDROOT
TORSDOF 0
ENDMDL
