MODEL 1
REMARK minimizedAffinity 12.5041304
REMARK minimizedRMSD -1
REMARK  0 active torsions:
REMARK  status: ('A' for Active; 'I' for Inactive)
ROOT
ATOM      1  C   UNL d   1       3.734   2.461  -0.418  0.00  0.00    -0.002 A 
ATOM      2  C1  UNL d   1       4.933   3.063  -0.065  0.00  0.00     0.010 A 
ATOM      3  C2  UNL d   1       5.221   3.342   1.273  0.00  0.00     0.041 A 
ATOM      4  C3  UNL d   1       4.275   3.000   2.259  0.00  0.00    -0.075 A 
ATOM      5  S   UNL d   1       4.411   3.245   3.960  0.00  0.00     0.015 SA
ATOM      6  C4  UNL d   1       2.882   2.555   4.258  0.00  0.00     0.022 A 
ATOM      7  C5  UNL d   1       2.268   2.143   3.099  0.00  0.00     0.026 A 
ATOM      8  C6  UNL d   1       3.060   2.392   1.928  0.00  0.00    -0.082 A 
ATOM      9  C7  UNL d   1       2.798   2.123   0.563  0.00  0.00     0.045 A 
ENDROOT
TORSDOF 0
ENDMDL
