MODEL 1
REMARK minimizedAffinity -3.10471368
REMARK minimizedRMSD -1
REMARK  0 active torsions:
REMARK  status: ('A' for Active; 'I' for Inactive)
ROOT
ATOM      1  C   UNL d   1       4.503   2.725  -0.344  0.00  0.00    -0.002 A 
ATOM      2  C1  UNL d   1       5.762   2.219  -0.054  0.00  0.00     0.010 A 
ATOM      3  C2  UNL d   1       5.912   0.915   0.421  0.00  0.00     0.041 A 
ATOM      4  C3  UNL d   1       4.763   0.119   0.601  0.00  0.00    -0.075 A 
ATOM      5  S   UNL d   1       4.703  -1.507   1.171  0.00  0.00     0.015 SA
ATOM      6  C4  UNL d   1       3.005  -1.569   1.042  0.00  0.00     0.022 A 
ATOM      7  C5  UNL d   1       2.480  -0.386   0.578  0.00  0.00     0.026 A 
ATOM      8  C6  UNL d   1       3.484   0.606   0.315  0.00  0.00    -0.082 A 
ATOM      9  C7  UNL d   1       3.366   1.933  -0.164  0.00  0.00     0.045 A 
ENDROOT
TORSDOF 0
ENDMDL
