MODEL 1
REMARK minimizedAffinity 5.55966473
REMARK minimizedRMSD -1
REMARK  0 active torsions:
REMARK  status: ('A' for Active; 'I' for Inactive)
ROOT
ATOM      1  C   UNL d   1       4.512   1.535  -1.719  0.00  0.00    -0.002 A 
ATOM      2  C1  UNL d   1       3.311   1.135  -1.151  0.00  0.00     0.010 A 
ATOM      3  C2  UNL d   1       3.029   1.416   0.187  0.00  0.00     0.041 A 
ATOM      4  C3  UNL d   1       3.982   2.116   0.952  0.00  0.00    -0.075 A 
ATOM      5  S   UNL d   1       3.853   2.573   2.610  0.00  0.00     0.015 SA
ATOM      6  C4  UNL d   1       5.389   3.312   2.603  0.00  0.00     0.022 A 
ATOM      7  C5  UNL d   1       6.000   3.221   1.374  0.00  0.00     0.026 A 
ATOM      8  C6  UNL d   1       5.199   2.531   0.402  0.00  0.00    -0.082 A 
ATOM      9  C7  UNL d   1       5.455   2.230  -0.957  0.00  0.00     0.045 A 
ENDROOT
TORSDOF 0
ENDMDL
