MODEL 1
REMARK minimizedAffinity 7.0005517
REMARK minimizedRMSD -1
REMARK  0 active torsions:
REMARK  status: ('A' for Active; 'I' for Inactive)
ROOT
ATOM      1  C   UNL d   1      -1.923  -5.998   2.506  0.00  0.00    -0.002 A 
ATOM      2  C1  UNL d   1      -1.436  -4.980   1.699  0.00  0.00     0.010 A 
ATOM      3  C2  UNL d   1      -0.686  -3.937   2.246  0.00  0.00     0.041 A 
ATOM      4  C3  UNL d   1      -0.430  -3.935   3.631  0.00  0.00    -0.075 A 
ATOM      5  S   UNL d   1       0.465  -2.762   4.522  0.00  0.00     0.015 SA
ATOM      6  C4  UNL d   1       0.223  -3.584   5.994  0.00  0.00     0.022 A 
ATOM      7  C5  UNL d   1      -0.521  -4.729   5.829  0.00  0.00     0.026 A 
ATOM      8  C6  UNL d   1      -0.909  -4.950   4.465  0.00  0.00    -0.082 A 
ATOM      9  C7  UNL d   1      -1.667  -5.993   3.880  0.00  0.00     0.045 A 
ENDROOT
TORSDOF 0
ENDMDL
