MODEL 1
REMARK minimizedAffinity 17.5662613
REMARK minimizedRMSD -1
REMARK  0 active torsions:
REMARK  status: ('A' for Active; 'I' for Inactive)
ROOT
ATOM      1  C   UNL d   1       3.373   1.064  -1.568  0.00  0.00    -0.002 A 
ATOM      2  C1  UNL d   1       2.610   0.882  -0.423  0.00  0.00     0.010 A 
ATOM      3  C2  UNL d   1       2.957   1.519   0.770  0.00  0.00     0.041 A 
ATOM      4  C3  UNL d   1       4.094   2.351   0.793  0.00  0.00    -0.075 A 
ATOM      5  S   UNL d   1       4.709   3.232   2.141  0.00  0.00     0.015 SA
ATOM      6  C4  UNL d   1       5.998   3.872   1.228  0.00  0.00     0.022 A 
ATOM      7  C5  UNL d   1       5.975   3.434  -0.075  0.00  0.00     0.026 A 
ATOM      8  C6  UNL d   1       4.877   2.550  -0.347  0.00  0.00    -0.082 A 
ATOM      9  C7  UNL d   1       4.499   1.890  -1.541  0.00  0.00     0.045 A 
ENDROOT
TORSDOF 0
ENDMDL
