MODEL 1
REMARK minimizedAffinity -3.08352852
REMARK minimizedRMSD -1
REMARK  0 active torsions:
REMARK  status: ('A' for Active; 'I' for Inactive)
ROOT
ATOM      1  C   UNL d   1      -1.060  -2.613  -1.146  0.00  0.00     0.124 A 
ATOM      2  C1  UNL d   1      -1.147  -2.148   0.159  0.00  0.00     0.062 A 
ATOM      3  C2  UNL d   1      -0.716  -0.863   0.475  0.00  0.00     0.162 A 
ATOM      4  C3  UNL d   1      -0.193  -0.033  -0.517  0.00  0.00    -0.034 A 
ATOM      5  C4  UNL d   1      -0.108  -0.508  -1.827  0.00  0.00     0.162 A 
ATOM      6  C5  UNL d   1      -0.540  -1.793  -2.137  0.00  0.00     0.062 A 
ATOM      7  F   UNL d   1      -0.455  -2.241  -3.398  0.00  0.00    -0.097 F 
ATOM      8  F1  UNL d   1       0.389   0.264  -2.805  0.00  0.00    -0.096 F 
ATOM      9  I   UNL d   1       0.453   1.889  -0.049  0.00  0.00    -0.060 I 
ATOM     10  F2  UNL d   1      -0.812  -0.440   1.744  0.00  0.00    -0.096 F 
ATOM     11  F3  UNL d   1      -1.648  -2.939   1.119  0.00  0.00    -0.097 F 
ATOM     12  F4  UNL d   1      -1.475  -3.851  -1.446  0.00  0.00    -0.092 F 
ENDROOT
TORSDOF 0
ENDMDL
