MODEL 1
REMARK minimizedAffinity -4.48737907
REMARK minimizedRMSD -1
REMARK  0 active torsions:
REMARK  status: ('A' for Active; 'I' for Inactive)
ROOT
ATOM      1  C   UNL d   1      -0.633  -2.617  -0.816  0.00  0.00     0.124 A 
ATOM      2  C1  UNL d   1      -0.304  -1.831  -1.912  0.00  0.00     0.062 A 
ATOM      3  C2  UNL d   1      -0.002  -0.483  -1.741  0.00  0.00     0.162 A 
ATOM      4  C3  UNL d   1      -0.027   0.088  -0.469  0.00  0.00    -0.034 A 
ATOM      5  C4  UNL d   1      -0.360  -0.709   0.628  0.00  0.00     0.162 A 
ATOM      6  C5  UNL d   1      -0.661  -2.056   0.452  0.00  0.00     0.062 A 
ATOM      7  F   UNL d   1      -0.979  -2.813   1.512  0.00  0.00    -0.097 F 
ATOM      8  F1  UNL d   1      -0.394  -0.192   1.865  0.00  0.00    -0.096 F 
ATOM      9  I   UNL d   1       0.423   2.103  -0.209  0.00  0.00    -0.060 I 
ATOM     10  F2  UNL d   1       0.313   0.252  -2.818  0.00  0.00    -0.096 F 
ATOM     11  F3  UNL d   1      -0.277  -2.371  -3.139  0.00  0.00    -0.097 F 
ATOM     12  F4  UNL d   1      -0.924  -3.914  -0.984  0.00  0.00    -0.092 F 
ENDROOT
TORSDOF 0
ENDMDL
