MODEL 1
REMARK minimizedAffinity 0.534355462
REMARK minimizedRMSD -1
REMARK  0 active torsions:
REMARK  status: ('A' for Active; 'I' for Inactive)
ROOT
ATOM      1  C   UNL d   1      -0.721  -1.925  -0.210  0.00  0.00     0.124 A 
ATOM      2  C1  UNL d   1      -0.249  -1.179  -1.281  0.00  0.00     0.062 A 
ATOM      3  C2  UNL d   1       0.146   0.142  -1.093  0.00  0.00     0.162 A 
ATOM      4  C3  UNL d   1       0.071   0.727   0.171  0.00  0.00    -0.034 A 
ATOM      5  C4  UNL d   1      -0.406  -0.030   1.243  0.00  0.00     0.162 A 
ATOM      6  C5  UNL d   1      -0.799  -1.350   1.051  0.00  0.00     0.062 A 
ATOM      7  F   UNL d   1      -1.256  -2.069   2.087  0.00  0.00    -0.097 F 
ATOM      8  F1  UNL d   1      -0.491   0.501   2.472  0.00  0.00    -0.096 F 
ATOM      9  I   UNL d   1       0.661   2.702   0.456  0.00  0.00    -0.060 I 
ATOM     10  F2  UNL d   1       0.599   0.840  -2.146  0.00  0.00    -0.096 F 
ATOM     11  F3  UNL d   1      -0.174  -1.732  -2.500  0.00  0.00    -0.097 F 
ATOM     12  F4  UNL d   1      -1.102  -3.196  -0.393  0.00  0.00    -0.092 F 
ENDROOT
TORSDOF 0
ENDMDL
