MODEL 1
REMARK minimizedAffinity 0.0527760983
REMARK minimizedRMSD -1
REMARK  0 active torsions:
REMARK  status: ('A' for Active; 'I' for Inactive)
ROOT
ATOM      1  C   UNL d   1      -0.590  -2.191  -0.569  0.00  0.00     0.124 A 
ATOM      2  C1  UNL d   1      -0.005  -1.337  -1.494  0.00  0.00     0.062 A 
ATOM      3  C2  UNL d   1       0.276  -0.018  -1.149  0.00  0.00     0.162 A 
ATOM      4  C3  UNL d   1      -0.026   0.455   0.128  0.00  0.00    -0.034 A 
ATOM      5  C4  UNL d   1      -0.615  -0.409   1.053  0.00  0.00     0.162 A 
ATOM      6  C5  UNL d   1      -0.894  -1.726   0.703  0.00  0.00     0.062 A 
ATOM      7  F   UNL d   1      -1.459  -2.550   1.598  0.00  0.00    -0.097 F 
ATOM      8  F1  UNL d   1      -0.918   0.013   2.289  0.00  0.00    -0.096 F 
ATOM      9  I   UNL d   1       0.393   2.427   0.647  0.00  0.00    -0.060 I 
ATOM     10  F2  UNL d   1       0.841   0.785  -2.063  0.00  0.00    -0.096 F 
ATOM     11  F3  UNL d   1       0.289  -1.783  -2.724  0.00  0.00    -0.097 F 
ATOM     12  F4  UNL d   1      -0.860  -3.459  -0.903  0.00  0.00    -0.092 F 
ENDROOT
TORSDOF 0
ENDMDL
