MODEL 1
REMARK minimizedAffinity -1.32553303
REMARK minimizedRMSD -1
REMARK  0 active torsions:
REMARK  status: ('A' for Active; 'I' for Inactive)
ROOT
ATOM      1  C   UNL d   1      -0.615  -0.869   2.014  0.00  0.00     0.124 A 
ATOM      2  C1  UNL d   1      -0.964  -0.577   0.702  0.00  0.00     0.062 A 
ATOM      3  C2  UNL d   1      -0.491   0.581   0.093  0.00  0.00     0.162 A 
ATOM      4  C3  UNL d   1       0.338   1.457   0.794  0.00  0.00    -0.034 A 
ATOM      5  C4  UNL d   1       0.684   1.158   2.113  0.00  0.00     0.162 A 
ATOM      6  C5  UNL d   1       0.209  -0.001   2.717  0.00  0.00     0.062 A 
ATOM      7  F   UNL d   1       0.548  -0.281   3.984  0.00  0.00    -0.097 F 
ATOM      8  F1  UNL d   1       1.480   1.978   2.816  0.00  0.00    -0.096 F 
ATOM      9  I   UNL d   1       1.047   3.190  -0.114  0.00  0.00    -0.060 I 
ATOM     10  F2  UNL d   1      -0.845   0.838  -1.175  0.00  0.00    -0.096 F 
ATOM     11  F3  UNL d   1      -1.760  -1.413   0.021  0.00  0.00    -0.097 F 
ATOM     12  F4  UNL d   1      -1.072  -1.984   2.598  0.00  0.00    -0.092 F 
ENDROOT
TORSDOF 0
ENDMDL
