MODEL 1
REMARK minimizedAffinity 1.84086633
REMARK minimizedRMSD -1
REMARK  0 active torsions:
REMARK  status: ('A' for Active; 'I' for Inactive)
ROOT
ATOM      1  C   UNL d   1      -0.285  -2.448  -0.166  0.00  0.00     0.124 A 
ATOM      2  C1  UNL d   1       0.227  -1.590  -1.129  0.00  0.00     0.062 A 
ATOM      3  C2  UNL d   1       0.372  -0.234  -0.853  0.00  0.00     0.162 A 
ATOM      4  C3  UNL d   1       0.006   0.273   0.394  0.00  0.00    -0.034 A 
ATOM      5  C4  UNL d   1      -0.510  -0.596   1.357  0.00  0.00     0.162 A 
ATOM      6  C5  UNL d   1      -0.653  -1.950   1.076  0.00  0.00     0.062 A 
ATOM      7  F   UNL d   1      -1.148  -2.778   2.008  0.00  0.00    -0.097 F 
ATOM      8  F1  UNL d   1      -0.873  -0.141   2.566  0.00  0.00    -0.096 F 
ATOM      9  I   UNL d   1       0.221   2.301   0.812  0.00  0.00    -0.060 I 
ATOM     10  F2  UNL d   1       0.870   0.572  -1.802  0.00  0.00    -0.096 F 
ATOM     11  F3  UNL d   1       0.583  -2.068  -2.331  0.00  0.00    -0.097 F 
ATOM     12  F4  UNL d   1      -0.425  -3.752  -0.436  0.00  0.00    -0.092 F 
ENDROOT
TORSDOF 0
ENDMDL
