MODEL 1
REMARK minimizedAffinity -2.69928956
REMARK minimizedRMSD -1
REMARK  0 active torsions:
REMARK  status: ('A' for Active; 'I' for Inactive)
ROOT
ATOM      1  C   UNL d   1      -0.615  -2.547  -0.844  0.00  0.00     0.124 A 
ATOM      2  C1  UNL d   1      -0.741  -2.042   0.443  0.00  0.00     0.062 A 
ATOM      3  C2  UNL d   1      -0.502  -0.694   0.692  0.00  0.00     0.162 A 
ATOM      4  C3  UNL d   1      -0.136   0.160  -0.348  0.00  0.00    -0.034 A 
ATOM      5  C4  UNL d   1      -0.011  -0.355  -1.640  0.00  0.00     0.162 A 
ATOM      6  C5  UNL d   1      -0.251  -1.703  -1.884  0.00  0.00     0.062 A 
ATOM      7  F   UNL d   1      -0.129  -2.189  -3.128  0.00  0.00    -0.097 F 
ATOM      8  F1  UNL d   1       0.339   0.439  -2.663  0.00  0.00    -0.096 F 
ATOM      9  I   UNL d   1       0.221   2.177   0.021  0.00  0.00    -0.060 I 
ATOM     10  F2  UNL d   1      -0.631  -0.234   1.946  0.00  0.00    -0.096 F 
ATOM     11  F3  UNL d   1      -1.092  -2.856   1.449  0.00  0.00    -0.097 F 
ATOM     12  F4  UNL d   1      -0.844  -3.845  -1.082  0.00  0.00    -0.092 F 
ENDROOT
TORSDOF 0
ENDMDL
