MODEL 1
REMARK minimizedAffinity -1.09181571
REMARK minimizedRMSD -1
REMARK  0 active torsions:
REMARK  status: ('A' for Active; 'I' for Inactive)
ROOT
ATOM      1  C   UNL d   1      -0.410  -2.211  -0.816  0.00  0.00     0.124 A 
ATOM      2  C1  UNL d   1      -0.531  -1.774   0.495  0.00  0.00     0.062 A 
ATOM      3  C2  UNL d   1      -0.300  -0.439   0.813  0.00  0.00     0.162 A 
ATOM      4  C3  UNL d   1       0.055   0.470  -0.184  0.00  0.00    -0.034 A 
ATOM      5  C4  UNL d   1       0.176   0.023  -1.501  0.00  0.00     0.162 A 
ATOM      6  C5  UNL d   1      -0.056  -1.313  -1.813  0.00  0.00     0.062 A 
ATOM      7  F   UNL d   1       0.062  -1.733  -3.081  0.00  0.00    -0.097 F 
ATOM      8  F1  UNL d   1       0.515   0.870  -2.484  0.00  0.00    -0.096 F 
ATOM      9  I   UNL d   1       0.402   2.468   0.286  0.00  0.00    -0.060 I 
ATOM     10  F2  UNL d   1      -0.425  -0.044   2.089  0.00  0.00    -0.096 F 
ATOM     11  F3  UNL d   1      -0.872  -2.641   1.460  0.00  0.00    -0.097 F 
ATOM     12  F4  UNL d   1      -0.632  -3.497  -1.119  0.00  0.00    -0.092 F 
ENDROOT
TORSDOF 0
ENDMDL
