MODEL 1
REMARK minimizedAffinity 4.63267803
REMARK minimizedRMSD -1
REMARK  0 active torsions:
REMARK  status: ('A' for Active; 'I' for Inactive)
ROOT
ATOM      1  C   UNL d   1       1.161   3.224   0.995  0.00  0.00     0.124 A 
ATOM      2  C1  UNL d   1       2.135   2.381   0.478  0.00  0.00     0.062 A 
ATOM      3  C2  UNL d   1       1.776   1.163  -0.092  0.00  0.00     0.162 A 
ATOM      4  C3  UNL d   1       0.436   0.780  -0.148  0.00  0.00    -0.034 A 
ATOM      5  C4  UNL d   1      -0.538   1.633   0.375  0.00  0.00     0.162 A 
ATOM      6  C5  UNL d   1      -0.174   2.849   0.943  0.00  0.00     0.062 A 
ATOM      7  F   UNL d   1      -1.116   3.662   1.443  0.00  0.00    -0.097 F 
ATOM      8  F1  UNL d   1      -1.835   1.296   0.337  0.00  0.00    -0.096 F 
ATOM      9  I   UNL d   1      -0.105  -1.040  -1.000  0.00  0.00    -0.060 I 
ATOM     10  F2  UNL d   1       2.739   0.369  -0.584  0.00  0.00    -0.096 F 
ATOM     11  F3  UNL d   1       3.426   2.741   0.527  0.00  0.00    -0.097 F 
ATOM     12  F4  UNL d   1       1.510   4.395   1.544  0.00  0.00    -0.092 F 
ENDROOT
TORSDOF 0
ENDMDL
