MODEL 1
REMARK minimizedAffinity -1.70650029
REMARK minimizedRMSD -1
REMARK  0 active torsions:
REMARK  status: ('A' for Active; 'I' for Inactive)
ROOT
ATOM      1  C   UNL d   1      -0.519  -2.295  -1.063  0.00  0.00     0.124 A 
ATOM      2  C1  UNL d   1      -0.156  -1.365  -2.027  0.00  0.00     0.062 A 
ATOM      3  C2  UNL d   1       0.056  -0.036  -1.673  0.00  0.00     0.162 A 
ATOM      4  C3  UNL d   1      -0.095   0.372  -0.348  0.00  0.00    -0.034 A 
ATOM      5  C4  UNL d   1      -0.462  -0.568   0.616  0.00  0.00     0.162 A 
ATOM      6  C5  UNL d   1      -0.672  -1.896   0.258  0.00  0.00     0.062 A 
ATOM      7  F   UNL d   1      -1.024  -2.792   1.191  0.00  0.00    -0.097 F 
ATOM      8  F1  UNL d   1      -0.616  -0.210   1.900  0.00  0.00    -0.096 F 
ATOM      9  I   UNL d   1       0.220   2.359   0.185  0.00  0.00    -0.060 I 
ATOM     10  F2  UNL d   1       0.407   0.841  -2.626  0.00  0.00    -0.096 F 
ATOM     11  F3  UNL d   1      -0.008  -1.748  -3.303  0.00  0.00    -0.097 F 
ATOM     12  F4  UNL d   1      -0.723  -3.573  -1.406  0.00  0.00    -0.092 F 
ENDROOT
TORSDOF 0
ENDMDL
