MODEL 1
REMARK minimizedAffinity -1.39894521
REMARK minimizedRMSD -1
REMARK  0 active torsions:
REMARK  status: ('A' for Active; 'I' for Inactive)
ROOT
ATOM      1  C   UNL d   1      -0.874  -0.298   0.628  0.00  0.00     0.124 A 
ATOM      2  C1  UNL d   1      -1.020  -1.678   0.603  0.00  0.00     0.062 A 
ATOM      3  C2  UNL d   1      -0.735  -2.391  -0.558  0.00  0.00     0.162 A 
ATOM      4  C3  UNL d   1      -0.300  -1.725  -1.704  0.00  0.00    -0.034 A 
ATOM      5  C4  UNL d   1      -0.157  -0.337  -1.671  0.00  0.00     0.162 A 
ATOM      6  C5  UNL d   1      -0.443   0.371  -0.509  0.00  0.00     0.062 A 
ATOM      7  F   UNL d   1      -0.302   1.705  -0.486  0.00  0.00    -0.097 F 
ATOM      8  F1  UNL d   1       0.259   0.335  -2.755  0.00  0.00    -0.096 F 
ATOM      9  I   UNL d   1       0.127  -2.788  -3.441  0.00  0.00    -0.060 I 
ATOM     10  F2  UNL d   1      -0.884  -3.724  -0.553  0.00  0.00    -0.096 F 
ATOM     11  F3  UNL d   1      -1.437  -2.326   1.700  0.00  0.00    -0.097 F 
ATOM     12  F4  UNL d   1      -1.150   0.386   1.746  0.00  0.00    -0.092 F 
ENDROOT
TORSDOF 0
ENDMDL
