MODEL 1
REMARK minimizedAffinity -1.65334082
REMARK minimizedRMSD -1
REMARK  0 active torsions:
REMARK  status: ('A' for Active; 'I' for Inactive)
ROOT
ATOM      1  C   UNL d   1      -0.707  -2.536  -0.602  0.00  0.00     0.124 A 
ATOM      2  C1  UNL d   1      -0.234  -1.839  -1.705  0.00  0.00     0.062 A 
ATOM      3  C2  UNL d   1       0.128  -0.500  -1.584  0.00  0.00     0.162 A 
ATOM      4  C3  UNL d   1       0.020   0.150  -0.355  0.00  0.00    -0.034 A 
ATOM      5  C4  UNL d   1      -0.458  -0.558   0.750  0.00  0.00     0.162 A 
ATOM      6  C5  UNL d   1      -0.819  -1.895   0.624  0.00  0.00     0.062 A 
ATOM      7  F   UNL d   1      -1.276  -2.567   1.691  0.00  0.00    -0.097 F 
ATOM      8  F1  UNL d   1      -0.575   0.037   1.947  0.00  0.00    -0.096 F 
ATOM      9  I   UNL d   1       0.561   2.151  -0.170  0.00  0.00    -0.060 I 
ATOM     10  F2  UNL d   1       0.583   0.149  -2.666  0.00  0.00    -0.096 F 
ATOM     11  F3  UNL d   1      -0.126  -2.456  -2.890  0.00  0.00    -0.097 F 
ATOM     12  F4  UNL d   1      -1.056  -3.824  -0.721  0.00  0.00    -0.092 F 
ENDROOT
TORSDOF 0
ENDMDL
