MODEL 1
REMARK minimizedAffinity -0.111388043
REMARK minimizedRMSD -1
REMARK  0 active torsions:
REMARK  status: ('A' for Active; 'I' for Inactive)
ROOT
ATOM      1  C   UNL d   1      -0.796  -2.689  -1.007  0.00  0.00     0.124 A 
ATOM      2  C1  UNL d   1      -0.027  -2.036  -1.960  0.00  0.00     0.062 A 
ATOM      3  C2  UNL d   1       0.407  -0.733  -1.736  0.00  0.00     0.162 A 
ATOM      4  C3  UNL d   1       0.075  -0.074  -0.553  0.00  0.00    -0.034 A 
ATOM      5  C4  UNL d   1      -0.700  -0.737   0.401  0.00  0.00     0.162 A 
ATOM      6  C5  UNL d   1      -1.131  -2.039   0.173  0.00  0.00     0.062 A 
ATOM      7  F   UNL d   1      -1.874  -2.669   1.095  0.00  0.00    -0.097 F 
ATOM      8  F1  UNL d   1      -1.038  -0.133   1.550  0.00  0.00    -0.096 F 
ATOM      9  I   UNL d   1       0.722   1.875  -0.214  0.00  0.00    -0.060 I 
ATOM     10  F2  UNL d   1       1.149  -0.126  -2.675  0.00  0.00    -0.096 F 
ATOM     11  F3  UNL d   1       0.298  -2.662  -3.101  0.00  0.00    -0.097 F 
ATOM     12  F4  UNL d   1      -1.213  -3.943  -1.225  0.00  0.00    -0.092 F 
ENDROOT
TORSDOF 0
ENDMDL
