MODEL 1
REMARK minimizedAffinity -0.300475806
REMARK minimizedRMSD -1
REMARK  0 active torsions:
REMARK  status: ('A' for Active; 'I' for Inactive)
ROOT
ATOM      1  C   UNL d   1      -0.310  -2.555  -0.809  0.00  0.00     0.124 A 
ATOM      2  C1  UNL d   1      -0.198  -2.159   0.517  0.00  0.00     0.062 A 
ATOM      3  C2  UNL d   1      -0.022  -0.815   0.833  0.00  0.00     0.162 A 
ATOM      4  C3  UNL d   1       0.043   0.144  -0.178  0.00  0.00    -0.034 A 
ATOM      5  C4  UNL d   1      -0.070  -0.263  -1.509  0.00  0.00     0.162 A 
ATOM      6  C5  UNL d   1      -0.246  -1.607  -1.820  0.00  0.00     0.062 A 
ATOM      7  F   UNL d   1      -0.354  -1.988  -3.101  0.00  0.00    -0.097 F 
ATOM      8  F1  UNL d   1      -0.013   0.632  -2.506  0.00  0.00    -0.096 F 
ATOM      9  I   UNL d   1       0.306   2.154   0.290  0.00  0.00    -0.060 I 
ATOM     10  F2  UNL d   1       0.084  -0.460   2.122  0.00  0.00    -0.096 F 
ATOM     11  F3  UNL d   1      -0.258  -3.073   1.496  0.00  0.00    -0.097 F 
ATOM     12  F4  UNL d   1      -0.478  -3.849  -1.110  0.00  0.00    -0.092 F 
ENDROOT
TORSDOF 0
ENDMDL
