MODEL 1
REMARK minimizedAffinity 2.93834591
REMARK minimizedRMSD -1
REMARK  0 active torsions:
REMARK  status: ('A' for Active; 'I' for Inactive)
ROOT
ATOM      1  C   UNL d   1      -0.783  -0.211   1.082  0.00  0.00     0.124 A 
ATOM      2  C1  UNL d   1      -0.379   0.501  -0.039  0.00  0.00     0.062 A 
ATOM      3  C2  UNL d   1      -0.202  -0.150  -1.256  0.00  0.00     0.162 A 
ATOM      4  C3  UNL d   1      -0.429  -1.522  -1.360  0.00  0.00    -0.034 A 
ATOM      5  C4  UNL d   1      -0.834  -2.232  -0.228  0.00  0.00     0.162 A 
ATOM      6  C5  UNL d   1      -1.010  -1.577   0.986  0.00  0.00     0.062 A 
ATOM      7  F   UNL d   1      -1.400  -2.267   2.068  0.00  0.00    -0.097 F 
ATOM      8  F1  UNL d   1      -1.061  -3.553  -0.293  0.00  0.00    -0.096 F 
ATOM      9  I   UNL d   1      -0.165  -2.500  -3.178  0.00  0.00    -0.060 I 
ATOM     10  F2  UNL d   1       0.188   0.564  -2.323  0.00  0.00    -0.096 F 
ATOM     11  F3  UNL d   1      -0.159   1.821   0.051  0.00  0.00    -0.097 F 
ATOM     12  F4  UNL d   1      -0.952   0.418   2.252  0.00  0.00    -0.092 F 
ENDROOT
TORSDOF 0
ENDMDL
