MODEL 1
REMARK minimizedAffinity -2.51086879
REMARK minimizedRMSD -1
REMARK  0 active torsions:
REMARK  status: ('A' for Active; 'I' for Inactive)
ROOT
ATOM      1  C   UNL d   1      -0.402  -1.584  -2.329  0.00  0.00     0.124 A 
ATOM      2  C1  UNL d   1      -0.195  -0.250  -2.004  0.00  0.00     0.062 A 
ATOM      3  C2  UNL d   1      -0.384   0.189  -0.697  0.00  0.00     0.162 A 
ATOM      4  C3  UNL d   1      -0.780  -0.707   0.296  0.00  0.00    -0.034 A 
ATOM      5  C4  UNL d   1      -0.987  -2.046  -0.039  0.00  0.00     0.162 A 
ATOM      6  C5  UNL d   1      -0.797  -2.480  -1.346  0.00  0.00     0.062 A 
ATOM      7  F   UNL d   1      -0.997  -3.769  -1.658  0.00  0.00    -0.097 F 
ATOM      8  F1  UNL d   1      -1.369  -2.934   0.892  0.00  0.00    -0.096 F 
ATOM      9  I   UNL d   1      -1.063  -0.054   2.252  0.00  0.00    -0.060 I 
ATOM     10  F2  UNL d   1      -0.177   1.483  -0.412  0.00  0.00    -0.096 F 
ATOM     11  F3  UNL d   1       0.186   0.618  -2.952  0.00  0.00    -0.097 F 
ATOM     12  F4  UNL d   1      -0.220  -2.004  -3.588  0.00  0.00    -0.092 F 
ENDROOT
TORSDOF 0
ENDMDL
