MODEL 1
REMARK minimizedAffinity 5.41755915
REMARK minimizedRMSD -1
REMARK  0 active torsions:
REMARK  status: ('A' for Active; 'I' for Inactive)
ROOT
ATOM      1  C   UNL d   1       1.847  -2.995   4.263  0.00  0.00     0.124 A 
ATOM      2  C1  UNL d   1       2.093  -4.141   3.519  0.00  0.00     0.062 A 
ATOM      3  C2  UNL d   1       1.907  -4.133   2.140  0.00  0.00     0.162 A 
ATOM      4  C3  UNL d   1       1.474  -2.975   1.494  0.00  0.00    -0.034 A 
ATOM      5  C4  UNL d   1       1.228  -1.827   2.249  0.00  0.00     0.162 A 
ATOM      6  C5  UNL d   1       1.415  -1.840   3.628  0.00  0.00     0.062 A 
ATOM      7  F   UNL d   1       1.176  -0.732   4.345  0.00  0.00    -0.097 F 
ATOM      8  F1  UNL d   1       0.810  -0.696   1.661  0.00  0.00    -0.096 F 
ATOM      9  I   UNL d   1       1.195  -2.959  -0.568  0.00  0.00    -0.060 I 
ATOM     10  F2  UNL d   1       2.153  -5.255   1.446  0.00  0.00    -0.096 F 
ATOM     11  F3  UNL d   1       2.510  -5.259   4.131  0.00  0.00    -0.097 F 
ATOM     12  F4  UNL d   1       2.025  -3.006   5.590  0.00  0.00    -0.092 F 
ENDROOT
TORSDOF 0
ENDMDL
