MODEL 1
REMARK minimizedAffinity 29.959837
REMARK minimizedRMSD -1
REMARK  0 active torsions:
REMARK  status: ('A' for Active; 'I' for Inactive)
ROOT
ATOM      1  C   UNL d   1       1.245   0.057   3.530  0.00  0.00     0.124 A 
ATOM      2  C1  UNL d   1       1.318  -1.152   2.852  0.00  0.00     0.062 A 
ATOM      3  C2  UNL d   1       1.916  -1.215   1.597  0.00  0.00     0.162 A 
ATOM      4  C3  UNL d   1       2.447  -0.066   1.011  0.00  0.00    -0.034 A 
ATOM      5  C4  UNL d   1       2.369   1.146   1.699  0.00  0.00     0.162 A 
ATOM      6  C5  UNL d   1       1.770   1.204   2.953  0.00  0.00     0.062 A 
ATOM      7  F   UNL d   1       1.701   2.373   3.607  0.00  0.00    -0.097 F 
ATOM      8  F1  UNL d   1       2.870   2.270   1.165  0.00  0.00    -0.096 F 
ATOM      9  I   UNL d   1       3.342  -0.157  -0.865  0.00  0.00    -0.060 I 
ATOM     10  F2  UNL d   1       1.972  -2.397   0.965  0.00  0.00    -0.096 F 
ATOM     11  F3  UNL d   1       0.810  -2.262   3.407  0.00  0.00    -0.097 F 
ATOM     12  F4  UNL d   1       0.668   0.115   4.738  0.00  0.00    -0.092 F 
ENDROOT
TORSDOF 0
ENDMDL
