MODEL 1
REMARK minimizedAffinity 21.7845726
REMARK minimizedRMSD -1
REMARK  0 active torsions:
REMARK  status: ('A' for Active; 'I' for Inactive)
ROOT
ATOM      1  C   UNL d   1       2.740   1.794   1.139  0.00  0.00     0.124 A 
ATOM      2  C1  UNL d   1       2.695   0.747   0.228  0.00  0.00     0.062 A 
ATOM      3  C2  UNL d   1       2.131  -0.472   0.591  0.00  0.00     0.162 A 
ATOM      4  C3  UNL d   1       1.607  -0.653   1.870  0.00  0.00    -0.034 A 
ATOM      5  C4  UNL d   1       1.656   0.404   2.782  0.00  0.00     0.162 A 
ATOM      6  C5  UNL d   1       2.221   1.621   2.415  0.00  0.00     0.062 A 
ATOM      7  F   UNL d   1       2.264   2.631   3.296  0.00  0.00    -0.097 F 
ATOM      8  F1  UNL d   1       1.161   0.264   4.020  0.00  0.00    -0.096 F 
ATOM      9  I   UNL d   1       0.762  -2.475   2.416  0.00  0.00    -0.060 I 
ATOM     10  F2  UNL d   1       2.101  -1.466  -0.310  0.00  0.00    -0.096 F 
ATOM     11  F3  UNL d   1       3.197   0.912  -1.004  0.00  0.00    -0.097 F 
ATOM     12  F4  UNL d   1       3.285   2.966   0.789  0.00  0.00    -0.092 F 
ENDROOT
TORSDOF 0
ENDMDL
