MODEL 1
REMARK minimizedAffinity 19.2084141
REMARK minimizedRMSD -1
REMARK  0 active torsions:
REMARK  status: ('A' for Active; 'I' for Inactive)
ROOT
ATOM      1  C   UNL d   1       1.296  -2.499   2.692  0.00  0.00     0.124 A 
ATOM      2  C1  UNL d   1       1.835  -3.627   3.296  0.00  0.00     0.062 A 
ATOM      3  C2  UNL d   1       3.170  -3.962   3.086  0.00  0.00     0.162 A 
ATOM      4  C3  UNL d   1       3.975  -3.169   2.268  0.00  0.00    -0.034 A 
ATOM      5  C4  UNL d   1       3.425  -2.037   1.664  0.00  0.00     0.162 A 
ATOM      6  C5  UNL d   1       2.091  -1.706   1.877  0.00  0.00     0.062 A 
ATOM      7  F   UNL d   1       1.572  -0.616   1.292  0.00  0.00    -0.097 F 
ATOM      8  F1  UNL d   1       4.171  -1.253   0.872  0.00  0.00    -0.096 F 
ATOM      9  I   UNL d   1       5.970  -3.668   1.952  0.00  0.00    -0.060 I 
ATOM     10  F2  UNL d   1       3.664  -5.057   3.682  0.00  0.00    -0.096 F 
ATOM     11  F3  UNL d   1       1.069  -4.395   4.083  0.00  0.00    -0.097 F 
ATOM     12  F4  UNL d   1       0.012  -2.179   2.895  0.00  0.00    -0.092 F 
ENDROOT
TORSDOF 0
ENDMDL
