MODEL 1
REMARK minimizedAffinity 25.435173
REMARK minimizedRMSD -1
REMARK  0 active torsions:
REMARK  status: ('A' for Active; 'I' for Inactive)
ROOT
ATOM      1  C   UNL d   1       1.237  -2.232   3.007  0.00  0.00     0.124 A 
ATOM      2  C1  UNL d   1       1.656  -3.091   4.014  0.00  0.00     0.062 A 
ATOM      3  C2  UNL d   1       3.002  -3.419   4.138  0.00  0.00     0.162 A 
ATOM      4  C3  UNL d   1       3.941  -2.888   3.254  0.00  0.00    -0.034 A 
ATOM      5  C4  UNL d   1       3.512  -2.026   2.243  0.00  0.00     0.162 A 
ATOM      6  C5  UNL d   1       2.165  -1.700   2.123  0.00  0.00     0.062 A 
ATOM      7  F   UNL d   1       1.762  -0.871   1.150  0.00  0.00    -0.097 F 
ATOM      8  F1  UNL d   1       4.388  -1.497   1.376  0.00  0.00    -0.096 F 
ATOM      9  I   UNL d   1       5.956  -3.376   3.437  0.00  0.00    -0.060 I 
ATOM     10  F2  UNL d   1       3.379  -4.252   5.120  0.00  0.00    -0.096 F 
ATOM     11  F3  UNL d   1       0.761  -3.607   4.868  0.00  0.00    -0.097 F 
ATOM     12  F4  UNL d   1      -0.060  -1.919   2.889  0.00  0.00    -0.092 F 
ENDROOT
TORSDOF 0
ENDMDL
