MODEL 1
REMARK minimizedAffinity 20.3163319
REMARK minimizedRMSD -1
REMARK  0 active torsions:
REMARK  status: ('A' for Active; 'I' for Inactive)
ROOT
ATOM      1  C   UNL d   1       3.386  -1.147   1.496  0.00  0.00     0.124 A 
ATOM      2  C1  UNL d   1       2.064  -1.281   1.895  0.00  0.00     0.062 A 
ATOM      3  C2  UNL d   1       1.680  -2.349   2.701  0.00  0.00     0.162 A 
ATOM      4  C3  UNL d   1       2.621  -3.292   3.115  0.00  0.00    -0.034 A 
ATOM      5  C4  UNL d   1       3.950  -3.151   2.709  0.00  0.00     0.162 A 
ATOM      6  C5  UNL d   1       4.328  -2.082   1.904  0.00  0.00     0.062 A 
ATOM      7  F   UNL d   1       5.606  -1.954   1.520  0.00  0.00    -0.097 F 
ATOM      8  F1  UNL d   1       4.880  -4.039   3.089  0.00  0.00    -0.096 F 
ATOM      9  I   UNL d   1       2.052  -4.890   4.320  0.00  0.00    -0.060 I 
ATOM     10  F2  UNL d   1       0.395  -2.454   3.071  0.00  0.00    -0.096 F 
ATOM     11  F3  UNL d   1       1.152  -0.380   1.502  0.00  0.00    -0.097 F 
ATOM     12  F4  UNL d   1       3.752  -0.119   0.720  0.00  0.00    -0.092 F 
ENDROOT
TORSDOF 0
ENDMDL
