MODEL 1
REMARK minimizedAffinity -2.7751112
REMARK minimizedRMSD -1
REMARK  1 active torsions:
REMARK  status: ('A' for Active; 'I' for Inactive)
REMARK    1  A    between atoms: N_2  and  C1_3 
ROOT
ATOM      1  C1  UNL d   1       0.070   0.007  -0.121  0.00  0.00     0.143 A 
ATOM      2  C2  UNL d   1       0.628   1.245  -0.454  0.00  0.00    -0.057 A 
ATOM      3  C3  UNL d   1       1.344   1.422  -1.644  0.00  0.00     0.033 A 
ATOM      4  C4  UNL d   1       1.540   0.352  -2.511  0.00  0.00    -0.042 A 
ATOM      5  C5  UNL d   1       1.016  -0.894  -2.188  0.00  0.00     0.033 A 
ATOM      6  C6  UNL d   1       0.296  -1.063  -1.001  0.00  0.00    -0.057 A 
ENDROOT
BRANCH   1   7
ATOM      7  N   UNL d   1      -0.569  -0.257   1.093  0.00  0.00    -0.732 N 
ATOM      8  C   UNL d   1      -1.909   0.227   1.342  0.00  0.00     0.284 C 
ATOM      9  H3  UNL d   1      -0.402  -1.206   1.422  0.00  0.00     0.395 HD
ENDBRANCH   1   7
TORSDOF 1
ENDMDL
