MODEL 1
REMARK minimizedAffinity -3.01383853
REMARK minimizedRMSD -1
REMARK  1 active torsions:
REMARK  status: ('A' for Active; 'I' for Inactive)
REMARK    1  A    between atoms: N_2  and  C1_3 
ROOT
ATOM      1  C1  UNL d   1      -5.267   3.519  -5.903  0.00  0.00     0.143 A 
ATOM      2  C2  UNL d   1      -3.870   3.581  -5.926  0.00  0.00    -0.057 A 
ATOM      3  C3  UNL d   1      -3.198   4.809  -5.958  0.00  0.00     0.033 A 
ATOM      4  C4  UNL d   1      -3.915   6.000  -5.997  0.00  0.00    -0.042 A 
ATOM      5  C5  UNL d   1      -5.305   5.962  -6.000  0.00  0.00     0.033 A 
ATOM      6  C6  UNL d   1      -5.970   4.733  -5.961  0.00  0.00    -0.057 A 
ENDROOT
BRANCH   1   7
ATOM      7  N   UNL d   1      -5.994   2.328  -5.971  0.00  0.00    -0.732 N 
ATOM      8  C   UNL d   1      -5.364   1.061  -5.667  0.00  0.00     0.284 C 
ATOM      9  H3  UNL d   1      -6.935   2.425  -5.595  0.00  0.00     0.395 HD
ENDBRANCH   1   7
TORSDOF 1
ENDMDL
