MODEL 1
REMARK minimizedAffinity -3.98467278
REMARK minimizedRMSD -1
REMARK  1 active torsions:
REMARK  status: ('A' for Active; 'I' for Inactive)
REMARK    1  A    between atoms: N_2  and  C1_3 
ROOT
ATOM      1  C1  UNL d   1      -1.353   0.537   1.574  0.00  0.00     0.143 A 
ATOM      2  C2  UNL d   1      -1.349   1.747   2.276  0.00  0.00    -0.057 A 
ATOM      3  C3  UNL d   1      -2.544   2.383   2.635  0.00  0.00     0.033 A 
ATOM      4  C4  UNL d   1      -3.768   1.832   2.271  0.00  0.00    -0.042 A 
ATOM      5  C5  UNL d   1      -3.796   0.642   1.552  0.00  0.00     0.033 A 
ATOM      6  C6  UNL d   1      -2.600   0.009   1.203  0.00  0.00    -0.057 A 
ENDROOT
BRANCH   1   7
ATOM      7  N   UNL d   1      -0.199  -0.093   1.103  0.00  0.00    -0.732 N 
ATOM      8  C   UNL d   1       0.701   0.595   0.202  0.00  0.00     0.284 C 
ATOM      9  H3  UNL d   1       0.270  -0.635   1.826  0.00  0.00     0.395 HD
ENDBRANCH   1   7
TORSDOF 1
ENDMDL
