MODEL 1
REMARK minimizedAffinity -3.25550604
REMARK minimizedRMSD -1
REMARK  1 active torsions:
REMARK  status: ('A' for Active; 'I' for Inactive)
REMARK    1  A    between atoms: N_2  and  C1_3 
ROOT
ATOM      1  C1  UNL d   1      -0.055   0.074  -0.201  0.00  0.00     0.143 A 
ATOM      2  C2  UNL d   1       1.282   0.485  -0.218  0.00  0.00    -0.057 A 
ATOM      3  C3  UNL d   1       2.016   0.519  -1.410  0.00  0.00     0.033 A 
ATOM      4  C4  UNL d   1       1.432   0.114  -2.605  0.00  0.00    -0.042 A 
ATOM      5  C5  UNL d   1       0.111  -0.322  -2.608  0.00  0.00     0.033 A 
ATOM      6  C6  UNL d   1      -0.618  -0.347  -1.415  0.00  0.00    -0.057 A 
ENDROOT
BRANCH   1   7
ATOM      7  N   UNL d   1      -0.807  -0.075   0.967  0.00  0.00    -0.732 N 
ATOM      8  C   UNL d   1      -2.144   0.473   1.058  0.00  0.00     0.284 C 
ATOM      9  H3  UNL d   1      -0.709  -1.001   1.376  0.00  0.00     0.395 HD
ENDBRANCH   1   7
TORSDOF 1
ENDMDL
