MODEL 1
REMARK minimizedAffinity -3.47977471
REMARK minimizedRMSD -1
REMARK  1 active torsions:
REMARK  status: ('A' for Active; 'I' for Inactive)
REMARK    1  A    between atoms: N_2  and  C1_3 
ROOT
ATOM      1  C1  UNL d   1       0.173   0.089   0.018  0.00  0.00     0.143 A 
ATOM      2  C2  UNL d   1       1.483   0.532  -0.191  0.00  0.00    -0.057 A 
ATOM      3  C3  UNL d   1       1.961   0.804  -1.478  0.00  0.00     0.033 A 
ATOM      4  C4  UNL d   1       1.142   0.609  -2.586  0.00  0.00    -0.042 A 
ATOM      5  C5  UNL d   1      -0.156   0.146  -2.404  0.00  0.00     0.033 A 
ATOM      6  C6  UNL d   1      -0.629  -0.118  -1.115  0.00  0.00    -0.057 A 
ENDROOT
BRANCH   1   7
ATOM      7  N   UNL d   1      -0.329  -0.293   1.265  0.00  0.00    -0.732 N 
ATOM      8  C   UNL d   1      -1.618   0.185   1.719  0.00  0.00     0.284 C 
ATOM      9  H3  UNL d   1      -0.154  -1.274   1.470  0.00  0.00     0.395 HD
ENDBRANCH   1   7
TORSDOF 1
ENDMDL
