MODEL 1
REMARK minimizedAffinity -3.33838773
REMARK minimizedRMSD -1
REMARK  1 active torsions:
REMARK  status: ('A' for Active; 'I' for Inactive)
REMARK    1  A    between atoms: N_2  and  C1_3 
ROOT
ATOM      1  C1  UNL d   1       0.528  -0.954  -0.259  0.00  0.00     0.143 A 
ATOM      2  C2  UNL d   1       0.541  -1.726  -1.426  0.00  0.00    -0.057 A 
ATOM      3  C3  UNL d   1       1.149  -1.261  -2.598  0.00  0.00     0.033 A 
ATOM      4  C4  UNL d   1       1.734   0.000  -2.632  0.00  0.00    -0.042 A 
ATOM      5  C5  UNL d   1       1.711   0.796  -1.492  0.00  0.00     0.033 A 
ATOM      6  C6  UNL d   1       1.108   0.323  -0.323  0.00  0.00    -0.057 A 
ENDROOT
BRANCH   1   7
ATOM      7  N   UNL d   1      -0.147  -1.319   0.908  0.00  0.00    -0.732 N 
ATOM      8  C   UNL d   1      -1.183  -0.470   1.456  0.00  0.00     0.284 C 
ATOM      9  H3  UNL d   1      -0.364  -2.312   0.937  0.00  0.00     0.395 HD
ENDBRANCH   1   7
TORSDOF 1
ENDMDL
