MODEL 1
REMARK minimizedAffinity -4.08627605
REMARK minimizedRMSD -1
REMARK  1 active torsions:
REMARK  status: ('A' for Active; 'I' for Inactive)
REMARK    1  A    between atoms: N_2  and  C1_3 
ROOT
ATOM      1  C1  UNL d   1      -4.294   3.234  -5.544  0.00  0.00     0.143 A 
ATOM      2  C2  UNL d   1      -3.003   3.711  -5.288  0.00  0.00    -0.057 A 
ATOM      3  C3  UNL d   1      -2.717   5.081  -5.314  0.00  0.00     0.033 A 
ATOM      4  C4  UNL d   1      -3.714   6.000  -5.625  0.00  0.00    -0.042 A 
ATOM      5  C5  UNL d   1      -4.998   5.547  -5.907  0.00  0.00     0.033 A 
ATOM      6  C6  UNL d   1      -5.279   4.178  -5.874  0.00  0.00    -0.057 A 
ENDROOT
BRANCH   1   7
ATOM      7  N   UNL d   1      -4.619   1.878  -5.630  0.00  0.00    -0.732 N 
ATOM      8  C   UNL d   1      -5.961   1.463  -5.980  0.00  0.00     0.284 C 
ATOM      9  H3  UNL d   1      -3.885   1.330  -6.074  0.00  0.00     0.395 HD
ENDBRANCH   1   7
TORSDOF 1
ENDMDL
