MODEL 1
REMARK minimizedAffinity -3.99306369
REMARK minimizedRMSD -1
REMARK  1 active torsions:
REMARK  status: ('A' for Active; 'I' for Inactive)
REMARK    1  A    between atoms: N_2  and  C1_3 
ROOT
ATOM      1  C1  UNL d   1      -2.999   2.213   2.661  0.00  0.00     0.143 A 
ATOM      2  C2  UNL d   1      -2.177   1.105   2.890  0.00  0.00    -0.057 A 
ATOM      3  C3  UNL d   1      -2.545  -0.175   2.457  0.00  0.00     0.033 A 
ATOM      4  C4  UNL d   1      -3.761  -0.374   1.811  0.00  0.00    -0.042 A 
ATOM      5  C5  UNL d   1      -4.606   0.709   1.595  0.00  0.00     0.033 A 
ATOM      6  C6  UNL d   1      -4.229   1.985   2.024  0.00  0.00    -0.057 A 
ENDROOT
BRANCH   1   7
ATOM      7  N   UNL d   1      -2.734   3.493   3.153  0.00  0.00    -0.732 N 
ATOM      8  C   UNL d   1      -1.971   3.672   4.370  0.00  0.00     0.284 C 
ATOM      9  H3  UNL d   1      -2.499   4.152   2.415  0.00  0.00     0.395 HD
ENDBRANCH   1   7
TORSDOF 1
ENDMDL
