MODEL 1
REMARK minimizedAffinity -3.475986
REMARK minimizedRMSD -1
REMARK  1 active torsions:
REMARK  status: ('A' for Active; 'I' for Inactive)
REMARK    1  A    between atoms: N_2  and  C1_3 
ROOT
ATOM      1  C1  UNL d   1      -0.101  -1.074  -0.857  0.00  0.00     0.143 A 
ATOM      2  C2  UNL d   1       0.342  -0.192  -1.848  0.00  0.00    -0.057 A 
ATOM      3  C3  UNL d   1       1.216  -0.615  -2.857  0.00  0.00     0.033 A 
ATOM      4  C4  UNL d   1       1.687  -1.924  -2.875  0.00  0.00    -0.042 A 
ATOM      5  C5  UNL d   1       1.279  -2.811  -1.885  0.00  0.00     0.033 A 
ATOM      6  C6  UNL d   1       0.401  -2.385  -0.884  0.00  0.00    -0.057 A 
ENDROOT
BRANCH   1   7
ATOM      7  N   UNL d   1      -0.892  -0.689   0.229  0.00  0.00    -0.732 N 
ATOM      8  C   UNL d   1      -0.326   0.080   1.317  0.00  0.00     0.284 C 
ATOM      9  H3  UNL d   1      -1.821  -0.387  -0.055  0.00  0.00     0.395 HD
ENDBRANCH   1   7
TORSDOF 1
ENDMDL
