MODEL 1
REMARK minimizedAffinity -4.12132406
REMARK minimizedRMSD -1
REMARK  1 active torsions:
REMARK  status: ('A' for Active; 'I' for Inactive)
REMARK    1  A    between atoms: N_2  and  C1_3 
ROOT
ATOM      1  C1  UNL d   1       0.109  -0.594  -0.561  0.00  0.00     0.143 A 
ATOM      2  C2  UNL d   1       0.343  -1.960  -0.748  0.00  0.00    -0.057 A 
ATOM      3  C3  UNL d   1       1.338  -2.413  -1.623  0.00  0.00     0.033 A 
ATOM      4  C4  UNL d   1       2.099  -1.504  -2.350  0.00  0.00    -0.042 A 
ATOM      5  C5  UNL d   1       1.867  -0.142  -2.199  0.00  0.00     0.033 A 
ATOM      6  C6  UNL d   1       0.876   0.304  -1.318  0.00  0.00    -0.057 A 
ENDROOT
BRANCH   1   7
ATOM      7  N   UNL d   1      -0.931  -0.083   0.220  0.00  0.00    -0.732 N 
ATOM      8  C   UNL d   1      -0.888  -0.184   1.663  0.00  0.00     0.284 C 
ATOM      9  H3  UNL d   1      -1.271   0.812  -0.124  0.00  0.00     0.395 HD
ENDBRANCH   1   7
TORSDOF 1
ENDMDL
