MODEL 1
REMARK minimizedAffinity 1.25353193
REMARK minimizedRMSD -1
REMARK  1 active torsions:
REMARK  status: ('A' for Active; 'I' for Inactive)
REMARK    1  A    between atoms: N_2  and  C1_3 
ROOT
ATOM      1  C1  UNL d   1       3.808  -0.765   3.898  0.00  0.00     0.143 A 
ATOM      2  C2  UNL d   1       3.391  -1.227   5.151  0.00  0.00    -0.057 A 
ATOM      3  C3  UNL d   1       4.265  -1.919   5.998  0.00  0.00     0.033 A 
ATOM      4  C4  UNL d   1       5.568  -2.188   5.593  0.00  0.00    -0.042 A 
ATOM      5  C5  UNL d   1       5.997  -1.761   4.341  0.00  0.00     0.033 A 
ATOM      6  C6  UNL d   1       5.122  -1.064   3.503  0.00  0.00    -0.057 A 
ENDROOT
BRANCH   1   7
ATOM      7  N   UNL d   1       2.959  -0.157   2.970  0.00  0.00    -0.732 N 
ATOM      8  C   UNL d   1       3.350   1.066   2.304  0.00  0.00     0.284 C 
ATOM      9  H3  UNL d   1       2.500  -0.833   2.363  0.00  0.00     0.395 HD
ENDBRANCH   1   7
TORSDOF 1
ENDMDL
