MODEL 1
REMARK minimizedAffinity 5.16948652
REMARK minimizedRMSD -1
REMARK  1 active torsions:
REMARK  status: ('A' for Active; 'I' for Inactive)
REMARK    1  A    between atoms: N_2  and  C1_3 
ROOT
ATOM      1  C1  UNL d   1       2.028   2.873   1.713  0.00  0.00     0.143 A 
ATOM      2  C2  UNL d   1       3.282   3.211   1.192  0.00  0.00    -0.057 A 
ATOM      3  C3  UNL d   1       3.429   4.265   0.282  0.00  0.00     0.033 A 
ATOM      4  C4  UNL d   1       2.318   4.982  -0.147  0.00  0.00    -0.042 A 
ATOM      5  C5  UNL d   1       1.059   4.647   0.338  0.00  0.00     0.033 A 
ATOM      6  C6  UNL d   1       0.918   3.599   1.252  0.00  0.00    -0.057 A 
ENDROOT
BRANCH   1   7
ATOM      7  N   UNL d   1       1.802   1.774   2.545  0.00  0.00    -0.732 N 
ATOM      8  C   UNL d   1       1.806   0.430   2.009  0.00  0.00     0.284 C 
ATOM      9  H3  UNL d   1       2.272   1.864   3.444  0.00  0.00     0.395 HD
ENDBRANCH   1   7
TORSDOF 1
ENDMDL
