MODEL 1
REMARK minimizedAffinity 5.65387869
REMARK minimizedRMSD -1
REMARK  1 active torsions:
REMARK  status: ('A' for Active; 'I' for Inactive)
REMARK    1  A    between atoms: N_2  and  C1_3 
ROOT
ATOM      1  C1  UNL d   1       2.312  -1.822   3.778  0.00  0.00     0.143 A 
ATOM      2  C2  UNL d   1       1.332  -2.558   4.452  0.00  0.00    -0.057 A 
ATOM      3  C3  UNL d   1       1.586  -3.856   4.910  0.00  0.00     0.033 A 
ATOM      4  C4  UNL d   1       2.820  -4.454   4.676  0.00  0.00    -0.042 A 
ATOM      5  C5  UNL d   1       3.801  -3.750   3.986  0.00  0.00     0.033 A 
ATOM      6  C6  UNL d   1       3.543  -2.451   3.537  0.00  0.00    -0.057 A 
ENDROOT
BRANCH   1   7
ATOM      7  N   UNL d   1       2.088  -0.564   3.212  0.00  0.00    -0.732 N 
ATOM      8  C   UNL d   1       2.929  -0.079   2.139  0.00  0.00     0.284 C 
ATOM      9  H3  UNL d   1       1.098  -0.365   3.087  0.00  0.00     0.395 HD
ENDBRANCH   1   7
TORSDOF 1
ENDMDL
