MODEL 1
REMARK minimizedAffinity 0.124794744
REMARK minimizedRMSD -1
REMARK  1 active torsions:
REMARK  status: ('A' for Active; 'I' for Inactive)
REMARK    1  A    between atoms: N_2  and  C1_3 
ROOT
ATOM      1  C1  UNL d   1       2.494  -1.732   2.818  0.00  0.00     0.143 A 
ATOM      2  C2  UNL d   1       2.580  -1.360   4.164  0.00  0.00    -0.057 A 
ATOM      3  C3  UNL d   1       2.493  -2.312   5.188  0.00  0.00     0.033 A 
ATOM      4  C4  UNL d   1       2.288  -3.653   4.882  0.00  0.00    -0.042 A 
ATOM      5  C5  UNL d   1       2.174  -4.043   3.552  0.00  0.00     0.033 A 
ATOM      6  C6  UNL d   1       2.269  -3.089   2.535  0.00  0.00    -0.057 A 
ENDROOT
BRANCH   1   7
ATOM      7  N   UNL d   1       2.475  -0.822   1.759  0.00  0.00    -0.732 N 
ATOM      8  C   UNL d   1       3.437   0.259   1.699  0.00  0.00     0.284 C 
ATOM      9  H3  UNL d   1       2.298  -1.271   0.864  0.00  0.00     0.395 HD
ENDBRANCH   1   7
TORSDOF 1
ENDMDL
