MODEL 1
REMARK minimizedAffinity 7.89525127
REMARK minimizedRMSD -1
REMARK  1 active torsions:
REMARK  status: ('A' for Active; 'I' for Inactive)
REMARK    1  A    between atoms: N_2  and  C1_3 
ROOT
ATOM      1  C1  UNL d   1       2.256  -0.249   2.977  0.00  0.00     0.143 A 
ATOM      2  C2  UNL d   1       2.740  -0.112   1.671  0.00  0.00    -0.057 A 
ATOM      3  C3  UNL d   1       3.226   1.114   1.202  0.00  0.00     0.033 A 
ATOM      4  C4  UNL d   1       3.210   2.236   2.024  0.00  0.00    -0.042 A 
ATOM      5  C5  UNL d   1       2.711   2.129   3.317  0.00  0.00     0.033 A 
ATOM      6  C6  UNL d   1       2.233   0.900   3.782  0.00  0.00    -0.057 A 
ENDROOT
BRANCH   1   7
ATOM      7  N   UNL d   1       1.668  -1.417   3.470  0.00  0.00    -0.732 N 
ATOM      8  C   UNL d   1       2.395  -2.283   4.374  0.00  0.00     0.284 C 
ATOM      9  H3  UNL d   1       0.690  -1.285   3.717  0.00  0.00     0.395 HD
ENDBRANCH   1   7
TORSDOF 1
ENDMDL
