MODEL 1
REMARK minimizedAffinity 0.758047044
REMARK minimizedRMSD -1
REMARK  1 active torsions:
REMARK  status: ('A' for Active; 'I' for Inactive)
REMARK    1  A    between atoms: N_2  and  C1_3 
ROOT
ATOM      1  C1  UNL d   1       2.171   2.094   0.689  0.00  0.00     0.143 A 
ATOM      2  C2  UNL d   1       0.977   2.656   1.153  0.00  0.00    -0.057 A 
ATOM      3  C3  UNL d   1       0.377   3.735   0.493  0.00  0.00     0.033 A 
ATOM      4  C4  UNL d   1       0.978   4.292  -0.631  0.00  0.00    -0.042 A 
ATOM      5  C5  UNL d   1       2.178   3.765  -1.096  0.00  0.00     0.033 A 
ATOM      6  C6  UNL d   1       2.769   2.683  -0.436  0.00  0.00    -0.057 A 
ENDROOT
BRANCH   1   7
ATOM      7  N   UNL d   1       2.867   1.085   1.358  0.00  0.00    -0.732 N 
ATOM      8  C   UNL d   1       2.166   0.139   2.199  0.00  0.00     0.284 C 
ATOM      9  H3  UNL d   1       3.596   0.669   0.782  0.00  0.00     0.395 HD
ENDBRANCH   1   7
TORSDOF 1
ENDMDL
