MODEL 1
REMARK minimizedAffinity 10.9591684
REMARK minimizedRMSD -1
REMARK  1 active torsions:
REMARK  status: ('A' for Active; 'I' for Inactive)
REMARK    1  A    between atoms: N_2  and  C1_3 
ROOT
ATOM      1  C1  UNL d   1      -5.381   2.726   2.499  0.00  0.00     0.143 A 
ATOM      2  C2  UNL d   1      -6.000   3.411   1.447  0.00  0.00    -0.057 A 
ATOM      3  C3  UNL d   1      -5.369   3.560   0.206  0.00  0.00     0.033 A 
ATOM      4  C4  UNL d   1      -4.091   3.049   0.004  0.00  0.00    -0.042 A 
ATOM      5  C5  UNL d   1      -3.446   2.387   1.043  0.00  0.00     0.033 A 
ATOM      6  C6  UNL d   1      -4.085   2.236   2.277  0.00  0.00    -0.057 A 
ENDROOT
BRANCH   1   7
ATOM      7  N   UNL d   1      -5.916   2.630   3.786  0.00  0.00    -0.732 N 
ATOM      8  C   UNL d   1      -5.874   3.761   4.688  0.00  0.00     0.284 C 
ATOM      9  H3  UNL d   1      -6.794   2.116   3.805  0.00  0.00     0.395 HD
ENDBRANCH   1   7
TORSDOF 1
ENDMDL
