MODEL 1
REMARK minimizedAffinity 6.21691322
REMARK minimizedRMSD -1
REMARK  1 active torsions:
REMARK  status: ('A' for Active; 'I' for Inactive)
REMARK    1  A    between atoms: N_2  and  C1_3 
ROOT
ATOM      1  C1  UNL d   1      -3.224   3.230   1.755  0.00  0.00     0.143 A 
ATOM      2  C2  UNL d   1      -3.707   2.738   2.972  0.00  0.00    -0.057 A 
ATOM      3  C3  UNL d   1      -5.081   2.651   3.227  0.00  0.00     0.033 A 
ATOM      4  C4  UNL d   1      -5.999   3.084   2.276  0.00  0.00    -0.042 A 
ATOM      5  C5  UNL d   1      -5.542   3.601   1.069  0.00  0.00     0.033 A 
ATOM      6  C6  UNL d   1      -4.168   3.679   0.818  0.00  0.00    -0.057 A 
ENDROOT
BRANCH   1   7
ATOM      7  N   UNL d   1      -1.870   3.433   1.481  0.00  0.00    -0.732 N 
ATOM      8  C   UNL d   1      -1.458   4.322   0.415  0.00  0.00     0.284 C 
ATOM      9  H3  UNL d   1      -1.309   3.511   2.326  0.00  0.00     0.395 HD
ENDBRANCH   1   7
TORSDOF 1
ENDMDL
