MODEL 1
REMARK minimizedAffinity 14.0907164
REMARK minimizedRMSD -1
REMARK  1 active torsions:
REMARK  status: ('A' for Active; 'I' for Inactive)
REMARK    1  A    between atoms: C1_2  and  C2_3 
ROOT
ATOM      1  C2  UNL d   1      -3.024   4.522   3.978  0.00  0.00    -0.081 A 
ATOM      2  C3  UNL d   1      -3.840   3.979   2.978  0.00  0.00     0.006 A 
ATOM      3  C4  UNL d   1      -3.649   2.666   2.543  0.00  0.00     0.002 A 
ATOM      4  C5  UNL d   1      -2.644   1.871   3.106  0.00  0.00    -0.080 A 
ATOM      5  C6  UNL d   1      -2.448   0.450   2.669  0.00  0.00     0.076 C 
ATOM      6  C7  UNL d   1      -1.818   2.419   4.093  0.00  0.00     0.002 A 
ATOM      7  C8  UNL d   1      -2.008   3.732   4.527  0.00  0.00     0.006 A 
ENDROOT
BRANCH   1   8
ATOM      8  C1  UNL d   1      -3.270   5.916   4.495  0.00  0.00     0.054 C 
ATOM      9  C   UNL d   1      -3.041   5.998   5.998  0.00  0.00     0.018 C 
ENDBRANCH   1   8
TORSDOF 1
ENDMDL
