MODEL 1
REMARK minimizedAffinity 9.05322552
REMARK minimizedRMSD -1
REMARK  1 active torsions:
REMARK  status: ('A' for Active; 'I' for Inactive)
REMARK    1  A    between atoms: C1_2  and  C2_3 
ROOT
ATOM      1  C2  UNL d   1      -3.068   4.477   4.004  0.00  0.00    -0.081 A 
ATOM      2  C3  UNL d   1      -4.012   4.078   3.050  0.00  0.00     0.006 A 
ATOM      3  C4  UNL d   1      -4.098   2.741   2.655  0.00  0.00     0.002 A 
ATOM      4  C5  UNL d   1      -3.248   1.780   3.213  0.00  0.00    -0.080 A 
ATOM      5  C6  UNL d   1      -3.350   0.336   2.820  0.00  0.00     0.076 C 
ATOM      6  C7  UNL d   1      -2.293   2.182   4.154  0.00  0.00     0.002 A 
ATOM      7  C8  UNL d   1      -2.207   3.519   4.548  0.00  0.00     0.006 A 
ENDROOT
BRANCH   1   8
ATOM      8  C1  UNL d   1      -3.017   5.907   4.480  0.00  0.00     0.054 C 
ATOM      9  C   UNL d   1      -3.000   5.984   6.000  0.00  0.00     0.018 C 
ENDBRANCH   1   8
TORSDOF 1
ENDMDL
