MODEL 1
REMARK minimizedAffinity 0.461888522
REMARK minimizedRMSD -1
REMARK  1 active torsions:
REMARK  status: ('A' for Active; 'I' for Inactive)
REMARK    1  A    between atoms: C1_2  and  C2_3 
ROOT
ATOM      1  C2  UNL d   1       5.158   5.446   1.146  0.00  0.00    -0.081 A 
ATOM      2  C3  UNL d   1       5.669   4.881  -0.028  0.00  0.00     0.006 A 
ATOM      3  C4  UNL d   1       4.912   4.879  -1.202  0.00  0.00     0.002 A 
ATOM      4  C5  UNL d   1       3.635   5.450  -1.223  0.00  0.00    -0.080 A 
ATOM      5  C6  UNL d   1       2.824   5.482  -2.484  0.00  0.00     0.076 C 
ATOM      6  C7  UNL d   1       3.116   5.999  -0.046  0.00  0.00     0.002 A 
ATOM      7  C8  UNL d   1       3.873   6.000   1.128  0.00  0.00     0.006 A 
ENDROOT
BRANCH   1   8
ATOM      8  C1  UNL d   1       5.997   5.507   2.396  0.00  0.00     0.054 C 
ATOM      9  C   UNL d   1       5.138   5.756   3.628  0.00  0.00     0.018 C 
ENDBRANCH   1   8
TORSDOF 1
ENDMDL
