MODEL 1
REMARK minimizedAffinity 26.4638672
REMARK minimizedRMSD -1
REMARK  1 active torsions:
REMARK  status: ('A' for Active; 'I' for Inactive)
REMARK    1  A    between atoms: C1_2  and  C2_3 
ROOT
ATOM      1  C2  UNL d   1       4.053  -0.540   2.348  0.00  0.00    -0.081 A 
ATOM      2  C3  UNL d   1       3.380  -1.407   3.218  0.00  0.00     0.006 A 
ATOM      3  C4  UNL d   1       4.003  -1.870   4.379  0.00  0.00     0.002 A 
ATOM      4  C5  UNL d   1       5.306  -1.469   4.694  0.00  0.00    -0.080 A 
ATOM      5  C6  UNL d   1       5.976  -1.935   5.952  0.00  0.00     0.076 C 
ATOM      6  C7  UNL d   1       5.985  -0.617   3.816  0.00  0.00     0.002 A 
ATOM      7  C8  UNL d   1       5.363  -0.154   2.654  0.00  0.00     0.006 A 
ENDROOT
BRANCH   1   8
ATOM      8  C1  UNL d   1       3.361   0.012   1.129  0.00  0.00     0.054 C 
ATOM      9  C   UNL d   1       3.685  -0.809  -0.111  0.00  0.00     0.018 C 
ENDBRANCH   1   8
TORSDOF 1
ENDMDL
