MODEL 1
REMARK minimizedAffinity 9.907794
REMARK minimizedRMSD -1
REMARK  1 active torsions:
REMARK  status: ('A' for Active; 'I' for Inactive)
REMARK    1  A    between atoms: C1_2  and  C2_3 
ROOT
ATOM      1  C2  UNL d   1      -1.928   4.817   3.477  0.00  0.00    -0.081 A 
ATOM      2  C3  UNL d   1      -2.718   3.987   2.672  0.00  0.00     0.006 A 
ATOM      3  C4  UNL d   1      -2.741   4.159   1.286  0.00  0.00     0.002 A 
ATOM      4  C5  UNL d   1      -1.970   5.158   0.682  0.00  0.00    -0.080 A 
ATOM      5  C6  UNL d   1      -1.962   5.333  -0.808  0.00  0.00     0.076 C 
ATOM      6  C7  UNL d   1      -1.195   5.998   1.488  0.00  0.00     0.002 A 
ATOM      7  C8  UNL d   1      -1.171   5.827   2.874  0.00  0.00     0.006 A 
ENDROOT
BRANCH   1   8
ATOM      8  C1  UNL d   1      -1.851   4.593   4.966  0.00  0.00     0.054 C 
ATOM      9  C   UNL d   1      -1.466   5.870   5.699  0.00  0.00     0.018 C 
ENDBRANCH   1   8
TORSDOF 1
ENDMDL
