MODEL 1
REMARK minimizedAffinity 10.8006802
REMARK minimizedRMSD -1
REMARK  1 active torsions:
REMARK  status: ('A' for Active; 'I' for Inactive)
REMARK    1  A    between atoms: C1_2  and  C2_3 
ROOT
ATOM      1  C2  UNL d   1       4.330   4.816   1.634  0.00  0.00    -0.081 A 
ATOM      2  C3  UNL d   1       5.584   4.436   2.125  0.00  0.00     0.006 A 
ATOM      3  C4  UNL d   1       5.991   4.822   3.405  0.00  0.00     0.002 A 
ATOM      4  C5  UNL d   1       5.147   5.588   4.216  0.00  0.00    -0.080 A 
ATOM      5  C6  UNL d   1       5.558   5.984   5.603  0.00  0.00     0.076 C 
ATOM      6  C7  UNL d   1       3.900   5.983   3.719  0.00  0.00     0.002 A 
ATOM      7  C8  UNL d   1       3.494   5.598   2.439  0.00  0.00     0.006 A 
ENDROOT
BRANCH   1   8
ATOM      8  C1  UNL d   1       3.862   4.347   0.280  0.00  0.00     0.054 C 
ATOM      9  C   UNL d   1       2.865   5.322  -0.330  0.00  0.00     0.018 C 
ENDBRANCH   1   8
TORSDOF 1
ENDMDL
