MODEL 1
REMARK minimizedAffinity 17.8403721
REMARK minimizedRMSD -1
REMARK  1 active torsions:
REMARK  status: ('A' for Active; 'I' for Inactive)
REMARK    1  A    between atoms: C1_2  and  C2_3 
ROOT
ATOM      1  C2  UNL d   1      -2.683   2.349   3.736  0.00  0.00    -0.081 A 
ATOM      2  C3  UNL d   1      -2.505   2.343   5.125  0.00  0.00     0.006 A 
ATOM      3  C4  UNL d   1      -2.628   3.525   5.860  0.00  0.00     0.002 A 
ATOM      4  C5  UNL d   1      -2.939   4.730   5.219  0.00  0.00    -0.080 A 
ATOM      5  C6  UNL d   1      -3.104   6.000   6.000  0.00  0.00     0.076 C 
ATOM      6  C7  UNL d   1      -3.099   4.739   3.830  0.00  0.00     0.002 A 
ATOM      7  C8  UNL d   1      -2.975   3.558   3.095  0.00  0.00     0.006 A 
ENDROOT
BRANCH   1   8
ATOM      8  C1  UNL d   1      -2.614   1.065   2.949  0.00  0.00     0.054 C 
ATOM      9  C   UNL d   1      -3.008  -0.130   3.806  0.00  0.00     0.018 C 
ENDBRANCH   1   8
TORSDOF 1
ENDMDL
