MODEL 1
REMARK minimizedAffinity 9.88589954
REMARK minimizedRMSD -1
REMARK  1 active torsions:
REMARK  status: ('A' for Active; 'I' for Inactive)
REMARK    1  A    between atoms: C1_2  and  C2_3 
ROOT
ATOM      1  C2  UNL d   1      -1.894   1.591  -1.610  0.00  0.00    -0.081 A 
ATOM      2  C3  UNL d   1      -1.895   0.344  -0.975  0.00  0.00     0.006 A 
ATOM      3  C4  UNL d   1      -0.915  -0.605  -1.276  0.00  0.00     0.002 A 
ATOM      4  C5  UNL d   1       0.085  -0.320  -2.212  0.00  0.00    -0.080 A 
ATOM      5  C6  UNL d   1       1.161  -1.318  -2.522  0.00  0.00     0.076 C 
ATOM      6  C7  UNL d   1       0.076   0.920  -2.859  0.00  0.00     0.002 A 
ATOM      7  C8  UNL d   1      -0.904   1.869  -2.559  0.00  0.00     0.006 A 
ENDROOT
BRANCH   1   8
ATOM      8  C1  UNL d   1      -2.911   2.641  -1.240  0.00  0.00     0.054 C 
ATOM      9  C   UNL d   1      -2.255   3.998  -1.030  0.00  0.00     0.018 C 
ENDBRANCH   1   8
TORSDOF 1
ENDMDL
