MODEL 1
REMARK minimizedAffinity 12.1912127
REMARK minimizedRMSD -1
REMARK  1 active torsions:
REMARK  status: ('A' for Active; 'I' for Inactive)
REMARK    1  A    between atoms: C1_2  and  C2_3 
ROOT
ATOM      1  C2  UNL d   1       1.793   3.609  -2.159  0.00  0.00    -0.081 A 
ATOM      2  C3  UNL d   1       2.253   2.705  -1.195  0.00  0.00     0.006 A 
ATOM      3  C4  UNL d   1       1.882   1.359  -1.251  0.00  0.00     0.002 A 
ATOM      4  C5  UNL d   1       1.051   0.895  -2.276  0.00  0.00    -0.080 A 
ATOM      5  C6  UNL d   1       0.669  -0.553  -2.366  0.00  0.00     0.076 C 
ATOM      6  C7  UNL d   1       0.577   1.802  -3.230  0.00  0.00     0.002 A 
ATOM      7  C8  UNL d   1       0.948   3.147  -3.174  0.00  0.00     0.006 A 
ENDROOT
BRANCH   1   8
ATOM      8  C1  UNL d   1       2.244   5.047  -2.139  0.00  0.00     0.054 C 
ATOM      9  C   UNL d   1       1.057   6.000  -2.149  0.00  0.00     0.018 C 
ENDBRANCH   1   8
TORSDOF 1
ENDMDL
