MODEL 1
REMARK minimizedAffinity -1.26490545
REMARK minimizedRMSD -1
REMARK  1 active torsions:
REMARK  status: ('A' for Active; 'I' for Inactive)
REMARK    1  A    between atoms: C1_2  and  C2_3 
ROOT
ATOM      1  C2  UNL d   1      -2.389   0.054   1.393  0.00  0.00    -0.081 A 
ATOM      2  C3  UNL d   1      -2.393  -0.545   0.127  0.00  0.00     0.006 A 
ATOM      3  C4  UNL d   1      -3.557  -1.134  -0.373  0.00  0.00     0.002 A 
ATOM      4  C5  UNL d   1      -4.736  -1.127   0.379  0.00  0.00    -0.080 A 
ATOM      5  C6  UNL d   1      -6.000  -1.729  -0.159  0.00  0.00     0.076 C 
ATOM      6  C7  UNL d   1      -4.727  -0.545   1.651  0.00  0.00     0.002 A 
ATOM      7  C8  UNL d   1      -3.564   0.044   2.152  0.00  0.00     0.006 A 
ENDROOT
BRANCH   1   8
ATOM      8  C1  UNL d   1      -1.153   0.747   1.908  0.00  0.00     0.054 C 
ATOM      9  C   UNL d   1      -1.499   1.769   2.982  0.00  0.00     0.018 C 
ENDBRANCH   1   8
TORSDOF 1
ENDMDL
