MODEL 1
REMARK minimizedAffinity 8.88587475
REMARK minimizedRMSD -1
REMARK  1 active torsions:
REMARK  status: ('A' for Active; 'I' for Inactive)
REMARK    1  A    between atoms: C1_2  and  C2_3 
ROOT
ATOM      1  C2  UNL d   1      -2.946  -0.038   2.384  0.00  0.00    -0.081 A 
ATOM      2  C3  UNL d   1      -2.618   0.099   3.738  0.00  0.00     0.006 A 
ATOM      3  C4  UNL d   1      -3.606  -0.008   4.720  0.00  0.00     0.002 A 
ATOM      4  C5  UNL d   1      -4.935  -0.261   4.365  0.00  0.00    -0.080 A 
ATOM      5  C6  UNL d   1      -6.000  -0.408   5.411  0.00  0.00     0.076 C 
ATOM      6  C7  UNL d   1      -5.266  -0.381   3.011  0.00  0.00     0.002 A 
ATOM      7  C8  UNL d   1      -4.279  -0.273   2.029  0.00  0.00     0.006 A 
ENDROOT
BRANCH   1   8
ATOM      8  C1  UNL d   1      -1.873   0.012   1.326  0.00  0.00     0.054 C 
ATOM      9  C   UNL d   1      -2.296  -0.738   0.072  0.00  0.00     0.018 C 
ENDBRANCH   1   8
TORSDOF 1
ENDMDL
