MODEL 1
REMARK minimizedAffinity -0.836550653
REMARK minimizedRMSD -1
REMARK  1 active torsions:
REMARK  status: ('A' for Active; 'I' for Inactive)
REMARK    1  A    between atoms: C1_2  and  C2_3 
ROOT
ATOM      1  C2  UNL d   1       5.323  -3.506  -4.400  0.00  0.00    -0.076 A 
ATOM      2  C3  UNL d   1       5.999  -4.688  -4.051  0.00  0.00     0.004 A 
ATOM      3  C4  UNL d   1       5.683  -5.901  -4.660  0.00  0.00    -0.003 A 
ATOM      4  C5  UNL d   1       4.686  -5.952  -5.628  0.00  0.00     0.000 A 
ATOM      5  C6  UNL d   1       4.018  -4.786  -5.999  0.00  0.00     0.000 A 
ATOM      6  C7  UNL d   1       4.335  -3.552  -5.407  0.00  0.00    -0.073 A 
ATOM      7  C8  UNL d   1       3.578  -2.327  -5.840  0.00  0.00     0.078 C 
ENDROOT
BRANCH   1   8
ATOM      8  C1  UNL d   1       5.690  -2.224  -3.686  0.00  0.00     0.053 C 
ATOM      9  C   UNL d   1       5.999  -1.089  -4.650  0.00  0.00     0.018 C 
ENDBRANCH   1   8
TORSDOF 1
ENDMDL
