MODEL 1
REMARK minimizedAffinity 11.4677286
REMARK minimizedRMSD -1
REMARK  1 active torsions:
REMARK  status: ('A' for Active; 'I' for Inactive)
REMARK    1  A    between atoms: C1_2  and  C2_3 
ROOT
ATOM      1  C2  UNL d   1       1.378  -4.514  -3.306  0.00  0.00    -0.076 A 
ATOM      2  C3  UNL d   1       2.086  -5.708  -3.081  0.00  0.00     0.004 A 
ATOM      3  C4  UNL d   1       3.247  -5.999  -3.795  0.00  0.00    -0.003 A 
ATOM      4  C5  UNL d   1       3.721  -5.100  -4.744  0.00  0.00     0.000 A 
ATOM      5  C6  UNL d   1       3.042  -3.903  -4.967  0.00  0.00     0.000 A 
ATOM      6  C7  UNL d   1       1.878  -3.587  -4.245  0.00  0.00    -0.073 A 
ATOM      7  C8  UNL d   1       1.183  -2.284  -4.531  0.00  0.00     0.078 C 
ENDROOT
BRANCH   1   8
ATOM      8  C1  UNL d   1       0.110  -4.265  -2.522  0.00  0.00     0.053 C 
ATOM      9  C   UNL d   1      -1.116  -4.155  -3.416  0.00  0.00     0.018 C 
ENDBRANCH   1   8
TORSDOF 1
ENDMDL
