MODEL 1
REMARK minimizedAffinity -4.13990068
REMARK minimizedRMSD -1
REMARK  1 active torsions:
REMARK  status: ('A' for Active; 'I' for Inactive)
REMARK    1  A    between atoms: C1_2  and  C2_3 
ROOT
ATOM      1  C2  UNL d   1      -1.079  -2.232   2.064  0.00  0.00    -0.076 A 
ATOM      2  C3  UNL d   1       0.038  -1.490   2.488  0.00  0.00     0.004 A 
ATOM      3  C4  UNL d   1       0.856  -0.836   1.569  0.00  0.00    -0.003 A 
ATOM      4  C5  UNL d   1       0.570  -0.912   0.210  0.00  0.00     0.000 A 
ATOM      5  C6  UNL d   1      -0.543  -1.629  -0.227  0.00  0.00     0.000 A 
ATOM      6  C7  UNL d   1      -1.387  -2.281   0.688  0.00  0.00    -0.073 A 
ATOM      7  C8  UNL d   1      -2.571  -3.045   0.161  0.00  0.00     0.078 C 
ENDROOT
BRANCH   1   8
ATOM      8  C1  UNL d   1      -1.914  -2.943   3.105  0.00  0.00     0.053 C 
ATOM      9  C   UNL d   1      -1.305  -2.860   4.497  0.00  0.00     0.018 C 
ENDBRANCH   1   8
TORSDOF 1
ENDMDL
