MODEL 1
REMARK minimizedAffinity 1.58653545
REMARK minimizedRMSD -1
REMARK  1 active torsions:
REMARK  status: ('A' for Active; 'I' for Inactive)
REMARK    1  A    between atoms: C1_2  and  C2_3 
ROOT
ATOM      1  C2  UNL d   1       1.072   2.185  -0.631  0.00  0.00    -0.076 A 
ATOM      2  C3  UNL d   1      -0.127   1.697  -0.082  0.00  0.00     0.004 A 
ATOM      3  C4  UNL d   1      -0.279   0.345   0.220  0.00  0.00    -0.003 A 
ATOM      4  C5  UNL d   1       0.765  -0.541  -0.022  0.00  0.00     0.000 A 
ATOM      5  C6  UNL d   1       1.968  -0.071  -0.550  0.00  0.00     0.000 A 
ATOM      6  C7  UNL d   1       2.143   1.292  -0.845  0.00  0.00    -0.073 A 
ATOM      7  C8  UNL d   1       3.458   1.743  -1.418  0.00  0.00     0.078 C 
ENDROOT
BRANCH   1   8
ATOM      8  C1  UNL d   1       1.169   3.657  -0.963  0.00  0.00     0.053 C 
ATOM      9  C   UNL d   1       0.410   4.020  -2.230  0.00  0.00     0.018 C 
ENDBRANCH   1   8
TORSDOF 1
ENDMDL
