MODEL 1
REMARK minimizedAffinity 12.2922611
REMARK minimizedRMSD -1
REMARK  1 active torsions:
REMARK  status: ('A' for Active; 'I' for Inactive)
REMARK    1  A    between atoms: C1_2  and  C2_3 
ROOT
ATOM      1  C2  UNL d   1       1.818  -0.126   0.737  0.00  0.00    -0.076 A 
ATOM      2  C3  UNL d   1       0.949  -1.020   1.385  0.00  0.00     0.004 A 
ATOM      3  C4  UNL d   1      -0.408  -0.733   1.518  0.00  0.00    -0.003 A 
ATOM      4  C5  UNL d   1      -0.919   0.454   1.004  0.00  0.00     0.000 A 
ATOM      5  C6  UNL d   1      -0.074   1.345   0.343  0.00  0.00     0.000 A 
ATOM      6  C7  UNL d   1       1.294   1.063   0.186  0.00  0.00    -0.073 A 
ATOM      7  C8  UNL d   1       2.160   2.063  -0.531  0.00  0.00     0.078 C 
ENDROOT
BRANCH   1   8
ATOM      8  C1  UNL d   1       3.286  -0.479   0.646  0.00  0.00     0.053 C 
ATOM      9  C   UNL d   1       4.044  -0.148   1.922  0.00  0.00     0.018 C 
ENDBRANCH   1   8
TORSDOF 1
ENDMDL
