MODEL 1
REMARK minimizedAffinity 4.47226763
REMARK minimizedRMSD -1
REMARK  1 active torsions:
REMARK  status: ('A' for Active; 'I' for Inactive)
REMARK    1  A    between atoms: C1_2  and  C2_3 
ROOT
ATOM      1  C2  UNL d   1       1.155   0.346   0.063  0.00  0.00    -0.076 A 
ATOM      2  C3  UNL d   1       2.446   0.605  -0.430  0.00  0.00     0.004 A 
ATOM      3  C4  UNL d   1       2.796   1.873  -0.890  0.00  0.00    -0.003 A 
ATOM      4  C5  UNL d   1       1.862   2.903  -0.865  0.00  0.00     0.000 A 
ATOM      5  C6  UNL d   1       0.583   2.668  -0.363  0.00  0.00     0.000 A 
ATOM      6  C7  UNL d   1       0.218   1.400   0.120  0.00  0.00    -0.073 A 
ATOM      7  C8  UNL d   1      -1.178   1.201   0.645  0.00  0.00     0.078 C 
ENDROOT
BRANCH   1   8
ATOM      8  C1  UNL d   1       0.823  -1.056   0.523  0.00  0.00     0.053 C 
ATOM      9  C   UNL d   1       0.175  -1.890  -0.571  0.00  0.00     0.018 C 
ENDBRANCH   1   8
TORSDOF 1
ENDMDL
