MODEL 1
REMARK minimizedAffinity 6.59047318
REMARK minimizedRMSD -1
REMARK  1 active torsions:
REMARK  status: ('A' for Active; 'I' for Inactive)
REMARK    1  A    between atoms: C1_2  and  C2_3 
ROOT
ATOM      1  C2  UNL d   1       0.058   3.268  -2.688  0.00  0.00    -0.076 A 
ATOM      2  C3  UNL d   1       0.381   2.117  -1.948  0.00  0.00     0.004 A 
ATOM      3  C4  UNL d   1       1.371   2.149  -0.969  0.00  0.00    -0.003 A 
ATOM      4  C5  UNL d   1       2.055   3.333  -0.712  0.00  0.00     0.000 A 
ATOM      5  C6  UNL d   1       1.735   4.488  -1.424  0.00  0.00     0.000 A 
ATOM      6  C7  UNL d   1       0.728   4.477  -2.404  0.00  0.00    -0.073 A 
ATOM      7  C8  UNL d   1       0.428   5.751  -3.146  0.00  0.00     0.078 C 
ENDROOT
BRANCH   1   8
ATOM      8  C1  UNL d   1      -1.007   3.167  -3.757  0.00  0.00     0.053 C 
ATOM      9  C   UNL d   1      -1.874   1.927  -3.600  0.00  0.00     0.018 C 
ENDBRANCH   1   8
TORSDOF 1
ENDMDL
