MODEL 1
REMARK minimizedAffinity 11.7822857
REMARK minimizedRMSD -1
REMARK  1 active torsions:
REMARK  status: ('A' for Active; 'I' for Inactive)
REMARK    1  A    between atoms: C1_2  and  C2_3 
ROOT
ATOM      1  C2  UNL d   1       2.831   0.591   0.605  0.00  0.00    -0.076 A 
ATOM      2  C3  UNL d   1       4.194   0.934   0.586  0.00  0.00     0.004 A 
ATOM      3  C4  UNL d   1       5.031   0.609   1.652  0.00  0.00    -0.003 A 
ATOM      4  C5  UNL d   1       4.518  -0.065   2.755  0.00  0.00     0.000 A 
ATOM      5  C6  UNL d   1       3.172  -0.429   2.783  0.00  0.00     0.000 A 
ATOM      6  C7  UNL d   1       2.319  -0.123   1.709  0.00  0.00    -0.073 A 
ATOM      7  C8  UNL d   1       0.874  -0.534   1.795  0.00  0.00     0.078 C 
ENDROOT
BRANCH   1   8
ATOM      8  C1  UNL d   1       1.966   0.994  -0.568  0.00  0.00     0.053 C 
ATOM      9  C   UNL d   1       2.361   2.344  -1.147  0.00  0.00     0.018 C 
ENDBRANCH   1   8
TORSDOF 1
ENDMDL
