MODEL 1
REMARK minimizedAffinity 3.99971509
REMARK minimizedRMSD -1
REMARK  1 active torsions:
REMARK  status: ('A' for Active; 'I' for Inactive)
REMARK    1  A    between atoms: C1_2  and  C2_3 
ROOT
ATOM      1  C2  UNL d   1      -4.972  -4.917   1.426  0.00  0.00    -0.076 A 
ATOM      2  C3  UNL d   1      -5.590  -5.993   0.766  0.00  0.00     0.004 A 
ATOM      3  C4  UNL d   1      -5.741  -5.994  -0.620  0.00  0.00    -0.003 A 
ATOM      4  C5  UNL d   1      -5.275  -4.919  -1.368  0.00  0.00     0.000 A 
ATOM      5  C6  UNL d   1      -4.643  -3.851  -0.732  0.00  0.00     0.000 A 
ATOM      6  C7  UNL d   1      -4.469  -3.842   0.663  0.00  0.00    -0.073 A 
ATOM      7  C8  UNL d   1      -3.786  -2.661   1.297  0.00  0.00     0.078 C 
ENDROOT
BRANCH   1   8
ATOM      8  C1  UNL d   1      -4.861  -4.959   2.933  0.00  0.00     0.053 C 
ATOM      9  C   UNL d   1      -5.794  -5.985   3.558  0.00  0.00     0.018 C 
ENDBRANCH   1   8
TORSDOF 1
ENDMDL
