MODEL 1
REMARK minimizedAffinity 7.98928499
REMARK minimizedRMSD -1
REMARK  1 active torsions:
REMARK  status: ('A' for Active; 'I' for Inactive)
REMARK    1  A    between atoms: C1_2  and  C2_3 
ROOT
ATOM      1  C2  UNL d   1       3.574   2.672  -0.953  0.00  0.00    -0.076 A 
ATOM      2  C3  UNL d   1       2.376   2.243  -1.552  0.00  0.00     0.004 A 
ATOM      3  C4  UNL d   1       1.149   2.784  -1.170  0.00  0.00    -0.003 A 
ATOM      4  C5  UNL d   1       1.100   3.764  -0.184  0.00  0.00     0.000 A 
ATOM      5  C6  UNL d   1       2.280   4.214   0.407  0.00  0.00     0.000 A 
ATOM      6  C7  UNL d   1       3.527   3.691   0.023  0.00  0.00    -0.073 A 
ATOM      7  C8  UNL d   1       4.767   4.208   0.699  0.00  0.00     0.078 C 
ENDROOT
BRANCH   1   8
ATOM      8  C1  UNL d   1       4.871   2.030  -1.389  0.00  0.00     0.053 C 
ATOM      9  C   UNL d   1       4.690   1.095  -2.574  0.00  0.00     0.018 C 
ENDBRANCH   1   8
TORSDOF 1
ENDMDL
