MODEL 1
REMARK minimizedAffinity -1.6491586
REMARK minimizedRMSD -1
REMARK  1 active torsions:
REMARK  status: ('A' for Active; 'I' for Inactive)
REMARK    1  A    between atoms: C1_2  and  C2_3 
ROOT
ATOM      1  C2  UNL d   1       0.162  -0.808   0.363  0.00  0.00    -0.076 A 
ATOM      2  C3  UNL d   1       1.534  -0.512   0.277  0.00  0.00     0.004 A 
ATOM      3  C4  UNL d   1       2.483  -1.530   0.197  0.00  0.00    -0.003 A 
ATOM      4  C5  UNL d   1       2.076  -2.859   0.202  0.00  0.00     0.000 A 
ATOM      5  C6  UNL d   1       0.718  -3.170   0.269  0.00  0.00     0.000 A 
ATOM      6  C7  UNL d   1      -0.253  -2.156   0.334  0.00  0.00    -0.073 A 
ATOM      7  C8  UNL d   1      -1.703  -2.549   0.411  0.00  0.00     0.078 C 
ENDROOT
BRANCH   1   8
ATOM      8  C1  UNL d   1      -0.820   0.337   0.475  0.00  0.00     0.053 C 
ATOM      9  C   UNL d   1      -0.347   1.584  -0.257  0.00  0.00     0.018 C 
ENDBRANCH   1   8
TORSDOF 1
ENDMDL
