MODEL 1
REMARK minimizedAffinity 6.78511095
REMARK minimizedRMSD -1
REMARK  1 active torsions:
REMARK  status: ('A' for Active; 'I' for Inactive)
REMARK    1  A    between atoms: C1_2  and  C2_3 
ROOT
ATOM      1  C2  UNL d   1      -5.174  -5.393  -2.436  0.00  0.00    -0.076 A 
ATOM      2  C3  UNL d   1      -5.774  -6.000  -1.319  0.00  0.00     0.004 A 
ATOM      3  C4  UNL d   1      -5.559  -5.507  -0.033  0.00  0.00    -0.003 A 
ATOM      4  C5  UNL d   1      -4.742  -4.398   0.156  0.00  0.00     0.000 A 
ATOM      5  C6  UNL d   1      -4.153  -3.772  -0.942  0.00  0.00     0.000 A 
ATOM      6  C7  UNL d   1      -4.373  -4.247  -2.247  0.00  0.00    -0.073 A 
ATOM      7  C8  UNL d   1      -3.708  -3.537  -3.395  0.00  0.00     0.078 C 
ENDROOT
BRANCH   1   8
ATOM      8  C1  UNL d   1      -5.422  -5.989  -3.804  0.00  0.00     0.053 C 
ATOM      9  C   UNL d   1      -4.171  -6.000  -4.669  0.00  0.00     0.018 C 
ENDBRANCH   1   8
TORSDOF 1
ENDMDL
