MODEL 1
REMARK minimizedAffinity 15.3030729
REMARK minimizedRMSD -1
REMARK  1 active torsions:
REMARK  status: ('A' for Active; 'I' for Inactive)
REMARK    1  A    between atoms: C1_2  and  C2_3 
ROOT
ATOM      1  C2  UNL d   1      -3.910  -3.909  -1.469  0.00  0.00    -0.076 A 
ATOM      2  C3  UNL d   1      -2.896  -3.294  -2.223  0.00  0.00     0.004 A 
ATOM      3  C4  UNL d   1      -2.148  -4.022  -3.148  0.00  0.00    -0.003 A 
ATOM      4  C5  UNL d   1      -2.402  -5.376  -3.333  0.00  0.00     0.000 A 
ATOM      5  C6  UNL d   1      -3.416  -5.999  -2.605  0.00  0.00     0.000 A 
ATOM      6  C7  UNL d   1      -4.190  -5.276  -1.681  0.00  0.00    -0.073 A 
ATOM      7  C8  UNL d   1      -5.267  -5.999  -0.919  0.00  0.00     0.078 C 
ENDROOT
BRANCH   1   8
ATOM      8  C1  UNL d   1      -4.669  -3.076  -0.461  0.00  0.00     0.053 C 
ATOM      9  C   UNL d   1      -4.226  -3.343   0.969  0.00  0.00     0.018 C 
ENDBRANCH   1   8
TORSDOF 1
ENDMDL
