MODEL 1
REMARK minimizedAffinity 12.0553989
REMARK minimizedRMSD -1
REMARK  1 active torsions:
REMARK  status: ('A' for Active; 'I' for Inactive)
REMARK    1  A    between atoms: C1_2  and  C2_3 
ROOT
ATOM      1  C2  UNL d   1      -0.289   4.068  -3.776  0.00  0.00    -0.076 A 
ATOM      2  C3  UNL d   1      -1.246   3.834  -4.779  0.00  0.00     0.004 A 
ATOM      3  C4  UNL d   1      -2.415   3.127  -4.504  0.00  0.00    -0.003 A 
ATOM      4  C5  UNL d   1      -2.647   2.643  -3.221  0.00  0.00     0.000 A 
ATOM      5  C6  UNL d   1      -1.717   2.881  -2.210  0.00  0.00     0.000 A 
ATOM      6  C7  UNL d   1      -0.541   3.607  -2.466  0.00  0.00    -0.073 A 
ATOM      7  C8  UNL d   1       0.430   3.829  -1.339  0.00  0.00     0.078 C 
ENDROOT
BRANCH   1   8
ATOM      8  C1  UNL d   1       0.973   4.818  -4.139  0.00  0.00     0.053 C 
ATOM      9  C   UNL d   1       1.833   4.061  -5.139  0.00  0.00     0.018 C 
ENDBRANCH   1   8
TORSDOF 1
ENDMDL
