MODEL 1
REMARK minimizedAffinity -2.06158185
REMARK minimizedRMSD -1
REMARK  0 active torsions:
REMARK  status: ('A' for Active; 'I' for Inactive)
ROOT
ATOM      1  C   UNL d   1       0.086  -1.764   1.567  0.00  0.00     0.124 A 
ATOM      2  C1  UNL d   1       0.729  -1.681   0.340  0.00  0.00     0.062 A 
ATOM      3  C2  UNL d   1       0.464  -0.617  -0.518  0.00  0.00     0.162 A 
ATOM      4  C3  UNL d   1      -0.448   0.373  -0.151  0.00  0.00    -0.034 A 
ATOM      5  C4  UNL d   1      -1.091   0.282   1.085  0.00  0.00     0.162 A 
ATOM      6  C5  UNL d   1      -0.823  -0.783   1.938  0.00  0.00     0.062 A 
ATOM      7  F   UNL d   1      -1.445  -0.862   3.124  0.00  0.00    -0.097 F 
ATOM      8  F1  UNL d   1      -1.973   1.217   1.469  0.00  0.00    -0.096 F 
ATOM      9  I   UNL d   1      -0.846   1.965  -1.431  0.00  0.00    -0.060 I 
ATOM     10  F2  UNL d   1       1.099  -0.562  -1.698  0.00  0.00    -0.096 F 
ATOM     11  F3  UNL d   1       1.606  -2.628  -0.022  0.00  0.00    -0.097 F 
ATOM     12  F4  UNL d   1       0.342  -2.789   2.390  0.00  0.00    -0.092 F 
ENDROOT
TORSDOF 0
ENDMDL
