MODEL 1
REMARK minimizedAffinity -4.54239559
REMARK minimizedRMSD -1
REMARK  0 active torsions:
REMARK  status: ('A' for Active; 'I' for Inactive)
ROOT
ATOM      1  C   UNL d   1       0.252  -2.243   1.835  0.00  0.00     0.124 A 
ATOM      2  C1  UNL d   1      -0.720  -1.342   2.246  0.00  0.00     0.062 A 
ATOM      3  C2  UNL d   1      -1.119  -0.309   1.404  0.00  0.00     0.162 A 
ATOM      4  C3  UNL d   1      -0.545  -0.171   0.139  0.00  0.00    -0.034 A 
ATOM      5  C4  UNL d   1       0.433  -1.080  -0.267  0.00  0.00     0.162 A 
ATOM      6  C5  UNL d   1       0.828  -2.111   0.579  0.00  0.00     0.062 A 
ATOM      7  F   UNL d   1       1.768  -2.981   0.179  0.00  0.00    -0.097 F 
ATOM      8  F1  UNL d   1       1.005  -0.977  -1.476  0.00  0.00    -0.096 F 
ATOM      9  I   UNL d   1      -1.138   1.373  -1.124  0.00  0.00    -0.060 I 
ATOM     10  F2  UNL d   1      -2.060   0.547   1.827  0.00  0.00    -0.096 F 
ATOM     11  F3  UNL d   1      -1.277  -1.467   3.460  0.00  0.00    -0.097 F 
ATOM     12  F4  UNL d   1       0.635  -3.236   2.648  0.00  0.00    -0.092 F 
ENDROOT
TORSDOF 0
ENDMDL
