MODEL 1
REMARK minimizedAffinity 2.57444572
REMARK minimizedRMSD -1
REMARK  0 active torsions:
REMARK  status: ('A' for Active; 'I' for Inactive)
ROOT
ATOM      1  C   UNL d   1       0.439  -1.790   1.981  0.00  0.00     0.124 A 
ATOM      2  C1  UNL d   1      -0.689  -1.027   2.252  0.00  0.00     0.062 A 
ATOM      3  C2  UNL d   1      -1.167  -0.124   1.307  0.00  0.00     0.162 A 
ATOM      4  C3  UNL d   1      -0.517   0.021   0.081  0.00  0.00    -0.034 A 
ATOM      5  C4  UNL d   1       0.617  -0.749  -0.184  0.00  0.00     0.162 A 
ATOM      6  C5  UNL d   1       1.091  -1.650   0.764  0.00  0.00     0.062 A 
ATOM      7  F   UNL d   1       2.181  -2.385   0.501  0.00  0.00    -0.097 F 
ATOM      8  F1  UNL d   1       1.266  -0.634  -1.352  0.00  0.00    -0.096 F 
ATOM      9  I   UNL d   1      -1.228   1.370  -1.335  0.00  0.00    -0.060 I 
ATOM     10  F2  UNL d   1      -2.259   0.599   1.595  0.00  0.00    -0.096 F 
ATOM     11  F3  UNL d   1      -1.320  -1.160   3.428  0.00  0.00    -0.097 F 
ATOM     12  F4  UNL d   1       0.897  -2.657   2.893  0.00  0.00    -0.092 F 
ENDROOT
TORSDOF 0
ENDMDL
