MODEL 1
REMARK minimizedAffinity -1.20352685
REMARK minimizedRMSD -1
REMARK  0 active torsions:
REMARK  status: ('A' for Active; 'I' for Inactive)
ROOT
ATOM      1  C   UNL d   1       0.790  -1.410   1.235  0.00  0.00     0.124 A 
ATOM      2  C1  UNL d   1       1.526  -1.055   0.113  0.00  0.00     0.062 A 
ATOM      3  C2  UNL d   1       1.084  -0.029  -0.718  0.00  0.00     0.162 A 
ATOM      4  C3  UNL d   1      -0.100   0.649  -0.430  0.00  0.00    -0.034 A 
ATOM      5  C4  UNL d   1      -0.835   0.286   0.700  0.00  0.00     0.162 A 
ATOM      6  C5  UNL d   1      -0.389  -0.740   1.528  0.00  0.00     0.062 A 
ATOM      7  F   UNL d   1      -1.102  -1.082   2.611  0.00  0.00    -0.097 F 
ATOM      8  F1  UNL d   1      -1.978   0.917   1.006  0.00  0.00    -0.096 F 
ATOM      9  I   UNL d   1      -0.764   2.183  -1.670  0.00  0.00    -0.060 I 
ATOM     10  F2  UNL d   1       1.815   0.293  -1.795  0.00  0.00    -0.096 F 
ATOM     11  F3  UNL d   1       2.666  -1.701  -0.172  0.00  0.00    -0.097 F 
ATOM     12  F4  UNL d   1       1.217  -2.397   2.033  0.00  0.00    -0.092 F 
ENDROOT
TORSDOF 0
ENDMDL
