MODEL 1
REMARK minimizedAffinity -3.05390453
REMARK minimizedRMSD -1
REMARK  0 active torsions:
REMARK  status: ('A' for Active; 'I' for Inactive)
ROOT
ATOM      1  C   UNL d   1       0.759  -1.919   1.956  0.00  0.00     0.124 A 
ATOM      2  C1  UNL d   1       1.504  -1.608   0.827  0.00  0.00     0.062 A 
ATOM      3  C2  UNL d   1       1.051  -0.641  -0.066  0.00  0.00     0.162 A 
ATOM      4  C3  UNL d   1      -0.153   0.024   0.168  0.00  0.00    -0.034 A 
ATOM      5  C4  UNL d   1      -0.897  -0.295   1.305  0.00  0.00     0.162 A 
ATOM      6  C5  UNL d   1      -0.440  -1.263   2.194  0.00  0.00     0.062 A 
ATOM      7  F   UNL d   1      -1.162  -1.562   3.284  0.00  0.00    -0.097 F 
ATOM      8  F1  UNL d   1      -2.059   0.324   1.560  0.00  0.00    -0.096 F 
ATOM      9  I   UNL d   1      -0.833   1.471  -1.165  0.00  0.00    -0.060 I 
ATOM     10  F2  UNL d   1       1.792  -0.361  -1.148  0.00  0.00    -0.096 F 
ATOM     11  F3  UNL d   1       2.662  -2.242   0.595  0.00  0.00    -0.097 F 
ATOM     12  F4  UNL d   1       1.196  -2.851   2.813  0.00  0.00    -0.092 F 
ENDROOT
TORSDOF 0
ENDMDL
