MODEL 1
REMARK minimizedAffinity -2.24190712
REMARK minimizedRMSD -1
REMARK  0 active torsions:
REMARK  status: ('A' for Active; 'I' for Inactive)
ROOT
ATOM      1  C   UNL d   1      -0.139  -2.203   2.333  0.00  0.00     0.124 A 
ATOM      2  C1  UNL d   1       1.086  -2.440   1.725  0.00  0.00     0.062 A 
ATOM      3  C2  UNL d   1       1.526  -1.617   0.692  0.00  0.00     0.162 A 
ATOM      4  C3  UNL d   1       0.740  -0.548   0.261  0.00  0.00    -0.034 A 
ATOM      5  C4  UNL d   1      -0.491  -0.316   0.877  0.00  0.00     0.162 A 
ATOM      6  C5  UNL d   1      -0.926  -1.142   1.908  0.00  0.00     0.062 A 
ATOM      7  F   UNL d   1      -2.110  -0.912   2.494  0.00  0.00    -0.097 F 
ATOM      8  F1  UNL d   1      -1.272   0.702   0.487  0.00  0.00    -0.096 F 
ATOM      9  I   UNL d   1       1.394   0.686  -1.282  0.00  0.00    -0.060 I 
ATOM     10  F2  UNL d   1       2.714  -1.869   0.123  0.00  0.00    -0.096 F 
ATOM     11  F3  UNL d   1       1.848  -3.465   2.133  0.00  0.00    -0.097 F 
ATOM     12  F4  UNL d   1      -0.560  -2.997   3.325  0.00  0.00    -0.092 F 
ENDROOT
TORSDOF 0
ENDMDL
