MODEL 1
REMARK minimizedAffinity -0.658218563
REMARK minimizedRMSD -1
REMARK  0 active torsions:
REMARK  status: ('A' for Active; 'I' for Inactive)
ROOT
ATOM      1  C   UNL d   1       0.049  -2.347   2.020  0.00  0.00     0.124 A 
ATOM      2  C1  UNL d   1      -0.721  -1.361   1.418  0.00  0.00     0.062 A 
ATOM      3  C2  UNL d   1      -0.129  -0.434   0.565  0.00  0.00     0.162 A 
ATOM      4  C3  UNL d   1       1.241  -0.488   0.308  0.00  0.00    -0.034 A 
ATOM      5  C4  UNL d   1       2.009  -1.482   0.918  0.00  0.00     0.162 A 
ATOM      6  C5  UNL d   1       1.412  -2.407   1.769  0.00  0.00     0.062 A 
ATOM      7  F   UNL d   1       2.158  -3.358   2.350  0.00  0.00    -0.097 F 
ATOM      8  F1  UNL d   1       3.329  -1.564   0.693  0.00  0.00    -0.096 F 
ATOM      9  I   UNL d   1       2.130   0.896  -0.966  0.00  0.00    -0.060 I 
ATOM     10  F2  UNL d   1      -0.897   0.508  -0.003  0.00  0.00    -0.096 F 
ATOM     11  F3  UNL d   1      -2.038  -1.300   1.659  0.00  0.00    -0.097 F 
ATOM     12  F4  UNL d   1      -0.523  -3.237   2.840  0.00  0.00    -0.092 F 
ENDROOT
TORSDOF 0
ENDMDL
