MODEL 1
REMARK minimizedAffinity -1.46653187
REMARK minimizedRMSD -1
REMARK  0 active torsions:
REMARK  status: ('A' for Active; 'I' for Inactive)
ROOT
ATOM      1  C   UNL d   1       1.244  -2.338   1.579  0.00  0.00     0.124 A 
ATOM      2  C1  UNL d   1       1.915  -1.821   0.480  0.00  0.00     0.062 A 
ATOM      3  C2  UNL d   1       1.385  -0.739  -0.219  0.00  0.00     0.162 A 
ATOM      4  C3  UNL d   1       0.177  -0.167   0.181  0.00  0.00    -0.034 A 
ATOM      5  C4  UNL d   1      -0.492  -0.694   1.287  0.00  0.00     0.162 A 
ATOM      6  C5  UNL d   1       0.041  -1.774   1.982  0.00  0.00     0.062 A 
ATOM      7  F   UNL d   1      -0.608  -2.273   3.044  0.00  0.00    -0.097 F 
ATOM      8  F1  UNL d   1      -1.655  -0.167   1.699  0.00  0.00    -0.096 F 
ATOM      9  I   UNL d   1      -0.618   1.450  -0.860  0.00  0.00    -0.060 I 
ATOM     10  F2  UNL d   1       2.055  -0.260  -1.277  0.00  0.00    -0.096 F 
ATOM     11  F3  UNL d   1       3.076  -2.364   0.088  0.00  0.00    -0.097 F 
ATOM     12  F4  UNL d   1       1.755  -3.379   2.248  0.00  0.00    -0.092 F 
ENDROOT
TORSDOF 0
ENDMDL
