MODEL 1
REMARK minimizedAffinity -4.10408163
REMARK minimizedRMSD -1
REMARK  0 active torsions:
REMARK  status: ('A' for Active; 'I' for Inactive)
ROOT
ATOM      1  C   UNL d   1       0.665  -2.936   1.754  0.00  0.00     0.124 A 
ATOM      2  C1  UNL d   1       1.315  -2.615   0.569  0.00  0.00     0.062 A 
ATOM      3  C2  UNL d   1       0.996  -1.442  -0.108  0.00  0.00     0.162 A 
ATOM      4  C3  UNL d   1       0.023  -0.579   0.397  0.00  0.00    -0.034 A 
ATOM      5  C4  UNL d   1      -0.626  -0.909   1.588  0.00  0.00     0.162 A 
ATOM      6  C5  UNL d   1      -0.304  -2.083   2.262  0.00  0.00     0.062 A 
ATOM      7  F   UNL d   1      -0.932  -2.391   3.406  0.00  0.00    -0.097 F 
ATOM      8  F1  UNL d   1      -1.566  -0.102   2.102  0.00  0.00    -0.096 F 
ATOM      9  I   UNL d   1      -0.456   1.176  -0.613  0.00  0.00    -0.060 I 
ATOM     10  F2  UNL d   1       1.639  -1.157  -1.250  0.00  0.00    -0.096 F 
ATOM     11  F3  UNL d   1       2.251  -3.438   0.076  0.00  0.00    -0.097 F 
ATOM     12  F4  UNL d   1       0.973  -4.066   2.403  0.00  0.00    -0.092 F 
ENDROOT
TORSDOF 0
ENDMDL
