MODEL 1
REMARK minimizedAffinity -3.68051481
REMARK minimizedRMSD -1
REMARK  0 active torsions:
REMARK  status: ('A' for Active; 'I' for Inactive)
ROOT
ATOM      1  C   UNL d   1       1.486   0.111  -0.374  0.00  0.00     0.124 A 
ATOM      2  C1  UNL d   1       1.895  -1.053   0.261  0.00  0.00     0.062 A 
ATOM      3  C2  UNL d   1       1.077  -1.656   1.211  0.00  0.00     0.162 A 
ATOM      4  C3  UNL d   1      -0.160  -1.097   1.532  0.00  0.00    -0.034 A 
ATOM      5  C4  UNL d   1      -0.564   0.075   0.890  0.00  0.00     0.162 A 
ATOM      6  C5  UNL d   1       0.257   0.674  -0.060  0.00  0.00     0.062 A 
ATOM      7  F   UNL d   1      -0.140   1.799  -0.672  0.00  0.00    -0.097 F 
ATOM      8  F1  UNL d   1      -1.747   0.640   1.174  0.00  0.00    -0.096 F 
ATOM      9  I   UNL d   1      -1.387  -1.996   2.953  0.00  0.00    -0.060 I 
ATOM     10  F2  UNL d   1       1.497  -2.781   1.809  0.00  0.00    -0.096 F 
ATOM     11  F3  UNL d   1       3.082  -1.598  -0.041  0.00  0.00    -0.097 F 
ATOM     12  F4  UNL d   1       2.276   0.690  -1.288  0.00  0.00    -0.092 F 
ENDROOT
TORSDOF 0
ENDMDL
