MODEL 1
REMARK minimizedAffinity -1.35016418
REMARK minimizedRMSD -1
REMARK  0 active torsions:
REMARK  status: ('A' for Active; 'I' for Inactive)
ROOT
ATOM      1  C   UNL d   1       1.239  -1.895   1.942  0.00  0.00     0.124 A 
ATOM      2  C1  UNL d   1       1.812  -1.452   0.758  0.00  0.00     0.062 A 
ATOM      3  C2  UNL d   1       1.134  -0.547  -0.053  0.00  0.00     0.162 A 
ATOM      4  C3  UNL d   1      -0.126  -0.077   0.317  0.00  0.00    -0.034 A 
ATOM      5  C4  UNL d   1      -0.697  -0.527   1.509  0.00  0.00     0.162 A 
ATOM      6  C5  UNL d   1      -0.015  -1.432   2.316  0.00  0.00     0.062 A 
ATOM      7  F   UNL d   1      -0.571  -1.858   3.460  0.00  0.00    -0.097 F 
ATOM      8  F1  UNL d   1      -1.907  -0.096   1.895  0.00  0.00    -0.096 F 
ATOM      9  I   UNL d   1      -1.143   1.277  -0.892  0.00  0.00    -0.060 I 
ATOM     10  F2  UNL d   1       1.712  -0.137  -1.192  0.00  0.00    -0.096 F 
ATOM     11  F3  UNL d   1       3.023  -1.899   0.393  0.00  0.00    -0.097 F 
ATOM     12  F4  UNL d   1       1.893  -2.767   2.720  0.00  0.00    -0.092 F 
ENDROOT
TORSDOF 0
ENDMDL
