MODEL 1
REMARK minimizedAffinity 0.459609568
REMARK minimizedRMSD -1
REMARK  0 active torsions:
REMARK  status: ('A' for Active; 'I' for Inactive)
ROOT
ATOM      1  C   UNL d   1       2.254  -0.965  -0.007  0.00  0.00     0.124 A 
ATOM      2  C1  UNL d   1       1.252  -1.570   0.739  0.00  0.00     0.062 A 
ATOM      3  C2  UNL d   1      -0.031  -1.033   0.754  0.00  0.00     0.162 A 
ATOM      4  C3  UNL d   1      -0.322   0.117   0.020  0.00  0.00    -0.034 A 
ATOM      5  C4  UNL d   1       0.691   0.721  -0.727  0.00  0.00     0.162 A 
ATOM      6  C5  UNL d   1       1.972   0.180  -0.739  0.00  0.00     0.062 A 
ATOM      7  F   UNL d   1       2.939   0.767  -1.460  0.00  0.00    -0.097 F 
ATOM      8  F1  UNL d   1       0.446   1.828  -1.444  0.00  0.00    -0.096 F 
ATOM      9  I   UNL d   1      -2.240   0.924   0.040  0.00  0.00    -0.060 I 
ATOM     10  F2  UNL d   1      -0.980  -1.639   1.484  0.00  0.00    -0.096 F 
ATOM     11  F3  UNL d   1       1.522  -2.676   1.448  0.00  0.00    -0.097 F 
ATOM     12  F4  UNL d   1       3.489  -1.483  -0.019  0.00  0.00    -0.092 F 
ENDROOT
TORSDOF 0
ENDMDL
