MODEL 1
REMARK minimizedAffinity -2.24867082
REMARK minimizedRMSD -1
REMARK  2 active torsions:
REMARK  status: ('A' for Active; 'I' for Inactive)
REMARK    1  A    between atoms: C2'_3  and  C1'_4 
REMARK    2  A    between atoms: C1'_4  and  C1_5 
ROOT
ATOM      1  C1  I4B d   1       0.344   0.593   1.295  0.00  0.00    -0.075 A 
ATOM      2  C2  I4B d   1      -0.811   0.459   0.565  0.00  0.00     0.003 A 
ATOM      3  C3  I4B d   1      -0.855  -0.418  -0.545  0.00  0.00     0.002 A 
ATOM      4  C4  I4B d   1       0.286  -1.100  -0.919  0.00  0.00    -0.004 A 
ATOM      5  C5  I4B d   1       1.449  -0.980  -0.163  0.00  0.00     0.002 A 
ATOM      6  C6  I4B d   1       1.475  -0.139   0.958  0.00  0.00     0.003 A 
ENDROOT
BRANCH   1   7
ATOM      7  C1' I4B d   1       0.364   1.553   2.442  0.00  0.00     0.060 C 
BRANCH   7   8
ATOM      8  C2' I4B d   1      -0.976   1.471   3.144  0.00  0.00    -0.013 C 
ATOM      9  C4' I4B d   1      -1.458   0.047   3.232  0.00  0.00     0.013 C 
ATOM     10  C3' I4B d   1      -0.823   2.076   4.507  0.00  0.00     0.013 C 
ENDBRANCH   7   8
ENDBRANCH   1   7
TORSDOF 2
ENDMDL
