MODEL 1
REMARK minimizedAffinity -4.65926743
REMARK minimizedRMSD -1
REMARK  2 active torsions:
REMARK  status: ('A' for Active; 'I' for Inactive)
REMARK    1  A    between atoms: C2'_3  and  C1'_4 
REMARK    2  A    between atoms: C1'_4  and  C1_5 
ROOT
ATOM      1  C1  I4B d   1       0.195  -0.225   0.121  0.00  0.00    -0.075 A 
ATOM      2  C2  I4B d   1       1.076  -0.129   1.169  0.00  0.00     0.003 A 
ATOM      3  C3  I4B d   1       0.674   0.474   2.385  0.00  0.00     0.002 A 
ATOM      4  C4  I4B d   1      -0.593   1.010   2.492  0.00  0.00    -0.004 A 
ATOM      5  C5  I4B d   1      -1.492   0.892   1.437  0.00  0.00     0.002 A 
ATOM      6  C6  I4B d   1      -1.101   0.260   0.248  0.00  0.00     0.003 A 
ENDROOT
BRANCH   1   7
ATOM      7  C1' I4B d   1       0.663  -0.838  -1.160  0.00  0.00     0.060 C 
BRANCH   7   8
ATOM      8  C2' I4B d   1       0.561   0.214  -2.246  0.00  0.00    -0.013 C 
ATOM      9  C4' I4B d   1       1.879   0.912  -2.453  0.00  0.00     0.013 C 
ATOM     10  C3' I4B d   1       0.103  -0.462  -3.504  0.00  0.00     0.013 C 
ENDBRANCH   7   8
ENDBRANCH   1   7
TORSDOF 2
ENDMDL
