MODEL 1
REMARK minimizedAffinity -2.26672125
REMARK minimizedRMSD -1
REMARK  2 active torsions:
REMARK  status: ('A' for Active; 'I' for Inactive)
REMARK    1  A    between atoms: C2'_3  and  C1'_4 
REMARK    2  A    between atoms: C1'_4  and  C1_5 
ROOT
ATOM      1  C1  I4B d   1       0.466  -0.108  -1.024  0.00  0.00    -0.075 A 
ATOM      2  C2  I4B d   1       1.222  -0.887  -0.185  0.00  0.00     0.003 A 
ATOM      3  C3  I4B d   1       1.277  -0.597   1.200  0.00  0.00     0.002 A 
ATOM      4  C4  I4B d   1       0.606   0.505   1.691  0.00  0.00    -0.004 A 
ATOM      5  C5  I4B d   1      -0.178   1.280   0.842  0.00  0.00     0.002 A 
ATOM      6  C6  I4B d   1      -0.259   0.965  -0.522  0.00  0.00     0.003 A 
ENDROOT
BRANCH   1   7
ATOM      7  C1' I4B d   1       0.456  -0.423  -2.487  0.00  0.00     0.060 C 
BRANCH   7   8
ATOM      8  C2' I4B d   1       0.937   0.805  -3.232  0.00  0.00    -0.013 C 
ATOM      9  C4' I4B d   1       2.419   1.007  -3.051  0.00  0.00     0.013 C 
ATOM     10  C3' I4B d   1       0.587   0.634  -4.680  0.00  0.00     0.013 C 
ENDBRANCH   7   8
ENDBRANCH   1   7
TORSDOF 2
ENDMDL
