MODEL 1
REMARK minimizedAffinity -5.67540979
REMARK minimizedRMSD -1
REMARK  2 active torsions:
REMARK  status: ('A' for Active; 'I' for Inactive)
REMARK    1  A    between atoms: C2'_3  and  C1'_4 
REMARK    2  A    between atoms: C1'_4  and  C1_5 
ROOT
ATOM      1  C1  I4B d   1       0.086  -0.814  -2.030  0.00  0.00    -0.075 A 
ATOM      2  C2  I4B d   1      -0.607  -1.607  -2.911  0.00  0.00     0.003 A 
ATOM      3  C3  I4B d   1      -0.745  -1.215  -4.264  0.00  0.00     0.002 A 
ATOM      4  C4  I4B d   1      -0.222  -0.008  -4.680  0.00  0.00    -0.004 A 
ATOM      5  C5  I4B d   1       0.500   0.783  -3.791  0.00  0.00     0.002 A 
ATOM      6  C6  I4B d   1       0.666   0.372  -2.460  0.00  0.00     0.003 A 
ENDROOT
BRANCH   1   7
ATOM      7  C1' I4B d   1       0.185  -1.242  -0.600  0.00  0.00     0.060 C 
BRANCH   7   8
ATOM      8  C2' I4B d   1       0.436  -0.006   0.241  0.00  0.00    -0.013 C 
ATOM      9  C4' I4B d   1      -0.811   0.418   0.971  0.00  0.00     0.013 C 
ATOM     10  C3' I4B d   1       1.546  -0.316   1.200  0.00  0.00     0.013 C 
ENDBRANCH   7   8
ENDBRANCH   1   7
TORSDOF 2
ENDMDL
