MODEL 1
REMARK minimizedAffinity 8.24572945
REMARK minimizedRMSD -1
REMARK  2 active torsions:
REMARK  status: ('A' for Active; 'I' for Inactive)
REMARK    1  A    between atoms: C2'_3  and  C1'_4 
REMARK    2  A    between atoms: C1'_4  and  C1_5 
ROOT
ATOM      1  C1  I4B d   1      -2.419   0.362   1.772  0.00  0.00    -0.075 A 
ATOM      2  C2  I4B d   1      -2.952  -0.641   2.543  0.00  0.00     0.003 A 
ATOM      3  C3  I4B d   1      -2.463  -0.869   3.852  0.00  0.00     0.002 A 
ATOM      4  C4  I4B d   1      -1.413  -0.110   4.328  0.00  0.00    -0.004 A 
ATOM      5  C5  I4B d   1      -0.890   0.921   3.553  0.00  0.00     0.002 A 
ATOM      6  C6  I4B d   1      -1.403   1.167   2.272  0.00  0.00     0.003 A 
ENDROOT
BRANCH   1   7
ATOM      7  C1' I4B d   1      -2.936   0.554   0.382  0.00  0.00     0.060 C 
BRANCH   7   8
ATOM      8  C2' I4B d   1      -3.292  -0.809  -0.177  0.00  0.00    -0.013 C 
ATOM      9  C4' I4B d   1      -3.902  -0.694  -1.549  0.00  0.00     0.013 C 
ATOM     10  C3' I4B d   1      -2.042  -1.637  -0.207  0.00  0.00     0.013 C 
ENDBRANCH   7   8
ENDBRANCH   1   7
TORSDOF 2
ENDMDL
