MODEL 1
REMARK minimizedAffinity 6.23732901
REMARK minimizedRMSD -1
REMARK  2 active torsions:
REMARK  status: ('A' for Active; 'I' for Inactive)
REMARK    1  A    between atoms: C2'_3  and  C1'_4 
REMARK    2  A    between atoms: C1'_4  and  C1_5 
ROOT
ATOM      1  C1  I4B d   1      -2.344   0.314   1.752  0.00  0.00    -0.075 A 
ATOM      2  C2  I4B d   1      -3.144   1.386   1.441  0.00  0.00     0.003 A 
ATOM      3  C3  I4B d   1      -3.912   1.381   0.251  0.00  0.00     0.002 A 
ATOM      4  C4  I4B d   1      -3.811   0.315  -0.618  0.00  0.00    -0.004 A 
ATOM      5  C5  I4B d   1      -3.017  -0.781  -0.291  0.00  0.00     0.002 A 
ATOM      6  C6  I4B d   1      -2.288  -0.787   0.907  0.00  0.00     0.003 A 
ENDROOT
BRANCH   1   7
ATOM      7  C1' I4B d   1      -1.522   0.367   3.000  0.00  0.00     0.060 C 
BRANCH   7   8
ATOM      8  C2' I4B d   1      -0.469   1.442   2.821  0.00  0.00    -0.013 C 
ATOM      9  C4' I4B d   1      -0.262   2.219   4.094  0.00  0.00     0.013 C 
ATOM     10  C3' I4B d   1       0.800   0.777   2.379  0.00  0.00     0.013 C 
ENDBRANCH   7   8
ENDBRANCH   1   7
TORSDOF 2
ENDMDL
