MODEL 1
REMARK minimizedAffinity -1.46205544
REMARK minimizedRMSD -1
REMARK  0 active torsions:
REMARK  status: ('A' for Active; 'I' for Inactive)
ROOT
ATOM      1  C   UNL d   1       2.017  -1.432  -1.676  0.00  0.00     0.023 A 
ATOM      2  C1  UNL d   1       1.120  -2.225  -0.961  0.00  0.00     0.003 A 
ATOM      3  C2  UNL d   1       0.262  -1.641  -0.026  0.00  0.00     0.048 A 
ATOM      4  C3  UNL d   1       0.307  -0.264   0.188  0.00  0.00     0.023 A 
ATOM      5  C4  UNL d   1       1.202   0.533  -0.526  0.00  0.00     0.048 A 
ATOM      6  C5  UNL d   1       2.058  -0.054  -1.459  0.00  0.00     0.003 A 
ATOM      7  I   UNL d   1      -0.969   0.607   1.579  0.00  0.00    -0.146 I 
ENDROOT
TORSDOF 0
ENDMDL
