MODEL 1
REMARK minimizedAffinity -5.22917891
REMARK minimizedRMSD -1
REMARK  0 active torsions:
REMARK  status: ('A' for Active; 'I' for Inactive)
ROOT
ATOM      1  C   UNL d   1       2.473   0.328  -2.744  0.00  0.00     0.023 A 
ATOM      2  C1  UNL d   1       2.590  -0.677  -1.783  0.00  0.00     0.003 A 
ATOM      3  C2  UNL d   1       1.699  -0.724  -0.708  0.00  0.00     0.048 A 
ATOM      4  C3  UNL d   1       0.694   0.237  -0.601  0.00  0.00     0.023 A 
ATOM      5  C4  UNL d   1       0.573   1.243  -1.561  0.00  0.00     0.048 A 
ATOM      6  C5  UNL d   1       1.466   1.287  -2.633  0.00  0.00     0.003 A 
ATOM      7  I   UNL d   1      -0.633   0.169   0.997  0.00  0.00    -0.146 I 
ENDROOT
TORSDOF 0
ENDMDL
