MODEL 1
REMARK minimizedAffinity -3.04536486
REMARK minimizedRMSD -1
REMARK  0 active torsions:
REMARK  status: ('A' for Active; 'I' for Inactive)
ROOT
ATOM      1  C   UNL d   1       0.827  -1.751   0.014  0.00  0.00     0.023 A 
ATOM      2  C1  UNL d   1      -0.094  -0.947  -0.657  0.00  0.00     0.003 A 
ATOM      3  C2  UNL d   1      -0.937  -0.097   0.063  0.00  0.00     0.048 A 
ATOM      4  C3  UNL d   1      -0.851  -0.056   1.454  0.00  0.00     0.023 A 
ATOM      5  C4  UNL d   1       0.070  -0.858   2.130  0.00  0.00     0.048 A 
ATOM      6  C5  UNL d   1       0.909  -1.706   1.406  0.00  0.00     0.003 A 
ATOM      7  I   UNL d   1      -2.104   1.208   2.528  0.00  0.00    -0.146 I 
ENDROOT
TORSDOF 0
ENDMDL
