MODEL 1
REMARK minimizedAffinity -1.80969441
REMARK minimizedRMSD -1
REMARK  0 active torsions:
REMARK  status: ('A' for Active; 'I' for Inactive)
ROOT
ATOM      1  C   UNL d   1      -2.240   0.384   3.497  0.00  0.00     0.023 A 
ATOM      2  C1  UNL d   1      -1.419   1.511   3.551  0.00  0.00     0.003 A 
ATOM      3  C2  UNL d   1      -0.610   1.839   2.461  0.00  0.00     0.048 A 
ATOM      4  C3  UNL d   1      -0.628   1.038   1.321  0.00  0.00     0.023 A 
ATOM      5  C4  UNL d   1      -1.448  -0.090   1.262  0.00  0.00     0.048 A 
ATOM      6  C5  UNL d   1      -2.255  -0.415   2.354  0.00  0.00     0.003 A 
ATOM      7  I   UNL d   1       0.575   1.525  -0.303  0.00  0.00    -0.146 I 
ENDROOT
TORSDOF 0
ENDMDL
