MODEL 1
REMARK minimizedAffinity -3.70665717
REMARK minimizedRMSD -1
REMARK  0 active torsions:
REMARK  status: ('A' for Active; 'I' for Inactive)
ROOT
ATOM      1  C   UNL d   1       2.362  -1.032  -1.656  0.00  0.00     0.023 A 
ATOM      2  C1  UNL d   1       2.141   0.331  -1.459  0.00  0.00     0.003 A 
ATOM      3  C2  UNL d   1       1.056   0.760  -0.691  0.00  0.00     0.048 A 
ATOM      4  C3  UNL d   1       0.196  -0.180  -0.124  0.00  0.00     0.023 A 
ATOM      5  C4  UNL d   1       0.414  -1.545  -0.318  0.00  0.00     0.048 A 
ATOM      6  C5  UNL d   1       1.499  -1.969  -1.087  0.00  0.00     0.003 A 
ATOM      7  I   UNL d   1      -1.419   0.456   1.019  0.00  0.00    -0.146 I 
ENDROOT
TORSDOF 0
ENDMDL
