MODEL 1
REMARK minimizedAffinity -3.9416678
REMARK minimizedRMSD -1
REMARK  0 active torsions:
REMARK  status: ('A' for Active; 'I' for Inactive)
ROOT
ATOM      1  C   UNL d   1       2.976  -0.966  -1.202  0.00  0.00     0.023 A 
ATOM      2  C1  UNL d   1       2.702   0.334  -0.776  0.00  0.00     0.003 A 
ATOM      3  C2  UNL d   1       1.437   0.656  -0.281  0.00  0.00     0.048 A 
ATOM      4  C3  UNL d   1       0.450  -0.327  -0.214  0.00  0.00     0.023 A 
ATOM      5  C4  UNL d   1       0.720  -1.629  -0.638  0.00  0.00     0.048 A 
ATOM      6  C5  UNL d   1       1.986  -1.946  -1.134  0.00  0.00     0.003 A 
ATOM      7  I   UNL d   1      -1.434   0.150   0.523  0.00  0.00    -0.146 I 
ENDROOT
TORSDOF 0
ENDMDL
