MODEL 1
REMARK minimizedAffinity -3.25744939
REMARK minimizedRMSD -1
REMARK  0 active torsions:
REMARK  status: ('A' for Active; 'I' for Inactive)
ROOT
ATOM      1  C   UNL d   1       1.951  -2.618  -1.276  0.00  0.00     0.023 A 
ATOM      2  C1  UNL d   1       2.091  -1.273  -1.616  0.00  0.00     0.003 A 
ATOM      3  C2  UNL d   1       1.236  -0.318  -1.061  0.00  0.00     0.048 A 
ATOM      4  C3  UNL d   1       0.244  -0.716  -0.165  0.00  0.00     0.023 A 
ATOM      5  C4  UNL d   1       0.101  -2.061   0.179  0.00  0.00     0.048 A 
ATOM      6  C5  UNL d   1       0.957  -3.012  -0.379  0.00  0.00     0.003 A 
ATOM      7  I   UNL d   1      -1.030   0.703   0.662  0.00  0.00    -0.146 I 
ENDROOT
TORSDOF 0
ENDMDL
