MODEL 1
REMARK minimizedAffinity -0.702303648
REMARK minimizedRMSD -1
REMARK  0 active torsions:
REMARK  status: ('A' for Active; 'I' for Inactive)
ROOT
ATOM      1  C   UNL d   1       2.193  -1.178  -2.538  0.00  0.00     0.023 A 
ATOM      2  C1  UNL d   1       1.824   0.152  -2.739  0.00  0.00     0.003 A 
ATOM      3  C2  UNL d   1       0.921   0.767  -1.870  0.00  0.00     0.048 A 
ATOM      4  C3  UNL d   1       0.392   0.046  -0.800  0.00  0.00     0.023 A 
ATOM      5  C4  UNL d   1       0.759  -1.285  -0.594  0.00  0.00     0.048 A 
ATOM      6  C5  UNL d   1       1.661  -1.895  -1.467  0.00  0.00     0.003 A 
ATOM      7  I   UNL d   1      -0.952   0.959   0.496  0.00  0.00    -0.146 I 
ENDROOT
TORSDOF 0
ENDMDL
