MODEL 1
REMARK minimizedAffinity -3.02659059
REMARK minimizedRMSD -1
REMARK  0 active torsions:
REMARK  status: ('A' for Active; 'I' for Inactive)
ROOT
ATOM      1  C   UNL d   1       2.628  -1.005  -1.291  0.00  0.00     0.023 A 
ATOM      2  C1  UNL d   1       2.134   0.292  -1.154  0.00  0.00     0.003 A 
ATOM      3  C2  UNL d   1       0.886   0.507  -0.566  0.00  0.00     0.048 A 
ATOM      4  C3  UNL d   1       0.137  -0.580  -0.117  0.00  0.00     0.023 A 
ATOM      5  C4  UNL d   1       0.627  -1.880  -0.252  0.00  0.00     0.048 A 
ATOM      6  C5  UNL d   1       1.875  -2.090  -0.841  0.00  0.00     0.003 A 
ATOM      7  I   UNL d   1      -1.721  -0.263   0.759  0.00  0.00    -0.146 I 
ENDROOT
TORSDOF 0
ENDMDL
