MODEL 1
REMARK minimizedAffinity -1.27998424
REMARK minimizedRMSD -1
REMARK  0 active torsions:
REMARK  status: ('A' for Active; 'I' for Inactive)
ROOT
ATOM      1  C   UNL d   1      -2.292   1.336   3.069  0.00  0.00     0.023 A 
ATOM      2  C1  UNL d   1      -1.589   2.429   2.561  0.00  0.00     0.003 A 
ATOM      3  C2  UNL d   1      -0.574   2.232   1.622  0.00  0.00     0.048 A 
ATOM      4  C3  UNL d   1      -0.268   0.940   1.195  0.00  0.00     0.023 A 
ATOM      5  C4  UNL d   1      -0.970  -0.156   1.700  0.00  0.00     0.048 A 
ATOM      6  C5  UNL d   1      -1.983   0.046   2.639  0.00  0.00     0.003 A 
ATOM      7  I   UNL d   1       1.242   0.644  -0.202  0.00  0.00    -0.146 I 
ENDROOT
TORSDOF 0
ENDMDL
