MODEL 1
REMARK minimizedAffinity -2.99841642
REMARK minimizedRMSD -1
REMARK  0 active torsions:
REMARK  status: ('A' for Active; 'I' for Inactive)
ROOT
ATOM      1  C   UNL d   1       2.456  -0.656  -2.602  0.00  0.00     0.023 A 
ATOM      2  C1  UNL d   1       2.075  -1.505  -1.563  0.00  0.00     0.003 A 
ATOM      3  C2  UNL d   1       1.032  -1.141  -0.708  0.00  0.00     0.048 A 
ATOM      4  C3  UNL d   1       0.374   0.074  -0.899  0.00  0.00     0.023 A 
ATOM      5  C4  UNL d   1       0.752   0.926  -1.938  0.00  0.00     0.048 A 
ATOM      6  C5  UNL d   1       1.796   0.558  -2.789  0.00  0.00     0.003 A 
ATOM      7  I   UNL d   1      -1.178   0.618   0.371  0.00  0.00    -0.146 I 
ENDROOT
TORSDOF 0
ENDMDL
