MODEL 1
REMARK minimizedAffinity -2.51393986
REMARK minimizedRMSD -1
REMARK  0 active torsions:
REMARK  status: ('A' for Active; 'I' for Inactive)
ROOT
ATOM      1  C   UNL d   1      -0.066   0.256  -0.750  0.00  0.00     0.023 A 
ATOM      2  C1  UNL d   1      -1.141   1.143  -0.699  0.00  0.00     0.003 A 
ATOM      3  C2  UNL d   1      -1.817   1.355   0.505  0.00  0.00     0.048 A 
ATOM      4  C3  UNL d   1      -1.411   0.678   1.654  0.00  0.00     0.023 A 
ATOM      5  C4  UNL d   1      -0.335  -0.210   1.608  0.00  0.00     0.048 A 
ATOM      6  C5  UNL d   1       0.337  -0.420   0.402  0.00  0.00     0.003 A 
ATOM      7  I   UNL d   1      -2.414   0.992   3.447  0.00  0.00    -0.146 I 
ENDROOT
TORSDOF 0
ENDMDL
