MODEL 1
REMARK minimizedAffinity -2.37682104
REMARK minimizedRMSD -1
REMARK  0 active torsions:
REMARK  status: ('A' for Active; 'I' for Inactive)
ROOT
ATOM      1  C   UNL d   1       1.704  -2.154  -1.486  0.00  0.00     0.023 A 
ATOM      2  C1  UNL d   1       1.780  -0.761  -1.488  0.00  0.00     0.003 A 
ATOM      3  C2  UNL d   1       0.828  -0.008  -0.796  0.00  0.00     0.048 A 
ATOM      4  C3  UNL d   1      -0.196  -0.654  -0.105  0.00  0.00     0.023 A 
ATOM      5  C4  UNL d   1      -0.275  -2.048  -0.100  0.00  0.00     0.048 A 
ATOM      6  C5  UNL d   1       0.678  -2.797  -0.793  0.00  0.00     0.003 A 
ATOM      7  I   UNL d   1      -1.613   0.464   0.925  0.00  0.00    -0.146 I 
ENDROOT
TORSDOF 0
ENDMDL
