MODEL 1
REMARK minimizedAffinity -5.60587263
REMARK minimizedRMSD -1
REMARK  0 active torsions:
REMARK  status: ('A' for Active; 'I' for Inactive)
ROOT
ATOM      1  C   UNL d   1       3.124   0.067  -2.338  0.00  0.00     0.023 A 
ATOM      2  C1  UNL d   1       2.279   1.155  -2.560  0.00  0.00     0.003 A 
ATOM      3  C2  UNL d   1       1.096   1.283  -1.829  0.00  0.00     0.048 A 
ATOM      4  C3  UNL d   1       0.765   0.320  -0.876  0.00  0.00     0.023 A 
ATOM      5  C4  UNL d   1       1.608  -0.769  -0.649  0.00  0.00     0.048 A 
ATOM      6  C5  UNL d   1       2.789  -0.893  -1.383  0.00  0.00     0.003 A 
ATOM      7  I   UNL d   1      -0.994   0.509   0.214  0.00  0.00    -0.146 I 
ENDROOT
TORSDOF 0
ENDMDL
