MODEL 1
REMARK minimizedAffinity -3.14095926
REMARK minimizedRMSD -1
REMARK  1 active torsions:
REMARK  status: ('A' for Active; 'I' for Inactive)
REMARK    1  A    between atoms: C1_2  and  C2_3 
ROOT
ATOM      1  C2  UNL d   1      -0.982   0.578   0.107  0.00  0.00    -0.073 A 
ATOM      2  C3  UNL d   1      -0.326   1.593   0.813  0.00  0.00    -0.002 A 
ATOM      3  C4  UNL d   1       1.015   1.448   1.172  0.00  0.00     0.004 A 
ATOM      4  C5  UNL d   1       1.714   0.294   0.822  0.00  0.00    -0.004 A 
ATOM      5  C6  UNL d   1       1.080  -0.726   0.106  0.00  0.00    -0.075 A 
ATOM      6  C7  UNL d   1       1.818  -1.976  -0.275  0.00  0.00     0.076 C 
ATOM      7  C8  UNL d   1      -0.268  -0.575  -0.247  0.00  0.00     0.001 A 
ENDROOT
BRANCH   1   8
ATOM      8  C1  UNL d   1      -2.428   0.732  -0.287  0.00  0.00     0.053 C 
ATOM      9  C   UNL d   1      -3.351   0.739   0.921  0.00  0.00     0.018 C 
ENDBRANCH   1   8
TORSDOF 1
ENDMDL
