MODEL 1
REMARK minimizedAffinity -4.90786314
REMARK minimizedRMSD -1
REMARK  1 active torsions:
REMARK  status: ('A' for Active; 'I' for Inactive)
REMARK    1  A    between atoms: C1_2  and  C2_3 
ROOT
ATOM      1  C2  UNL d   1       0.273  -1.067  -0.299  0.00  0.00    -0.073 A 
ATOM      2  C3  UNL d   1       0.074   0.294  -0.558  0.00  0.00    -0.002 A 
ATOM      3  C4  UNL d   1       1.032   1.233  -0.172  0.00  0.00     0.004 A 
ATOM      4  C5  UNL d   1       2.200   0.821   0.468  0.00  0.00    -0.004 A 
ATOM      5  C6  UNL d   1       2.423  -0.536   0.725  0.00  0.00    -0.075 A 
ATOM      6  C7  UNL d   1       3.674  -0.995   1.415  0.00  0.00     0.076 C 
ATOM      7  C8  UNL d   1       1.455  -1.472   0.337  0.00  0.00     0.001 A 
ENDROOT
BRANCH   1   8
ATOM      8  C1  UNL d   1      -0.756  -2.085  -0.719  0.00  0.00     0.053 C 
ATOM      9  C   UNL d   1      -1.193  -1.891  -2.162  0.00  0.00     0.018 C 
ENDBRANCH   1   8
TORSDOF 1
ENDMDL
