MODEL 1
REMARK minimizedAffinity -2.48727107
REMARK minimizedRMSD -1
REMARK  1 active torsions:
REMARK  status: ('A' for Active; 'I' for Inactive)
REMARK    1  A    between atoms: C1_2  and  C2_3 
ROOT
ATOM      1  C2  UNL d   1      -0.536   0.004  -0.008  0.00  0.00    -0.073 A 
ATOM      2  C3  UNL d   1      -0.550  -0.663  -1.238  0.00  0.00    -0.002 A 
ATOM      3  C4  UNL d   1       0.464  -1.566  -1.562  0.00  0.00     0.004 A 
ATOM      4  C5  UNL d   1       1.496  -1.816  -0.658  0.00  0.00    -0.004 A 
ATOM      5  C6  UNL d   1       1.521  -1.168   0.582  0.00  0.00    -0.075 A 
ATOM      6  C7  UNL d   1       2.626  -1.424   1.564  0.00  0.00     0.076 C 
ATOM      7  C8  UNL d   1       0.501  -0.261   0.898  0.00  0.00     0.001 A 
ENDROOT
BRANCH   1   8
ATOM      8  C1  UNL d   1      -1.632   0.975   0.349  0.00  0.00     0.053 C 
ATOM      9  C   UNL d   1      -3.003   0.466  -0.069  0.00  0.00     0.018 C 
ENDBRANCH   1   8
TORSDOF 1
ENDMDL
