MODEL 1
REMARK minimizedAffinity -4.49083567
REMARK minimizedRMSD -1
REMARK  1 active torsions:
REMARK  status: ('A' for Active; 'I' for Inactive)
REMARK    1  A    between atoms: C1_2  and  C2_3 
ROOT
ATOM      1  C2  UNL d   1      -0.366  -0.040  -0.444  0.00  0.00    -0.073 A 
ATOM      2  C3  UNL d   1      -0.703  -1.075  -1.323  0.00  0.00    -0.002 A 
ATOM      3  C4  UNL d   1       0.148  -2.170  -1.482  0.00  0.00     0.004 A 
ATOM      4  C5  UNL d   1       1.338  -2.245  -0.758  0.00  0.00    -0.004 A 
ATOM      5  C6  UNL d   1       1.686  -1.226   0.134  0.00  0.00    -0.075 A 
ATOM      6  C7  UNL d   1       2.964  -1.290   0.918  0.00  0.00     0.076 C 
ATOM      7  C8  UNL d   1       0.829  -0.128   0.286  0.00  0.00     0.001 A 
ENDROOT
BRANCH   1   8
ATOM      8  C1  UNL d   1      -1.284   1.141  -0.265  0.00  0.00     0.053 C 
ATOM      9  C   UNL d   1      -2.465   0.814   0.636  0.00  0.00     0.018 C 
ENDBRANCH   1   8
TORSDOF 1
ENDMDL
