MODEL 1
REMARK minimizedAffinity -3.41927719
REMARK minimizedRMSD -1
REMARK  1 active torsions:
REMARK  status: ('A' for Active; 'I' for Inactive)
REMARK    1  A    between atoms: C1_2  and  C2_3 
ROOT
ATOM      1  C2  UNL d   1      -0.721   0.516  -0.164  0.00  0.00    -0.073 A 
ATOM      2  C3  UNL d   1      -0.061   1.736   0.024  0.00  0.00    -0.002 A 
ATOM      3  C4  UNL d   1       1.303   1.762   0.319  0.00  0.00     0.004 A 
ATOM      4  C5  UNL d   1       2.021   0.571   0.422  0.00  0.00    -0.004 A 
ATOM      5  C6  UNL d   1       1.383  -0.657   0.225  0.00  0.00    -0.075 A 
ATOM      6  C7  UNL d   1       2.141  -1.948   0.334  0.00  0.00     0.076 C 
ATOM      7  C8  UNL d   1       0.012  -0.675  -0.068  0.00  0.00     0.001 A 
ENDROOT
BRANCH   1   8
ATOM      8  C1  UNL d   1      -2.192   0.483  -0.490  0.00  0.00     0.053 C 
ATOM      9  C   UNL d   1      -3.050   0.815   0.721  0.00  0.00     0.018 C 
ENDBRANCH   1   8
TORSDOF 1
ENDMDL
