MODEL 1
REMARK minimizedAffinity 13.6976604
REMARK minimizedRMSD -1
REMARK  0 active torsions:
REMARK  status: ('A' for Active; 'I' for Inactive)
ROOT
ATOM      1  O1  BZF d   1      -2.986  -4.835  -4.719  0.00  0.00    -0.204 OA
ATOM      2  C2  BZF d   1      -3.618  -5.908  -5.317  0.00  0.00     0.174 A 
ATOM      3  C3  BZF d   1      -4.867  -5.575  -5.701  0.00  0.00    -0.012 A 
ATOM      4  C3A BZF d   1      -4.994  -4.181  -5.401  0.00  0.00    -0.107 A 
ATOM      5  C4  BZF d   1      -6.000  -3.273  -5.567  0.00  0.00     0.055 A 
ATOM      6  C5  BZF d   1      -5.830  -2.007  -5.102  0.00  0.00    -0.016 A 
ATOM      7  C6  BZF d   1      -4.671  -1.618  -4.462  0.00  0.00     0.022 A 
ATOM      8  C7  BZF d   1      -3.644  -2.482  -4.279  0.00  0.00     0.029 A 
ATOM      9  C7A BZF d   1      -3.799  -3.753  -4.777  0.00  0.00     0.058 A 
ENDROOT
TORSDOF 0
ENDMDL
