MODEL 1
REMARK minimizedAffinity 11.070878
REMARK minimizedRMSD -1
REMARK  0 active torsions:
REMARK  status: ('A' for Active; 'I' for Inactive)
ROOT
ATOM      1  O1  BZF d   1       5.967  -0.435  -5.988  0.00  0.00    -0.204 OA
ATOM      2  C2  BZF d   1       5.991  -1.498  -5.106  0.00  0.00     0.174 A 
ATOM      3  C3  BZF d   1       5.242  -1.233  -4.017  0.00  0.00    -0.012 A 
ATOM      4  C3A BZF d   1       4.642   0.041  -4.273  0.00  0.00    -0.107 A 
ATOM      5  C4  BZF d   1       3.780   0.831  -3.568  0.00  0.00     0.055 A 
ATOM      6  C5  BZF d   1       3.445   2.051  -4.066  0.00  0.00    -0.016 A 
ATOM      7  C6  BZF d   1       3.957   2.513  -5.261  0.00  0.00     0.022 A 
ATOM      8  C7  BZF d   1       4.812   1.763  -5.997  0.00  0.00     0.029 A 
ATOM      9  C7A BZF d   1       5.127   0.516  -5.513  0.00  0.00     0.058 A 
ENDROOT
TORSDOF 0
ENDMDL
