MODEL 1
REMARK minimizedAffinity 12.0998526
REMARK minimizedRMSD -1
REMARK  0 active torsions:
REMARK  status: ('A' for Active; 'I' for Inactive)
ROOT
ATOM      1  O1  BZF d   1       1.666  -4.671   1.192  0.00  0.00    -0.204 OA
ATOM      2  C2  BZF d   1       2.327  -5.617   1.950  0.00  0.00     0.174 A 
ATOM      3  C3  BZF d   1       2.607  -5.136   3.179  0.00  0.00    -0.012 A 
ATOM      4  C3A BZF d   1       2.006  -3.838   3.220  0.00  0.00    -0.107 A 
ATOM      5  C4  BZF d   1       1.926  -2.871   4.181  0.00  0.00     0.055 A 
ATOM      6  C5  BZF d   1       1.332  -1.687   3.878  0.00  0.00    -0.016 A 
ATOM      7  C6  BZF d   1       0.812  -1.435   2.625  0.00  0.00     0.022 A 
ATOM      8  C7  BZF d   1       0.863  -2.366   1.641  0.00  0.00     0.029 A 
ATOM      9  C7A BZF d   1       1.434  -3.575   1.954  0.00  0.00     0.058 A 
ENDROOT
TORSDOF 0
ENDMDL
