MODEL 1
REMARK minimizedAffinity -2.21161246
REMARK minimizedRMSD -1
REMARK  0 active torsions:
REMARK  status: ('A' for Active; 'I' for Inactive)
ROOT
ATOM      1  O1  BZF d   1       5.493  -2.635   2.691  0.00  0.00    -0.204 OA
ATOM      2  C2  BZF d   1       5.572  -3.424   3.822  0.00  0.00     0.174 A 
ATOM      3  C3  BZF d   1       4.359  -3.559   4.396  0.00  0.00    -0.012 A 
ATOM      4  C3A BZF d   1       3.451  -2.884   3.521  0.00  0.00    -0.107 A 
ATOM      5  C4  BZF d   1       2.100  -2.683   3.542  0.00  0.00     0.055 A 
ATOM      6  C5  BZF d   1       1.531  -1.917   2.575  0.00  0.00    -0.016 A 
ATOM      7  C6  BZF d   1       2.282  -1.332   1.576  0.00  0.00     0.022 A 
ATOM      8  C7  BZF d   1       3.624  -1.507   1.511  0.00  0.00     0.029 A 
ATOM      9  C7A BZF d   1       4.198  -2.307   2.468  0.00  0.00     0.058 A 
ENDROOT
TORSDOF 0
ENDMDL
