MODEL 1
REMARK minimizedAffinity 5.31416273
REMARK minimizedRMSD -1
REMARK  0 active torsions:
REMARK  status: ('A' for Active; 'I' for Inactive)
ROOT
ATOM      1  O1  BZF d   1      -5.687  -2.389  -5.919  0.00  0.00    -0.204 OA
ATOM      2  C2  BZF d   1      -4.815  -1.559  -5.242  0.00  0.00     0.174 A 
ATOM      3  C3  BZF d   1      -3.997  -2.273  -4.442  0.00  0.00    -0.012 A 
ATOM      4  C3A BZF d   1      -4.321  -3.642  -4.699  0.00  0.00    -0.107 A 
ATOM      5  C4  BZF d   1      -3.840  -4.827  -4.220  0.00  0.00     0.055 A 
ATOM      6  C5  BZF d   1      -4.422  -5.988  -4.621  0.00  0.00    -0.016 A 
ATOM      7  C6  BZF d   1      -5.490  -6.000  -5.494  0.00  0.00     0.022 A 
ATOM      8  C7  BZF d   1      -6.000  -4.850  -6.000  0.00  0.00     0.029 A 
ATOM      9  C7A BZF d   1      -5.392  -3.678  -5.623  0.00  0.00     0.058 A 
ENDROOT
TORSDOF 0
ENDMDL
