MODEL 1
REMARK minimizedAffinity 1.92720068
REMARK minimizedRMSD -1
REMARK  0 active torsions:
REMARK  status: ('A' for Active; 'I' for Inactive)
ROOT
ATOM      1  O1  BZF d   1       4.848  -2.998  -3.375  0.00  0.00    -0.204 OA
ATOM      2  C2  BZF d   1       3.726  -2.720  -2.619  0.00  0.00     0.174 A 
ATOM      3  C3  BZF d   1       3.189  -1.536  -2.977  0.00  0.00    -0.012 A 
ATOM      4  C3A BZF d   1       3.975  -1.085  -4.084  0.00  0.00    -0.107 A 
ATOM      5  C4  BZF d   1       3.925   0.021  -4.883  0.00  0.00     0.055 A 
ATOM      6  C5  BZF d   1       4.884   0.197  -5.829  0.00  0.00    -0.016 A 
ATOM      7  C6  BZF d   1       5.910  -0.709  -6.000  0.00  0.00     0.022 A 
ATOM      8  C7  BZF d   1       6.000  -1.824  -5.235  0.00  0.00     0.029 A 
ATOM      9  C7A BZF d   1       5.013  -2.021  -4.300  0.00  0.00     0.058 A 
ENDROOT
TORSDOF 0
ENDMDL
