MODEL 1
REMARK minimizedAffinity 5.44645309
REMARK minimizedRMSD -1
REMARK  0 active torsions:
REMARK  status: ('A' for Active; 'I' for Inactive)
ROOT
ATOM      1  O1  BZF d   1       5.993  -1.598  -4.826  0.00  0.00    -0.204 OA
ATOM      2  C2  BZF d   1       6.000  -0.835  -5.978  0.00  0.00     0.174 A 
ATOM      3  C3  BZF d   1       4.966   0.030  -5.985  0.00  0.00    -0.012 A 
ATOM      4  C3A BZF d   1       4.323  -0.141  -4.718  0.00  0.00    -0.107 A 
ATOM      5  C4  BZF d   1       3.244   0.449  -4.125  0.00  0.00     0.055 A 
ATOM      6  C5  BZF d   1       2.831   0.001  -2.910  0.00  0.00    -0.016 A 
ATOM      7  C6  BZF d   1       3.470  -1.036  -2.263  0.00  0.00     0.022 A 
ATOM      8  C7  BZF d   1       4.548  -1.649  -2.809  0.00  0.00     0.029 A 
ATOM      9  C7A BZF d   1       4.988  -1.177  -4.022  0.00  0.00     0.058 A 
ENDROOT
TORSDOF 0
ENDMDL
