MODEL 1
REMARK minimizedAffinity 12.4674931
REMARK minimizedRMSD -1
REMARK  0 active torsions:
REMARK  status: ('A' for Active; 'I' for Inactive)
ROOT
ATOM      1  O1  BZF d   1       3.288  -2.095   1.964  0.00  0.00    -0.204 OA
ATOM      2  C2  BZF d   1       1.925  -2.011   2.172  0.00  0.00     0.174 A 
ATOM      3  C3  BZF d   1       1.549  -2.794   3.204  0.00  0.00    -0.012 A 
ATOM      4  C3A BZF d   1       2.766  -3.334   3.729  0.00  0.00    -0.107 A 
ATOM      5  C4  BZF d   1       3.049  -4.172   4.769  0.00  0.00     0.055 A 
ATOM      6  C5  BZF d   1       4.334  -4.564   4.971  0.00  0.00    -0.016 A 
ATOM      7  C6  BZF d   1       5.359  -4.142   4.149  0.00  0.00     0.022 A 
ATOM      8  C7  BZF d   1       5.128  -3.307   3.107  0.00  0.00     0.029 A 
ATOM      9  C7A BZF d   1       3.835  -2.883   2.921  0.00  0.00     0.058 A 
ENDROOT
TORSDOF 0
ENDMDL
