MODEL 1
REMARK minimizedAffinity 24.0452118
REMARK minimizedRMSD -1
REMARK  0 active torsions:
REMARK  status: ('A' for Active; 'I' for Inactive)
ROOT
ATOM      1  O1  BZF d   1      -4.485  -5.535  -0.727  0.00  0.00    -0.204 OA
ATOM      2  C2  BZF d   1      -3.380  -5.890  -1.476  0.00  0.00     0.174 A 
ATOM      3  C3  BZF d   1      -3.039  -4.899  -2.325  0.00  0.00    -0.012 A 
ATOM      4  C3A BZF d   1      -3.935  -3.824  -2.027  0.00  0.00    -0.107 A 
ATOM      5  C4  BZF d   1      -4.085  -2.561  -2.525  0.00  0.00     0.055 A 
ATOM      6  C5  BZF d   1      -5.104  -1.787  -2.068  0.00  0.00    -0.016 A 
ATOM      7  C6  BZF d   1      -5.994  -2.245  -1.119  0.00  0.00     0.022 A 
ATOM      8  C7  BZF d   1      -5.883  -3.488  -0.591  0.00  0.00     0.029 A 
ATOM      9  C7A BZF d   1      -4.834  -4.261  -1.027  0.00  0.00     0.058 A 
ENDROOT
TORSDOF 0
ENDMDL
