MODEL 1
REMARK minimizedAffinity 5.38845539
REMARK minimizedRMSD -1
REMARK  1 active torsions:
REMARK  status: ('A' for Active; 'I' for Inactive)
REMARK    1  A    between atoms: C3_4  and  O_7 
ROOT
ATOM      1  C   UNL d   1      -3.484  -0.747   2.812  0.00  0.00    -0.033 A 
ATOM      2  C1  UNL d   1      -2.644   0.104   2.091  0.00  0.00     0.039 A 
ATOM      3  C2  UNL d   1      -1.260   0.020   2.249  0.00  0.00    -0.080 A 
ATOM      4  C3  UNL d   1      -0.728  -0.918   3.130  0.00  0.00     0.150 A 
ATOM      5  C4  UNL d   1      -1.559  -1.771   3.849  0.00  0.00    -0.007 A 
ATOM      6  C5  UNL d   1      -2.942  -1.685   3.690  0.00  0.00     0.039 A 
ENDROOT
BRANCH   4   7
ATOM      7  O   UNL d   1       0.616  -1.033   3.322  0.00  0.00    -0.526 OA
ATOM      8  H5  UNL d   1       1.063  -0.361   2.782  0.00  0.00     0.418 HD
ENDBRANCH   4   7
TORSDOF 1
ENDMDL
