MODEL 1
REMARK minimizedAffinity 5.50914669
REMARK minimizedRMSD -1
REMARK  1 active torsions:
REMARK  status: ('A' for Active; 'I' for Inactive)
REMARK    1  A    between atoms: C3_4  and  O_7 
ROOT
ATOM      1  C   UNL d   1      -2.544   0.025  -0.308  0.00  0.00    -0.033 A 
ATOM      2  C1  UNL d   1      -1.704  -0.756  -1.104  0.00  0.00     0.039 A 
ATOM      3  C2  UNL d   1      -0.362  -0.919  -0.755  0.00  0.00    -0.080 A 
ATOM      4  C3  UNL d   1       0.127  -0.298   0.390  0.00  0.00     0.150 A 
ATOM      5  C4  UNL d   1      -0.705   0.479   1.190  0.00  0.00    -0.007 A 
ATOM      6  C5  UNL d   1      -2.045   0.641   0.840  0.00  0.00     0.039 A 
ENDROOT
BRANCH   4   7
ATOM      7  O   UNL d   1       1.430  -0.424   0.769  0.00  0.00    -0.526 OA
ATOM      8  H5  UNL d   1       1.892  -0.965   0.106  0.00  0.00     0.418 HD
ENDBRANCH   4   7
TORSDOF 1
ENDMDL
