MODEL 1
REMARK minimizedAffinity -0.133755967
REMARK minimizedRMSD -1
REMARK  1 active torsions:
REMARK  status: ('A' for Active; 'I' for Inactive)
REMARK    1  A    between atoms: C3_4  and  O_7 
ROOT
ATOM      1  C   UNL d   1      -0.062  -0.158   0.009  0.00  0.00    -0.033 A 
ATOM      2  C1  UNL d   1      -1.334   0.362   0.256  0.00  0.00     0.039 A 
ATOM      3  C2  UNL d   1      -1.908   0.236   1.522  0.00  0.00    -0.080 A 
ATOM      4  C3  UNL d   1      -1.201  -0.410   2.532  0.00  0.00     0.150 A 
ATOM      5  C4  UNL d   1       0.068  -0.927   2.295  0.00  0.00    -0.007 A 
ATOM      6  C5  UNL d   1       0.640  -0.802   1.029  0.00  0.00     0.039 A 
ENDROOT
BRANCH   4   7
ATOM      7  O   UNL d   1      -1.722  -0.561   3.783  0.00  0.00    -0.526 OA
ATOM      8  H5  UNL d   1      -2.616  -0.180   3.791  0.00  0.00     0.418 HD
ENDBRANCH   4   7
TORSDOF 1
ENDMDL
