MODEL 1
REMARK minimizedAffinity 0.609177947
REMARK minimizedRMSD -1
REMARK  1 active torsions:
REMARK  status: ('A' for Active; 'I' for Inactive)
REMARK    1  A    between atoms: C3_4  and  O_7 
ROOT
ATOM      1  C   UNL d   1       5.734   6.000   1.842  0.00  0.00    -0.033 A 
ATOM      2  C1  UNL d   1       4.620   5.791   1.027  0.00  0.00     0.039 A 
ATOM      3  C2  UNL d   1       3.753   4.727   1.286  0.00  0.00    -0.080 A 
ATOM      4  C3  UNL d   1       4.010   3.883   2.362  0.00  0.00     0.150 A 
ATOM      5  C4  UNL d   1       5.117   4.087   3.180  0.00  0.00    -0.007 A 
ATOM      6  C5  UNL d   1       5.982   5.149   2.919  0.00  0.00     0.039 A 
ENDROOT
BRANCH   4   7
ATOM      7  O   UNL d   1       3.195   2.829   2.652  0.00  0.00    -0.526 OA
ATOM      8  H5  UNL d   1       2.489   2.794   1.985  0.00  0.00     0.418 HD
ENDBRANCH   4   7
TORSDOF 1
ENDMDL
