MODEL 1
REMARK minimizedAffinity -1.71014154
REMARK minimizedRMSD -1
REMARK  1 active torsions:
REMARK  status: ('A' for Active; 'I' for Inactive)
REMARK    1  A    between atoms: C3_4  and  O_7 
ROOT
ATOM      1  C   UNL d   1      -0.432  -0.783  -0.383  0.00  0.00    -0.033 A 
ATOM      2  C1  UNL d   1       0.295  -0.528   0.781  0.00  0.00     0.039 A 
ATOM      3  C2  UNL d   1      -0.372  -0.308   1.988  0.00  0.00    -0.080 A 
ATOM      4  C3  UNL d   1      -1.763  -0.345   2.017  0.00  0.00     0.150 A 
ATOM      5  C4  UNL d   1      -2.493  -0.602   0.861  0.00  0.00    -0.007 A 
ATOM      6  C5  UNL d   1      -1.826  -0.821  -0.343  0.00  0.00     0.039 A 
ENDROOT
BRANCH   4   7
ATOM      7  O   UNL d   1      -2.458  -0.131   3.170  0.00  0.00    -0.526 OA
ATOM      8  H5  UNL d   1      -1.824   0.062   3.880  0.00  0.00     0.418 HD
ENDBRANCH   4   7
TORSDOF 1
ENDMDL
