MODEL 1
REMARK minimizedAffinity -0.184239939
REMARK minimizedRMSD -1
REMARK  1 active torsions:
REMARK  status: ('A' for Active; 'I' for Inactive)
REMARK    1  A    between atoms: C3_4  and  O_7 
ROOT
ATOM      1  C   UNL d   1      -0.765  -1.402   4.761  0.00  0.00    -0.033 A 
ATOM      2  C1  UNL d   1      -1.823  -0.804   4.074  0.00  0.00     0.039 A 
ATOM      3  C2  UNL d   1      -1.608  -0.233   2.818  0.00  0.00    -0.080 A 
ATOM      4  C3  UNL d   1      -0.333  -0.269   2.260  0.00  0.00     0.150 A 
ATOM      5  C4  UNL d   1       0.724  -0.867   2.937  0.00  0.00    -0.007 A 
ATOM      6  C5  UNL d   1       0.508  -1.435   4.192  0.00  0.00     0.039 A 
ENDROOT
BRANCH   4   7
ATOM      7  O   UNL d   1      -0.074   0.278   1.039  0.00  0.00    -0.526 OA
ATOM      8  H5  UNL d   1      -0.892   0.680   0.702  0.00  0.00     0.418 HD
ENDBRANCH   4   7
TORSDOF 1
ENDMDL
