MODEL 1
REMARK minimizedAffinity -0.940156341
REMARK minimizedRMSD -1
REMARK  1 active torsions:
REMARK  status: ('A' for Active; 'I' for Inactive)
REMARK    1  A    between atoms: C3_4  and  O_7 
ROOT
ATOM      1  C   UNL d   1      -1.629   0.115   0.589  0.00  0.00    -0.033 A 
ATOM      2  C1  UNL d   1      -0.304  -0.316   0.500  0.00  0.00     0.039 A 
ATOM      3  C2  UNL d   1       0.387  -0.697   1.652  0.00  0.00    -0.080 A 
ATOM      4  C3  UNL d   1      -0.257  -0.644   2.884  0.00  0.00     0.150 A 
ATOM      5  C4  UNL d   1      -1.579  -0.220   2.980  0.00  0.00    -0.007 A 
ATOM      6  C5  UNL d   1      -2.267   0.161   1.829  0.00  0.00     0.039 A 
ENDROOT
BRANCH   4   7
ATOM      7  O   UNL d   1       0.377  -1.002   4.037  0.00  0.00    -0.526 OA
ATOM      8  H5  UNL d   1       1.293  -1.245   3.821  0.00  0.00     0.418 HD
ENDBRANCH   4   7
TORSDOF 1
ENDMDL
