MODEL 1
REMARK minimizedAffinity -1.65436375
REMARK minimizedRMSD -1
REMARK  1 active torsions:
REMARK  status: ('A' for Active; 'I' for Inactive)
REMARK    1  A    between atoms: C3_4  and  O_7 
ROOT
ATOM      1  C   UNL d   1      -2.308   0.029   1.519  0.00  0.00    -0.033 A 
ATOM      2  C1  UNL d   1      -1.661  -0.147   0.294  0.00  0.00     0.039 A 
ATOM      3  C2  UNL d   1      -0.347  -0.617   0.258  0.00  0.00    -0.080 A 
ATOM      4  C3  UNL d   1       0.308  -0.907   1.451  0.00  0.00     0.150 A 
ATOM      5  C4  UNL d   1      -0.331  -0.737   2.675  0.00  0.00    -0.007 A 
ATOM      6  C5  UNL d   1      -1.643  -0.267   2.709  0.00  0.00     0.039 A 
ENDROOT
BRANCH   4   7
ATOM      7  O   UNL d   1       1.593  -1.364   1.466  0.00  0.00    -0.526 OA
ATOM      8  H5  UNL d   1       1.916  -1.405   0.551  0.00  0.00     0.418 HD
ENDBRANCH   4   7
TORSDOF 1
ENDMDL
