MODEL 1
REMARK minimizedAffinity 5.70952702
REMARK minimizedRMSD -1
REMARK  0 active torsions:
REMARK  status: ('A' for Active; 'I' for Inactive)
ROOT
ATOM      1  C   UNL d   1       4.430  -3.801   1.319  0.00  0.00     0.077 C 
ATOM      2  C1  UNL d   1       3.449  -2.688   1.097  0.00  0.00    -0.074 A 
ATOM      3  C2  UNL d   1       2.095  -2.852   1.405  0.00  0.00    -0.005 A 
ATOM      4  C3  UNL d   1       1.196  -1.805   1.202  0.00  0.00     0.006 A 
ATOM      5  C4  UNL d   1       1.641  -0.586   0.689  0.00  0.00    -0.005 A 
ATOM      6  C5  UNL d   1       2.991  -0.404   0.375  0.00  0.00    -0.074 A 
ATOM      7  C6  UNL d   1       3.488   0.903  -0.168  0.00  0.00     0.077 C 
ATOM      8  C7  UNL d   1       3.890  -1.458   0.589  0.00  0.00    -0.001 A 
ENDROOT
TORSDOF 0
ENDMDL
