MODEL 1
REMARK minimizedAffinity -0.480277419
REMARK minimizedRMSD -1
REMARK  0 active torsions:
REMARK  status: ('A' for Active; 'I' for Inactive)
ROOT
ATOM      1  C   UNL d   1       4.730   5.970   1.733  0.00  0.00     0.077 C 
ATOM      2  C1  UNL d   1       4.790   5.743   3.215  0.00  0.00    -0.074 A 
ATOM      3  C2  UNL d   1       5.962   5.999   3.934  0.00  0.00    -0.005 A 
ATOM      4  C3  UNL d   1       6.000   5.793   5.313  0.00  0.00     0.006 A 
ATOM      5  C4  UNL d   1       4.868   5.330   5.986  0.00  0.00    -0.005 A 
ATOM      6  C5  UNL d   1       3.687   5.070   5.283  0.00  0.00    -0.074 A 
ATOM      7  C6  UNL d   1       2.459   4.581   5.992  0.00  0.00     0.077 C 
ATOM      8  C7  UNL d   1       3.655   5.286   3.899  0.00  0.00    -0.001 A 
ENDROOT
TORSDOF 0
ENDMDL
