MODEL 1
REMARK minimizedAffinity 4.10697651
REMARK minimizedRMSD -1
REMARK  0 active torsions:
REMARK  status: ('A' for Active; 'I' for Inactive)
ROOT
ATOM      1  C   UNL d   1       1.524  -2.038   0.763  0.00  0.00     0.077 C 
ATOM      2  C1  UNL d   1       0.600  -1.104   1.487  0.00  0.00    -0.074 A 
ATOM      3  C2  UNL d   1       0.986  -0.498   2.687  0.00  0.00    -0.005 A 
ATOM      4  C3  UNL d   1       0.119   0.375   3.344  0.00  0.00     0.006 A 
ATOM      5  C4  UNL d   1      -1.140   0.651   2.808  0.00  0.00    -0.005 A 
ATOM      6  C5  UNL d   1      -1.542   0.056   1.609  0.00  0.00    -0.074 A 
ATOM      7  C6  UNL d   1      -2.887   0.349   1.014  0.00  0.00     0.077 C 
ATOM      8  C7  UNL d   1      -0.663  -0.816   0.951  0.00  0.00    -0.001 A 
ENDROOT
TORSDOF 0
ENDMDL
