MODEL 1
REMARK minimizedAffinity 4.43393755
REMARK minimizedRMSD -1
REMARK  0 active torsions:
REMARK  status: ('A' for Active; 'I' for Inactive)
ROOT
ATOM      1  C   UNL d   1      -3.222  -0.675   1.187  0.00  0.00     0.077 C 
ATOM      2  C1  UNL d   1      -1.806  -0.804   1.664  0.00  0.00    -0.074 A 
ATOM      3  C2  UNL d   1      -1.399  -0.230   2.873  0.00  0.00    -0.005 A 
ATOM      4  C3  UNL d   1      -0.081  -0.366   3.308  0.00  0.00     0.006 A 
ATOM      5  C4  UNL d   1       0.842  -1.077   2.540  0.00  0.00    -0.005 A 
ATOM      6  C5  UNL d   1       0.453  -1.660   1.330  0.00  0.00    -0.074 A 
ATOM      7  C6  UNL d   1       1.430  -2.436   0.498  0.00  0.00     0.077 C 
ATOM      8  C7  UNL d   1      -0.875  -1.524   0.903  0.00  0.00    -0.001 A 
ENDROOT
TORSDOF 0
ENDMDL
