MODEL 1
REMARK minimizedAffinity 2.07935023
REMARK minimizedRMSD -1
REMARK  0 active torsions:
REMARK  status: ('A' for Active; 'I' for Inactive)
ROOT
ATOM      1  C   UNL d   1       1.268   4.036   3.079  0.00  0.00     0.077 C 
ATOM      2  C1  UNL d   1       2.240   4.729   3.986  0.00  0.00    -0.074 A 
ATOM      3  C2  UNL d   1       1.807   5.353   5.160  0.00  0.00    -0.005 A 
ATOM      4  C3  UNL d   1       2.724   5.986   6.000  0.00  0.00     0.006 A 
ATOM      5  C4  UNL d   1       4.081   6.000   5.674  0.00  0.00    -0.005 A 
ATOM      6  C5  UNL d   1       4.532   5.380   4.505  0.00  0.00    -0.074 A 
ATOM      7  C6  UNL d   1       5.989   5.377   4.145  0.00  0.00     0.077 C 
ATOM      8  C7  UNL d   1       3.606   4.740   3.670  0.00  0.00    -0.001 A 
ENDROOT
TORSDOF 0
ENDMDL
