MODEL 1
REMARK minimizedAffinity 9.54483318
REMARK minimizedRMSD -1
REMARK  0 active torsions:
REMARK  status: ('A' for Active; 'I' for Inactive)
ROOT
ATOM      1  C   UNL d   1      -5.639   1.073  -4.817  0.00  0.00     0.077 C 
ATOM      2  C1  UNL d   1      -5.121   2.417  -5.235  0.00  0.00    -0.074 A 
ATOM      3  C2  UNL d   1      -5.992   3.494  -5.430  0.00  0.00    -0.005 A 
ATOM      4  C3  UNL d   1      -5.496   4.741  -5.810  0.00  0.00     0.006 A 
ATOM      5  C4  UNL d   1      -4.125   4.923  -5.999  0.00  0.00    -0.005 A 
ATOM      6  C5  UNL d   1      -3.239   3.858  -5.808  0.00  0.00    -0.074 A 
ATOM      7  C6  UNL d   1      -1.762   4.040  -5.998  0.00  0.00     0.077 C 
ATOM      8  C7  UNL d   1      -3.745   2.610  -5.420  0.00  0.00    -0.001 A 
ENDROOT
TORSDOF 0
ENDMDL
