MODEL 1
REMARK minimizedAffinity 13.8358908
REMARK minimizedRMSD -1
REMARK  0 active torsions:
REMARK  status: ('A' for Active; 'I' for Inactive)
ROOT
ATOM      1  C   UNL d   1       2.222  -0.733   4.217  0.00  0.00     0.077 C 
ATOM      2  C1  UNL d   1       1.296  -1.445   3.277  0.00  0.00    -0.074 A 
ATOM      3  C2  UNL d   1      -0.059  -1.607   3.588  0.00  0.00    -0.005 A 
ATOM      4  C3  UNL d   1      -0.910  -2.263   2.699  0.00  0.00     0.006 A 
ATOM      5  C4  UNL d   1      -0.418  -2.764   1.493  0.00  0.00    -0.005 A 
ATOM      6  C5  UNL d   1       0.933  -2.611   1.166  0.00  0.00    -0.074 A 
ATOM      7  C6  UNL d   1       1.477  -3.135  -0.131  0.00  0.00     0.077 C 
ATOM      8  C7  UNL d   1       1.781  -1.944   2.060  0.00  0.00    -0.001 A 
ENDROOT
TORSDOF 0
ENDMDL
