MODEL 1
REMARK minimizedAffinity 5.65075445
REMARK minimizedRMSD -1
REMARK  0 active torsions:
REMARK  status: ('A' for Active; 'I' for Inactive)
ROOT
ATOM      1  C   UNL d   1      -4.875   2.275  -5.998  0.00  0.00     0.077 C 
ATOM      2  C1  UNL d   1      -4.064   3.397  -5.420  0.00  0.00    -0.074 A 
ATOM      3  C2  UNL d   1      -4.545   4.153  -4.347  0.00  0.00    -0.005 A 
ATOM      4  C3  UNL d   1      -3.776   5.187  -3.814  0.00  0.00     0.006 A 
ATOM      5  C4  UNL d   1      -2.519   5.475  -4.348  0.00  0.00    -0.005 A 
ATOM      6  C5  UNL d   1      -2.021   4.729  -5.420  0.00  0.00    -0.074 A 
ATOM      7  C6  UNL d   1      -0.668   5.019  -6.000  0.00  0.00     0.077 C 
ATOM      8  C7  UNL d   1      -2.797   3.687  -5.946  0.00  0.00    -0.001 A 
ENDROOT
TORSDOF 0
ENDMDL
