MODEL 1
REMARK minimizedAffinity -1.84218085
REMARK minimizedRMSD -1
REMARK  0 active torsions:
REMARK  status: ('A' for Active; 'I' for Inactive)
ROOT
ATOM      1  C   UNL d   1       1.716   3.586   2.647  0.00  0.00     0.077 C 
ATOM      2  C1  UNL d   1       2.283   4.434   3.746  0.00  0.00    -0.074 A 
ATOM      3  C2  UNL d   1       1.444   5.116   4.633  0.00  0.00    -0.005 A 
ATOM      4  C3  UNL d   1       1.986   5.893   5.657  0.00  0.00     0.006 A 
ATOM      5  C4  UNL d   1       3.369   5.996   5.803  0.00  0.00    -0.005 A 
ATOM      6  C5  UNL d   1       4.224   5.321   4.926  0.00  0.00    -0.074 A 
ATOM      7  C6  UNL d   1       5.714   5.413   5.076  0.00  0.00     0.077 C 
ATOM      8  C7  UNL d   1       3.672   4.536   3.905  0.00  0.00    -0.001 A 
ENDROOT
TORSDOF 0
ENDMDL
