MODEL 1
REMARK minimizedAffinity 7.75569773
REMARK minimizedRMSD -1
REMARK  0 active torsions:
REMARK  status: ('A' for Active; 'I' for Inactive)
ROOT
ATOM      1  C   UNL d   1       5.850  -5.867  -2.195  0.00  0.00     0.077 C 
ATOM      2  C1  UNL d   1       5.257  -4.800  -1.323  0.00  0.00    -0.074 A 
ATOM      3  C2  UNL d   1       6.000  -3.673  -0.959  0.00  0.00    -0.005 A 
ATOM      4  C3  UNL d   1       5.431  -2.685  -0.155  0.00  0.00     0.006 A 
ATOM      5  C4  UNL d   1       4.116  -2.814   0.292  0.00  0.00    -0.005 A 
ATOM      6  C5  UNL d   1       3.357  -3.934  -0.062  0.00  0.00    -0.074 A 
ATOM      7  C6  UNL d   1       1.939  -4.084   0.402  0.00  0.00     0.077 C 
ATOM      8  C7  UNL d   1       3.933  -4.919  -0.876  0.00  0.00    -0.001 A 
ENDROOT
TORSDOF 0
ENDMDL
