MODEL 1
REMARK minimizedAffinity -5.19249392
REMARK minimizedRMSD -1
REMARK  0 active torsions:
REMARK  status: ('A' for Active; 'I' for Inactive)
ROOT
ATOM      1  C   UNL d   1      -1.108   0.018  -0.131  0.00  0.00     0.077 C 
ATOM      2  C1  UNL d   1      -1.421   0.176   1.328  0.00  0.00    -0.074 A 
ATOM      3  C2  UNL d   1      -1.126   1.366   2.001  0.00  0.00    -0.005 A 
ATOM      4  C3  UNL d   1      -1.431   1.501   3.356  0.00  0.00     0.006 A 
ATOM      5  C4  UNL d   1      -2.033   0.450   4.049  0.00  0.00    -0.005 A 
ATOM      6  C5  UNL d   1      -2.337  -0.746   3.391  0.00  0.00    -0.074 A 
ATOM      7  C6  UNL d   1      -2.993  -1.882   4.119  0.00  0.00     0.077 C 
ATOM      8  C7  UNL d   1      -2.033  -0.872   2.029  0.00  0.00    -0.001 A 
ENDROOT
TORSDOF 0
ENDMDL
