MODEL 1
REMARK minimizedAffinity 1.64694369
REMARK minimizedRMSD -1
REMARK  0 active torsions:
REMARK  status: ('A' for Active; 'I' for Inactive)
ROOT
ATOM      1  C   UNL d   1       5.325  -0.927   6.000  0.00  0.00     0.077 C 
ATOM      2  C1  UNL d   1       5.172   0.396   5.310  0.00  0.00    -0.074 A 
ATOM      3  C2  UNL d   1       4.557   0.487   4.058  0.00  0.00    -0.005 A 
ATOM      4  C3  UNL d   1       4.413   1.725   3.433  0.00  0.00     0.006 A 
ATOM      5  C4  UNL d   1       4.882   2.884   4.053  0.00  0.00    -0.005 A 
ATOM      6  C5  UNL d   1       5.499   2.813   5.306  0.00  0.00    -0.074 A 
ATOM      7  C6  UNL d   1       6.000   4.049   5.992  0.00  0.00     0.077 C 
ATOM      8  C7  UNL d   1       5.633   1.565   5.931  0.00  0.00    -0.001 A 
ENDROOT
TORSDOF 0
ENDMDL
