MODEL 1
REMARK minimizedAffinity -3.3799293
REMARK minimizedRMSD -1
REMARK  0 active torsions:
REMARK  status: ('A' for Active; 'I' for Inactive)
ROOT
ATOM      1  C   UNL d   1       1.252  -3.175  -0.326  0.00  0.00     0.077 C 
ATOM      2  C1  UNL d   1       1.027  -1.755  -0.756  0.00  0.00    -0.074 A 
ATOM      3  C2  UNL d   1       1.885  -1.138  -1.672  0.00  0.00    -0.005 A 
ATOM      4  C3  UNL d   1       1.658   0.180  -2.070  0.00  0.00     0.006 A 
ATOM      5  C4  UNL d   1       0.573   0.892  -1.558  0.00  0.00    -0.005 A 
ATOM      6  C5  UNL d   1      -0.296   0.290  -0.642  0.00  0.00    -0.074 A 
ATOM      7  C6  UNL d   1      -1.473   1.038  -0.089  0.00  0.00     0.077 C 
ATOM      8  C7  UNL d   1      -0.066  -1.036  -0.252  0.00  0.00    -0.001 A 
ENDROOT
TORSDOF 0
ENDMDL
