MODEL 1
REMARK minimizedAffinity -1.62497067
REMARK minimizedRMSD -1
REMARK  0 active torsions:
REMARK  status: ('A' for Active; 'I' for Inactive)
ROOT
ATOM      1  C   UNL d   1       2.239   3.088   0.008  0.00  0.00     0.077 C 
ATOM      2  C1  UNL d   1       1.177   2.077  -0.308  0.00  0.00    -0.074 A 
ATOM      3  C2  UNL d   1      -0.161   2.459  -0.447  0.00  0.00    -0.005 A 
ATOM      4  C3  UNL d   1      -1.136   1.509  -0.751  0.00  0.00     0.006 A 
ATOM      5  C4  UNL d   1      -0.783   0.169  -0.919  0.00  0.00    -0.005 A 
ATOM      6  C5  UNL d   1       0.550  -0.231  -0.785  0.00  0.00    -0.074 A 
ATOM      7  C6  UNL d   1       0.947  -1.666  -0.972  0.00  0.00     0.077 C 
ATOM      8  C7  UNL d   1       1.525   0.730  -0.486  0.00  0.00    -0.001 A 
ENDROOT
TORSDOF 0
ENDMDL
