MODEL 1
REMARK minimizedAffinity -0.381720603
REMARK minimizedRMSD -1
REMARK  0 active torsions:
REMARK  status: ('A' for Active; 'I' for Inactive)
ROOT
ATOM      1  C   UNL d   1       2.146  -0.737  -1.729  0.00  0.00     0.077 C 
ATOM      2  C1  UNL d   1       0.960   0.078  -1.307  0.00  0.00    -0.074 A 
ATOM      3  C2  UNL d   1       0.711   1.332  -1.874  0.00  0.00    -0.005 A 
ATOM      4  C3  UNL d   1      -0.402   2.075  -1.480  0.00  0.00     0.006 A 
ATOM      5  C4  UNL d   1      -1.276   1.571  -0.515  0.00  0.00    -0.005 A 
ATOM      6  C5  UNL d   1      -1.044   0.319   0.062  0.00  0.00    -0.074 A 
ATOM      7  C6  UNL d   1      -1.979  -0.241   1.093  0.00  0.00     0.077 C 
ATOM      8  C7  UNL d   1       0.072  -0.424  -0.345  0.00  0.00    -0.001 A 
ENDROOT
TORSDOF 0
ENDMDL
