MODEL 1
REMARK minimizedAffinity -3.78451848
REMARK minimizedRMSD -1
REMARK  0 active torsions:
REMARK  status: ('A' for Active; 'I' for Inactive)
ROOT
ATOM      1  C   UNL d   1      -3.245  -1.816   3.069  0.00  0.00     0.077 C 
ATOM      2  C1  UNL d   1      -2.683  -0.455   2.782  0.00  0.00    -0.074 A 
ATOM      3  C2  UNL d   1      -2.448   0.458   3.815  0.00  0.00    -0.005 A 
ATOM      4  C3  UNL d   1      -1.915   1.716   3.533  0.00  0.00     0.006 A 
ATOM      5  C4  UNL d   1      -1.614   2.073   2.218  0.00  0.00    -0.005 A 
ATOM      6  C5  UNL d   1      -1.842   1.173   1.173  0.00  0.00    -0.074 A 
ATOM      7  C6  UNL d   1      -1.514   1.537  -0.245  0.00  0.00     0.077 C 
ATOM      8  C7  UNL d   1      -2.370  -0.092   1.465  0.00  0.00    -0.001 A 
ENDROOT
TORSDOF 0
ENDMDL
