MODEL 1
REMARK minimizedAffinity -4.37798119
REMARK minimizedRMSD -1
REMARK  0 active torsions:
REMARK  status: ('A' for Active; 'I' for Inactive)
ROOT
ATOM      1  C   UNL d   1       2.978  -0.881  -1.345  0.00  0.00     0.077 C 
ATOM      2  C1  UNL d   1       1.628  -0.572  -0.769  0.00  0.00    -0.074 A 
ATOM      3  C2  UNL d   1       1.188  -1.192   0.404  0.00  0.00    -0.005 A 
ATOM      4  C3  UNL d   1      -0.066  -0.888   0.933  0.00  0.00     0.006 A 
ATOM      5  C4  UNL d   1      -0.892   0.038   0.294  0.00  0.00    -0.005 A 
ATOM      6  C5  UNL d   1      -0.469   0.669  -0.880  0.00  0.00    -0.074 A 
ATOM      7  C6  UNL d   1      -1.340   1.674  -1.573  0.00  0.00     0.077 C 
ATOM      8  C7  UNL d   1       0.796   0.363  -1.401  0.00  0.00    -0.001 A 
ENDROOT
TORSDOF 0
ENDMDL
