MODEL 1
REMARK minimizedAffinity -4.26374769
REMARK minimizedRMSD -1
REMARK  0 active torsions:
REMARK  status: ('A' for Active; 'I' for Inactive)
ROOT
ATOM      1  C   UNL d   1      -1.090   0.632  -0.300  0.00  0.00     0.077 C 
ATOM      2  C1  UNL d   1       0.260   0.023  -0.534  0.00  0.00    -0.074 A 
ATOM      3  C2  UNL d   1       1.358   0.819  -0.875  0.00  0.00    -0.005 A 
ATOM      4  C3  UNL d   1       2.610   0.240  -1.081  0.00  0.00     0.006 A 
ATOM      5  C4  UNL d   1       2.777  -1.139  -0.946  0.00  0.00    -0.005 A 
ATOM      6  C5  UNL d   1       1.691  -1.951  -0.604  0.00  0.00    -0.074 A 
ATOM      7  C6  UNL d   1       1.855  -3.433  -0.446  0.00  0.00     0.077 C 
ATOM      8  C7  UNL d   1       0.437  -1.360  -0.393  0.00  0.00    -0.001 A 
ENDROOT
TORSDOF 0
ENDMDL
