MODEL 1
REMARK minimizedAffinity -3.75619006
REMARK minimizedRMSD -1
REMARK  0 active torsions:
REMARK  status: ('A' for Active; 'I' for Inactive)
ROOT
ATOM      1  C   UNL d   1       2.142  -3.187  -0.488  0.00  0.00     0.077 C 
ATOM      2  C1  UNL d   1       1.743  -1.773  -0.790  0.00  0.00    -0.074 A 
ATOM      3  C2  UNL d   1       2.604  -0.916  -1.483  0.00  0.00    -0.005 A 
ATOM      4  C3  UNL d   1       2.216   0.394  -1.765  0.00  0.00     0.006 A 
ATOM      5  C4  UNL d   1       0.965   0.858  -1.358  0.00  0.00    -0.005 A 
ATOM      6  C5  UNL d   1       0.090   0.016  -0.665  0.00  0.00    -0.074 A 
ATOM      7  C6  UNL d   1      -1.262   0.496  -0.229  0.00  0.00     0.077 C 
ATOM      8  C7  UNL d   1       0.485  -1.301  -0.391  0.00  0.00    -0.001 A 
ENDROOT
TORSDOF 0
ENDMDL
