MODEL 1
REMARK minimizedAffinity -6.16486073
REMARK minimizedRMSD -1
REMARK  0 active torsions:
REMARK  status: ('A' for Active; 'I' for Inactive)
ROOT
ATOM      1  C   UNL d   1       1.246   3.046  -2.660  0.00  0.00     0.077 C 
ATOM      2  C1  UNL d   1       1.488   1.686  -2.076  0.00  0.00    -0.074 A 
ATOM      3  C2  UNL d   1       2.708   1.029  -2.266  0.00  0.00    -0.005 A 
ATOM      4  C3  UNL d   1       2.921  -0.232  -1.708  0.00  0.00     0.006 A 
ATOM      5  C4  UNL d   1       1.919  -0.847  -0.957  0.00  0.00    -0.005 A 
ATOM      6  C5  UNL d   1       0.693  -0.205  -0.756  0.00  0.00    -0.074 A 
ATOM      7  C6  UNL d   1      -0.391  -0.847   0.058  0.00  0.00     0.077 C 
ATOM      8  C7  UNL d   1       0.489   1.065  -1.313  0.00  0.00    -0.001 A 
ENDROOT
TORSDOF 0
ENDMDL
