MODEL 1
REMARK minimizedAffinity 5.18657732
REMARK minimizedRMSD -1
REMARK  0 active torsions:
REMARK  status: ('A' for Active; 'I' for Inactive)
ROOT
ATOM      1  C   UNL d   1      -1.218   3.288   3.705  0.00  0.00     0.077 C 
ATOM      2  C1  UNL d   1      -1.399   1.815   3.490  0.00  0.00    -0.074 A 
ATOM      3  C2  UNL d   1      -1.421   0.928   4.571  0.00  0.00    -0.005 A 
ATOM      4  C3  UNL d   1      -1.599  -0.439   4.356  0.00  0.00     0.006 A 
ATOM      5  C4  UNL d   1      -1.758  -0.932   3.060  0.00  0.00    -0.005 A 
ATOM      6  C5  UNL d   1      -1.739  -0.060   1.967  0.00  0.00    -0.074 A 
ATOM      7  C6  UNL d   1      -1.918  -0.571   0.568  0.00  0.00     0.077 C 
ATOM      8  C7  UNL d   1      -1.567   1.313   2.192  0.00  0.00    -0.001 A 
ENDROOT
TORSDOF 0
ENDMDL
