MODEL 1
REMARK minimizedAffinity -5.21987152
REMARK minimizedRMSD -1
REMARK  0 active torsions:
REMARK  status: ('A' for Active; 'I' for Inactive)
ROOT
ATOM      1  C   UNL d   1       1.233   2.674  -2.434  0.00  0.00     0.077 C 
ATOM      2  C1  UNL d   1       1.502   1.329  -1.826  0.00  0.00    -0.074 A 
ATOM      3  C2  UNL d   1       2.678   0.631  -2.118  0.00  0.00    -0.005 A 
ATOM      4  C3  UNL d   1       2.919  -0.614  -1.537  0.00  0.00     0.006 A 
ATOM      5  C4  UNL d   1       1.989  -1.172  -0.660  0.00  0.00    -0.005 A 
ATOM      6  C5  UNL d   1       0.808  -0.488  -0.355  0.00  0.00    -0.074 A 
ATOM      7  C6  UNL d   1      -0.199  -1.069   0.593  0.00  0.00     0.077 C 
ATOM      8  C7  UNL d   1       0.576   0.766  -0.937  0.00  0.00    -0.001 A 
ENDROOT
TORSDOF 0
ENDMDL
