MODEL 1
REMARK minimizedAffinity -6.06005764
REMARK minimizedRMSD -1
REMARK  0 active torsions:
REMARK  status: ('A' for Active; 'I' for Inactive)
ROOT
ATOM      1  C   UNL d   1      -3.765  -2.122   3.903  0.00  0.00     0.077 C 
ATOM      2  C1  UNL d   1      -3.318  -0.814   3.320  0.00  0.00    -0.074 A 
ATOM      3  C2  UNL d   1      -3.703   0.400   3.899  0.00  0.00    -0.005 A 
ATOM      4  C3  UNL d   1      -3.272   1.608   3.351  0.00  0.00     0.006 A 
ATOM      5  C4  UNL d   1      -2.453   1.615   2.222  0.00  0.00    -0.005 A 
ATOM      6  C5  UNL d   1      -2.057   0.411   1.630  0.00  0.00    -0.074 A 
ATOM      7  C6  UNL d   1      -1.169   0.401   0.421  0.00  0.00     0.077 C 
ATOM      8  C7  UNL d   1      -2.489  -0.799   2.190  0.00  0.00    -0.001 A 
ENDROOT
TORSDOF 0
ENDMDL
