MODEL 1
REMARK minimizedAffinity 0.275710732
REMARK minimizedRMSD -1
REMARK  0 active torsions:
REMARK  status: ('A' for Active; 'I' for Inactive)
ROOT
ATOM      1  C   UNL d   1       1.230   0.775  -3.652  0.00  0.00     0.077 C 
ATOM      2  C1  UNL d   1       0.922  -0.089  -2.465  0.00  0.00    -0.074 A 
ATOM      3  C2  UNL d   1       1.691  -1.223  -2.184  0.00  0.00    -0.005 A 
ATOM      4  C3  UNL d   1       1.399  -2.012  -1.071  0.00  0.00     0.006 A 
ATOM      5  C4  UNL d   1       0.338  -1.675  -0.230  0.00  0.00    -0.005 A 
ATOM      6  C5  UNL d   1      -0.441  -0.544  -0.495  0.00  0.00    -0.074 A 
ATOM      7  C6  UNL d   1      -1.579  -0.162   0.405  0.00  0.00     0.077 C 
ATOM      8  C7  UNL d   1      -0.137   0.247  -1.611  0.00  0.00    -0.001 A 
ENDROOT
TORSDOF 0
ENDMDL
