MODEL 1
REMARK minimizedAffinity -5.7437315
REMARK minimizedRMSD -1
REMARK  0 active torsions:
REMARK  status: ('A' for Active; 'I' for Inactive)
ROOT
ATOM      1  C   UNL d   1      -3.038  -1.971   3.686  0.00  0.00     0.077 C 
ATOM      2  C1  UNL d   1      -2.575  -0.648   3.152  0.00  0.00    -0.074 A 
ATOM      3  C2  UNL d   1      -2.634   0.505   3.941  0.00  0.00    -0.005 A 
ATOM      4  C3  UNL d   1      -2.190   1.727   3.434  0.00  0.00     0.006 A 
ATOM      5  C4  UNL d   1      -1.684   1.807   2.136  0.00  0.00    -0.005 A 
ATOM      6  C5  UNL d   1      -1.617   0.664   1.334  0.00  0.00    -0.074 A 
ATOM      7  C6  UNL d   1      -1.067   0.731  -0.060  0.00  0.00     0.077 C 
ATOM      8  C7  UNL d   1      -2.058  -0.561   1.852  0.00  0.00    -0.001 A 
ENDROOT
TORSDOF 0
ENDMDL
