MODEL 1
REMARK minimizedAffinity -1.79315126
REMARK minimizedRMSD -1
REMARK  1 active torsions:
REMARK  status: ('A' for Active; 'I' for Inactive)
REMARK    1  A    between atoms: C1_2  and  C2_3 
ROOT
ATOM      1  C2  UNL d   1      -0.576   2.846   1.026  0.00  0.00    -0.077 A 
ATOM      2  C3  UNL d   1      -0.304   4.180   0.691  0.00  0.00     0.002 A 
ATOM      3  C4  UNL d   1      -0.174   4.560  -0.647  0.00  0.00     0.002 A 
ATOM      4  C5  UNL d   1      -0.319   3.614  -1.659  0.00  0.00    -0.004 A 
ATOM      5  C6  UNL d   1      -0.587   2.284  -1.336  0.00  0.00     0.002 A 
ATOM      6  C7  UNL d   1      -0.716   1.902   0.000  0.00  0.00     0.002 A 
ENDROOT
BRANCH   1   7
ATOM      7  C1  UNL d   1      -0.765   2.444   2.465  0.00  0.00     0.055 C 
ATOM      8  C   UNL d   1      -2.037   1.629   2.649  0.00  0.00     0.019 C 
ENDBRANCH   1   7
TORSDOF 1
ENDMDL
