MODEL 1
REMARK minimizedAffinity 3.01233792
REMARK minimizedRMSD -1
REMARK  1 active torsions:
REMARK  status: ('A' for Active; 'I' for Inactive)
REMARK    1  A    between atoms: C1_2  and  C2_3 
ROOT
ATOM      1  C2  UNL d   1      -0.769   3.595  -2.365  0.00  0.00    -0.077 A 
ATOM      2  C3  UNL d   1       0.519   4.099  -2.596  0.00  0.00     0.002 A 
ATOM      3  C4  UNL d   1       1.380   4.352  -1.526  0.00  0.00     0.002 A 
ATOM      4  C5  UNL d   1       0.965   4.099  -0.220  0.00  0.00    -0.004 A 
ATOM      5  C6  UNL d   1      -0.315   3.600   0.019  0.00  0.00     0.002 A 
ATOM      6  C7  UNL d   1      -1.178   3.348  -1.048  0.00  0.00     0.002 A 
ENDROOT
BRANCH   1   7
ATOM      7  C1  UNL d   1      -1.682   3.276  -3.520  0.00  0.00     0.055 C 
ATOM      8  C   UNL d   1      -2.818   2.360  -3.091  0.00  0.00     0.019 C 
ENDBRANCH   1   7
TORSDOF 1
ENDMDL
