MODEL 1
REMARK minimizedAffinity 7.71548986
REMARK minimizedRMSD -1
REMARK  1 active torsions:
REMARK  status: ('A' for Active; 'I' for Inactive)
REMARK    1  A    between atoms: C1_2  and  C2_3 
ROOT
ATOM      1  C2  UNL d   1      -1.028   4.954  -0.395  0.00  0.00    -0.077 A 
ATOM      2  C3  UNL d   1      -0.093   4.028   0.087  0.00  0.00     0.002 A 
ATOM      3  C4  UNL d   1       0.479   3.089  -0.775  0.00  0.00     0.002 A 
ATOM      4  C5  UNL d   1       0.126   3.071  -2.122  0.00  0.00    -0.004 A 
ATOM      5  C6  UNL d   1      -0.805   3.987  -2.610  0.00  0.00     0.002 A 
ATOM      6  C7  UNL d   1      -1.378   4.925  -1.751  0.00  0.00     0.002 A 
ENDROOT
BRANCH   1   7
ATOM      7  C1  UNL d   1      -1.608   5.999   0.522  0.00  0.00     0.055 C 
ATOM      8  C   UNL d   1      -3.129   5.933   0.543  0.00  0.00     0.019 C 
ENDBRANCH   1   7
TORSDOF 1
ENDMDL
