MODEL 1
REMARK minimizedAffinity 6.88061857
REMARK minimizedRMSD -1
REMARK  1 active torsions:
REMARK  status: ('A' for Active; 'I' for Inactive)
REMARK    1  A    between atoms: C1_2  and  C2_3 
ROOT
ATOM      1  C2  UNL d   1      -0.165   3.541  -0.351  0.00  0.00    -0.077 A 
ATOM      2  C3  UNL d   1      -0.325   4.878   0.038  0.00  0.00     0.002 A 
ATOM      3  C4  UNL d   1      -0.677   5.850  -0.901  0.00  0.00     0.002 A 
ATOM      4  C5  UNL d   1      -0.875   5.494  -2.233  0.00  0.00    -0.004 A 
ATOM      5  C6  UNL d   1      -0.716   4.167  -2.630  0.00  0.00     0.002 A 
ATOM      6  C7  UNL d   1      -0.364   3.195  -1.693  0.00  0.00     0.002 A 
ENDROOT
BRANCH   1   7
ATOM      7  C1  UNL d   1       0.166   2.484   0.670  0.00  0.00     0.055 C 
ATOM      8  C   UNL d   1      -1.088   1.775   1.159  0.00  0.00     0.019 C 
ENDBRANCH   1   7
TORSDOF 1
ENDMDL
