MODEL 1
REMARK minimizedAffinity 10.2512531
REMARK minimizedRMSD -1
REMARK  1 active torsions:
REMARK  status: ('A' for Active; 'I' for Inactive)
REMARK    1  A    between atoms: C1_2  and  C2_3 
ROOT
ATOM      1  C2  UNL d   1      -3.908  -3.404   4.965  0.00  0.00    -0.077 A 
ATOM      2  C3  UNL d   1      -3.859  -4.635   4.295  0.00  0.00     0.002 A 
ATOM      3  C4  UNL d   1      -4.870  -5.579   4.479  0.00  0.00     0.002 A 
ATOM      4  C5  UNL d   1      -5.939  -5.302   5.328  0.00  0.00    -0.004 A 
ATOM      5  C6  UNL d   1      -5.996  -4.081   6.000  0.00  0.00     0.002 A 
ATOM      6  C7  UNL d   1      -4.985  -3.136   5.819  0.00  0.00     0.002 A 
ENDROOT
BRANCH   1   7
ATOM      7  C1  UNL d   1      -2.843  -2.364   4.730  0.00  0.00     0.055 C 
ATOM      8  C   UNL d   1      -2.628  -1.504   5.966  0.00  0.00     0.019 C 
ENDBRANCH   1   7
TORSDOF 1
ENDMDL
