MODEL 1
REMARK minimizedAffinity 10.9810724
REMARK minimizedRMSD -1
REMARK  1 active torsions:
REMARK  status: ('A' for Active; 'I' for Inactive)
REMARK    1  A    between atoms: C1_2  and  C2_3 
ROOT
ATOM      1  C2  UNL d   1       0.061   2.849  -0.437  0.00  0.00    -0.077 A 
ATOM      2  C3  UNL d   1       0.138   3.095  -1.815  0.00  0.00     0.002 A 
ATOM      3  C4  UNL d   1       0.632   4.312  -2.288  0.00  0.00     0.002 A 
ATOM      4  C5  UNL d   1       1.058   5.290  -1.391  0.00  0.00    -0.004 A 
ATOM      5  C6  UNL d   1       0.984   5.055  -0.019  0.00  0.00     0.002 A 
ATOM      6  C7  UNL d   1       0.489   3.840   0.456  0.00  0.00     0.002 A 
ENDROOT
BRANCH   1   7
ATOM      7  C1  UNL d   1      -0.425   1.518   0.075  0.00  0.00     0.055 C 
ATOM      8  C   UNL d   1       0.021   1.280   1.510  0.00  0.00     0.019 C 
ENDBRANCH   1   7
TORSDOF 1
ENDMDL
