MODEL 1
REMARK minimizedAffinity 0.372720003
REMARK minimizedRMSD -1
REMARK  1 active torsions:
REMARK  status: ('A' for Active; 'I' for Inactive)
REMARK    1  A    between atoms: C1_2  and  C2_3 
ROOT
ATOM      1  C2  UNL d   1      -0.799   2.594  -1.605  0.00  0.00    -0.077 A 
ATOM      2  C3  UNL d   1      -0.708   2.032  -0.323  0.00  0.00     0.002 A 
ATOM      3  C4  UNL d   1      -0.010   2.693   0.689  0.00  0.00     0.002 A 
ATOM      4  C5  UNL d   1       0.598   3.920   0.433  0.00  0.00    -0.004 A 
ATOM      5  C6  UNL d   1       0.515   4.486  -0.839  0.00  0.00     0.002 A 
ATOM      6  C7  UNL d   1      -0.181   3.826  -1.853  0.00  0.00     0.002 A 
ENDROOT
BRANCH   1   7
ATOM      7  C1  UNL d   1      -1.592   1.906  -2.685  0.00  0.00     0.055 C 
ATOM      8  C   UNL d   1      -2.683   1.024  -2.095  0.00  0.00     0.019 C 
ENDBRANCH   1   7
TORSDOF 1
ENDMDL
