MODEL 1
REMARK minimizedAffinity 6.25634909
REMARK minimizedRMSD -1
REMARK  1 active torsions:
REMARK  status: ('A' for Active; 'I' for Inactive)
REMARK    1  A    between atoms: C1_2  and  C2_3 
ROOT
ATOM      1  C2  UNL d   1      -1.127   2.822  -1.828  0.00  0.00    -0.077 A 
ATOM      2  C3  UNL d   1      -1.182   2.028  -0.674  0.00  0.00     0.002 A 
ATOM      3  C4  UNL d   1      -0.405   2.348   0.441  0.00  0.00     0.002 A 
ATOM      4  C5  UNL d   1       0.429   3.463   0.415  0.00  0.00    -0.004 A 
ATOM      5  C6  UNL d   1       0.492   4.259  -0.729  0.00  0.00     0.002 A 
ATOM      6  C7  UNL d   1      -0.283   3.940  -1.845  0.00  0.00     0.002 A 
ENDROOT
BRANCH   1   7
ATOM      7  C1  UNL d   1      -2.001   2.507  -3.014  0.00  0.00     0.055 C 
ATOM      8  C   UNL d   1      -3.010   1.417  -2.684  0.00  0.00     0.019 C 
ENDBRANCH   1   7
TORSDOF 1
ENDMDL
