MODEL 1
REMARK minimizedAffinity -1.57632053
REMARK minimizedRMSD -1
REMARK  1 active torsions:
REMARK  status: ('A' for Active; 'I' for Inactive)
REMARK    1  A    between atoms: C1_2  and  C2_3 
ROOT
ATOM      1  C2  UNL d   1      -3.610  -2.730   5.590  0.00  0.00    -0.077 A 
ATOM      2  C3  UNL d   1      -2.739  -1.904   4.866  0.00  0.00     0.002 A 
ATOM      3  C4  UNL d   1      -1.447  -2.336   4.559  0.00  0.00     0.002 A 
ATOM      4  C5  UNL d   1      -1.017  -3.597   4.968  0.00  0.00    -0.004 A 
ATOM      5  C6  UNL d   1      -1.875  -4.425   5.690  0.00  0.00     0.002 A 
ATOM      6  C7  UNL d   1      -3.165  -3.994   5.999  0.00  0.00     0.002 A 
ENDROOT
BRANCH   1   7
ATOM      7  C1  UNL d   1      -5.019  -2.286   5.880  0.00  0.00     0.055 C 
ATOM      8  C   UNL d   1      -5.989  -3.458   5.835  0.00  0.00     0.019 C 
ENDBRANCH   1   7
TORSDOF 1
ENDMDL
