MODEL 1
REMARK minimizedAffinity 5.82205629
REMARK minimizedRMSD -1
REMARK  1 active torsions:
REMARK  status: ('A' for Active; 'I' for Inactive)
REMARK    1  A    between atoms: C1_2  and  C2_3 
ROOT
ATOM      1  C2  UNL d   1      -0.939  -0.483   3.435  0.00  0.00    -0.077 A 
ATOM      2  C3  UNL d   1      -2.199  -0.894   3.892  0.00  0.00     0.002 A 
ATOM      3  C4  UNL d   1      -2.425  -2.228   4.236  0.00  0.00     0.002 A 
ATOM      4  C5  UNL d   1      -1.395  -3.161   4.130  0.00  0.00    -0.004 A 
ATOM      5  C6  UNL d   1      -0.139  -2.762   3.675  0.00  0.00     0.002 A 
ATOM      6  C7  UNL d   1       0.088  -1.429   3.330  0.00  0.00     0.002 A 
ENDROOT
BRANCH   1   7
ATOM      7  C1  UNL d   1      -0.680   0.965   3.111  0.00  0.00     0.055 C 
ATOM      8  C   UNL d   1       0.218   1.614   4.154  0.00  0.00     0.019 C 
ENDBRANCH   1   7
TORSDOF 1
ENDMDL
