MODEL 1
REMARK minimizedAffinity -4.11927366
REMARK minimizedRMSD -1
REMARK  3 active torsions:
REMARK  status: ('A' for Active; 'I' for Inactive)
REMARK    1  A    between atoms: C3'_2  and  C2'_3 
REMARK    2  A    between atoms: C2'_3  and  C1'_4 
REMARK    3  A    between atoms: C1'_4  and  C1_5 
ROOT
ATOM      1  C1  N4B d   1      -0.010   0.259   0.133  0.00  0.00    -0.075 A 
ATOM      2  C2  N4B d   1      -0.498  -0.043   1.423  0.00  0.00     0.002 A 
ATOM      3  C3  N4B d   1      -0.894   0.970   2.262  0.00  0.00     0.002 A 
ATOM      4  C4  N4B d   1      -0.794   2.287   1.840  0.00  0.00    -0.004 A 
ATOM      5  C5  N4B d   1      -0.346   2.569   0.583  0.00  0.00     0.002 A 
ATOM      6  C6  N4B d   1       0.052   1.561  -0.272  0.00  0.00     0.002 A 
ENDROOT
BRANCH   1   7
ATOM      7  C1' N4B d   1       0.515  -0.809  -0.788  0.00  0.00     0.057 C 
BRANCH   7   8
ATOM      8  C2' N4B d   1       0.084  -2.176  -0.266  0.00  0.00     0.009 C 
BRANCH   8   9
ATOM      9  C3' N4B d   1       0.473  -3.296  -1.216  0.00  0.00     0.004 C 
ATOM     10  C4' N4B d   1      -0.691  -3.823  -2.000  0.00  0.00     0.003 C 
ENDBRANCH   8   9
ENDBRANCH   7   8
ENDBRANCH   1   7
TORSDOF 3
ENDMDL
