MODEL 1
REMARK minimizedAffinity -2.66352916
REMARK minimizedRMSD -1
REMARK  3 active torsions:
REMARK  status: ('A' for Active; 'I' for Inactive)
REMARK    1  A    between atoms: C3'_2  and  C2'_3 
REMARK    2  A    between atoms: C2'_3  and  C1'_4 
REMARK    3  A    between atoms: C1'_4  and  C1_5 
ROOT
ATOM      1  C1  N4B d   1      -0.057  -1.818  -0.806  0.00  0.00    -0.075 A 
ATOM      2  C2  N4B d   1      -1.459  -1.943  -0.923  0.00  0.00     0.002 A 
ATOM      3  C3  N4B d   1      -2.031  -3.188  -1.020  0.00  0.00     0.002 A 
ATOM      4  C4  N4B d   1      -1.224  -4.316  -1.020  0.00  0.00    -0.004 A 
ATOM      5  C5  N4B d   1       0.127  -4.187  -0.881  0.00  0.00     0.002 A 
ATOM      6  C6  N4B d   1       0.715  -2.943  -0.779  0.00  0.00     0.002 A 
ENDROOT
BRANCH   1   7
ATOM      7  C1' N4B d   1       0.621  -0.475  -0.784  0.00  0.00     0.057 C 
BRANCH   7   8
ATOM      8  C2' N4B d   1      -0.193   0.483   0.080  0.00  0.00     0.009 C 
BRANCH   8   9
ATOM      9  C3' N4B d   1       0.070   0.276   1.561  0.00  0.00     0.004 C 
ATOM     10  C4' N4B d   1       0.095   1.563   2.332  0.00  0.00     0.003 C 
ENDBRANCH   8   9
ENDBRANCH   7   8
ENDBRANCH   1   7
TORSDOF 3
ENDMDL
