MODEL 1
REMARK minimizedAffinity -3.17757225
REMARK minimizedRMSD -1
REMARK  3 active torsions:
REMARK  status: ('A' for Active; 'I' for Inactive)
REMARK    1  A    between atoms: C3'_2  and  C2'_3 
REMARK    2  A    between atoms: C2'_3  and  C1'_4 
REMARK    3  A    between atoms: C1'_4  and  C1_5 
ROOT
ATOM      1  C1  N4B d   1       0.297  -0.454  -0.033  0.00  0.00    -0.075 A 
ATOM      2  C2  N4B d   1      -0.386   0.766  -0.237  0.00  0.00     0.002 A 
ATOM      3  C3  N4B d   1      -0.497   1.670   0.790  0.00  0.00     0.002 A 
ATOM      4  C4  N4B d   1       0.047   1.371   2.030  0.00  0.00    -0.004 A 
ATOM      5  C5  N4B d   1       0.727   0.202   2.212  0.00  0.00     0.002 A 
ATOM      6  C6  N4B d   1       0.850  -0.715   1.188  0.00  0.00     0.002 A 
ENDROOT
BRANCH   1   7
ATOM      7  C1' N4B d   1       0.371  -1.511  -1.100  0.00  0.00     0.057 C 
BRANCH   7   8
ATOM      8  C2' N4B d   1      -1.036  -1.805  -1.611  0.00  0.00     0.009 C 
BRANCH   8   9
ATOM      9  C3' N4B d   1      -1.148  -3.203  -2.196  0.00  0.00     0.004 C 
ATOM     10  C4' N4B d   1      -0.746  -4.272  -1.224  0.00  0.00     0.003 C 
ENDBRANCH   8   9
ENDBRANCH   7   8
ENDBRANCH   1   7
TORSDOF 3
ENDMDL
