MODEL 1
REMARK minimizedAffinity -3.80786014
REMARK minimizedRMSD -1
REMARK  3 active torsions:
REMARK  status: ('A' for Active; 'I' for Inactive)
REMARK    1  A    between atoms: C3'_2  and  C2'_3 
REMARK    2  A    between atoms: C2'_3  and  C1'_4 
REMARK    3  A    between atoms: C1'_4  and  C1_5 
ROOT
ATOM      1  C1  N4B d   1       0.202  -0.158   0.257  0.00  0.00    -0.075 A 
ATOM      2  C2  N4B d   1       0.293   0.569  -0.951  0.00  0.00     0.002 A 
ATOM      3  C3  N4B d   1       0.209   1.940  -0.935  0.00  0.00     0.002 A 
ATOM      4  C4  N4B d   1       0.016   2.601   0.269  0.00  0.00    -0.004 A 
ATOM      5  C5  N4B d   1      -0.045   1.893   1.433  0.00  0.00     0.002 A 
ATOM      6  C6  N4B d   1       0.042   0.516   1.433  0.00  0.00     0.002 A 
ENDROOT
BRANCH   1   7
ATOM      7  C1' N4B d   1       0.203  -1.662   0.280  0.00  0.00     0.057 C 
BRANCH   7   8
ATOM      8  C2' N4B d   1       0.331  -2.185  -1.148  0.00  0.00     0.009 C 
BRANCH   8   9
ATOM      9  C3' N4B d   1      -0.793  -3.144  -1.504  0.00  0.00     0.004 C 
ATOM     10  C4' N4B d   1      -1.161  -4.054  -0.371  0.00  0.00     0.003 C 
ENDBRANCH   8   9
ENDBRANCH   7   8
ENDBRANCH   1   7
TORSDOF 3
ENDMDL
