MODEL 1
REMARK minimizedAffinity -3.71748805
REMARK minimizedRMSD -1
REMARK  3 active torsions:
REMARK  status: ('A' for Active; 'I' for Inactive)
REMARK    1  A    between atoms: C3'_2  and  C2'_3 
REMARK    2  A    between atoms: C2'_3  and  C1'_4 
REMARK    3  A    between atoms: C1'_4  and  C1_5 
ROOT
ATOM      1  C1  N4B d   1       0.310  -2.085  -0.920  0.00  0.00    -0.075 A 
ATOM      2  C2  N4B d   1       1.188  -3.183  -1.054  0.00  0.00     0.002 A 
ATOM      3  C3  N4B d   1       0.684  -4.453  -1.190  0.00  0.00     0.002 A 
ATOM      4  C4  N4B d   1      -0.689  -4.651  -1.176  0.00  0.00    -0.004 A 
ATOM      5  C5  N4B d   1      -1.531  -3.582  -1.073  0.00  0.00     0.002 A 
ATOM      6  C6  N4B d   1      -1.038  -2.300  -0.939  0.00  0.00     0.002 A 
ENDROOT
BRANCH   1   7
ATOM      7  C1' N4B d   1       0.815  -0.688  -0.683  0.00  0.00     0.057 C 
BRANCH   7   8
ATOM      8  C2' N4B d   1      -0.143   0.038   0.256  0.00  0.00     0.009 C 
BRANCH   8   9
ATOM      9  C3' N4B d   1       0.386   0.091   1.679  0.00  0.00     0.004 C 
ATOM     10  C4' N4B d   1      -0.250   1.176   2.496  0.00  0.00     0.003 C 
ENDBRANCH   8   9
ENDBRANCH   7   8
ENDBRANCH   1   7
TORSDOF 3
ENDMDL
