MODEL 1
REMARK minimizedAffinity 1.70678508
REMARK minimizedRMSD -1
REMARK  3 active torsions:
REMARK  status: ('A' for Active; 'I' for Inactive)
REMARK    1  A    between atoms: C3'_2  and  C2'_3 
REMARK    2  A    between atoms: C2'_3  and  C1'_4 
REMARK    3  A    between atoms: C1'_4  and  C1_5 
ROOT
ATOM      1  C1  N4B d   1       0.559   2.745   1.613  0.00  0.00    -0.075 A 
ATOM      2  C2  N4B d   1       1.047   2.517   2.918  0.00  0.00     0.002 A 
ATOM      3  C3  N4B d   1       2.036   3.319   3.432  0.00  0.00     0.002 A 
ATOM      4  C4  N4B d   1       2.563   4.340   2.655  0.00  0.00    -0.004 A 
ATOM      5  C5  N4B d   1       2.068   4.571   1.405  0.00  0.00     0.002 A 
ATOM      6  C6  N4B d   1       1.072   3.774   0.877  0.00  0.00     0.002 A 
ENDROOT
BRANCH   1   7
ATOM      7  C1' N4B d   1      -0.461   1.841   0.976  0.00  0.00     0.057 C 
BRANCH   7   8
ATOM      8  C2' N4B d   1       0.259   0.770   0.162  0.00  0.00     0.009 C 
BRANCH   8   9
ATOM      9  C3' N4B d   1       0.409  -0.528   0.937  0.00  0.00     0.004 C 
ATOM     10  C4' N4B d   1       1.727  -0.633   1.644  0.00  0.00     0.003 C 
ENDBRANCH   8   9
ENDBRANCH   7   8
ENDBRANCH   1   7
TORSDOF 3
ENDMDL
