MODEL 1
REMARK minimizedAffinity -2.04405928
REMARK minimizedRMSD -1
REMARK  0 active torsions:
REMARK  status: ('A' for Active; 'I' for Inactive)
ROOT
ATOM      1  C   UNL d   1       1.321  -0.982   1.219  0.00  0.00    -0.002 A 
ATOM      2  C1  UNL d   1       1.624   0.298   0.776  0.00  0.00     0.010 A 
ATOM      3  C2  UNL d   1       0.673   1.056   0.091  0.00  0.00     0.041 A 
ATOM      4  C3  UNL d   1      -0.601   0.502  -0.142  0.00  0.00    -0.075 A 
ATOM      5  S   UNL d   1      -1.925   1.247  -0.958  0.00  0.00     0.015 SA
ATOM      6  C4  UNL d   1      -2.924  -0.116  -0.737  0.00  0.00     0.022 A 
ATOM      7  C5  UNL d   1      -2.280  -1.124  -0.060  0.00  0.00     0.026 A 
ATOM      8  C6  UNL d   1      -0.931  -0.784   0.295  0.00  0.00    -0.082 A 
ATOM      9  C7  UNL d   1       0.056  -1.528   0.986  0.00  0.00     0.045 A 
ENDROOT
TORSDOF 0
ENDMDL
