MODEL 1
REMARK minimizedAffinity -3.11411738
REMARK minimizedRMSD -1
REMARK  0 active torsions:
REMARK  status: ('A' for Active; 'I' for Inactive)
ROOT
ATOM      1  C   UNL d   1       2.916   0.188   0.740  0.00  0.00    -0.002 A 
ATOM      2  C1  UNL d   1       2.729  -1.144   0.400  0.00  0.00     0.010 A 
ATOM      3  C2  UNL d   1       1.489  -1.593  -0.061  0.00  0.00     0.041 A 
ATOM      4  C3  UNL d   1       0.431  -0.670  -0.177  0.00  0.00    -0.075 A 
ATOM      5  S   UNL d   1      -1.173  -0.991  -0.720  0.00  0.00     0.015 SA
ATOM      6  C4  UNL d   1      -1.648   0.632  -0.514  0.00  0.00     0.022 A 
ATOM      7  C5  UNL d   1      -0.620   1.415  -0.043  0.00  0.00     0.026 A 
ATOM      8  C6  UNL d   1       0.595   0.677   0.158  0.00  0.00    -0.082 A 
ATOM      9  C7  UNL d   1       1.863   1.100   0.624  0.00  0.00     0.045 A 
ENDROOT
TORSDOF 0
ENDMDL
