MODEL 1
REMARK minimizedAffinity -1.53573465
REMARK minimizedRMSD -1
REMARK  0 active torsions:
REMARK  status: ('A' for Active; 'I' for Inactive)
ROOT
ATOM      1  C   UNL d   1       2.250   1.500   0.375  0.00  0.00    -0.002 A 
ATOM      2  C1  UNL d   1       2.309   0.303   1.075  0.00  0.00     0.010 A 
ATOM      3  C2  UNL d   1       1.218  -0.568   1.085  0.00  0.00     0.041 A 
ATOM      4  C3  UNL d   1       0.056  -0.214   0.371  0.00  0.00    -0.075 A 
ATOM      5  S   UNL d   1      -1.402  -1.125   0.239  0.00  0.00     0.015 SA
ATOM      6  C4  UNL d   1      -2.136   0.052  -0.750  0.00  0.00     0.022 A 
ATOM      7  C5  UNL d   1      -1.304   1.121  -0.984  0.00  0.00     0.026 A 
ATOM      8  C6  UNL d   1      -0.026   0.985  -0.343  0.00  0.00    -0.082 A 
ATOM      9  C7  UNL d   1       1.096   1.848  -0.332  0.00  0.00     0.045 A 
ENDROOT
TORSDOF 0
ENDMDL
