MODEL 1
REMARK minimizedAffinity -2.55587196
REMARK minimizedRMSD -1
REMARK  0 active torsions:
REMARK  status: ('A' for Active; 'I' for Inactive)
ROOT
ATOM      1  C   UNL d   1       3.221  -0.391   0.880  0.00  0.00    -0.002 A 
ATOM      2  C1  UNL d   1       2.836  -1.724   0.836  0.00  0.00     0.010 A 
ATOM      3  C2  UNL d   1       1.503  -2.071   0.604  0.00  0.00     0.041 A 
ATOM      4  C3  UNL d   1       0.555  -1.046   0.413  0.00  0.00    -0.075 A 
ATOM      5  S   UNL d   1      -1.132  -1.234   0.114  0.00  0.00     0.015 SA
ATOM      6  C4  UNL d   1      -1.382   0.450   0.036  0.00  0.00     0.022 A 
ATOM      7  C5  UNL d   1      -0.217   1.154   0.233  0.00  0.00     0.026 A 
ATOM      8  C6  UNL d   1       0.919   0.303   0.453  0.00  0.00    -0.082 A 
ATOM      9  C7  UNL d   1       2.277   0.622   0.691  0.00  0.00     0.045 A 
ENDROOT
TORSDOF 0
ENDMDL
