MODEL 1
REMARK minimizedAffinity -5.05522871
REMARK minimizedRMSD -1
REMARK  0 active torsions:
REMARK  status: ('A' for Active; 'I' for Inactive)
ROOT
ATOM      1  C   UNL d   1       3.177   0.061   0.622  0.00  0.00    -0.002 A 
ATOM      2  C1  UNL d   1       2.776  -1.227   0.295  0.00  0.00     0.010 A 
ATOM      3  C2  UNL d   1       1.436  -1.506   0.021  0.00  0.00     0.041 A 
ATOM      4  C3  UNL d   1       0.496  -0.458   0.078  0.00  0.00    -0.075 A 
ATOM      5  S   UNL d   1      -1.198  -0.564  -0.221  0.00  0.00     0.015 SA
ATOM      6  C4  UNL d   1      -1.431   1.098   0.077  0.00  0.00     0.022 A 
ATOM      7  C5  UNL d   1      -0.255   1.733   0.398  0.00  0.00     0.026 A 
ATOM      8  C6  UNL d   1       0.875   0.847   0.404  0.00  0.00    -0.082 A 
ATOM      9  C7  UNL d   1       2.241   1.098   0.678  0.00  0.00     0.045 A 
ENDROOT
TORSDOF 0
ENDMDL
