MODEL 1
REMARK minimizedAffinity -2.54715562
REMARK minimizedRMSD -1
REMARK  0 active torsions:
REMARK  status: ('A' for Active; 'I' for Inactive)
ROOT
ATOM      1  C   UNL d   1       2.534   0.298   0.457  0.00  0.00    -0.002 A 
ATOM      2  C1  UNL d   1       1.693   1.376   0.223  0.00  0.00     0.010 A 
ATOM      3  C2  UNL d   1       0.309   1.238   0.347  0.00  0.00     0.041 A 
ATOM      4  C3  UNL d   1      -0.220  -0.015   0.715  0.00  0.00    -0.075 A 
ATOM      5  S   UNL d   1      -1.883  -0.419   0.928  0.00  0.00     0.015 SA
ATOM      6  C4  UNL d   1      -1.515  -2.032   1.336  0.00  0.00     0.022 A 
ATOM      7  C5  UNL d   1      -0.162  -2.274   1.315  0.00  0.00     0.026 A 
ATOM      8  C6  UNL d   1       0.607  -1.116   0.957  0.00  0.00    -0.082 A 
ATOM      9  C7  UNL d   1       2.005  -0.943   0.822  0.00  0.00     0.045 A 
ENDROOT
TORSDOF 0
ENDMDL
