MODEL 1
REMARK minimizedAffinity 9.35172939
REMARK minimizedRMSD -1
REMARK  1 active torsions:
REMARK  status: ('A' for Active; 'I' for Inactive)
REMARK    1  A    between atoms: C1_2  and  C2_3 
ROOT
ATOM      1  C2  UNL d   1      -3.578   1.353   5.328  0.00  0.00    -0.081 A 
ATOM      2  C3  UNL d   1      -3.145   1.119   4.017  0.00  0.00     0.006 A 
ATOM      3  C4  UNL d   1      -3.422  -0.096   3.386  0.00  0.00     0.002 A 
ATOM      4  C5  UNL d   1      -4.143  -1.093   4.052  0.00  0.00    -0.080 A 
ATOM      5  C6  UNL d   1      -4.474  -2.390   3.375  0.00  0.00     0.076 C 
ATOM      6  C7  UNL d   1      -4.561  -0.866   5.367  0.00  0.00     0.002 A 
ATOM      7  C8  UNL d   1      -4.283   0.348   5.999  0.00  0.00     0.006 A 
ENDROOT
BRANCH   1   8
ATOM      8  C1  UNL d   1      -3.337   2.686   5.989  0.00  0.00     0.054 C 
ATOM      9  C   UNL d   1      -4.600   3.535   6.000  0.00  0.00     0.018 C 
ENDBRANCH   1   8
TORSDOF 1
ENDMDL
