MODEL 1
REMARK minimizedAffinity 1.87937355
REMARK minimizedRMSD -1
REMARK  1 active torsions:
REMARK  status: ('A' for Active; 'I' for Inactive)
REMARK    1  A    between atoms: C1_2  and  C2_3 
ROOT
ATOM      1  C2  UNL d   1      -3.326   0.374   5.154  0.00  0.00    -0.081 A 
ATOM      2  C3  UNL d   1      -4.415  -0.298   5.721  0.00  0.00     0.006 A 
ATOM      3  C4  UNL d   1      -5.181  -1.178   4.953  0.00  0.00     0.002 A 
ATOM      4  C5  UNL d   1      -4.866  -1.407   3.609  0.00  0.00    -0.080 A 
ATOM      5  C6  UNL d   1      -5.661  -2.373   2.782  0.00  0.00     0.076 C 
ATOM      6  C7  UNL d   1      -3.788  -0.722   3.038  0.00  0.00     0.002 A 
ATOM      7  C8  UNL d   1      -3.022   0.159   3.805  0.00  0.00     0.006 A 
ENDROOT
BRANCH   1   8
ATOM      8  C1  UNL d   1      -2.458   1.275   5.996  0.00  0.00     0.054 C 
ATOM      9  C   UNL d   1      -0.992   0.877   5.902  0.00  0.00     0.018 C 
ENDBRANCH   1   8
TORSDOF 1
ENDMDL
