MODEL 1
REMARK minimizedAffinity 7.91552925
REMARK minimizedRMSD -1
REMARK  1 active torsions:
REMARK  status: ('A' for Active; 'I' for Inactive)
REMARK    1  A    between atoms: C1_2  and  C2_3 
ROOT
ATOM      1  C2  UNL d   1       2.963   1.879   0.237  0.00  0.00    -0.081 A 
ATOM      2  C3  UNL d   1       2.680   2.705   1.332  0.00  0.00     0.006 A 
ATOM      3  C4  UNL d   1       3.664   3.546   1.857  0.00  0.00     0.002 A 
ATOM      4  C5  UNL d   1       4.943   3.582   1.291  0.00  0.00    -0.080 A 
ATOM      5  C6  UNL d   1       5.999   4.503   1.826  0.00  0.00     0.076 C 
ATOM      6  C7  UNL d   1       5.231   2.744   0.209  0.00  0.00     0.002 A 
ATOM      7  C8  UNL d   1       4.248   1.902  -0.316  0.00  0.00     0.006 A 
ENDROOT
BRANCH   1   8
ATOM      8  C1  UNL d   1       1.886   1.018  -0.372  0.00  0.00     0.054 C 
ATOM      9  C   UNL d   1       1.475   1.533  -1.744  0.00  0.00     0.018 C 
ENDBRANCH   1   8
TORSDOF 1
ENDMDL
