MODEL 1
REMARK minimizedAffinity 7.85968971
REMARK minimizedRMSD -1
REMARK  1 active torsions:
REMARK  status: ('A' for Active; 'I' for Inactive)
REMARK    1  A    between atoms: C1_2  and  C2_3 
ROOT
ATOM      1  C2  UNL d   1      -1.561   2.566   1.563  0.00  0.00    -0.081 A 
ATOM      2  C3  UNL d   1      -0.282   3.119   1.420  0.00  0.00     0.006 A 
ATOM      3  C4  UNL d   1      -0.077   4.223   0.589  0.00  0.00     0.002 A 
ATOM      4  C5  UNL d   1      -1.147   4.796  -0.107  0.00  0.00    -0.080 A 
ATOM      5  C6  UNL d   1      -0.946   6.000  -0.979  0.00  0.00     0.076 C 
ATOM      6  C7  UNL d   1      -2.421   4.233   0.022  0.00  0.00     0.002 A 
ATOM      7  C8  UNL d   1      -2.627   3.129   0.853  0.00  0.00     0.006 A 
ENDROOT
BRANCH   1   8
ATOM      8  C1  UNL d   1      -1.797   1.416   2.509  0.00  0.00     0.054 C 
ATOM      9  C   UNL d   1      -2.493   1.880   3.780  0.00  0.00     0.018 C 
ENDBRANCH   1   8
TORSDOF 1
ENDMDL
