MODEL 1
REMARK minimizedAffinity 5.84049082
REMARK minimizedRMSD -1
REMARK  1 active torsions:
REMARK  status: ('A' for Active; 'I' for Inactive)
REMARK    1  A    between atoms: C1_2  and  C2_3 
ROOT
ATOM      1  C2  UNL d   1       4.464  -4.245  -0.164  0.00  0.00    -0.081 A 
ATOM      2  C3  UNL d   1       4.046  -2.972   0.241  0.00  0.00     0.006 A 
ATOM      3  C4  UNL d   1       2.703  -2.601   0.137  0.00  0.00     0.002 A 
ATOM      4  C5  UNL d   1       1.756  -3.499  -0.366  0.00  0.00    -0.080 A 
ATOM      5  C6  UNL d   1       0.306  -3.124  -0.454  0.00  0.00     0.076 C 
ATOM      6  C7  UNL d   1       2.176  -4.765  -0.787  0.00  0.00     0.002 A 
ATOM      7  C8  UNL d   1       3.518  -5.136  -0.684  0.00  0.00     0.006 A 
ENDROOT
BRANCH   1   8
ATOM      8  C1  UNL d   1       5.900  -4.671   0.006  0.00  0.00     0.054 C 
ATOM      9  C   UNL d   1       5.999  -6.000   0.742  0.00  0.00     0.018 C 
ENDBRANCH   1   8
TORSDOF 1
ENDMDL
