MODEL 1
REMARK minimizedAffinity 7.97824574
REMARK minimizedRMSD -1
REMARK  1 active torsions:
REMARK  status: ('A' for Active; 'I' for Inactive)
REMARK    1  A    between atoms: C1_2  and  C2_3 
ROOT
ATOM      1  C2  UNL d   1       2.273  -2.980  -0.359  0.00  0.00    -0.081 A 
ATOM      2  C3  UNL d   1       2.278  -1.746   0.302  0.00  0.00     0.006 A 
ATOM      3  C4  UNL d   1       3.480  -1.173   0.723  0.00  0.00     0.002 A 
ATOM      4  C5  UNL d   1       4.697  -1.819   0.483  0.00  0.00    -0.080 A 
ATOM      5  C6  UNL d   1       5.997  -1.200   0.903  0.00  0.00     0.076 C 
ATOM      6  C7  UNL d   1       4.691  -3.061  -0.161  0.00  0.00     0.002 A 
ATOM      7  C8  UNL d   1       3.490  -3.635  -0.582  0.00  0.00     0.006 A 
ENDROOT
BRANCH   1   8
ATOM      8  C1  UNL d   1       0.985  -3.571  -0.872  0.00  0.00     0.054 C 
ATOM      9  C   UNL d   1       0.790  -3.274  -2.352  0.00  0.00     0.018 C 
ENDBRANCH   1   8
TORSDOF 1
ENDMDL
