MODEL 1
REMARK minimizedAffinity 8.9656086
REMARK minimizedRMSD -1
REMARK  1 active torsions:
REMARK  status: ('A' for Active; 'I' for Inactive)
REMARK    1  A    between atoms: C1_2  and  C2_3 
ROOT
ATOM      1  C2  UNL d   1       4.480  -4.824   0.187  0.00  0.00    -0.081 A 
ATOM      2  C3  UNL d   1       3.712  -5.568  -0.717  0.00  0.00     0.006 A 
ATOM      3  C4  UNL d   1       2.420  -5.157  -1.055  0.00  0.00     0.002 A 
ATOM      4  C5  UNL d   1       1.879  -3.992  -0.502  0.00  0.00    -0.080 A 
ATOM      5  C6  UNL d   1       0.505  -3.522  -0.880  0.00  0.00     0.076 C 
ATOM      6  C7  UNL d   1       2.639  -3.258   0.415  0.00  0.00     0.002 A 
ATOM      7  C8  UNL d   1       3.930  -3.669   0.754  0.00  0.00     0.006 A 
ENDROOT
BRANCH   1   8
ATOM      8  C1  UNL d   1       5.896  -5.230   0.505  0.00  0.00     0.054 C 
ATOM      9  C   UNL d   1       5.972  -5.992   1.820  0.00  0.00     0.018 C 
ENDBRANCH   1   8
TORSDOF 1
ENDMDL
