MODEL 1
REMARK minimizedAffinity 5.72044468
REMARK minimizedRMSD -1
REMARK  1 active torsions:
REMARK  status: ('A' for Active; 'I' for Inactive)
REMARK    1  A    between atoms: C1_2  and  C2_3 
ROOT
ATOM      1  C2  UNL d   1       3.231   1.925  -1.398  0.00  0.00    -0.081 A 
ATOM      2  C3  UNL d   1       2.319   1.703  -0.359  0.00  0.00     0.006 A 
ATOM      3  C4  UNL d   1       2.203   2.619   0.689  0.00  0.00     0.002 A 
ATOM      4  C5  UNL d   1       2.990   3.776   0.711  0.00  0.00    -0.080 A 
ATOM      5  C6  UNL d   1       2.853   4.782   1.815  0.00  0.00     0.076 C 
ATOM      6  C7  UNL d   1       3.913   3.989  -0.318  0.00  0.00     0.002 A 
ATOM      7  C8  UNL d   1       4.031   3.073  -1.366  0.00  0.00     0.006 A 
ENDROOT
BRANCH   1   8
ATOM      8  C1  UNL d   1       3.313   0.972  -2.563  0.00  0.00     0.054 C 
ATOM      9  C   UNL d   1       1.953   0.783  -3.220  0.00  0.00     0.018 C 
ENDBRANCH   1   8
TORSDOF 1
ENDMDL
