MODEL 1
REMARK minimizedAffinity 0.653006017
REMARK minimizedRMSD -1
REMARK  0 active torsions:
REMARK  status: ('A' for Active; 'I' for Inactive)
ROOT
ATOM      1  C1  BNZ d   1       3.923  -5.893  -3.134  0.00  0.00     0.000 A 
ATOM      2  C2  BNZ d   1       3.271  -5.920  -4.338  0.00  0.00     0.000 A 
ATOM      3  C3  BNZ d   1       3.969  -5.993  -5.511  0.00  0.00     0.000 A 
ATOM      4  C4  BNZ d   1       5.317  -5.999  -5.481  0.00  0.00     0.000 A 
ATOM      5  C5  BNZ d   1       5.990  -5.963  -4.275  0.00  0.00     0.000 A 
ATOM      6  C6  BNZ d   1       5.283  -5.929  -3.095  0.00  0.00     0.000 A 
ENDROOT
TORSDOF 0
ENDMDL
