MODEL 1
REMARK minimizedAffinity 2.12978482
REMARK minimizedRMSD -1
REMARK  0 active torsions:
REMARK  status: ('A' for Active; 'I' for Inactive)
ROOT
ATOM      1  C1  BNZ d   1       4.578  -5.863  -3.281  0.00  0.00     0.000 A 
ATOM      2  C2  BNZ d   1       5.808  -5.699  -3.861  0.00  0.00     0.000 A 
ATOM      3  C3  BNZ d   1       5.941  -5.659  -5.221  0.00  0.00     0.000 A 
ATOM      4  C4  BNZ d   1       4.852  -5.823  -5.999  0.00  0.00     0.000 A 
ATOM      5  C5  BNZ d   1       3.607  -5.999  -5.430  0.00  0.00     0.000 A 
ATOM      6  C6  BNZ d   1       3.471  -6.000  -4.060  0.00  0.00     0.000 A 
ENDROOT
TORSDOF 0
ENDMDL
