MODEL 1
REMARK minimizedAffinity 10.0798702
REMARK minimizedRMSD -1
REMARK  0 active torsions:
REMARK  status: ('A' for Active; 'I' for Inactive)
ROOT
ATOM      1  C1  BNZ d   1       1.998  -0.371   3.007  0.00  0.00     0.000 A 
ATOM      2  C2  BNZ d   1       2.095  -1.051   4.192  0.00  0.00     0.000 A 
ATOM      3  C3  BNZ d   1       2.471  -2.365   4.216  0.00  0.00     0.000 A 
ATOM      4  C4  BNZ d   1       2.709  -3.008   3.054  0.00  0.00     0.000 A 
ATOM      5  C5  BNZ d   1       2.605  -2.339   1.851  0.00  0.00     0.000 A 
ATOM      6  C6  BNZ d   1       2.265  -1.006   1.833  0.00  0.00     0.000 A 
ENDROOT
TORSDOF 0
ENDMDL
