MODEL 1
REMARK minimizedAffinity 2.73650217
REMARK minimizedRMSD -1
REMARK  0 active torsions:
REMARK  status: ('A' for Active; 'I' for Inactive)
ROOT
ATOM      1  C1  BNZ d   1       5.828  -4.140  -3.390  0.00  0.00     0.000 A 
ATOM      2  C2  BNZ d   1       5.940  -3.259  -4.433  0.00  0.00     0.000 A 
ATOM      3  C3  BNZ d   1       5.999  -3.706  -5.723  0.00  0.00     0.000 A 
ATOM      4  C4  BNZ d   1       5.986  -5.033  -5.966  0.00  0.00     0.000 A 
ATOM      5  C5  BNZ d   1       5.884  -5.933  -4.925  0.00  0.00     0.000 A 
ATOM      6  C6  BNZ d   1       5.785  -5.478  -3.630  0.00  0.00     0.000 A 
ENDROOT
TORSDOF 0
ENDMDL
