MODEL 1
REMARK minimizedAffinity 1.29028797
REMARK minimizedRMSD -1
REMARK  0 active torsions:
REMARK  status: ('A' for Active; 'I' for Inactive)
ROOT
ATOM      1  C1  BNZ d   1       3.723   5.979  -3.885  0.00  0.00     0.000 A 
ATOM      2  C2  BNZ d   1       4.900   5.624  -3.283  0.00  0.00     0.000 A 
ATOM      3  C3  BNZ d   1       5.998   5.297  -4.029  0.00  0.00     0.000 A 
ATOM      4  C4  BNZ d   1       5.905   5.287  -5.374  0.00  0.00     0.000 A 
ATOM      5  C5  BNZ d   1       4.723   5.633  -5.997  0.00  0.00     0.000 A 
ATOM      6  C6  BNZ d   1       3.631   5.999  -5.243  0.00  0.00     0.000 A 
ENDROOT
TORSDOF 0
ENDMDL
