MODEL 1
REMARK minimizedAffinity 0.969584525
REMARK minimizedRMSD -1
REMARK  0 active torsions:
REMARK  status: ('A' for Active; 'I' for Inactive)
ROOT
ATOM      1  C1  BNZ d   1      -5.297   2.745   0.185  0.00  0.00     0.000 A 
ATOM      2  C2  BNZ d   1      -3.928   2.725   0.137  0.00  0.00     0.000 A 
ATOM      3  C3  BNZ d   1      -3.187   2.739   1.285  0.00  0.00     0.000 A 
ATOM      4  C4  BNZ d   1      -3.813   2.814   2.477  0.00  0.00     0.000 A 
ATOM      5  C5  BNZ d   1      -5.192   2.843   2.542  0.00  0.00     0.000 A 
ATOM      6  C6  BNZ d   1      -5.935   2.790   1.386  0.00  0.00     0.000 A 
ENDROOT
TORSDOF 0
ENDMDL
