MODEL 1
REMARK minimizedAffinity 5.33737087
REMARK minimizedRMSD -1
REMARK  0 active torsions:
REMARK  status: ('A' for Active; 'I' for Inactive)
ROOT
ATOM      1  C1  BNZ d   1       2.493   1.215   3.056  0.00  0.00     0.000 A 
ATOM      2  C2  BNZ d   1       2.551   0.521   4.235  0.00  0.00     0.000 A 
ATOM      3  C3  BNZ d   1       2.430  -0.840   4.252  0.00  0.00     0.000 A 
ATOM      4  C4  BNZ d   1       2.211  -1.501   3.097  0.00  0.00     0.000 A 
ATOM      5  C5  BNZ d   1       2.141  -0.815   1.901  0.00  0.00     0.000 A 
ATOM      6  C6  BNZ d   1       2.302   0.552   1.883  0.00  0.00     0.000 A 
ENDROOT
TORSDOF 0
ENDMDL
