MODEL 1
REMARK minimizedAffinity 2.19102073
REMARK minimizedRMSD -1
REMARK  0 active torsions:
REMARK  status: ('A' for Active; 'I' for Inactive)
ROOT
ATOM      1  C1  BNZ d   1       2.374  -5.281   5.999  0.00  0.00     0.000 A 
ATOM      2  C2  BNZ d   1       3.735  -5.136   6.000  0.00  0.00     0.000 A 
ATOM      3  C3  BNZ d   1       4.335  -4.157   5.258  0.00  0.00     0.000 A 
ATOM      4  C4  BNZ d   1       3.577  -3.351   4.486  0.00  0.00     0.000 A 
ATOM      5  C5  BNZ d   1       2.204  -3.492   4.467  0.00  0.00     0.000 A 
ATOM      6  C6  BNZ d   1       1.600  -4.453   5.245  0.00  0.00     0.000 A 
ENDROOT
TORSDOF 0
ENDMDL
