MODEL 1
REMARK minimizedAffinity 6.1639204
REMARK minimizedRMSD -1
REMARK  0 active torsions:
REMARK  status: ('A' for Active; 'I' for Inactive)
ROOT
ATOM      1  C1  BNZ d   1      -2.914   2.336   1.234  0.00  0.00     0.000 A 
ATOM      2  C2  BNZ d   1      -3.740   2.028   2.282  0.00  0.00     0.000 A 
ATOM      3  C3  BNZ d   1      -4.982   2.589   2.382  0.00  0.00     0.000 A 
ATOM      4  C4  BNZ d   1      -5.381   3.486   1.458  0.00  0.00     0.000 A 
ATOM      5  C5  BNZ d   1      -4.556   3.815   0.401  0.00  0.00     0.000 A 
ATOM      6  C6  BNZ d   1      -3.322   3.219   0.282  0.00  0.00     0.000 A 
ENDROOT
TORSDOF 0
ENDMDL
