MODEL 1
REMARK minimizedAffinity 3.27144194
REMARK minimizedRMSD -1
REMARK  0 active torsions:
REMARK  status: ('A' for Active; 'I' for Inactive)
ROOT
ATOM      1  C1  BNZ d   1       2.347  -0.679   2.521  0.00  0.00     0.000 A 
ATOM      2  C2  BNZ d   1       2.903  -1.927   2.619  0.00  0.00     0.000 A 
ATOM      3  C3  BNZ d   1       3.206  -2.464   3.839  0.00  0.00     0.000 A 
ATOM      4  C4  BNZ d   1       2.991  -1.737   4.955  0.00  0.00     0.000 A 
ATOM      5  C5  BNZ d   1       2.439  -0.474   4.871  0.00  0.00     0.000 A 
ATOM      6  C6  BNZ d   1       2.099   0.047   3.644  0.00  0.00     0.000 A 
ENDROOT
TORSDOF 0
ENDMDL
