MODEL 1
REMARK minimizedAffinity -2.31123519
REMARK minimizedRMSD -1
REMARK  1 active torsions:
REMARK  status: ('A' for Active; 'I' for Inactive)
REMARK    1  A    between atoms: C1_2  and  C2_3 
ROOT
ATOM      1  C2  UNL d   1       1.125  -0.908  -0.697  0.00  0.00    -0.081 A 
ATOM      2  C3  UNL d   1       2.025  -0.169  -1.475  0.00  0.00     0.006 A 
ATOM      3  C4  UNL d   1       2.010   1.227  -1.439  0.00  0.00     0.002 A 
ATOM      4  C5  UNL d   1       1.101   1.907  -0.621  0.00  0.00    -0.080 A 
ATOM      5  C6  UNL d   1       1.095   3.405  -0.550  0.00  0.00     0.076 C 
ATOM      6  C7  UNL d   1       0.191   1.169   0.143  0.00  0.00     0.002 A 
ATOM      7  C8  UNL d   1       0.205  -0.228   0.107  0.00  0.00     0.006 A 
ENDROOT
BRANCH   1   8
ATOM      8  C1  UNL d   1       1.181  -2.415  -0.684  0.00  0.00     0.054 C 
ATOM      9  C   UNL d   1       2.406  -2.929  -1.427  0.00  0.00     0.018 C 
ENDBRANCH   1   8
TORSDOF 1
ENDMDL
