MODEL 1
REMARK minimizedAffinity -5.72877216
REMARK minimizedRMSD -1
REMARK  1 active torsions:
REMARK  status: ('A' for Active; 'I' for Inactive)
REMARK    1  A    between atoms: C1_2  and  C2_3 
ROOT
ATOM      1  C2  UNL d   1      -0.347  -0.062   0.589  0.00  0.00    -0.081 A 
ATOM      2  C3  UNL d   1       0.384   0.970  -0.011  0.00  0.00     0.006 A 
ATOM      3  C4  UNL d   1       1.160   0.721  -1.146  0.00  0.00     0.002 A 
ATOM      4  C5  UNL d   1       1.213  -0.561  -1.702  0.00  0.00    -0.080 A 
ATOM      5  C6  UNL d   1       2.018  -0.835  -2.938  0.00  0.00     0.076 C 
ATOM      6  C7  UNL d   1       0.497  -1.597  -1.092  0.00  0.00     0.002 A 
ATOM      7  C8  UNL d   1      -0.279  -1.348   0.042  0.00  0.00     0.006 A 
ENDROOT
BRANCH   1   8
ATOM      8  C1  UNL d   1      -1.236   0.217   1.774  0.00  0.00     0.054 C 
ATOM      9  C   UNL d   1      -2.685  -0.140   1.475  0.00  0.00     0.018 C 
ENDBRANCH   1   8
TORSDOF 1
ENDMDL
