MODEL 1
REMARK minimizedAffinity -4.06497192
REMARK minimizedRMSD -1
REMARK  1 active torsions:
REMARK  status: ('A' for Active; 'I' for Inactive)
REMARK    1  A    between atoms: C1_2  and  C2_3 
ROOT
ATOM      1  C2  UNL d   1      -1.153   0.302   1.165  0.00  0.00    -0.081 A 
ATOM      2  C3  UNL d   1      -0.673   1.514   0.655  0.00  0.00     0.006 A 
ATOM      3  C4  UNL d   1       0.463   1.539  -0.159  0.00  0.00     0.002 A 
ATOM      4  C5  UNL d   1       1.131   0.354  -0.482  0.00  0.00    -0.080 A 
ATOM      5  C6  UNL d   1       2.333   0.364  -1.379  0.00  0.00     0.076 C 
ATOM      6  C7  UNL d   1       0.662  -0.855   0.042  0.00  0.00     0.002 A 
ATOM      7  C8  UNL d   1      -0.473  -0.882   0.856  0.00  0.00     0.006 A 
ENDROOT
BRANCH   1   8
ATOM      8  C1  UNL d   1      -2.414   0.263   1.990  0.00  0.00     0.054 C 
ATOM      9  C   UNL d   1      -3.584   0.884   1.240  0.00  0.00     0.018 C 
ENDBRANCH   1   8
TORSDOF 1
ENDMDL
