MODEL 1
REMARK minimizedAffinity 4.70761871
REMARK minimizedRMSD -1
REMARK  1 active torsions:
REMARK  status: ('A' for Active; 'I' for Inactive)
REMARK    1  A    between atoms: C1_2  and  C2_3 
ROOT
ATOM      1  C2  UNL d   1      -3.386   2.208   2.614  0.00  0.00    -0.081 A 
ATOM      2  C3  UNL d   1      -4.094   3.357   2.989  0.00  0.00     0.006 A 
ATOM      3  C4  UNL d   1      -3.686   4.112   4.092  0.00  0.00     0.002 A 
ATOM      4  C5  UNL d   1      -2.561   3.736   4.832  0.00  0.00    -0.080 A 
ATOM      5  C6  UNL d   1      -2.095   4.554   5.999  0.00  0.00     0.076 C 
ATOM      6  C7  UNL d   1      -1.864   2.578   4.468  0.00  0.00     0.002 A 
ATOM      7  C8  UNL d   1      -2.271   1.823   3.367  0.00  0.00     0.006 A 
ENDROOT
BRANCH   1   8
ATOM      8  C1  UNL d   1      -3.785   1.428   1.387  0.00  0.00     0.054 C 
ATOM      9  C   UNL d   1      -3.842  -0.065   1.675  0.00  0.00     0.018 C 
ENDBRANCH   1   8
TORSDOF 1
ENDMDL
