MODEL 1
REMARK minimizedAffinity -2.3636992
REMARK minimizedRMSD -1
REMARK  1 active torsions:
REMARK  status: ('A' for Active; 'I' for Inactive)
REMARK    1  A    between atoms: C1_2  and  C2_3 
ROOT
ATOM      1  C2  UNL d   1      -1.544   0.604   0.962  0.00  0.00    -0.081 A 
ATOM      2  C3  UNL d   1      -0.371   0.010   1.442  0.00  0.00     0.006 A 
ATOM      3  C4  UNL d   1       0.780  -0.027   0.651  0.00  0.00     0.002 A 
ATOM      4  C5  UNL d   1       0.778   0.537  -0.630  0.00  0.00    -0.080 A 
ATOM      5  C6  UNL d   1       2.015   0.531  -1.478  0.00  0.00     0.076 C 
ATOM      6  C7  UNL d   1      -0.399   1.115  -1.116  0.00  0.00     0.002 A 
ATOM      7  C8  UNL d   1      -1.550   1.151  -0.326  0.00  0.00     0.006 A 
ENDROOT
BRANCH   1   8
ATOM      8  C1  UNL d   1      -2.767   0.702   1.838  0.00  0.00     0.054 C 
ATOM      9  C   UNL d   1      -4.009   1.025   1.020  0.00  0.00     0.018 C 
ENDBRANCH   1   8
TORSDOF 1
ENDMDL
