MODEL 1
REMARK minimizedAffinity -4.14031029
REMARK minimizedRMSD -1
REMARK  1 active torsions:
REMARK  status: ('A' for Active; 'I' for Inactive)
REMARK    1  A    between atoms: C1_2  and  C2_3 
ROOT
ATOM      1  C2  UNL d   1      -1.293   0.150   1.346  0.00  0.00    -0.081 A 
ATOM      2  C3  UNL d   1      -1.264   1.231   0.456  0.00  0.00     0.006 A 
ATOM      3  C4  UNL d   1      -0.331   1.269  -0.583  0.00  0.00     0.002 A 
ATOM      4  C5  UNL d   1       0.584   0.224  -0.754  0.00  0.00    -0.080 A 
ATOM      5  C6  UNL d   1       1.571   0.238  -1.883  0.00  0.00     0.076 C 
ATOM      6  C7  UNL d   1       0.567  -0.847   0.146  0.00  0.00     0.002 A 
ATOM      7  C8  UNL d   1      -0.366  -0.885   1.185  0.00  0.00     0.006 A 
ENDROOT
BRANCH   1   8
ATOM      8  C1  UNL d   1      -2.340   0.075   2.427  0.00  0.00     0.054 C 
ATOM      9  C   UNL d   1      -3.713   0.460   1.896  0.00  0.00     0.018 C 
ENDBRANCH   1   8
TORSDOF 1
ENDMDL
