MODEL 1
REMARK minimizedAffinity -1.54276884
REMARK minimizedRMSD -1
REMARK  1 active torsions:
REMARK  status: ('A' for Active; 'I' for Inactive)
REMARK    1  A    between atoms: C1_2  and  C2_3 
ROOT
ATOM      1  C2  UNL d   1      -1.142   0.305   0.812  0.00  0.00    -0.081 A 
ATOM      2  C3  UNL d   1      -1.326   1.177   1.892  0.00  0.00     0.006 A 
ATOM      3  C4  UNL d   1      -2.573   1.281   2.515  0.00  0.00     0.002 A 
ATOM      4  C5  UNL d   1      -3.653   0.509   2.073  0.00  0.00    -0.080 A 
ATOM      5  C6  UNL d   1      -4.988   0.588   2.752  0.00  0.00     0.076 C 
ATOM      6  C7  UNL d   1      -3.474  -0.350   0.983  0.00  0.00     0.002 A 
ATOM      7  C8  UNL d   1      -2.228  -0.453   0.360  0.00  0.00     0.006 A 
ENDROOT
BRANCH   1   8
ATOM      8  C1  UNL d   1       0.217   0.143   0.181  0.00  0.00     0.054 C 
ATOM      9  C   UNL d   1       0.739   1.469  -0.356  0.00  0.00     0.018 C 
ENDBRANCH   1   8
TORSDOF 1
ENDMDL
