MODEL 1
REMARK minimizedAffinity -3.66317153
REMARK minimizedRMSD -1
REMARK  1 active torsions:
REMARK  status: ('A' for Active; 'I' for Inactive)
REMARK    1  A    between atoms: C1_2  and  C2_3 
ROOT
ATOM      1  C2  UNL d   1      -0.091  -0.107   0.632  0.00  0.00    -0.081 A 
ATOM      2  C3  UNL d   1       0.104  -1.488   0.515  0.00  0.00     0.006 A 
ATOM      3  C4  UNL d   1       1.000  -1.999  -0.428  0.00  0.00     0.002 A 
ATOM      4  C5  UNL d   1       1.720  -1.138  -1.263  0.00  0.00    -0.080 A 
ATOM      5  C6  UNL d   1       2.707  -1.673  -2.258  0.00  0.00     0.076 C 
ATOM      6  C7  UNL d   1       1.512   0.241  -1.158  0.00  0.00     0.002 A 
ATOM      7  C8  UNL d   1       0.616   0.753  -0.217  0.00  0.00     0.006 A 
ENDROOT
BRANCH   1   8
ATOM      8  C1  UNL d   1      -1.008   0.451   1.690  0.00  0.00     0.054 C 
ATOM      9  C   UNL d   1      -2.469   0.198   1.347  0.00  0.00     0.018 C 
ENDBRANCH   1   8
TORSDOF 1
ENDMDL
