MODEL 1
REMARK minimizedAffinity 0.809178352
REMARK minimizedRMSD -1
REMARK  1 active torsions:
REMARK  status: ('A' for Active; 'I' for Inactive)
REMARK    1  A    between atoms: C1_2  and  C2_3 
ROOT
ATOM      1  C2  UNL d   1       1.196  -1.210  -1.009  0.00  0.00    -0.081 A 
ATOM      2  C3  UNL d   1       1.278   0.166  -0.763  0.00  0.00     0.006 A 
ATOM      3  C4  UNL d   1       0.501   0.754   0.237  0.00  0.00     0.002 A 
ATOM      4  C5  UNL d   1      -0.365  -0.024   1.013  0.00  0.00    -0.080 A 
ATOM      5  C6  UNL d   1      -1.183   0.590   2.110  0.00  0.00     0.076 C 
ATOM      6  C7  UNL d   1      -0.461  -1.396   0.755  0.00  0.00     0.002 A 
ATOM      7  C8  UNL d   1       0.316  -1.985  -0.245  0.00  0.00     0.006 A 
ENDROOT
BRANCH   1   8
ATOM      8  C1  UNL d   1       2.081  -1.858  -2.044  0.00  0.00     0.054 C 
ATOM      9  C   UNL d   1       2.947  -2.948  -1.427  0.00  0.00     0.018 C 
ENDBRANCH   1   8
TORSDOF 1
ENDMDL
