MODEL 1
REMARK minimizedAffinity -1.38522911
REMARK minimizedRMSD -1
REMARK  1 active torsions:
REMARK  status: ('A' for Active; 'I' for Inactive)
REMARK    1  A    between atoms: C1_2  and  C2_3 
ROOT
ATOM      1  C2  UNL d   1      -0.902   0.363   0.921  0.00  0.00    -0.081 A 
ATOM      2  C3  UNL d   1      -0.381  -0.819   0.379  0.00  0.00     0.006 A 
ATOM      3  C4  UNL d   1       0.760  -0.785  -0.426  0.00  0.00     0.002 A 
ATOM      4  C5  UNL d   1       1.403   0.428  -0.696  0.00  0.00    -0.080 A 
ATOM      5  C6  UNL d   1       2.647   0.474  -1.533  0.00  0.00     0.076 C 
ATOM      6  C7  UNL d   1       0.873   1.610  -0.169  0.00  0.00     0.002 A 
ATOM      7  C8  UNL d   1      -0.269   1.577   0.635  0.00  0.00     0.006 A 
ENDROOT
BRANCH   1   8
ATOM      8  C1  UNL d   1      -2.095   0.322   1.842  0.00  0.00     0.054 C 
ATOM      9  C   UNL d   1      -3.259   1.123   1.275  0.00  0.00     0.018 C 
ENDBRANCH   1   8
TORSDOF 1
ENDMDL
