MODEL 1
REMARK minimizedAffinity 9.95433807
REMARK minimizedRMSD -1
REMARK  1 active torsions:
REMARK  status: ('A' for Active; 'I' for Inactive)
REMARK    1  A    between atoms: C1_2  and  C2_3 
ROOT
ATOM      1  C2  UNL d   1      -2.557   1.361   5.055  0.00  0.00    -0.081 A 
ATOM      2  C3  UNL d   1      -2.708   1.881   3.764  0.00  0.00     0.006 A 
ATOM      3  C4  UNL d   1      -3.696   1.383   2.910  0.00  0.00     0.002 A 
ATOM      4  C5  UNL d   1      -4.553   0.362   3.336  0.00  0.00    -0.080 A 
ATOM      5  C6  UNL d   1      -5.636  -0.161   2.441  0.00  0.00     0.076 C 
ATOM      6  C7  UNL d   1      -4.390  -0.170   4.620  0.00  0.00     0.002 A 
ATOM      7  C8  UNL d   1      -3.403   0.328   5.473  0.00  0.00     0.006 A 
ENDROOT
BRANCH   1   8
ATOM      8  C1  UNL d   1      -1.536   1.940   6.000  0.00  0.00     0.054 C 
ATOM      9  C   UNL d   1      -1.582   3.461   6.000  0.00  0.00     0.018 C 
ENDBRANCH   1   8
TORSDOF 1
ENDMDL
