MODEL 1
REMARK minimizedAffinity -2.75074506
REMARK minimizedRMSD -1
REMARK  0 active torsions:
REMARK  status: ('A' for Active; 'I' for Inactive)
ROOT
ATOM      1  C1  BNZ d   1       0.188   3.006  -6.000  0.00  0.00     0.000 A 
ATOM      2  C2  BNZ d   1      -1.102   2.546  -6.000  0.00  0.00     0.000 A 
ATOM      3  C3  BNZ d   1      -2.155   3.416  -5.968  0.00  0.00     0.000 A 
ATOM      4  C4  BNZ d   1      -1.918   4.742  -5.895  0.00  0.00     0.000 A 
ATOM      5  C5  BNZ d   1      -0.624   5.221  -5.885  0.00  0.00     0.000 A 
ATOM      6  C6  BNZ d   1       0.434   4.344  -5.957  0.00  0.00     0.000 A 
ENDROOT
TORSDOF 0
ENDMDL
