MODEL 1
REMARK minimizedAffinity -2.65000701
REMARK minimizedRMSD -1
REMARK  0 active torsions:
REMARK  status: ('A' for Active; 'I' for Inactive)
ROOT
ATOM      1  C1  BNZ d   1      -0.438   2.590  -5.959  0.00  0.00     0.000 A 
ATOM      2  C2  BNZ d   1      -1.731   3.040  -5.950  0.00  0.00     0.000 A 
ATOM      3  C3  BNZ d   1      -2.006   4.379  -5.991  0.00  0.00     0.000 A 
ATOM      4  C4  BNZ d   1      -0.990   5.265  -6.000  0.00  0.00     0.000 A 
ATOM      5  C5  BNZ d   1       0.320   4.826  -6.000  0.00  0.00     0.000 A 
ATOM      6  C6  BNZ d   1       0.593   3.478  -5.998  0.00  0.00     0.000 A 
ENDROOT
TORSDOF 0
ENDMDL
