MODEL 1
REMARK minimizedAffinity -2.14569283
REMARK minimizedRMSD -1
REMARK  0 active torsions:
REMARK  status: ('A' for Active; 'I' for Inactive)
ROOT
ATOM      1  C1  BNZ d   1      -1.308   5.992  -5.961  0.00  0.00     0.000 A 
ATOM      2  C2  BNZ d   1       0.062   5.984  -5.955  0.00  0.00     0.000 A 
ATOM      3  C3  BNZ d   1       0.755   4.807  -5.994  0.00  0.00     0.000 A 
ATOM      4  C4  BNZ d   1       0.079   3.639  -5.998  0.00  0.00     0.000 A 
ATOM      5  C5  BNZ d   1      -1.301   3.631  -5.995  0.00  0.00     0.000 A 
ATOM      6  C6  BNZ d   1      -1.996   4.819  -5.996  0.00  0.00     0.000 A 
ENDROOT
TORSDOF 0
ENDMDL
