MODEL 1
REMARK minimizedAffinity -2.29281306
REMARK minimizedRMSD -1
REMARK  0 active torsions:
REMARK  status: ('A' for Active; 'I' for Inactive)
ROOT
ATOM      1  C1  BNZ d   1      -0.603   5.094  -5.880  0.00  0.00     0.000 A 
ATOM      2  C2  BNZ d   1      -0.656   3.726  -5.876  0.00  0.00     0.000 A 
ATOM      3  C3  BNZ d   1      -1.854   3.072  -5.956  0.00  0.00     0.000 A 
ATOM      4  C4  BNZ d   1      -2.998   3.786  -5.999  0.00  0.00     0.000 A 
ATOM      5  C5  BNZ d   1      -2.961   5.166  -5.995  0.00  0.00     0.000 A 
ATOM      6  C6  BNZ d   1      -1.751   5.821  -5.953  0.00  0.00     0.000 A 
ENDROOT
TORSDOF 0
ENDMDL
