MODEL 1
REMARK minimizedAffinity -2.12406135
REMARK minimizedRMSD -1
REMARK  0 active torsions:
REMARK  status: ('A' for Active; 'I' for Inactive)
ROOT
ATOM      1  C1  BNZ d   1      -1.791   4.360  -5.999  0.00  0.00     0.000 A 
ATOM      2  C2  BNZ d   1      -1.314   3.076  -6.000  0.00  0.00     0.000 A 
ATOM      3  C3  BNZ d   1      -0.010   2.813  -5.685  0.00  0.00     0.000 A 
ATOM      4  C4  BNZ d   1       0.824   3.836  -5.409  0.00  0.00     0.000 A 
ATOM      5  C5  BNZ d   1       0.361   5.137  -5.413  0.00  0.00     0.000 A 
ATOM      6  C6  BNZ d   1      -0.962   5.394  -5.693  0.00  0.00     0.000 A 
ENDROOT
TORSDOF 0
ENDMDL
