MODEL 1
REMARK minimizedAffinity -2.42702103
REMARK minimizedRMSD -1
REMARK  0 active torsions:
REMARK  status: ('A' for Active; 'I' for Inactive)
ROOT
ATOM      1  C1  BNZ d   1      -2.115   5.597  -5.992  0.00  0.00     0.000 A 
ATOM      2  C2  BNZ d   1      -1.089   4.690  -5.991  0.00  0.00     0.000 A 
ATOM      3  C3  BNZ d   1      -1.342   3.347  -5.999  0.00  0.00     0.000 A 
ATOM      4  C4  BNZ d   1      -2.618   2.912  -5.968  0.00  0.00     0.000 A 
ATOM      5  C5  BNZ d   1      -3.664   3.814  -5.960  0.00  0.00     0.000 A 
ATOM      6  C6  BNZ d   1      -3.406   5.165  -5.991  0.00  0.00     0.000 A 
ENDROOT
TORSDOF 0
ENDMDL
