MODEL 1
REMARK minimizedAffinity -1.6355077
REMARK minimizedRMSD -1
REMARK  0 active torsions:
REMARK  status: ('A' for Active; 'I' for Inactive)
ROOT
ATOM      1  C1  BNZ d   1      -2.332   3.638  -5.980  0.00  0.00     0.000 A 
ATOM      2  C2  BNZ d   1      -0.962   3.648  -5.973  0.00  0.00     0.000 A 
ATOM      3  C3  BNZ d   1      -0.271   4.828  -5.955  0.00  0.00     0.000 A 
ATOM      4  C4  BNZ d   1      -0.948   5.993  -5.984  0.00  0.00     0.000 A 
ATOM      5  C5  BNZ d   1      -2.329   6.000  -6.000  0.00  0.00     0.000 A 
ATOM      6  C6  BNZ d   1      -3.022   4.811  -5.979  0.00  0.00     0.000 A 
ENDROOT
TORSDOF 0
ENDMDL
