MODEL 1
REMARK minimizedAffinity -1.15039432
REMARK minimizedRMSD -1
REMARK  0 active torsions:
REMARK  status: ('A' for Active; 'I' for Inactive)
ROOT
ATOM      1  C1  BNZ d   1       0.367   2.978  -5.965  0.00  0.00     0.000 A 
ATOM      2  C2  BNZ d   1       1.391   3.887  -5.992  0.00  0.00     0.000 A 
ATOM      3  C3  BNZ d   1       1.136   5.230  -5.985  0.00  0.00     0.000 A 
ATOM      4  C4  BNZ d   1      -0.141   5.662  -5.992  0.00  0.00     0.000 A 
ATOM      5  C5  BNZ d   1      -1.185   4.758  -5.975  0.00  0.00     0.000 A 
ATOM      6  C6  BNZ d   1      -0.924   3.408  -5.942  0.00  0.00     0.000 A 
ENDROOT
TORSDOF 0
ENDMDL
