MODEL 1
REMARK minimizedAffinity -2.20834923
REMARK minimizedRMSD -1
REMARK  0 active torsions:
REMARK  status: ('A' for Active; 'I' for Inactive)
ROOT
ATOM      1  C1  BNZ d   1      -3.688   4.016  -5.950  0.00  0.00     0.000 A 
ATOM      2  C2  BNZ d   1      -2.700   3.069  -5.995  0.00  0.00     0.000 A 
ATOM      3  C3  BNZ d   1      -1.382   3.431  -6.000  0.00  0.00     0.000 A 
ATOM      4  C4  BNZ d   1      -1.055   4.739  -6.000  0.00  0.00     0.000 A 
ATOM      5  C5  BNZ d   1      -2.039   5.707  -5.964  0.00  0.00     0.000 A 
ATOM      6  C6  BNZ d   1      -3.364   5.337  -5.920  0.00  0.00     0.000 A 
ENDROOT
TORSDOF 0
ENDMDL
