MODEL 1
REMARK minimizedAffinity -2.67521024
REMARK minimizedRMSD -1
REMARK  0 active torsions:
REMARK  status: ('A' for Active; 'I' for Inactive)
ROOT
ATOM      1  C1  BNZ d   1      -0.906   2.990  -5.963  0.00  0.00     0.000 A 
ATOM      2  C2  BNZ d   1      -2.220   3.374  -5.961  0.00  0.00     0.000 A 
ATOM      3  C3  BNZ d   1      -2.563   4.697  -5.999  0.00  0.00     0.000 A 
ATOM      4  C4  BNZ d   1      -1.592   5.633  -6.000  0.00  0.00     0.000 A 
ATOM      5  C5  BNZ d   1      -0.262   5.262  -5.993  0.00  0.00     0.000 A 
ATOM      6  C6  BNZ d   1       0.079   3.929  -5.993  0.00  0.00     0.000 A 
ENDROOT
TORSDOF 0
ENDMDL
