MODEL 1
REMARK minimizedAffinity -2.3431735
REMARK minimizedRMSD -1
REMARK  0 active torsions:
REMARK  status: ('A' for Active; 'I' for Inactive)
ROOT
ATOM      1  C1  BNZ d   1      -2.197   3.404  -5.996  0.00  0.00     0.000 A 
ATOM      2  C2  BNZ d   1      -1.100   2.585  -6.000  0.00  0.00     0.000 A 
ATOM      3  C3  BNZ d   1       0.164   3.106  -5.979  0.00  0.00     0.000 A 
ATOM      4  C4  BNZ d   1       0.329   4.444  -5.994  0.00  0.00     0.000 A 
ATOM      5  C5  BNZ d   1      -0.767   5.284  -6.000  0.00  0.00     0.000 A 
ATOM      6  C6  BNZ d   1      -2.037   4.756  -5.982  0.00  0.00     0.000 A 
ENDROOT
TORSDOF 0
ENDMDL
