MODEL 1
REMARK minimizedAffinity -2.94538045
REMARK minimizedRMSD -1
REMARK  0 active torsions:
REMARK  status: ('A' for Active; 'I' for Inactive)
ROOT
ATOM      1  C1  BNZ d   1       1.010   2.856  -5.989  0.00  0.00     0.000 A 
ATOM      2  C2  BNZ d   1       2.375   2.957  -6.000  0.00  0.00     0.000 A 
ATOM      3  C3  BNZ d   1       2.986   4.180  -5.985  0.00  0.00     0.000 A 
ATOM      4  C4  BNZ d   1       2.232   5.298  -6.000  0.00  0.00     0.000 A 
ATOM      5  C5  BNZ d   1       0.854   5.212  -5.999  0.00  0.00     0.000 A 
ATOM      6  C6  BNZ d   1       0.243   3.980  -5.974  0.00  0.00     0.000 A 
ENDROOT
TORSDOF 0
ENDMDL
