MODEL 1
REMARK minimizedAffinity -2.80395651
REMARK minimizedRMSD -1
REMARK  0 active torsions:
REMARK  status: ('A' for Active; 'I' for Inactive)
ROOT
ATOM      1  C1  BNZ d   1      -2.180   2.961  -5.987  0.00  0.00     0.000 A 
ATOM      2  C2  BNZ d   1      -0.816   3.079  -5.999  0.00  0.00     0.000 A 
ATOM      3  C3  BNZ d   1      -0.220   4.309  -5.986  0.00  0.00     0.000 A 
ATOM      4  C4  BNZ d   1      -0.987   5.418  -6.000  0.00  0.00     0.000 A 
ATOM      5  C5  BNZ d   1      -2.364   5.316  -5.997  0.00  0.00     0.000 A 
ATOM      6  C6  BNZ d   1      -2.960   4.076  -5.971  0.00  0.00     0.000 A 
ENDROOT
TORSDOF 0
ENDMDL
