MODEL 1
REMARK minimizedAffinity 0.983947873
REMARK minimizedRMSD -1
REMARK  0 active torsions:
REMARK  status: ('A' for Active; 'I' for Inactive)
ROOT
ATOM      1  C1  BNZ d   1       1.516   2.768  -5.970  0.00  0.00     0.000 A 
ATOM      2  C2  BNZ d   1       0.498   1.852  -5.964  0.00  0.00     0.000 A 
ATOM      3  C3  BNZ d   1      -0.807   2.257  -5.999  0.00  0.00     0.000 A 
ATOM      4  C4  BNZ d   1      -1.093   3.575  -6.000  0.00  0.00     0.000 A 
ATOM      5  C5  BNZ d   1      -0.077   4.510  -5.996  0.00  0.00     0.000 A 
ATOM      6  C6  BNZ d   1       1.236   4.099  -6.000  0.00  0.00     0.000 A 
ENDROOT
TORSDOF 0
ENDMDL
