MODEL 1
REMARK minimizedAffinity -0.120480709
REMARK minimizedRMSD -1
REMARK  0 active torsions:
REMARK  status: ('A' for Active; 'I' for Inactive)
ROOT
ATOM      1  C1  BNZ d   1       0.289   5.999  -5.956  0.00  0.00     0.000 A 
ATOM      2  C2  BNZ d   1      -0.596   4.954  -5.981  0.00  0.00     0.000 A 
ATOM      3  C3  BNZ d   1      -0.153   3.661  -5.982  0.00  0.00     0.000 A 
ATOM      4  C4  BNZ d   1       1.173   3.415  -5.999  0.00  0.00     0.000 A 
ATOM      5  C5  BNZ d   1       2.078   4.458  -5.984  0.00  0.00     0.000 A 
ATOM      6  C6  BNZ d   1       1.628   5.758  -5.943  0.00  0.00     0.000 A 
ENDROOT
TORSDOF 0
ENDMDL
