MODEL 1
REMARK minimizedAffinity -0.573546052
REMARK minimizedRMSD -1
REMARK  0 active torsions:
REMARK  status: ('A' for Active; 'I' for Inactive)
ROOT
ATOM      1  C   UNL d   1       3.890   5.842  -0.846  0.00  0.00    -0.002 A 
ATOM      2  C1  UNL d   1       5.261   5.628  -0.873  0.00  0.00     0.010 A 
ATOM      3  C2  UNL d   1       5.991   5.546   0.314  0.00  0.00     0.041 A 
ATOM      4  C3  UNL d   1       5.312   5.680   1.542  0.00  0.00    -0.075 A 
ATOM      5  S   UNL d   1       5.999   5.613   3.122  0.00  0.00     0.015 SA
ATOM      6  C4  UNL d   1       4.488   5.864   3.870  0.00  0.00     0.022 A 
ATOM      7  C5  UNL d   1       3.474   5.999   2.952  0.00  0.00     0.026 A 
ATOM      8  C6  UNL d   1       3.932   5.894   1.595  0.00  0.00    -0.082 A 
ATOM      9  C7  UNL d   1       3.221   5.974   0.373  0.00  0.00     0.045 A 
ENDROOT
TORSDOF 0
ENDMDL
