MODEL 1
REMARK minimizedAffinity 0.370483458
REMARK minimizedRMSD -1
REMARK  0 active torsions:
REMARK  status: ('A' for Active; 'I' for Inactive)
ROOT
ATOM      1  C   UNL d   1       3.003   5.986  -0.913  0.00  0.00    -0.002 A 
ATOM      2  C1  UNL d   1       1.993   5.994   0.039  0.00  0.00     0.010 A 
ATOM      3  C2  UNL d   1       2.301   5.997   1.401  0.00  0.00     0.041 A 
ATOM      4  C3  UNL d   1       3.654   5.994   1.794  0.00  0.00    -0.075 A 
ATOM      5  S   UNL d   1       4.268   5.997   3.405  0.00  0.00     0.015 SA
ATOM      6  C4  UNL d   1       5.885   5.989   2.868  0.00  0.00     0.022 A 
ATOM      7  C5  UNL d   1       5.973   5.983   1.496  0.00  0.00     0.026 A 
ATOM      8  C6  UNL d   1       4.688   5.986   0.854  0.00  0.00    -0.082 A 
ATOM      9  C7  UNL d   1       4.344   5.982  -0.519  0.00  0.00     0.045 A 
ENDROOT
TORSDOF 0
ENDMDL
