MODEL 1
REMARK minimizedAffinity 16.7222195
REMARK minimizedRMSD -1
REMARK  0 active torsions:
REMARK  status: ('A' for Active; 'I' for Inactive)
ROOT
ATOM      1  C   UNL d   1       1.675  -5.330   1.852  0.00  0.00    -0.002 A 
ATOM      2  C1  UNL d   1       0.288  -5.357   1.835  0.00  0.00     0.010 A 
ATOM      3  C2  UNL d   1      -0.426  -4.567   0.931  0.00  0.00     0.041 A 
ATOM      4  C3  UNL d   1       0.284  -3.743   0.036  0.00  0.00    -0.075 A 
ATOM      5  S   UNL d   1      -0.379  -2.692  -1.159  0.00  0.00     0.015 SA
ATOM      6  C4  UNL d   1       1.164  -2.184  -1.675  0.00  0.00     0.022 A 
ATOM      7  C5  UNL d   1       2.172  -2.791  -0.964  0.00  0.00     0.026 A 
ATOM      8  C6  UNL d   1       1.681  -3.700   0.034  0.00  0.00    -0.082 A 
ATOM      9  C7  UNL d   1       2.376  -4.512   0.962  0.00  0.00     0.045 A 
ENDROOT
TORSDOF 0
ENDMDL
