MODEL 1
REMARK minimizedAffinity 13.1197853
REMARK minimizedRMSD -1
REMARK  0 active torsions:
REMARK  status: ('A' for Active; 'I' for Inactive)
ROOT
ATOM      1  C   UNL d   1       2.915  -3.132  -0.012  0.00  0.00    -0.002 A 
ATOM      2  C1  UNL d   1       3.281  -1.832  -0.333  0.00  0.00     0.010 A 
ATOM      3  C2  UNL d   1       2.569  -1.110  -1.292  0.00  0.00     0.041 A 
ATOM      4  C3  UNL d   1       1.470  -1.721  -1.928  0.00  0.00    -0.075 A 
ATOM      5  S   UNL d   1       0.449  -1.029  -3.133  0.00  0.00     0.015 SA
ATOM      6  C4  UNL d   1      -0.497  -2.442  -3.249  0.00  0.00     0.022 A 
ATOM      7  C5  UNL d   1      -0.059  -3.427  -2.396  0.00  0.00     0.026 A 
ATOM      8  C6  UNL d   1       1.081  -3.028  -1.620  0.00  0.00    -0.082 A 
ATOM      9  C7  UNL d   1       1.825  -3.734  -0.644  0.00  0.00     0.045 A 
ENDROOT
TORSDOF 0
ENDMDL
