MODEL 1
REMARK minimizedAffinity 16.2849197
REMARK minimizedRMSD -1
REMARK  0 active torsions:
REMARK  status: ('A' for Active; 'I' for Inactive)
ROOT
ATOM      1  C   UNL d   1       2.510  -5.016   2.732  0.00  0.00    -0.002 A 
ATOM      2  C1  UNL d   1       2.525  -3.646   2.954  0.00  0.00     0.010 A 
ATOM      3  C2  UNL d   1       3.417  -3.085   3.870  0.00  0.00     0.041 A 
ATOM      4  C3  UNL d   1       4.302  -3.932   4.566  0.00  0.00    -0.075 A 
ATOM      5  S   UNL d   1       5.482  -3.469   5.735  0.00  0.00     0.015 SA
ATOM      6  C4  UNL d   1       5.993  -5.078   5.966  0.00  0.00     0.022 A 
ATOM      7  C5  UNL d   1       5.292  -5.960   5.179  0.00  0.00     0.026 A 
ATOM      8  C6  UNL d   1       4.306  -5.315   4.359  0.00  0.00    -0.082 A 
ATOM      9  C7  UNL d   1       3.389  -5.853   3.423  0.00  0.00     0.045 A 
ENDROOT
TORSDOF 0
ENDMDL
