MODEL 1
REMARK minimizedAffinity 10.7440929
REMARK minimizedRMSD -1
REMARK  0 active torsions:
REMARK  status: ('A' for Active; 'I' for Inactive)
ROOT
ATOM      1  C   UNL d   1       2.496   1.055  -2.686  0.00  0.00    -0.002 A 
ATOM      2  C1  UNL d   1       2.801  -0.156  -2.081  0.00  0.00     0.010 A 
ATOM      3  C2  UNL d   1       1.792  -0.948  -1.528  0.00  0.00     0.041 A 
ATOM      4  C3  UNL d   1       0.459  -0.498  -1.595  0.00  0.00    -0.075 A 
ATOM      5  S   UNL d   1      -0.941  -1.300  -0.986  0.00  0.00     0.015 SA
ATOM      6  C4  UNL d   1      -1.976  -0.054  -1.516  0.00  0.00     0.022 A 
ATOM      7  C5  UNL d   1      -1.288   0.957  -2.143  0.00  0.00     0.026 A 
ATOM      8  C6  UNL d   1       0.127   0.718  -2.200  0.00  0.00    -0.082 A 
ATOM      9  C7  UNL d   1       1.172   1.498  -2.751  0.00  0.00     0.045 A 
ENDROOT
TORSDOF 0
ENDMDL
