MODEL 1
REMARK minimizedAffinity 15.4977617
REMARK minimizedRMSD -1
REMARK  0 active torsions:
REMARK  status: ('A' for Active; 'I' for Inactive)
ROOT
ATOM      1  C   UNL d   1       0.467  -2.539  -1.633  0.00  0.00    -0.002 A 
ATOM      2  C1  UNL d   1      -0.839  -2.756  -1.217  0.00  0.00     0.010 A 
ATOM      3  C2  UNL d   1      -1.112  -3.615  -0.151  0.00  0.00     0.041 A 
ATOM      4  C3  UNL d   1      -0.039  -4.258   0.497  0.00  0.00    -0.075 A 
ATOM      5  S   UNL d   1      -0.133  -5.352   1.826  0.00  0.00     0.015 SA
ATOM      6  C4  UNL d   1       1.558  -5.557   1.873  0.00  0.00     0.022 A 
ATOM      7  C5  UNL d   1       2.195  -4.816   0.906  0.00  0.00     0.026 A 
ATOM      8  C6  UNL d   1       1.285  -4.055   0.097  0.00  0.00    -0.082 A 
ATOM      9  C7  UNL d   1       1.528  -3.178  -0.988  0.00  0.00     0.045 A 
ENDROOT
TORSDOF 0
ENDMDL
