MODEL 1
REMARK minimizedAffinity 14.7167616
REMARK minimizedRMSD -1
REMARK  0 active torsions:
REMARK  status: ('A' for Active; 'I' for Inactive)
ROOT
ATOM      1  C   UNL d   1      -0.132   1.890  -2.187  0.00  0.00    -0.002 A 
ATOM      2  C1  UNL d   1      -1.240   1.425  -1.494  0.00  0.00     0.010 A 
ATOM      3  C2  UNL d   1      -1.411   0.059  -1.261  0.00  0.00     0.041 A 
ATOM      4  C3  UNL d   1      -0.438  -0.840  -1.740  0.00  0.00    -0.075 A 
ATOM      5  S   UNL d   1      -0.436  -2.556  -1.572  0.00  0.00     0.015 SA
ATOM      6  C4  UNL d   1       1.036  -2.712  -2.416  0.00  0.00     0.022 A 
ATOM      7  C5  UNL d   1       1.529  -1.495  -2.823  0.00  0.00     0.026 A 
ATOM      8  C6  UNL d   1       0.688  -0.396  -2.440  0.00  0.00    -0.082 A 
ATOM      9  C7  UNL d   1       0.831   0.995  -2.661  0.00  0.00     0.045 A 
ENDROOT
TORSDOF 0
ENDMDL
