MODEL 1
REMARK minimizedAffinity 2.44731688
REMARK minimizedRMSD -1
REMARK  0 active torsions:
REMARK  status: ('A' for Active; 'I' for Inactive)
ROOT
ATOM      1  C   UNL d   1       4.613   1.418  -1.937  0.00  0.00    -0.002 A 
ATOM      2  C1  UNL d   1       3.780   2.527  -1.988  0.00  0.00     0.010 A 
ATOM      3  C2  UNL d   1       2.393   2.371  -2.027  0.00  0.00     0.041 A 
ATOM      4  C3  UNL d   1       1.852   1.070  -2.013  0.00  0.00    -0.075 A 
ATOM      5  S   UNL d   1       0.184   0.637  -2.053  0.00  0.00     0.015 SA
ATOM      6  C4  UNL d   1       0.538  -1.029  -2.002  0.00  0.00     0.022 A 
ATOM      7  C5  UNL d   1       1.891  -1.267  -1.956  0.00  0.00     0.026 A 
ATOM      8  C6  UNL d   1       2.671  -0.061  -1.961  0.00  0.00    -0.082 A 
ATOM      9  C7  UNL d   1       4.073   0.130  -1.923  0.00  0.00     0.045 A 
ENDROOT
TORSDOF 0
ENDMDL
