MODEL 1
REMARK minimizedAffinity -3.78369856
REMARK minimizedRMSD -1
REMARK  0 active torsions:
REMARK  status: ('A' for Active; 'I' for Inactive)
ROOT
ATOM      1  C   UNL d   1      -1.187   1.882   2.607  0.00  0.00     0.172 C 
ATOM      2  N   UNL d   1      -1.814   0.615   2.903  0.00  0.00    -0.070 N 
ATOM      3  C1  UNL d   1      -1.705  -0.073   4.082  0.00  0.00    -0.004 A 
ATOM      4  C2  UNL d   1      -2.448  -1.228   3.966  0.00  0.00    -0.047 A 
ATOM      5  C3  UNL d   1      -3.023  -1.234   2.672  0.00  0.00    -0.047 A 
ATOM      6  C4  UNL d   1      -2.614  -0.081   2.036  0.00  0.00    -0.004 A 
ENDROOT
TORSDOF 0
ENDMDL
