MODEL 1
REMARK minimizedAffinity -1.54712129
REMARK minimizedRMSD -1
REMARK  0 active torsions:
REMARK  status: ('A' for Active; 'I' for Inactive)
ROOT
ATOM      1  C   UNL d   1       1.229  -1.033  -0.809  0.00  0.00     0.172 C 
ATOM      2  N   UNL d   1       0.127  -0.101  -0.774  0.00  0.00    -0.070 N 
ATOM      3  C1  UNL d   1       0.187   1.220  -1.127  0.00  0.00    -0.004 A 
ATOM      4  C2  UNL d   1      -1.069   1.761  -0.954  0.00  0.00    -0.047 A 
ATOM      5  C3  UNL d   1      -1.913   0.729  -0.480  0.00  0.00    -0.047 A 
ATOM      6  C4  UNL d   1      -1.147  -0.413  -0.378  0.00  0.00    -0.004 A 
ENDROOT
TORSDOF 0
ENDMDL
