MODEL 1
REMARK minimizedAffinity -1.45428205
REMARK minimizedRMSD -1
REMARK  0 active torsions:
REMARK  status: ('A' for Active; 'I' for Inactive)
ROOT
ATOM      1  C   UNL d   1       1.312   0.056  -3.568  0.00  0.00     0.172 C 
ATOM      2  N   UNL d   1       1.026   0.299  -2.174  0.00  0.00    -0.070 N 
ATOM      3  C1  UNL d   1       0.306  -0.526  -1.351  0.00  0.00    -0.004 A 
ATOM      4  C2  UNL d   1       0.259   0.059  -0.104  0.00  0.00    -0.047 A 
ATOM      5  C3  UNL d   1       0.974   1.278  -0.180  0.00  0.00    -0.047 A 
ATOM      6  C4  UNL d   1       1.438   1.402  -1.473  0.00  0.00    -0.004 A 
ENDROOT
TORSDOF 0
ENDMDL
