MODEL 1
REMARK minimizedAffinity -1.47326171
REMARK minimizedRMSD -1
REMARK  0 active torsions:
REMARK  status: ('A' for Active; 'I' for Inactive)
ROOT
ATOM      1  C   UNL d   1       5.842   3.770   4.445  0.00  0.00     0.172 C 
ATOM      2  N   UNL d   1       5.572   2.403   4.824  0.00  0.00    -0.070 N 
ATOM      3  C1  UNL d   1       4.878   1.489   4.077  0.00  0.00    -0.004 A 
ATOM      4  C2  UNL d   1       4.840   0.307   4.784  0.00  0.00    -0.047 A 
ATOM      5  C3  UNL d   1       5.534   0.517   5.999  0.00  0.00    -0.047 A 
ATOM      6  C4  UNL d   1       5.977   1.823   5.998  0.00  0.00    -0.004 A 
ENDROOT
TORSDOF 0
ENDMDL
