MODEL 1
REMARK minimizedAffinity -2.43738246
REMARK minimizedRMSD -1
REMARK  0 active torsions:
REMARK  status: ('A' for Active; 'I' for Inactive)
ROOT
ATOM      1  C   UNL d   1      -1.113   0.624  -0.273  0.00  0.00     0.172 C 
ATOM      2  N   UNL d   1      -0.054  -0.303  -0.597  0.00  0.00    -0.070 N 
ATOM      3  C1  UNL d   1      -0.044  -1.640  -0.300  0.00  0.00    -0.004 A 
ATOM      4  C2  UNL d   1       1.136  -2.169  -0.776  0.00  0.00    -0.047 A 
ATOM      5  C3  UNL d   1       1.861  -1.114  -1.380  0.00  0.00    -0.047 A 
ATOM      6  C4  UNL d   1       1.101   0.030  -1.255  0.00  0.00    -0.004 A 
ENDROOT
TORSDOF 0
ENDMDL
