MODEL 1
REMARK minimizedAffinity -2.70776725
REMARK minimizedRMSD -1
REMARK  0 active torsions:
REMARK  status: ('A' for Active; 'I' for Inactive)
ROOT
ATOM      1  C   UNL d   1      -3.087  -1.393   3.077  0.00  0.00     0.172 C 
ATOM      2  N   UNL d   1      -2.548  -0.154   2.569  0.00  0.00    -0.070 N 
ATOM      3  C1  UNL d   1      -2.316   0.977   3.306  0.00  0.00    -0.004 A 
ATOM      4  C2  UNL d   1      -1.801   1.934   2.459  0.00  0.00    -0.047 A 
ATOM      5  C3  UNL d   1      -1.721   1.359   1.168  0.00  0.00    -0.047 A 
ATOM      6  C4  UNL d   1      -2.190   0.066   1.265  0.00  0.00    -0.004 A 
ENDROOT
TORSDOF 0
ENDMDL
