MODEL 1
REMARK minimizedAffinity -3.61584234
REMARK minimizedRMSD -1
REMARK  0 active torsions:
REMARK  status: ('A' for Active; 'I' for Inactive)
ROOT
ATOM      1  C   UNL d   1      -0.595  -0.201   1.116  0.00  0.00     0.172 C 
ATOM      2  N   UNL d   1       0.349  -0.731   0.160  0.00  0.00    -0.070 N 
ATOM      3  C1  UNL d   1       0.917  -0.033  -0.871  0.00  0.00    -0.004 A 
ATOM      4  C2  UNL d   1       1.757  -0.890  -1.548  0.00  0.00    -0.047 A 
ATOM      5  C3  UNL d   1       1.691  -2.147  -0.902  0.00  0.00    -0.047 A 
ATOM      6  C4  UNL d   1       0.811  -2.020   0.153  0.00  0.00    -0.004 A 
ENDROOT
TORSDOF 0
ENDMDL
