MODEL 1
REMARK minimizedAffinity -3.68080831
REMARK minimizedRMSD -1
REMARK  0 active torsions:
REMARK  status: ('A' for Active; 'I' for Inactive)
ROOT
ATOM      1  C   UNL d   1      -0.466  -0.028   0.088  0.00  0.00     0.172 C 
ATOM      2  N   UNL d   1       0.825  -0.305  -0.497  0.00  0.00    -0.070 N 
ATOM      3  C1  UNL d   1       1.210  -1.495  -1.053  0.00  0.00    -0.004 A 
ATOM      4  C2  UNL d   1       2.508  -1.353  -1.496  0.00  0.00    -0.047 A 
ATOM      5  C3  UNL d   1       2.916  -0.032  -1.195  0.00  0.00    -0.047 A 
ATOM      6  C4  UNL d   1       1.855   0.595  -0.576  0.00  0.00    -0.004 A 
ENDROOT
TORSDOF 0
ENDMDL
