MODEL 1
REMARK minimizedAffinity -3.30641103
REMARK minimizedRMSD -1
REMARK  0 active torsions:
REMARK  status: ('A' for Active; 'I' for Inactive)
ROOT
ATOM      1  C   UNL d   1      -0.672   0.390  -0.172  0.00  0.00     0.172 C 
ATOM      2  N   UNL d   1       0.554  -0.310  -0.478  0.00  0.00    -0.070 N 
ATOM      3  C1  UNL d   1       0.695  -1.668  -0.574  0.00  0.00    -0.004 A 
ATOM      4  C2  UNL d   1       2.012  -1.936  -0.880  0.00  0.00    -0.047 A 
ATOM      5  C3  UNL d   1       2.685  -0.694  -0.971  0.00  0.00    -0.047 A 
ATOM      6  C4  UNL d   1       1.759   0.295  -0.717  0.00  0.00    -0.004 A 
ENDROOT
TORSDOF 0
ENDMDL
