MODEL 1
REMARK minimizedAffinity -3.58638358
REMARK minimizedRMSD -1
REMARK  0 active torsions:
REMARK  status: ('A' for Active; 'I' for Inactive)
ROOT
ATOM      1  C   UNL d   1      -0.343  -0.330   0.166  0.00  0.00     0.172 C 
ATOM      2  N   UNL d   1       0.946  -0.429  -0.477  0.00  0.00    -0.070 N 
ATOM      3  C1  UNL d   1       1.386   0.360  -1.507  0.00  0.00    -0.004 A 
ATOM      4  C2  UNL d   1       2.660  -0.049  -1.836  0.00  0.00    -0.047 A 
ATOM      5  C3  UNL d   1       2.997  -1.121  -0.975  0.00  0.00    -0.047 A 
ATOM      6  C4  UNL d   1       1.917  -1.335  -0.145  0.00  0.00    -0.004 A 
ENDROOT
TORSDOF 0
ENDMDL
