MODEL 1
REMARK minimizedAffinity -3.92143345
REMARK minimizedRMSD -1
REMARK  0 active torsions:
REMARK  status: ('A' for Active; 'I' for Inactive)
ROOT
ATOM      1  C   UNL d   1      -0.489   0.319  -0.347  0.00  0.00     0.172 C 
ATOM      2  N   UNL d   1       0.812   0.408  -0.967  0.00  0.00    -0.070 N 
ATOM      3  C1  UNL d   1       1.233   1.410  -1.800  0.00  0.00    -0.004 A 
ATOM      4  C2  UNL d   1       2.528   1.130  -2.177  0.00  0.00    -0.047 A 
ATOM      5  C3  UNL d   1       2.899  -0.083  -1.550  0.00  0.00    -0.047 A 
ATOM      6  C4  UNL d   1       1.818  -0.508  -0.807  0.00  0.00    -0.004 A 
ENDROOT
TORSDOF 0
ENDMDL
