MODEL 1
REMARK minimizedAffinity -4.11338615
REMARK minimizedRMSD -1
REMARK  0 active torsions:
REMARK  status: ('A' for Active; 'I' for Inactive)
ROOT
ATOM      1  C   UNL d   1      -2.070   1.434   2.952  0.00  0.00     0.172 C 
ATOM      2  N   UNL d   1      -2.757   0.211   3.296  0.00  0.00    -0.070 N 
ATOM      3  C1  UNL d   1      -2.193  -1.036   3.339  0.00  0.00    -0.004 A 
ATOM      4  C2  UNL d   1      -3.175  -1.930   3.707  0.00  0.00    -0.047 A 
ATOM      5  C3  UNL d   1      -4.370  -1.195   3.891  0.00  0.00    -0.047 A 
ATOM      6  C4  UNL d   1      -4.083   0.128   3.629  0.00  0.00    -0.004 A 
ENDROOT
TORSDOF 0
ENDMDL
