MODEL 1
REMARK minimizedAffinity -4.04900742
REMARK minimizedRMSD -1
REMARK  0 active torsions:
REMARK  status: ('A' for Active; 'I' for Inactive)
ROOT
ATOM      1  C   UNL d   1       1.504  -1.401  -0.770  0.00  0.00     0.172 C 
ATOM      2  N   UNL d   1       2.023  -0.271  -1.503  0.00  0.00    -0.070 N 
ATOM      3  C1  UNL d   1       1.277   0.748  -2.033  0.00  0.00    -0.004 A 
ATOM      4  C2  UNL d   1       2.140   1.626  -2.652  0.00  0.00    -0.047 A 
ATOM      5  C3  UNL d   1       3.451   1.117  -2.489  0.00  0.00    -0.047 A 
ATOM      6  C4  UNL d   1       3.349  -0.058  -1.775  0.00  0.00    -0.004 A 
ENDROOT
TORSDOF 0
ENDMDL
