MODEL 1
REMARK minimizedAffinity -0.343539655
REMARK minimizedRMSD -1
REMARK  0 active torsions:
REMARK  status: ('A' for Active; 'I' for Inactive)
ROOT
ATOM      1  C   UNL d   1      -0.394   1.353  -1.830  0.00  0.00     0.172 C 
ATOM      2  N   UNL d   1       0.152   0.066  -1.466  0.00  0.00    -0.070 N 
ATOM      3  C1  UNL d   1       1.119  -0.615  -2.155  0.00  0.00    -0.004 A 
ATOM      4  C2  UNL d   1       1.363  -1.795  -1.486  0.00  0.00    -0.047 A 
ATOM      5  C3  UNL d   1       0.511  -1.824  -0.356  0.00  0.00    -0.047 A 
ATOM      6  C4  UNL d   1      -0.227  -0.660  -0.368  0.00  0.00    -0.004 A 
ENDROOT
TORSDOF 0
ENDMDL
