MODEL 1
REMARK minimizedAffinity -3.51933384
REMARK minimizedRMSD -1
REMARK  0 active torsions:
REMARK  status: ('A' for Active; 'I' for Inactive)
ROOT
ATOM      1  C   UNL d   1      -1.903   1.530   2.920  0.00  0.00     0.172 C 
ATOM      2  N   UNL d   1      -2.495   0.270   3.303  0.00  0.00    -0.070 N 
ATOM      3  C1  UNL d   1      -1.996  -0.970   3.006  0.00  0.00    -0.004 A 
ATOM      4  C2  UNL d   1      -2.847  -1.908   3.548  0.00  0.00    -0.047 A 
ATOM      5  C3  UNL d   1      -3.894  -1.208   4.193  0.00  0.00    -0.047 A 
ATOM      6  C4  UNL d   1      -3.651   0.139   4.026  0.00  0.00    -0.004 A 
ENDROOT
TORSDOF 0
ENDMDL
