MODEL 1
REMARK minimizedAffinity -1.92221749
REMARK minimizedRMSD -1
REMARK  1 active torsions:
REMARK  status: ('A' for Active; 'I' for Inactive)
REMARK    1  A    between atoms: C1_2  and  C2_3 
ROOT
ATOM      1  C2  UNL d   1      -0.962  -0.120  -0.929  0.00  0.00    -0.081 A 
ATOM      2  C3  UNL d   1      -0.861  -0.359   0.447  0.00  0.00     0.006 A 
ATOM      3  C4  UNL d   1       0.386  -0.576   1.039  0.00  0.00     0.002 A 
ATOM      4  C5  UNL d   1       1.552  -0.550   0.267  0.00  0.00    -0.080 A 
ATOM      5  C6  UNL d   1       2.899  -0.751   0.895  0.00  0.00     0.076 C 
ATOM      6  C7  UNL d   1       1.450  -0.328  -1.111  0.00  0.00     0.002 A 
ATOM      7  C8  UNL d   1       0.204  -0.112  -1.703  0.00  0.00     0.006 A 
ENDROOT
BRANCH   1   8
ATOM      8  C1  UNL d   1      -2.298   0.179  -1.559  0.00  0.00     0.054 C 
ATOM      9  C   UNL d   1      -2.313  -0.204  -3.033  0.00  0.00     0.018 C 
ENDBRANCH   1   8
TORSDOF 1
ENDMDL
