MODEL 1
REMARK minimizedAffinity 2.96477747
REMARK minimizedRMSD -1
REMARK  1 active torsions:
REMARK  status: ('A' for Active; 'I' for Inactive)
REMARK    1  A    between atoms: C1_2  and  C2_3 
ROOT
ATOM      1  C2  UNL d   1      -1.985   0.004  -2.248  0.00  0.00    -0.081 A 
ATOM      2  C3  UNL d   1      -1.402  -1.267  -2.186  0.00  0.00     0.006 A 
ATOM      3  C4  UNL d   1      -0.512  -1.589  -1.158  0.00  0.00     0.002 A 
ATOM      4  C5  UNL d   1      -0.198  -0.648  -0.171  0.00  0.00    -0.080 A 
ATOM      5  C6  UNL d   1       0.731  -0.991   0.955  0.00  0.00     0.076 C 
ATOM      6  C7  UNL d   1      -0.768   0.628  -0.243  0.00  0.00     0.002 A 
ATOM      7  C8  UNL d   1      -1.656   0.950  -1.271  0.00  0.00     0.006 A 
ENDROOT
BRANCH   1   8
ATOM      8  C1  UNL d   1      -2.994   0.333  -3.318  0.00  0.00     0.054 C 
ATOM      9  C   UNL d   1      -2.399   1.249  -4.377  0.00  0.00     0.018 C 
ENDBRANCH   1   8
TORSDOF 1
ENDMDL
