MODEL 1
REMARK minimizedAffinity -4.98177958
REMARK minimizedRMSD -1
REMARK  1 active torsions:
REMARK  status: ('A' for Active; 'I' for Inactive)
REMARK    1  A    between atoms: C1_2  and  C2_3 
ROOT
ATOM      1  C2  UNL d   1      -0.693   0.354  -0.240  0.00  0.00    -0.081 A 
ATOM      2  C3  UNL d   1       0.332   1.294  -0.399  0.00  0.00     0.006 A 
ATOM      3  C4  UNL d   1       1.625   1.014   0.048  0.00  0.00     0.002 A 
ATOM      4  C5  UNL d   1       1.916  -0.212   0.655  0.00  0.00    -0.080 A 
ATOM      5  C6  UNL d   1       3.307  -0.537   1.113  0.00  0.00     0.076 C 
ATOM      6  C7  UNL d   1       0.888  -1.145   0.830  0.00  0.00     0.002 A 
ATOM      7  C8  UNL d   1      -0.405  -0.865   0.383  0.00  0.00     0.006 A 
ENDROOT
BRANCH   1   8
ATOM      8  C1  UNL d   1      -2.074   0.627  -0.780  0.00  0.00     0.054 C 
ATOM      9  C   UNL d   1      -2.252   0.033  -2.170  0.00  0.00     0.018 C 
ENDBRANCH   1   8
TORSDOF 1
ENDMDL
