MODEL 1
REMARK minimizedAffinity -3.11754799
REMARK minimizedRMSD -1
REMARK  1 active torsions:
REMARK  status: ('A' for Active; 'I' for Inactive)
REMARK    1  A    between atoms: C1_2  and  C2_3 
ROOT
ATOM      1  C2  UNL d   1      -0.517   0.620  -0.713  0.00  0.00    -0.081 A 
ATOM      2  C3  UNL d   1       0.410   1.640  -0.462  0.00  0.00     0.006 A 
ATOM      3  C4  UNL d   1       1.649   1.344   0.112  0.00  0.00     0.002 A 
ATOM      4  C5  UNL d   1       1.985   0.026   0.437  0.00  0.00    -0.080 A 
ATOM      5  C6  UNL d   1       3.323  -0.308   1.025  0.00  0.00     0.076 C 
ATOM      6  C7  UNL d   1       1.052  -0.990   0.202  0.00  0.00     0.002 A 
ATOM      7  C8  UNL d   1      -0.187  -0.696  -0.371  0.00  0.00     0.006 A 
ENDROOT
BRANCH   1   8
ATOM      8  C1  UNL d   1      -1.828   0.927  -1.391  0.00  0.00     0.054 C 
ATOM      9  C   UNL d   1      -2.111  -0.057  -2.518  0.00  0.00     0.018 C 
ENDBRANCH   1   8
TORSDOF 1
ENDMDL
