MODEL 1
REMARK minimizedAffinity 0.602256
REMARK minimizedRMSD -1
REMARK  1 active torsions:
REMARK  status: ('A' for Active; 'I' for Inactive)
REMARK    1  A    between atoms: C1_2  and  C2_3 
ROOT
ATOM      1  C2  UNL d   1       0.913   1.734   0.800  0.00  0.00    -0.081 A 
ATOM      2  C3  UNL d   1       0.248   0.517   0.995  0.00  0.00     0.006 A 
ATOM      3  C4  UNL d   1       0.718  -0.403   1.935  0.00  0.00     0.002 A 
ATOM      4  C5  UNL d   1       1.854  -0.120   2.700  0.00  0.00    -0.080 A 
ATOM      5  C6  UNL d   1       2.351  -1.086   3.734  0.00  0.00     0.076 C 
ATOM      6  C7  UNL d   1       2.529   1.088   2.492  0.00  0.00     0.002 A 
ATOM      7  C8  UNL d   1       2.060   2.009   1.552  0.00  0.00     0.006 A 
ENDROOT
BRANCH   1   8
ATOM      8  C1  UNL d   1       0.372   2.756  -0.167  0.00  0.00     0.054 C 
ATOM      9  C   UNL d   1      -0.375   3.865   0.560  0.00  0.00     0.018 C 
ENDBRANCH   1   8
TORSDOF 1
ENDMDL
