MODEL 1
REMARK minimizedAffinity 0.354157448
REMARK minimizedRMSD -1
REMARK  1 active torsions:
REMARK  status: ('A' for Active; 'I' for Inactive)
REMARK    1  A    between atoms: C1_2  and  C2_3 
ROOT
ATOM      1  C2  UNL d   1       0.073   0.388   0.821  0.00  0.00    -0.081 A 
ATOM      2  C3  UNL d   1       1.257   1.007   1.242  0.00  0.00     0.006 A 
ATOM      3  C4  UNL d   1       1.996   0.474   2.300  0.00  0.00     0.002 A 
ATOM      4  C5  UNL d   1       1.569  -0.689   2.950  0.00  0.00    -0.080 A 
ATOM      5  C6  UNL d   1       2.370  -1.288   4.068  0.00  0.00     0.076 C 
ATOM      6  C7  UNL d   1       0.377  -1.297   2.542  0.00  0.00     0.002 A 
ATOM      7  C8  UNL d   1      -0.363  -0.764   1.484  0.00  0.00     0.006 A 
ENDROOT
BRANCH   1   8
ATOM      8  C1  UNL d   1      -0.692   0.924  -0.362  0.00  0.00     0.054 C 
ATOM      9  C   UNL d   1      -0.499   0.045  -1.590  0.00  0.00     0.018 C 
ENDBRANCH   1   8
TORSDOF 1
ENDMDL
