MODEL 1
REMARK minimizedAffinity -3.8478477
REMARK minimizedRMSD -1
REMARK  1 active torsions:
REMARK  status: ('A' for Active; 'I' for Inactive)
REMARK    1  A    between atoms: C1_2  and  C2_3 
ROOT
ATOM      1  C2  UNL d   1      -1.327  -0.039  -0.599  0.00  0.00    -0.081 A 
ATOM      2  C3  UNL d   1      -0.755   1.226  -0.417  0.00  0.00     0.006 A 
ATOM      3  C4  UNL d   1       0.467   1.361   0.246  0.00  0.00     0.002 A 
ATOM      4  C5  UNL d   1       1.140   0.234   0.731  0.00  0.00    -0.080 A 
ATOM      5  C6  UNL d   1       2.467   0.363   1.419  0.00  0.00     0.076 C 
ATOM      6  C7  UNL d   1       0.559  -1.027   0.565  0.00  0.00     0.002 A 
ATOM      7  C8  UNL d   1      -0.663  -1.163  -0.098  0.00  0.00     0.006 A 
ENDROOT
BRANCH   1   8
ATOM      8  C1  UNL d   1      -2.613  -0.194  -1.371  0.00  0.00     0.054 C 
ATOM      9  C   UNL d   1      -2.376  -0.884  -2.707  0.00  0.00     0.018 C 
ENDBRANCH   1   8
TORSDOF 1
ENDMDL
