MODEL 1
REMARK minimizedAffinity -2.88502526
REMARK minimizedRMSD -1
REMARK  0 active torsions:
REMARK  status: ('A' for Active; 'I' for Inactive)
ROOT
ATOM      1  C   UNL d   1       2.618   1.146   1.246  0.00  0.00     0.077 C 
ATOM      2  C1  UNL d   1       1.148   0.967   1.482  0.00  0.00    -0.074 A 
ATOM      3  C2  UNL d   1       0.545   1.439   2.652  0.00  0.00    -0.005 A 
ATOM      4  C3  UNL d   1      -0.825   1.274   2.854  0.00  0.00     0.006 A 
ATOM      5  C4  UNL d   1      -1.605   0.636   1.889  0.00  0.00    -0.005 A 
ATOM      6  C5  UNL d   1      -1.020   0.158   0.712  0.00  0.00    -0.074 A 
ATOM      7  C6  UNL d   1      -1.846  -0.522  -0.340  0.00  0.00     0.077 C 
ATOM      8  C7  UNL d   1       0.356   0.334   0.514  0.00  0.00    -0.001 A 
ENDROOT
TORSDOF 0
ENDMDL
