MODEL 1
REMARK minimizedAffinity -2.4253068
REMARK minimizedRMSD -1
REMARK  0 active torsions:
REMARK  status: ('A' for Active; 'I' for Inactive)
ROOT
ATOM      1  C   UNL d   1      -1.579  -1.236  -0.211  0.00  0.00     0.077 C 
ATOM      2  C1  UNL d   1      -0.824  -0.254   0.634  0.00  0.00    -0.074 A 
ATOM      3  C2  UNL d   1      -1.377   0.255   1.813  0.00  0.00    -0.005 A 
ATOM      4  C3  UNL d   1      -0.659   1.161   2.593  0.00  0.00     0.006 A 
ATOM      5  C4  UNL d   1       0.618   1.567   2.203  0.00  0.00    -0.005 A 
ATOM      6  C5  UNL d   1       1.187   1.069   1.027  0.00  0.00    -0.074 A 
ATOM      7  C6  UNL d   1       2.562   1.488   0.597  0.00  0.00     0.077 C 
ATOM      8  C7  UNL d   1       0.462   0.153   0.252  0.00  0.00    -0.001 A 
ENDROOT
TORSDOF 0
ENDMDL
