MODEL 1
REMARK minimizedAffinity 1.07589924
REMARK minimizedRMSD -1
REMARK  0 active torsions:
REMARK  status: ('A' for Active; 'I' for Inactive)
ROOT
ATOM      1  C   UNL d   1      -2.108  -0.676   0.042  0.00  0.00     0.077 C 
ATOM      2  C1  UNL d   1      -1.285   0.142   0.992  0.00  0.00    -0.074 A 
ATOM      3  C2  UNL d   1      -1.662   0.285   2.331  0.00  0.00    -0.005 A 
ATOM      4  C3  UNL d   1      -0.880   1.041   3.205  0.00  0.00     0.006 A 
ATOM      5  C4  UNL d   1       0.284   1.661   2.749  0.00  0.00    -0.005 A 
ATOM      6  C5  UNL d   1       0.677   1.528   1.414  0.00  0.00    -0.074 A 
ATOM      7  C6  UNL d   1       1.931   2.179   0.910  0.00  0.00     0.077 C 
ATOM      8  C7  UNL d   1      -0.109   0.761   0.544  0.00  0.00    -0.001 A 
ENDROOT
TORSDOF 0
ENDMDL
