MODEL 1
REMARK minimizedAffinity -0.407644212
REMARK minimizedRMSD -1
REMARK  0 active torsions:
REMARK  status: ('A' for Active; 'I' for Inactive)
ROOT
ATOM      1  C   UNL d   1      -2.398  -0.863  -0.106  0.00  0.00     0.077 C 
ATOM      2  C1  UNL d   1      -1.484  -0.111   0.815  0.00  0.00    -0.074 A 
ATOM      3  C2  UNL d   1      -1.744  -0.043   2.188  0.00  0.00    -0.005 A 
ATOM      4  C3  UNL d   1      -0.880   0.652   3.034  0.00  0.00     0.006 A 
ATOM      5  C4  UNL d   1       0.251   1.284   2.517  0.00  0.00    -0.005 A 
ATOM      6  C5  UNL d   1       0.528   1.226   1.148  0.00  0.00    -0.074 A 
ATOM      7  C6  UNL d   1       1.745   1.892   0.577  0.00  0.00     0.077 C 
ATOM      8  C7  UNL d   1      -0.341   0.520   0.305  0.00  0.00    -0.001 A 
ENDROOT
TORSDOF 0
ENDMDL
