MODEL 1
REMARK minimizedAffinity 1.66694999
REMARK minimizedRMSD -1
REMARK  0 active torsions:
REMARK  status: ('A' for Active; 'I' for Inactive)
ROOT
ATOM      1  C   UNL d   1      -2.233  -0.721   0.061  0.00  0.00     0.077 C 
ATOM      2  C1  UNL d   1      -1.295   0.159   0.832  0.00  0.00    -0.074 A 
ATOM      3  C2  UNL d   1      -0.275   0.863   0.186  0.00  0.00    -0.005 A 
ATOM      4  C3  UNL d   1       0.584   1.686   0.915  0.00  0.00     0.006 A 
ATOM      5  C4  UNL d   1       0.431   1.812   2.296  0.00  0.00    -0.005 A 
ATOM      6  C5  UNL d   1      -0.585   1.117   2.960  0.00  0.00    -0.074 A 
ATOM      7  C6  UNL d   1      -0.769   1.249   4.443  0.00  0.00     0.077 C 
ATOM      8  C7  UNL d   1      -1.448   0.298   2.219  0.00  0.00    -0.001 A 
ENDROOT
TORSDOF 0
ENDMDL
