MODEL 1
REMARK minimizedAffinity -5.57069206
REMARK minimizedRMSD -1
REMARK  0 active torsions:
REMARK  status: ('A' for Active; 'I' for Inactive)
ROOT
ATOM      1  C   UNL d   1      -0.663   1.107   4.304  0.00  0.00     0.077 C 
ATOM      2  C1  UNL d   1       0.039   0.703   3.042  0.00  0.00    -0.074 A 
ATOM      3  C2  UNL d   1       1.401   0.383   3.048  0.00  0.00    -0.005 A 
ATOM      4  C3  UNL d   1       2.038  -0.000   1.868  0.00  0.00     0.006 A 
ATOM      5  C4  UNL d   1       1.323  -0.066   0.672  0.00  0.00    -0.005 A 
ATOM      6  C5  UNL d   1      -0.039   0.250   0.647  0.00  0.00    -0.074 A 
ATOM      7  C6  UNL d   1      -0.826   0.174  -0.628  0.00  0.00     0.077 C 
ATOM      8  C7  UNL d   1      -0.675   0.627   1.838  0.00  0.00    -0.001 A 
ENDROOT
TORSDOF 0
ENDMDL
