MODEL 1
REMARK minimizedAffinity -2.39701653
REMARK minimizedRMSD -1
REMARK  0 active torsions:
REMARK  status: ('A' for Active; 'I' for Inactive)
ROOT
ATOM      1  C   UNL d   1      -1.390  -1.028   0.424  0.00  0.00     0.077 C 
ATOM      2  C1  UNL d   1      -0.701  -0.030   1.306  0.00  0.00    -0.074 A 
ATOM      3  C2  UNL d   1      -1.242   0.330   2.544  0.00  0.00    -0.005 A 
ATOM      4  C3  UNL d   1      -0.585   1.253   3.358  0.00  0.00     0.006 A 
ATOM      5  C4  UNL d   1       0.618   1.824   2.942  0.00  0.00    -0.005 A 
ATOM      6  C5  UNL d   1       1.175   1.475   1.708  0.00  0.00    -0.074 A 
ATOM      7  C6  UNL d   1       2.473   2.073   1.251  0.00  0.00     0.077 C 
ATOM      8  C7  UNL d   1       0.512   0.542   0.899  0.00  0.00    -0.001 A 
ENDROOT
TORSDOF 0
ENDMDL
