MODEL 1
REMARK minimizedAffinity -4.56770754
REMARK minimizedRMSD -1
REMARK  0 active torsions:
REMARK  status: ('A' for Active; 'I' for Inactive)
ROOT
ATOM      1  C   UNL d   1       2.569   1.731   0.484  0.00  0.00     0.077 C 
ATOM      2  C1  UNL d   1       1.255   1.387   1.122  0.00  0.00    -0.074 A 
ATOM      3  C2  UNL d   1       0.824   2.045   2.278  0.00  0.00    -0.005 A 
ATOM      4  C3  UNL d   1      -0.404   1.721   2.855  0.00  0.00     0.006 A 
ATOM      5  C4  UNL d   1      -1.212   0.737   2.282  0.00  0.00    -0.005 A 
ATOM      6  C5  UNL d   1      -0.797   0.070   1.125  0.00  0.00    -0.074 A 
ATOM      7  C6  UNL d   1      -1.657  -0.983   0.491  0.00  0.00     0.077 C 
ATOM      8  C7  UNL d   1       0.435   0.406   0.548  0.00  0.00    -0.001 A 
ENDROOT
TORSDOF 0
ENDMDL
