MODEL 1
REMARK minimizedAffinity -1.27657914
REMARK minimizedRMSD -1
REMARK  2 active torsions:
REMARK  status: ('A' for Active; 'I' for Inactive)
REMARK    1  A    between atoms: C2'_3  and  C1'_4 
REMARK    2  A    between atoms: C1'_4  and  C1_5 
ROOT
ATOM      1  C1  I4B d   1      -2.312   1.944   0.742  0.00  0.00    -0.075 A 
ATOM      2  C2  I4B d   1      -1.136   2.553   0.378  0.00  0.00     0.003 A 
ATOM      3  C3  I4B d   1       0.072   1.816   0.358  0.00  0.00     0.002 A 
ATOM      4  C4  I4B d   1       0.069   0.494   0.755  0.00  0.00    -0.004 A 
ATOM      5  C5  I4B d   1      -1.127  -0.128   1.101  0.00  0.00     0.002 A 
ATOM      6  C6  I4B d   1      -2.327   0.598   1.083  0.00  0.00     0.003 A 
ENDROOT
BRANCH   1   7
ATOM      7  C1' I4B d   1      -3.564   2.761   0.784  0.00  0.00     0.060 C 
BRANCH   7   8
ATOM      8  C2' I4B d   1      -4.739   1.823   0.596  0.00  0.00    -0.013 C 
ATOM      9  C4' I4B d   1      -4.679   0.672   1.566  0.00  0.00     0.013 C 
ATOM     10  C3' I4B d   1      -5.998   2.618   0.776  0.00  0.00     0.013 C 
ENDBRANCH   7   8
ENDBRANCH   1   7
TORSDOF 2
ENDMDL
