MODEL 1
REMARK minimizedAffinity 3.05996466
REMARK minimizedRMSD -1
REMARK  2 active torsions:
REMARK  status: ('A' for Active; 'I' for Inactive)
REMARK    1  A    between atoms: C2'_3  and  C1'_4 
REMARK    2  A    between atoms: C1'_4  and  C1_5 
ROOT
ATOM      1  C1  I4B d   1      -2.393   1.973   0.170  0.00  0.00    -0.075 A 
ATOM      2  C2  I4B d   1      -1.465   2.037  -0.840  0.00  0.00     0.003 A 
ATOM      3  C3  I4B d   1      -0.088   1.879  -0.553  0.00  0.00     0.002 A 
ATOM      4  C4  I4B d   1       0.319   1.710   0.755  0.00  0.00    -0.004 A 
ATOM      5  C5  I4B d   1      -0.625   1.623   1.774  0.00  0.00     0.002 A 
ATOM      6  C6  I4B d   1      -1.990   1.743   1.479  0.00  0.00     0.003 A 
ENDROOT
BRANCH   1   7
ATOM      7  C1' I4B d   1      -3.837   2.177  -0.164  0.00  0.00     0.060 C 
BRANCH   7   8
ATOM      8  C2' I4B d   1      -4.646   1.937   1.094  0.00  0.00    -0.013 C 
ATOM      9  C4' I4B d   1      -6.000   2.590   1.005  0.00  0.00     0.013 C 
ATOM     10  C3' I4B d   1      -4.770   0.456   1.289  0.00  0.00     0.013 C 
ENDBRANCH   7   8
ENDBRANCH   1   7
TORSDOF 2
ENDMDL
