MODEL 1
REMARK minimizedAffinity -0.105586909
REMARK minimizedRMSD -1
REMARK  2 active torsions:
REMARK  status: ('A' for Active; 'I' for Inactive)
REMARK    1  A    between atoms: C2'_3  and  C1'_4 
REMARK    2  A    between atoms: C1'_4  and  C1_5 
ROOT
ATOM      1  C1  I4B d   1      -0.587  -5.470  -2.754  0.00  0.00    -0.075 A 
ATOM      2  C2  I4B d   1      -0.789  -5.669  -1.411  0.00  0.00     0.003 A 
ATOM      3  C3  I4B d   1      -1.951  -5.160  -0.782  0.00  0.00     0.002 A 
ATOM      4  C4  I4B d   1      -2.853  -4.418  -1.518  0.00  0.00    -0.004 A 
ATOM      5  C5  I4B d   1      -2.657  -4.237  -2.884  0.00  0.00     0.002 A 
ATOM      6  C6  I4B d   1      -1.524  -4.776  -3.509  0.00  0.00     0.003 A 
ENDROOT
BRANCH   1   7
ATOM      7  C1' I4B d   1       0.667  -5.994  -3.379  0.00  0.00     0.060 C 
BRANCH   7   8
ATOM      8  C2' I4B d   1       1.841  -5.281  -2.739  0.00  0.00    -0.013 C 
ATOM      9  C4' I4B d   1       2.146  -5.849  -1.378  0.00  0.00     0.013 C 
ATOM     10  C3' I4B d   1       3.019  -5.413  -3.657  0.00  0.00     0.013 C 
ENDBRANCH   7   8
ENDBRANCH   1   7
TORSDOF 2
ENDMDL
