MODEL 1
REMARK minimizedAffinity 5.46241999
REMARK minimizedRMSD -1
REMARK  2 active torsions:
REMARK  status: ('A' for Active; 'I' for Inactive)
REMARK    1  A    between atoms: C2'_3  and  C1'_4 
REMARK    2  A    between atoms: C1'_4  and  C1_5 
ROOT
ATOM      1  C1  I4B d   1       0.386   0.699   0.845  0.00  0.00    -0.075 A 
ATOM      2  C2  I4B d   1      -0.509   1.224  -0.054  0.00  0.00     0.003 A 
ATOM      3  C3  I4B d   1      -1.891   0.941   0.068  0.00  0.00     0.002 A 
ATOM      4  C4  I4B d   1      -2.326   0.094   1.067  0.00  0.00    -0.004 A 
ATOM      5  C5  I4B d   1      -1.420  -0.419   1.991  0.00  0.00     0.002 A 
ATOM      6  C6  I4B d   1      -0.057  -0.104   1.887  0.00  0.00     0.003 A 
ENDROOT
BRANCH   1   7
ATOM      7  C1' I4B d   1       1.842   0.992   0.667  0.00  0.00     0.060 C 
BRANCH   7   8
ATOM      8  C2' I4B d   1       2.023   1.654  -0.684  0.00  0.00    -0.013 C 
ATOM      9  C4' I4B d   1       2.435   3.095  -0.534  0.00  0.00     0.013 C 
ATOM     10  C3' I4B d   1       3.051   0.874  -1.448  0.00  0.00     0.013 C 
ENDBRANCH   7   8
ENDBRANCH   1   7
TORSDOF 2
ENDMDL
