MODEL 1
REMARK minimizedAffinity 5.71011782
REMARK minimizedRMSD -1
REMARK  2 active torsions:
REMARK  status: ('A' for Active; 'I' for Inactive)
REMARK    1  A    between atoms: C2'_3  and  C1'_4 
REMARK    2  A    between atoms: C1'_4  and  C1_5 
ROOT
ATOM      1  C1  I4B d   1      -2.573   1.661   0.744  0.00  0.00    -0.075 A 
ATOM      2  C2  I4B d   1      -3.771   2.330   0.717  0.00  0.00     0.003 A 
ATOM      3  C3  I4B d   1      -4.982   1.634   0.948  0.00  0.00     0.002 A 
ATOM      4  C4  I4B d   1      -4.953   0.269   1.150  0.00  0.00    -0.004 A 
ATOM      5  C5  I4B d   1      -3.736  -0.404   1.200  0.00  0.00     0.002 A 
ATOM      6  C6  I4B d   1      -2.537   0.298   1.008  0.00  0.00     0.003 A 
ENDROOT
BRANCH   1   7
ATOM      7  C1' I4B d   1      -1.316   2.422   0.464  0.00  0.00     0.060 C 
BRANCH   7   8
ATOM      8  C2' I4B d   1      -0.150   1.604   0.982  0.00  0.00    -0.013 C 
ATOM      9  C4' I4B d   1       1.025   1.674   0.042  0.00  0.00     0.013 C 
ATOM     10  C3' I4B d   1       0.212   2.122   2.341  0.00  0.00     0.013 C 
ENDBRANCH   7   8
ENDBRANCH   1   7
TORSDOF 2
ENDMDL
