MODEL 1
REMARK minimizedAffinity 3.36663985
REMARK minimizedRMSD -1
REMARK  2 active torsions:
REMARK  status: ('A' for Active; 'I' for Inactive)
REMARK    1  A    between atoms: C2'_3  and  C1'_4 
REMARK    2  A    between atoms: C1'_4  and  C1_5 
ROOT
ATOM      1  C1  I4B d   1      -1.476   0.511   1.152  0.00  0.00    -0.075 A 
ATOM      2  C2  I4B d   1      -2.203   1.669   1.032  0.00  0.00     0.003 A 
ATOM      3  C3  I4B d   1      -1.546   2.902   0.805  0.00  0.00     0.002 A 
ATOM      4  C4  I4B d   1      -0.167   2.939   0.756  0.00  0.00    -0.004 A 
ATOM      5  C5  I4B d   1       0.567   1.761   0.855  0.00  0.00     0.002 A 
ATOM      6  C6  I4B d   1      -0.091   0.537   1.042  0.00  0.00     0.003 A 
ENDROOT
BRANCH   1   7
ATOM      7  C1' I4B d   1      -2.199  -0.770   1.424  0.00  0.00     0.060 C 
BRANCH   7   8
ATOM      8  C2' I4B d   1      -2.860  -0.653   2.782  0.00  0.00    -0.013 C 
ATOM      9  C4' I4B d   1      -4.288  -1.130   2.737  0.00  0.00     0.013 C 
ATOM     10  C3' I4B d   1      -2.053  -1.454   3.760  0.00  0.00     0.013 C 
ENDBRANCH   7   8
ENDBRANCH   1   7
TORSDOF 2
ENDMDL
