MODEL 1
REMARK minimizedAffinity 5.40367222
REMARK minimizedRMSD -1
REMARK  2 active torsions:
REMARK  status: ('A' for Active; 'I' for Inactive)
REMARK    1  A    between atoms: C2'_3  and  C1'_4 
REMARK    2  A    between atoms: C1'_4  and  C1_5 
ROOT
ATOM      1  C1  I4B d   1      -2.260   1.414   0.443  0.00  0.00    -0.075 A 
ATOM      2  C2  I4B d   1      -1.759   0.174   0.754  0.00  0.00     0.003 A 
ATOM      3  C3  I4B d   1      -0.447   0.045   1.271  0.00  0.00     0.002 A 
ATOM      4  C4  I4B d   1       0.342   1.169   1.411  0.00  0.00    -0.004 A 
ATOM      5  C5  I4B d   1      -0.176   2.427   1.117  0.00  0.00     0.002 A 
ATOM      6  C6  I4B d   1      -1.490   2.552   0.642  0.00  0.00     0.003 A 
ENDROOT
BRANCH   1   7
ATOM      7  C1' I4B d   1      -3.638   1.510  -0.131  0.00  0.00     0.060 C 
BRANCH   7   8
ATOM      8  C2' I4B d   1      -4.626   1.167   0.966  0.00  0.00    -0.013 C 
ATOM      9  C4' I4B d   1      -5.998   1.702   0.651  0.00  0.00     0.013 C 
ATOM     10  C3' I4B d   1      -4.649  -0.325   1.118  0.00  0.00     0.013 C 
ENDBRANCH   7   8
ENDBRANCH   1   7
TORSDOF 2
ENDMDL
