MODEL 1
REMARK minimizedAffinity -0.2569426
REMARK minimizedRMSD -1
REMARK  2 active torsions:
REMARK  status: ('A' for Active; 'I' for Inactive)
REMARK    1  A    between atoms: C2'_3  and  C1'_4 
REMARK    2  A    between atoms: C1'_4  and  C1_5 
ROOT
ATOM      1  C1  I4B d   1      -2.250   2.013   0.536  0.00  0.00    -0.075 A 
ATOM      2  C2  I4B d   1      -1.212   2.894   0.366  0.00  0.00     0.003 A 
ATOM      3  C3  I4B d   1       0.126   2.429   0.374  0.00  0.00     0.002 A 
ATOM      4  C4  I4B d   1       0.379   1.092   0.603  0.00  0.00    -0.004 A 
ATOM      5  C5  I4B d   1      -0.676   0.197   0.752  0.00  0.00     0.002 A 
ATOM      6  C6  I4B d   1      -2.000   0.658   0.706  0.00  0.00     0.003 A 
ENDROOT
BRANCH   1   7
ATOM      7  C1' I4B d   1      -3.649   2.543   0.555  0.00  0.00     0.060 C 
BRANCH   7   8
ATOM      8  C2' I4B d   1      -4.597   1.364   0.467  0.00  0.00    -0.013 C 
ATOM      9  C4' I4B d   1      -4.361   0.391   1.591  0.00  0.00     0.013 C 
ATOM     10  C3' I4B d   1      -5.999   1.894   0.494  0.00  0.00     0.013 C 
ENDBRANCH   7   8
ENDBRANCH   1   7
TORSDOF 2
ENDMDL
