MODEL 1
REMARK minimizedAffinity 3.83639216
REMARK minimizedRMSD -1
REMARK  2 active torsions:
REMARK  status: ('A' for Active; 'I' for Inactive)
REMARK    1  A    between atoms: C2'_3  and  C1'_4 
REMARK    2  A    between atoms: C1'_4  and  C1_5 
ROOT
ATOM      1  C1  I4B d   1      -1.182   2.074   0.751  0.00  0.00    -0.075 A 
ATOM      2  C2  I4B d   1      -1.386   0.911   1.452  0.00  0.00     0.003 A 
ATOM      3  C3  I4B d   1      -0.418  -0.121   1.416  0.00  0.00     0.002 A 
ATOM      4  C4  I4B d   1       0.708   0.029   0.633  0.00  0.00    -0.004 A 
ATOM      5  C5  I4B d   1       0.924   1.217  -0.059  0.00  0.00     0.002 A 
ATOM      6  C6  I4B d   1      -0.021   2.252   0.010  0.00  0.00     0.003 A 
ENDROOT
BRANCH   1   7
ATOM      7  C1' I4B d   1      -2.240   3.130   0.784  0.00  0.00     0.060 C 
BRANCH   7   8
ATOM      8  C2' I4B d   1      -3.348   2.711  -0.161  0.00  0.00    -0.013 C 
ATOM      9  C4' I4B d   1      -4.704   2.995   0.428  0.00  0.00     0.013 C 
ATOM     10  C3' I4B d   1      -3.155   3.446  -1.455  0.00  0.00     0.013 C 
ENDBRANCH   7   8
ENDBRANCH   1   7
TORSDOF 2
ENDMDL
