MODEL 1
REMARK minimizedAffinity -0.519801259
REMARK minimizedRMSD -1
REMARK  2 active torsions:
REMARK  status: ('A' for Active; 'I' for Inactive)
REMARK    1  A    between atoms: C2'_3  and  C1'_4 
REMARK    2  A    between atoms: C1'_4  and  C1_5 
ROOT
ATOM      1  C1  I4B d   1      -2.351   1.841   0.704  0.00  0.00    -0.075 A 
ATOM      2  C2  I4B d   1      -1.346   2.201  -0.158  0.00  0.00     0.003 A 
ATOM      3  C3  I4B d   1      -0.144   1.453  -0.204  0.00  0.00     0.002 A 
ATOM      4  C4  I4B d   1       0.028   0.390   0.659  0.00  0.00    -0.004 A 
ATOM      5  C5  I4B d   1      -1.001   0.012   1.516  0.00  0.00     0.002 A 
ATOM      6  C6  I4B d   1      -2.204   0.734   1.530  0.00  0.00     0.003 A 
ENDROOT
BRANCH   1   7
ATOM      7  C1' I4B d   1      -3.594   2.672   0.750  0.00  0.00     0.060 C 
BRANCH   7   8
ATOM      8  C2' I4B d   1      -4.783   1.734   0.770  0.00  0.00    -0.013 C 
ATOM      9  C4' I4B d   1      -4.569   0.602   1.741  0.00  0.00     0.013 C 
ATOM     10  C3' I4B d   1      -5.998   2.534   1.132  0.00  0.00     0.013 C 
ENDBRANCH   7   8
ENDBRANCH   1   7
TORSDOF 2
ENDMDL
