MODEL 1
REMARK minimizedAffinity -1.70467639
REMARK minimizedRMSD -1
REMARK  2 active torsions:
REMARK  status: ('A' for Active; 'I' for Inactive)
REMARK    1  A    between atoms: C2'_3  and  C1'_4 
REMARK    2  A    between atoms: C1'_4  and  C1_5 
ROOT
ATOM      1  C1  I4B d   1      -2.044   0.921   0.453  0.00  0.00    -0.075 A 
ATOM      2  C2  I4B d   1      -1.802   1.737  -0.624  0.00  0.00     0.003 A 
ATOM      3  C3  I4B d   1      -0.474   1.992  -1.041  0.00  0.00     0.002 A 
ATOM      4  C4  I4B d   1       0.578   1.455  -0.326  0.00  0.00    -0.004 A 
ATOM      5  C5  I4B d   1       0.331   0.610   0.752  0.00  0.00     0.002 A 
ATOM      6  C6  I4B d   1      -0.989   0.331   1.137  0.00  0.00     0.003 A 
ENDROOT
BRANCH   1   7
ATOM      7  C1' I4B d   1      -3.458   0.699   0.887  0.00  0.00     0.060 C 
BRANCH   7   8
ATOM      8  C2' I4B d   1      -4.299   1.831   0.331  0.00  0.00    -0.013 C 
ATOM      9  C4' I4B d   1      -5.706   1.779   0.868  0.00  0.00     0.013 C 
ATOM     10  C3' I4B d   1      -3.630   3.124   0.690  0.00  0.00     0.013 C 
ENDBRANCH   7   8
ENDBRANCH   1   7
TORSDOF 2
ENDMDL
