MODEL 1
REMARK minimizedAffinity 1.79384923
REMARK minimizedRMSD -1
REMARK  2 active torsions:
REMARK  status: ('A' for Active; 'I' for Inactive)
REMARK    1  A    between atoms: C2'_3  and  C1'_4 
REMARK    2  A    between atoms: C1'_4  and  C1_5 
ROOT
ATOM      1  C1  I4B d   1      -2.364   1.753   0.158  0.00  0.00    -0.075 A 
ATOM      2  C2  I4B d   1      -1.253   2.303  -0.430  0.00  0.00     0.003 A 
ATOM      3  C3  I4B d   1       0.041   1.854  -0.069  0.00  0.00     0.002 A 
ATOM      4  C4  I4B d   1       0.177   0.896   0.915  0.00  0.00    -0.004 A 
ATOM      5  C5  I4B d   1      -0.951   0.324   1.494  0.00  0.00     0.002 A 
ATOM      6  C6  I4B d   1      -2.231   0.746   1.105  0.00  0.00     0.003 A 
ENDROOT
BRANCH   1   7
ATOM      7  C1' I4B d   1      -3.714   2.274  -0.223  0.00  0.00     0.060 C 
BRANCH   7   8
ATOM      8  C2' I4B d   1      -4.651   2.042   0.944  0.00  0.00    -0.013 C 
ATOM      9  C4' I4B d   1      -6.000   2.663   0.693  0.00  0.00     0.013 C 
ATOM     10  C3' I4B d   1      -4.767   0.562   1.158  0.00  0.00     0.013 C 
ENDBRANCH   7   8
ENDBRANCH   1   7
TORSDOF 2
ENDMDL
