MODEL 1
REMARK minimizedAffinity -3.34771562
REMARK minimizedRMSD -1
REMARK  0 active torsions:
REMARK  status: ('A' for Active; 'I' for Inactive)
ROOT
ATOM      1  C1  BNZ d   1       0.765   0.480  -0.745  0.00  0.00     0.000 A 
ATOM      2  C2  BNZ d   1       1.005  -0.030   0.503  0.00  0.00     0.000 A 
ATOM      3  C3  BNZ d   1      -0.027  -0.427   1.307  0.00  0.00     0.000 A 
ATOM      4  C4  BNZ d   1      -1.297  -0.275   0.880  0.00  0.00     0.000 A 
ATOM      5  C5  BNZ d   1      -1.556   0.247  -0.372  0.00  0.00     0.000 A 
ATOM      6  C6  BNZ d   1      -0.514   0.609  -1.194  0.00  0.00     0.000 A 
ENDROOT
TORSDOF 0
ENDMDL
