MODEL 1
REMARK minimizedAffinity -4.35674858
REMARK minimizedRMSD -1
REMARK  0 active torsions:
REMARK  status: ('A' for Active; 'I' for Inactive)
ROOT
ATOM      1  C1  BNZ d   1      -0.965  -0.529   1.505  0.00  0.00     0.000 A 
ATOM      2  C2  BNZ d   1      -0.499  -0.285   0.240  0.00  0.00     0.000 A 
ATOM      3  C3  BNZ d   1       0.690   0.360   0.045  0.00  0.00     0.000 A 
ATOM      4  C4  BNZ d   1       1.391   0.796   1.111  0.00  0.00     0.000 A 
ATOM      5  C5  BNZ d   1       0.930   0.567   2.392  0.00  0.00     0.000 A 
ATOM      6  C6  BNZ d   1      -0.248  -0.118   2.586  0.00  0.00     0.000 A 
ENDROOT
TORSDOF 0
ENDMDL
