MODEL 1
REMARK minimizedAffinity -3.81567574
REMARK minimizedRMSD -1
REMARK  0 active torsions:
REMARK  status: ('A' for Active; 'I' for Inactive)
ROOT
ATOM      1  C1  BNZ d   1      -2.247   0.758  -0.756  0.00  0.00     0.000 A 
ATOM      2  C2  BNZ d   1      -1.126   1.126  -1.451  0.00  0.00     0.000 A 
ATOM      3  C3  BNZ d   1       0.119   0.781  -1.005  0.00  0.00     0.000 A 
ATOM      4  C4  BNZ d   1       0.244   0.103   0.154  0.00  0.00     0.000 A 
ATOM      5  C5  BNZ d   1      -0.876  -0.268   0.871  0.00  0.00     0.000 A 
ATOM      6  C6  BNZ d   1      -2.130   0.048   0.399  0.00  0.00     0.000 A 
ENDROOT
TORSDOF 0
ENDMDL
