MODEL 1
REMARK minimizedAffinity -2.65736818
REMARK minimizedRMSD -1
REMARK  0 active torsions:
REMARK  status: ('A' for Active; 'I' for Inactive)
ROOT
ATOM      1  C1  BNZ d   1       0.044  -0.191   2.863  0.00  0.00     0.000 A 
ATOM      2  C2  BNZ d   1       1.037  -0.027   1.934  0.00  0.00     0.000 A 
ATOM      3  C3  BNZ d   1       0.735   0.166   0.614  0.00  0.00     0.000 A 
ATOM      4  C4  BNZ d   1      -0.554   0.154   0.220  0.00  0.00     0.000 A 
ATOM      5  C5  BNZ d   1      -1.566  -0.019   1.143  0.00  0.00     0.000 A 
ATOM      6  C6  BNZ d   1      -1.260  -0.174   2.476  0.00  0.00     0.000 A 
ENDROOT
TORSDOF 0
ENDMDL
