MODEL 1
REMARK minimizedAffinity -5.10472775
REMARK minimizedRMSD -1
REMARK  0 active torsions:
REMARK  status: ('A' for Active; 'I' for Inactive)
ROOT
ATOM      1  C1  BNZ d   1      -0.321  -0.377   1.672  0.00  0.00     0.000 A 
ATOM      2  C2  BNZ d   1      -0.457  -0.540   3.025  0.00  0.00     0.000 A 
ATOM      3  C3  BNZ d   1      -1.694  -0.562   3.607  0.00  0.00     0.000 A 
ATOM      4  C4  BNZ d   1      -2.790  -0.381   2.842  0.00  0.00     0.000 A 
ATOM      5  C5  BNZ d   1      -2.669  -0.206   1.477  0.00  0.00     0.000 A 
ATOM      6  C6  BNZ d   1      -1.424  -0.223   0.890  0.00  0.00     0.000 A 
ENDROOT
TORSDOF 0
ENDMDL
