MODEL 1
REMARK minimizedAffinity -4.45711899
REMARK minimizedRMSD -1
REMARK  0 active torsions:
REMARK  status: ('A' for Active; 'I' for Inactive)
ROOT
ATOM      1  C1  BNZ d   1      -0.708   0.122   0.888  0.00  0.00     0.000 A 
ATOM      2  C2  BNZ d   1      -2.042   0.186   1.189  0.00  0.00     0.000 A 
ATOM      3  C3  BNZ d   1      -2.472   0.116   2.485  0.00  0.00     0.000 A 
ATOM      4  C4  BNZ d   1      -1.571  -0.058   3.474  0.00  0.00     0.000 A 
ATOM      5  C5  BNZ d   1      -0.223  -0.134   3.186  0.00  0.00     0.000 A 
ATOM      6  C6  BNZ d   1       0.209  -0.024   1.884  0.00  0.00     0.000 A 
ENDROOT
TORSDOF 0
ENDMDL
