MODEL 1
REMARK minimizedAffinity -2.40320468
REMARK minimizedRMSD -1
REMARK  0 active torsions:
REMARK  status: ('A' for Active; 'I' for Inactive)
ROOT
ATOM      1  C1  BNZ d   1      -0.672  -0.093   0.631  0.00  0.00     0.000 A 
ATOM      2  C2  BNZ d   1      -0.825  -0.138   1.991  0.00  0.00     0.000 A 
ATOM      3  C3  BNZ d   1      -2.049   0.068   2.564  0.00  0.00     0.000 A 
ATOM      4  C4  BNZ d   1      -3.108   0.359   1.781  0.00  0.00     0.000 A 
ATOM      5  C5  BNZ d   1      -2.967   0.417   0.409  0.00  0.00     0.000 A 
ATOM      6  C6  BNZ d   1      -1.742   0.171  -0.167  0.00  0.00     0.000 A 
ENDROOT
TORSDOF 0
ENDMDL
