MODEL 1
REMARK minimizedAffinity -2.95439816
REMARK minimizedRMSD -1
REMARK  0 active torsions:
REMARK  status: ('A' for Active; 'I' for Inactive)
ROOT
ATOM      1  C1  BNZ d   1       0.121  -0.715  -3.009  0.00  0.00     0.000 A 
ATOM      2  C2  BNZ d   1       0.622  -1.919  -3.426  0.00  0.00     0.000 A 
ATOM      3  C3  BNZ d   1       1.944  -2.053  -3.750  0.00  0.00     0.000 A 
ATOM      4  C4  BNZ d   1       2.752  -0.976  -3.694  0.00  0.00     0.000 A 
ATOM      5  C5  BNZ d   1       2.260   0.248  -3.284  0.00  0.00     0.000 A 
ATOM      6  C6  BNZ d   1       0.939   0.370  -2.922  0.00  0.00     0.000 A 
ENDROOT
TORSDOF 0
ENDMDL
