MODEL 1
REMARK minimizedAffinity 0.452804029
REMARK minimizedRMSD -1
REMARK  0 active torsions:
REMARK  status: ('A' for Active; 'I' for Inactive)
ROOT
ATOM      1  C1  BNZ d   1      -2.473  -2.657   0.598  0.00  0.00     0.000 A 
ATOM      2  C2  BNZ d   1      -1.985  -2.166  -0.584  0.00  0.00     0.000 A 
ATOM      3  C3  BNZ d   1      -1.362  -0.950  -0.633  0.00  0.00     0.000 A 
ATOM      4  C4  BNZ d   1      -1.263  -0.210   0.490  0.00  0.00     0.000 A 
ATOM      5  C5  BNZ d   1      -1.758  -0.687   1.687  0.00  0.00     0.000 A 
ATOM      6  C6  BNZ d   1      -2.350  -1.928   1.741  0.00  0.00     0.000 A 
ENDROOT
TORSDOF 0
ENDMDL
