MODEL 1
REMARK minimizedAffinity -3.8286016
REMARK minimizedRMSD -1
REMARK  0 active torsions:
REMARK  status: ('A' for Active; 'I' for Inactive)
ROOT
ATOM      1  C1  BNZ d   1       0.334   0.811   2.972  0.00  0.00     0.000 A 
ATOM      2  C2  BNZ d   1       0.970   1.137   1.805  0.00  0.00     0.000 A 
ATOM      3  C3  BNZ d   1       0.622   0.538   0.626  0.00  0.00     0.000 A 
ATOM      4  C4  BNZ d   1      -0.333  -0.414   0.624  0.00  0.00     0.000 A 
ATOM      5  C5  BNZ d   1      -0.978  -0.760   1.794  0.00  0.00     0.000 A 
ATOM      6  C6  BNZ d   1      -0.652  -0.127   2.972  0.00  0.00     0.000 A 
ENDROOT
TORSDOF 0
ENDMDL
