MODEL 1
REMARK minimizedAffinity -4.77148294
REMARK minimizedRMSD -1
REMARK  0 active torsions:
REMARK  status: ('A' for Active; 'I' for Inactive)
ROOT
ATOM      1  C1  BNZ d   1      -2.142  -0.238   2.152  0.00  0.00     0.000 A 
ATOM      2  C2  BNZ d   1      -1.884  -0.216   0.807  0.00  0.00     0.000 A 
ATOM      3  C3  BNZ d   1      -0.607  -0.071   0.342  0.00  0.00     0.000 A 
ATOM      4  C4  BNZ d   1       0.404   0.090   1.219  0.00  0.00     0.000 A 
ATOM      5  C5  BNZ d   1       0.159   0.080   2.578  0.00  0.00     0.000 A 
ATOM      6  C6  BNZ d   1      -1.123  -0.105   3.043  0.00  0.00     0.000 A 
ENDROOT
TORSDOF 0
ENDMDL
