MODEL 1
REMARK minimizedAffinity -4.07751274
REMARK minimizedRMSD -1
REMARK  0 active torsions:
REMARK  status: ('A' for Active; 'I' for Inactive)
ROOT
ATOM      1  C1  BNZ d   1      -1.939  -0.565   1.881  0.00  0.00     0.000 A 
ATOM      2  C2  BNZ d   1      -1.383  -0.559   0.630  0.00  0.00     0.000 A 
ATOM      3  C3  BNZ d   1      -0.043  -0.348   0.461  0.00  0.00     0.000 A 
ATOM      4  C4  BNZ d   1       0.731  -0.104   1.538  0.00  0.00     0.000 A 
ATOM      5  C5  BNZ d   1       0.183  -0.098   2.805  0.00  0.00     0.000 A 
ATOM      6  C6  BNZ d   1      -1.159  -0.349   2.975  0.00  0.00     0.000 A 
ENDROOT
TORSDOF 0
ENDMDL
