MODEL 1
REMARK minimizedAffinity 14.1925488
REMARK minimizedRMSD -1
REMARK  0 active torsions:
REMARK  status: ('A' for Active; 'I' for Inactive)
ROOT
ATOM      1  C1  BNZ d   1       4.008  -1.130   3.047  0.00  0.00     0.000 A 
ATOM      2  C2  BNZ d   1       4.027  -1.867   4.202  0.00  0.00     0.000 A 
ATOM      3  C3  BNZ d   1       5.014  -1.686   5.131  0.00  0.00     0.000 A 
ATOM      4  C4  BNZ d   1       6.000  -0.800   4.887  0.00  0.00     0.000 A 
ATOM      5  C5  BNZ d   1       6.000  -0.056   3.724  0.00  0.00     0.000 A 
ATOM      6  C6  BNZ d   1       4.984  -0.213   2.808  0.00  0.00     0.000 A 
ENDROOT
TORSDOF 0
ENDMDL
