MODEL 1
REMARK minimizedAffinity 5.52391386
REMARK minimizedRMSD -1
REMARK  0 active torsions:
REMARK  status: ('A' for Active; 'I' for Inactive)
ROOT
ATOM      1  C1  BNZ d   1      -1.128   5.630  -0.001  0.00  0.00     0.000 A 
ATOM      2  C2  BNZ d   1       0.150   5.999   0.326  0.00  0.00     0.000 A 
ATOM      3  C3  BNZ d   1       1.223   5.281  -0.123  0.00  0.00     0.000 A 
ATOM      4  C4  BNZ d   1       1.016   4.174  -0.864  0.00  0.00     0.000 A 
ATOM      5  C5  BNZ d   1      -0.267   3.783  -1.195  0.00  0.00     0.000 A 
ATOM      6  C6  BNZ d   1      -1.343   4.530  -0.773  0.00  0.00     0.000 A 
ENDROOT
TORSDOF 0
ENDMDL
