MODEL 1
REMARK minimizedAffinity 7.05146456
REMARK minimizedRMSD -1
REMARK  0 active torsions:
REMARK  status: ('A' for Active; 'I' for Inactive)
ROOT
ATOM      1  C1  BNZ d   1      -2.977   5.593   5.995  0.00  0.00     0.000 A 
ATOM      2  C2  BNZ d   1      -3.677   5.599   4.818  0.00  0.00     0.000 A 
ATOM      3  C3  BNZ d   1      -3.038   5.778   3.623  0.00  0.00     0.000 A 
ATOM      4  C4  BNZ d   1      -1.706   5.991   3.610  0.00  0.00     0.000 A 
ATOM      5  C5  BNZ d   1      -0.987   5.998   4.788  0.00  0.00     0.000 A 
ATOM      6  C6  BNZ d   1      -1.629   5.778   5.986  0.00  0.00     0.000 A 
ENDROOT
TORSDOF 0
ENDMDL
