MODEL 1
REMARK minimizedAffinity 11.581214
REMARK minimizedRMSD -1
REMARK  0 active torsions:
REMARK  status: ('A' for Active; 'I' for Inactive)
ROOT
ATOM      1  C1  BNZ d   1      -1.477   0.022   2.984  0.00  0.00     0.000 A 
ATOM      2  C2  BNZ d   1      -1.148  -0.784   1.927  0.00  0.00     0.000 A 
ATOM      3  C3  BNZ d   1      -2.016  -0.964   0.887  0.00  0.00     0.000 A 
ATOM      4  C4  BNZ d   1      -3.227  -0.371   0.924  0.00  0.00     0.000 A 
ATOM      5  C5  BNZ d   1      -3.577   0.437   1.987  0.00  0.00     0.000 A 
ATOM      6  C6  BNZ d   1      -2.685   0.647   3.013  0.00  0.00     0.000 A 
ENDROOT
TORSDOF 0
ENDMDL
