MODEL 1
REMARK minimizedAffinity 5.4621172
REMARK minimizedRMSD -1
REMARK  0 active torsions:
REMARK  status: ('A' for Active; 'I' for Inactive)
ROOT
ATOM      1  C1  BNZ d   1       2.200   5.998  -1.182  0.00  0.00     0.000 A 
ATOM      2  C2  BNZ d   1       1.949   5.971   0.164  0.00  0.00     0.000 A 
ATOM      3  C3  BNZ d   1       2.795   5.325   1.021  0.00  0.00     0.000 A 
ATOM      4  C4  BNZ d   1       3.867   4.673   0.528  0.00  0.00     0.000 A 
ATOM      5  C5  BNZ d   1       4.129   4.683  -0.827  0.00  0.00     0.000 A 
ATOM      6  C6  BNZ d   1       3.297   5.367  -1.683  0.00  0.00     0.000 A 
ENDROOT
TORSDOF 0
ENDMDL
