MODEL 1
REMARK minimizedAffinity 3.66620541
REMARK minimizedRMSD -1
REMARK  0 active torsions:
REMARK  status: ('A' for Active; 'I' for Inactive)
ROOT
ATOM      1  C1  BNZ d   1      -4.890   0.060   2.686  0.00  0.00     0.000 A 
ATOM      2  C2  BNZ d   1      -5.996  -0.377   3.365  0.00  0.00     0.000 A 
ATOM      3  C3  BNZ d   1      -5.998  -0.446   4.730  0.00  0.00     0.000 A 
ATOM      4  C4  BNZ d   1      -4.882  -0.117   5.412  0.00  0.00     0.000 A 
ATOM      5  C5  BNZ d   1      -3.755   0.317   4.742  0.00  0.00     0.000 A 
ATOM      6  C6  BNZ d   1      -3.770   0.422   3.370  0.00  0.00     0.000 A 
ENDROOT
TORSDOF 0
ENDMDL
