MODEL 1
REMARK minimizedAffinity -2.8963623
REMARK minimizedRMSD -1
REMARK  0 active torsions:
REMARK  status: ('A' for Active; 'I' for Inactive)
ROOT
ATOM      1  C1  BNZ d   1       2.653   5.259  -0.306  0.00  0.00     0.000 A 
ATOM      2  C2  BNZ d   1       3.005   5.623  -1.578  0.00  0.00     0.000 A 
ATOM      3  C3  BNZ d   1       4.292   5.974  -1.876  0.00  0.00     0.000 A 
ATOM      4  C4  BNZ d   1       5.216   5.998  -0.894  0.00  0.00     0.000 A 
ATOM      5  C5  BNZ d   1       4.876   5.643   0.396  0.00  0.00     0.000 A 
ATOM      6  C6  BNZ d   1       3.588   5.253   0.684  0.00  0.00     0.000 A 
ENDROOT
TORSDOF 0
ENDMDL
