MODEL 1
REMARK minimizedAffinity 9.46605015
REMARK minimizedRMSD -1
REMARK  0 active torsions:
REMARK  status: ('A' for Active; 'I' for Inactive)
ROOT
ATOM      1  C1  BNZ d   1      -3.697   5.999   6.000  0.00  0.00     0.000 A 
ATOM      2  C2  BNZ d   1      -4.386   4.929   5.495  0.00  0.00     0.000 A 
ATOM      3  C3  BNZ d   1      -3.724   3.842   4.997  0.00  0.00     0.000 A 
ATOM      4  C4  BNZ d   1      -2.376   3.843   4.967  0.00  0.00     0.000 A 
ATOM      5  C5  BNZ d   1      -1.666   4.919   5.463  0.00  0.00     0.000 A 
ATOM      6  C6  BNZ d   1      -2.336   5.995   5.999  0.00  0.00     0.000 A 
ENDROOT
TORSDOF 0
ENDMDL
