MODEL 1
REMARK minimizedAffinity 15.1154375
REMARK minimizedRMSD -1
REMARK  0 active torsions:
REMARK  status: ('A' for Active; 'I' for Inactive)
ROOT
ATOM      1  C1  BNZ d   1       2.534  -0.353  -1.045  0.00  0.00     0.000 A 
ATOM      2  C2  BNZ d   1       1.903  -1.519  -1.389  0.00  0.00     0.000 A 
ATOM      3  C3  BNZ d   1       0.801  -1.506  -2.197  0.00  0.00     0.000 A 
ATOM      4  C4  BNZ d   1       0.306  -0.327  -2.626  0.00  0.00     0.000 A 
ATOM      5  C5  BNZ d   1       0.925   0.858  -2.279  0.00  0.00     0.000 A 
ATOM      6  C6  BNZ d   1       2.058   0.838  -1.498  0.00  0.00     0.000 A 
ENDROOT
TORSDOF 0
ENDMDL
