MODEL 1
REMARK minimizedAffinity 2.82068658
REMARK minimizedRMSD -1
REMARK  0 active torsions:
REMARK  status: ('A' for Active; 'I' for Inactive)
ROOT
ATOM      1  C1  BNZ d   1       4.837  -5.983   3.340  0.00  0.00     0.000 A 
ATOM      2  C2  BNZ d   1       5.998  -5.991   4.067  0.00  0.00     0.000 A 
ATOM      3  C3  BNZ d   1       5.998  -5.638   5.388  0.00  0.00     0.000 A 
ATOM      4  C4  BNZ d   1       4.848  -5.239   5.968  0.00  0.00     0.000 A 
ATOM      5  C5  BNZ d   1       3.672  -5.217   5.246  0.00  0.00     0.000 A 
ATOM      6  C6  BNZ d   1       3.668  -5.611   3.927  0.00  0.00     0.000 A 
ENDROOT
TORSDOF 0
ENDMDL
