MODEL 1
REMARK minimizedAffinity -1.00166917
REMARK minimizedRMSD -1
REMARK  0 active torsions:
REMARK  status: ('A' for Active; 'I' for Inactive)
ROOT
ATOM      1  C1  BNZ d   1       5.225  -3.645   5.251  0.00  0.00     0.000 A 
ATOM      2  C2  BNZ d   1       4.086  -3.437   4.520  0.00  0.00     0.000 A 
ATOM      3  C3  BNZ d   1       3.717  -2.176   4.142  0.00  0.00     0.000 A 
ATOM      4  C4  BNZ d   1       4.464  -1.122   4.530  0.00  0.00     0.000 A 
ATOM      5  C5  BNZ d   1       5.610  -1.315   5.275  0.00  0.00     0.000 A 
ATOM      6  C6  BNZ d   1       6.000  -2.589   5.621  0.00  0.00     0.000 A 
ENDROOT
TORSDOF 0
ENDMDL
