MODEL 1
REMARK minimizedAffinity 0.765979409
REMARK minimizedRMSD -1
REMARK  0 active torsions:
REMARK  status: ('A' for Active; 'I' for Inactive)
ROOT
ATOM      1  C1  BNZ d   1      -2.957   5.999   3.627  0.00  0.00     0.000 A 
ATOM      2  C2  BNZ d   1      -2.267   5.981   4.809  0.00  0.00     0.000 A 
ATOM      3  C3  BNZ d   1      -2.915   5.769   5.994  0.00  0.00     0.000 A 
ATOM      4  C4  BNZ d   1      -4.254   5.615   6.000  0.00  0.00     0.000 A 
ATOM      5  C5  BNZ d   1      -4.966   5.640   4.816  0.00  0.00     0.000 A 
ATOM      6  C6  BNZ d   1      -4.306   5.815   3.622  0.00  0.00     0.000 A 
ENDROOT
TORSDOF 0
ENDMDL
