MODEL 1
REMARK minimizedAffinity 7.72967291
REMARK minimizedRMSD -1
REMARK  0 active torsions:
REMARK  status: ('A' for Active; 'I' for Inactive)
ROOT
ATOM      1  C1  BNZ d   1       5.999  -0.105   4.728  0.00  0.00     0.000 A 
ATOM      2  C2  BNZ d   1       5.053  -0.042   3.740  0.00  0.00     0.000 A 
ATOM      3  C3  BNZ d   1       4.095  -1.010   3.626  0.00  0.00     0.000 A 
ATOM      4  C4  BNZ d   1       4.107  -2.059   4.474  0.00  0.00     0.000 A 
ATOM      5  C5  BNZ d   1       5.060  -2.141   5.470  0.00  0.00     0.000 A 
ATOM      6  C6  BNZ d   1       6.000  -1.145   5.606  0.00  0.00     0.000 A 
ENDROOT
TORSDOF 0
ENDMDL
