MODEL 1
REMARK minimizedAffinity -1.00771666
REMARK minimizedRMSD -1
REMARK  0 active torsions:
REMARK  status: ('A' for Active; 'I' for Inactive)
ROOT
ATOM      1  C1  BNZ d   1      -4.828   0.345  -1.296  0.00  0.00     0.000 A 
ATOM      2  C2  BNZ d   1      -5.999   0.171  -0.605  0.00  0.00     0.000 A 
ATOM      3  C3  BNZ d   1      -5.992  -0.310   0.674  0.00  0.00     0.000 A 
ATOM      4  C4  BNZ d   1      -4.821  -0.654   1.247  0.00  0.00     0.000 A 
ATOM      5  C5  BNZ d   1      -3.633  -0.494   0.561  0.00  0.00     0.000 A 
ATOM      6  C6  BNZ d   1      -3.640   0.027  -0.713  0.00  0.00     0.000 A 
ENDROOT
TORSDOF 0
ENDMDL
