MODEL 1
REMARK minimizedAffinity -1.28347969
REMARK minimizedRMSD -1
REMARK  0 active torsions:
REMARK  status: ('A' for Active; 'I' for Inactive)
ROOT
ATOM      1  O1  BZF d   1       1.607  -0.410   0.749  0.00  0.00    -0.204 OA
ATOM      2  C2  BZF d   1       0.832  -1.511   0.438  0.00  0.00     0.174 A 
ATOM      3  C3  BZF d   1      -0.456  -1.154   0.259  0.00  0.00    -0.012 A 
ATOM      4  C3A BZF d   1      -0.472   0.272   0.380  0.00  0.00    -0.107 A 
ATOM      5  C4  BZF d   1      -1.458   1.211   0.285  0.00  0.00     0.055 A 
ATOM      6  C5  BZF d   1      -1.156   2.514   0.529  0.00  0.00    -0.016 A 
ATOM      7  C6  BZF d   1       0.120   2.911   0.874  0.00  0.00     0.022 A 
ATOM      8  C7  BZF d   1       1.132   2.016   0.975  0.00  0.00     0.029 A 
ATOM      9  C7A BZF d   1       0.837   0.703   0.697  0.00  0.00     0.058 A 
ENDROOT
TORSDOF 0
ENDMDL
