MODEL 1
REMARK minimizedAffinity -0.457635552
REMARK minimizedRMSD -1
REMARK  0 active torsions:
REMARK  status: ('A' for Active; 'I' for Inactive)
ROOT
ATOM      1  O1  BZF d   1       0.938  -0.901  -1.114  0.00  0.00    -0.204 OA
ATOM      2  C2  BZF d   1       0.848  -0.736   0.254  0.00  0.00     0.174 A 
ATOM      3  C3  BZF d   1      -0.004  -1.634   0.789  0.00  0.00    -0.012 A 
ATOM      4  C3A BZF d   1      -0.405  -2.468  -0.302  0.00  0.00    -0.107 A 
ATOM      5  C4  BZF d   1      -1.231  -3.551  -0.402  0.00  0.00     0.055 A 
ATOM      6  C5  BZF d   1      -1.468  -4.091  -1.626  0.00  0.00    -0.016 A 
ATOM      7  C6  BZF d   1      -0.900  -3.571  -2.771  0.00  0.00     0.022 A 
ATOM      8  C7  BZF d   1      -0.071  -2.500  -2.722  0.00  0.00     0.029 A 
ATOM      9  C7A BZF d   1       0.197  -1.973  -1.482  0.00  0.00     0.058 A 
ENDROOT
TORSDOF 0
ENDMDL
