MODEL 1
REMARK minimizedAffinity -4.31835699
REMARK minimizedRMSD -1
REMARK  0 active torsions:
REMARK  status: ('A' for Active; 'I' for Inactive)
ROOT
ATOM      1  O1  BZF d   1       1.575   2.372  -0.185  0.00  0.00    -0.204 OA
ATOM      2  C2  BZF d   1       0.619   3.357  -0.029  0.00  0.00     0.174 A 
ATOM      3  C3  BZF d   1      -0.571   2.820   0.311  0.00  0.00    -0.012 A 
ATOM      4  C3A BZF d   1      -0.322   1.419   0.461  0.00  0.00    -0.107 A 
ATOM      5  C4  BZF d   1      -1.109   0.357   0.804  0.00  0.00     0.055 A 
ATOM      6  C5  BZF d   1      -0.576  -0.893   0.787  0.00  0.00    -0.016 A 
ATOM      7  C6  BZF d   1       0.737  -1.118   0.428  0.00  0.00     0.022 A 
ATOM      8  C7  BZF d   1       1.558  -0.096   0.084  0.00  0.00     0.029 A 
ATOM      9  C7A BZF d   1       1.031   1.172   0.132  0.00  0.00     0.058 A 
ENDROOT
TORSDOF 0
ENDMDL
