MODEL 1
REMARK minimizedAffinity -5.28068829
REMARK minimizedRMSD -1
REMARK  0 active torsions:
REMARK  status: ('A' for Active; 'I' for Inactive)
ROOT
ATOM      1  O1  BZF d   1      -0.664   3.018   0.355  0.00  0.00    -0.204 OA
ATOM      2  C2  BZF d   1       0.524   3.374  -0.252  0.00  0.00     0.174 A 
ATOM      3  C3  BZF d   1       1.300   2.291  -0.460  0.00  0.00    -0.012 A 
ATOM      4  C3A BZF d   1       0.510   1.176  -0.035  0.00  0.00    -0.107 A 
ATOM      5  C4  BZF d   1       0.726  -0.172  -0.009  0.00  0.00     0.055 A 
ATOM      6  C5  BZF d   1      -0.219  -0.982   0.536  0.00  0.00    -0.016 A 
ATOM      7  C6  BZF d   1      -1.388  -0.478   1.068  0.00  0.00     0.022 A 
ATOM      8  C7  BZF d   1      -1.650   0.851   1.060  0.00  0.00     0.029 A 
ATOM      9  C7A BZF d   1      -0.711   1.669   0.480  0.00  0.00     0.058 A 
ENDROOT
TORSDOF 0
ENDMDL
