MODEL 1
REMARK minimizedAffinity -3.64879775
REMARK minimizedRMSD -1
REMARK  0 active torsions:
REMARK  status: ('A' for Active; 'I' for Inactive)
ROOT
ATOM      1  O1  BZF d   1       0.138  -3.842  -1.036  0.00  0.00    -0.204 OA
ATOM      2  C2  BZF d   1      -0.507  -3.958  -2.252  0.00  0.00     0.174 A 
ATOM      3  C3  BZF d   1      -0.937  -2.755  -2.683  0.00  0.00    -0.012 A 
ATOM      4  C3A BZF d   1      -0.455  -1.815  -1.717  0.00  0.00    -0.107 A 
ATOM      5  C4  BZF d   1      -0.545  -0.458  -1.602  0.00  0.00     0.055 A 
ATOM      6  C5  BZF d   1      -0.028   0.147  -0.500  0.00  0.00    -0.016 A 
ATOM      7  C6  BZF d   1       0.581  -0.574   0.506  0.00  0.00     0.022 A 
ATOM      8  C7  BZF d   1       0.698  -1.922   0.434  0.00  0.00     0.029 A 
ATOM      9  C7A BZF d   1       0.206  -2.533  -0.693  0.00  0.00     0.058 A 
ENDROOT
TORSDOF 0
ENDMDL
