MODEL 1
REMARK minimizedAffinity -1.59258437
REMARK minimizedRMSD -1
REMARK  0 active torsions:
REMARK  status: ('A' for Active; 'I' for Inactive)
ROOT
ATOM      1  O1  BZF d   1       1.447   2.945   1.254  0.00  0.00    -0.204 OA
ATOM      2  C2  BZF d   1       0.297   3.702   1.372  0.00  0.00     0.174 A 
ATOM      3  C3  BZF d   1      -0.792   2.969   1.064  0.00  0.00    -0.012 A 
ATOM      4  C3A BZF d   1      -0.300   1.648   0.822  0.00  0.00    -0.107 A 
ATOM      5  C4  BZF d   1      -0.903   0.469   0.488  0.00  0.00     0.055 A 
ATOM      6  C5  BZF d   1      -0.130  -0.624   0.251  0.00  0.00    -0.016 A 
ATOM      7  C6  BZF d   1       1.246  -0.572   0.335  0.00  0.00     0.022 A 
ATOM      8  C7  BZF d   1       1.889   0.574   0.668  0.00  0.00     0.029 A 
ATOM      9  C7A BZF d   1       1.109   1.672   0.939  0.00  0.00     0.058 A 
ENDROOT
TORSDOF 0
ENDMDL
