MODEL 1
REMARK minimizedAffinity -0.884689748
REMARK minimizedRMSD -1
REMARK  0 active torsions:
REMARK  status: ('A' for Active; 'I' for Inactive)
ROOT
ATOM      1  O1  BZF d   1       1.301  -1.229  -0.079  0.00  0.00    -0.204 OA
ATOM      2  C2  BZF d   1      -0.002  -1.673  -0.199  0.00  0.00     0.174 A 
ATOM      3  C3  BZF d   1      -0.857  -0.632  -0.273  0.00  0.00    -0.012 A 
ATOM      4  C3A BZF d   1      -0.028   0.535  -0.287  0.00  0.00    -0.107 A 
ATOM      5  C4  BZF d   1      -0.292   1.872  -0.365  0.00  0.00     0.055 A 
ATOM      6  C5  BZF d   1       0.738   2.755  -0.280  0.00  0.00    -0.016 A 
ATOM      7  C6  BZF d   1       2.042   2.335  -0.113  0.00  0.00     0.022 A 
ATOM      8  C7  BZF d   1       2.353   1.018  -0.035  0.00  0.00     0.029 A 
ATOM      9  C7A BZF d   1       1.318   0.123  -0.154  0.00  0.00     0.058 A 
ENDROOT
TORSDOF 0
ENDMDL
