MODEL 1
REMARK minimizedAffinity -4.43105745
REMARK minimizedRMSD -1
REMARK  0 active torsions:
REMARK  status: ('A' for Active; 'I' for Inactive)
ROOT
ATOM      1  O1  BZF d   1      -0.704   3.067   0.510  0.00  0.00    -0.204 OA
ATOM      2  C2  BZF d   1       0.610   3.461   0.351  0.00  0.00     0.174 A 
ATOM      3  C3  BZF d   1       1.426   2.389   0.281  0.00  0.00    -0.012 A 
ATOM      4  C3A BZF d   1       0.557   1.253   0.311  0.00  0.00    -0.107 A 
ATOM      5  C4  BZF d   1       0.771  -0.095   0.256  0.00  0.00     0.055 A 
ATOM      6  C5  BZF d   1      -0.288  -0.938   0.383  0.00  0.00    -0.016 A 
ATOM      7  C6  BZF d   1      -1.571  -0.468   0.571  0.00  0.00     0.022 A 
ATOM      8  C7  BZF d   1      -1.834   0.860   0.626  0.00  0.00     0.029 A 
ATOM      9  C7A BZF d   1      -0.771   1.715   0.465  0.00  0.00     0.058 A 
ENDROOT
TORSDOF 0
ENDMDL
