MODEL 1
REMARK minimizedAffinity 0.535612702
REMARK minimizedRMSD -1
REMARK  0 active torsions:
REMARK  status: ('A' for Active; 'I' for Inactive)
ROOT
ATOM      1  O1  BZF d   1      -0.129   2.290   0.570  0.00  0.00    -0.204 OA
ATOM      2  C2  BZF d   1       1.112   2.563   0.028  0.00  0.00     0.174 A 
ATOM      3  C3  BZF d   1       1.701   1.432  -0.411  0.00  0.00    -0.012 A 
ATOM      4  C3A BZF d   1       0.731   0.399  -0.210  0.00  0.00    -0.107 A 
ATOM      5  C4  BZF d   1       0.722  -0.942  -0.464  0.00  0.00     0.055 A 
ATOM      6  C5  BZF d   1      -0.354  -1.679  -0.080  0.00  0.00    -0.016 A 
ATOM      7  C6  BZF d   1      -1.433  -1.109   0.563  0.00  0.00     0.022 A 
ATOM      8  C7  BZF d   1      -1.471   0.219   0.832  0.00  0.00     0.029 A 
ATOM      9  C7A BZF d   1      -0.400   0.972   0.416  0.00  0.00     0.058 A 
ENDROOT
TORSDOF 0
ENDMDL
