MODEL 1
REMARK minimizedAffinity -1.77366483
REMARK minimizedRMSD -1
REMARK  0 active torsions:
REMARK  status: ('A' for Active; 'I' for Inactive)
ROOT
ATOM      1  O1  BZF d   1      -1.170   0.560   1.169  0.00  0.00    -0.204 OA
ATOM      2  C2  BZF d   1      -0.860  -0.640   0.560  0.00  0.00     0.174 A 
ATOM      3  C3  BZF d   1       0.324  -0.560  -0.080  0.00  0.00    -0.012 A 
ATOM      4  C3A BZF d   1       0.827   0.746   0.221  0.00  0.00    -0.107 A 
ATOM      5  C4  BZF d   1       1.971   1.412  -0.114  0.00  0.00     0.055 A 
ATOM      6  C5  BZF d   1       2.124   2.703   0.281  0.00  0.00    -0.016 A 
ATOM      7  C6  BZF d   1       1.152   3.359   1.007  0.00  0.00     0.022 A 
ATOM      8  C7  BZF d   1       0.002   2.739   1.368  0.00  0.00     0.029 A 
ATOM      9  C7A BZF d   1      -0.141   1.424   0.998  0.00  0.00     0.058 A 
ENDROOT
TORSDOF 0
ENDMDL
