MODEL 1
REMARK minimizedAffinity -5.41832161
REMARK minimizedRMSD -1
REMARK  0 active torsions:
REMARK  status: ('A' for Active; 'I' for Inactive)
ROOT
ATOM      1  O1  BZF d   1       1.670  -0.822   0.048  0.00  0.00    -0.204 OA
ATOM      2  C2  BZF d   1       0.681  -1.767   0.244  0.00  0.00     0.174 A 
ATOM      3  C3  BZF d   1      -0.527  -1.178   0.356  0.00  0.00    -0.012 A 
ATOM      4  C3A BZF d   1      -0.290   0.214   0.130  0.00  0.00    -0.107 A 
ATOM      5  C4  BZF d   1      -1.102   1.312   0.096  0.00  0.00     0.055 A 
ATOM      6  C5  BZF d   1      -0.546   2.540  -0.077  0.00  0.00    -0.016 A 
ATOM      7  C6  BZF d   1       0.816   2.707  -0.214  0.00  0.00     0.022 A 
ATOM      8  C7  BZF d   1       1.662   1.648  -0.192  0.00  0.00     0.029 A 
ATOM      9  C7A BZF d   1       1.100   0.403  -0.050  0.00  0.00     0.058 A 
ENDROOT
TORSDOF 0
ENDMDL
