MODEL 1
REMARK minimizedAffinity -4.13932848
REMARK minimizedRMSD -1
REMARK  0 active torsions:
REMARK  status: ('A' for Active; 'I' for Inactive)
ROOT
ATOM      1  O1  BZF d   1       2.063   1.023  -0.019  0.00  0.00    -0.204 OA
ATOM      2  C2  BZF d   1       2.182  -0.342   0.157  0.00  0.00     0.174 A 
ATOM      3  C3  BZF d   1       0.989  -0.891   0.466  0.00  0.00    -0.012 A 
ATOM      4  C3A BZF d   1       0.050   0.186   0.393  0.00  0.00    -0.107 A 
ATOM      5  C4  BZF d   1      -1.300   0.268   0.580  0.00  0.00     0.055 A 
ATOM      6  C5  BZF d   1      -1.905   1.483   0.507  0.00  0.00    -0.016 A 
ATOM      7  C6  BZF d   1      -1.190   2.636   0.253  0.00  0.00     0.022 A 
ATOM      8  C7  BZF d   1       0.151   2.603   0.055  0.00  0.00     0.029 A 
ATOM      9  C7A BZF d   1       0.759   1.373   0.097  0.00  0.00     0.058 A 
ENDROOT
TORSDOF 0
ENDMDL
