MODEL 1
REMARK minimizedAffinity -3.8739903
REMARK minimizedRMSD -1
REMARK  0 active torsions:
REMARK  status: ('A' for Active; 'I' for Inactive)
ROOT
ATOM      1  O1  BZF d   1       1.022  -0.912   0.760  0.00  0.00    -0.204 OA
ATOM      2  C2  BZF d   1      -0.319  -1.087   0.479  0.00  0.00     0.174 A 
ATOM      3  C3  BZF d   1      -0.878   0.071   0.074  0.00  0.00    -0.012 A 
ATOM      4  C3A BZF d   1       0.200   1.010   0.016  0.00  0.00    -0.107 A 
ATOM      5  C4  BZF d   1       0.280   2.328  -0.334  0.00  0.00     0.055 A 
ATOM      6  C5  BZF d   1       1.470   2.972  -0.211  0.00  0.00    -0.016 A 
ATOM      7  C6  BZF d   1       2.597   2.333   0.262  0.00  0.00     0.022 A 
ATOM      8  C7  BZF d   1       2.568   1.025   0.617  0.00  0.00     0.029 A 
ATOM      9  C7A BZF d   1       1.375   0.362   0.463  0.00  0.00     0.058 A 
ENDROOT
TORSDOF 0
ENDMDL
