MODEL 1
REMARK minimizedAffinity -5.00309658
REMARK minimizedRMSD -1
REMARK  0 active torsions:
REMARK  status: ('A' for Active; 'I' for Inactive)
ROOT
ATOM      1  O1  BZF d   1       1.392  -0.484   0.130  0.00  0.00    -0.204 OA
ATOM      2  C2  BZF d   1       0.380  -1.413   0.280  0.00  0.00     0.174 A 
ATOM      3  C3  BZF d   1      -0.819  -0.803   0.375  0.00  0.00    -0.012 A 
ATOM      4  C3A BZF d   1      -0.549   0.589   0.186  0.00  0.00    -0.107 A 
ATOM      5  C4  BZF d   1      -1.339   1.703   0.156  0.00  0.00     0.055 A 
ATOM      6  C5  BZF d   1      -0.755   2.923   0.025  0.00  0.00    -0.016 A 
ATOM      7  C6  BZF d   1       0.613   3.067  -0.074  0.00  0.00     0.022 A 
ATOM      8  C7  BZF d   1       1.437   1.991  -0.054  0.00  0.00     0.029 A 
ATOM      9  C7A BZF d   1       0.848   0.754   0.045  0.00  0.00     0.058 A 
ENDROOT
TORSDOF 0
ENDMDL
