MODEL 1
REMARK minimizedAffinity -2.3234663
REMARK minimizedRMSD -1
REMARK  0 active torsions:
REMARK  status: ('A' for Active; 'I' for Inactive)
ROOT
ATOM      1  O1  BZF d   1      -1.757   1.518   1.296  0.00  0.00    -0.204 OA
ATOM      2  C2  BZF d   1      -2.101   0.213   0.998  0.00  0.00     0.174 A 
ATOM      3  C3  BZF d   1      -1.239  -0.318   0.108  0.00  0.00    -0.012 A 
ATOM      4  C3A BZF d   1      -0.243   0.689  -0.098  0.00  0.00    -0.107 A 
ATOM      5  C4  BZF d   1       0.887   0.748  -0.861  0.00  0.00     0.055 A 
ATOM      6  C5  BZF d   1       1.601   1.904  -0.895  0.00  0.00    -0.016 A 
ATOM      7  C6  BZF d   1       1.211   3.020  -0.183  0.00  0.00     0.022 A 
ATOM      8  C7  BZF d   1       0.100   3.007   0.592  0.00  0.00     0.029 A 
ATOM      9  C7A BZF d   1      -0.606   1.830   0.654  0.00  0.00     0.058 A 
ENDROOT
TORSDOF 0
ENDMDL
