MODEL 1
REMARK minimizedAffinity -4.28970766
REMARK minimizedRMSD -1
REMARK  0 active torsions:
REMARK  status: ('A' for Active; 'I' for Inactive)
ROOT
ATOM      1  O1  BZF d   1       0.965  -0.634   0.230  0.00  0.00    -0.204 OA
ATOM      2  C2  BZF d   1      -0.059  -1.185   0.976  0.00  0.00     0.174 A 
ATOM      3  C3  BZF d   1      -0.878  -0.223   1.448  0.00  0.00    -0.012 A 
ATOM      4  C3A BZF d   1      -0.383   0.999   0.892  0.00  0.00    -0.107 A 
ATOM      5  C4  BZF d   1      -0.785   2.301   0.980  0.00  0.00     0.055 A 
ATOM      6  C5  BZF d   1      -0.042   3.264   0.375  0.00  0.00    -0.016 A 
ATOM      7  C6  BZF d   1       1.110   2.962  -0.321  0.00  0.00     0.022 A 
ATOM      8  C7  BZF d   1       1.546   1.684  -0.441  0.00  0.00     0.029 A 
ATOM      9  C7A BZF d   1       0.779   0.705   0.142  0.00  0.00     0.058 A 
ENDROOT
TORSDOF 0
ENDMDL
