MODEL 1
REMARK minimizedAffinity 0.402605683
REMARK minimizedRMSD -1
REMARK  0 active torsions:
REMARK  status: ('A' for Active; 'I' for Inactive)
ROOT
ATOM      1  C   UNL d   1       0.996  -1.968   2.041  0.00  0.00     0.077 C 
ATOM      2  C1  UNL d   1       1.374  -1.111   0.870  0.00  0.00    -0.074 A 
ATOM      3  C2  UNL d   1       0.618   0.016   0.530  0.00  0.00    -0.005 A 
ATOM      4  C3  UNL d   1       0.987   0.809  -0.556  0.00  0.00     0.006 A 
ATOM      5  C4  UNL d   1       2.113   0.484  -1.313  0.00  0.00    -0.005 A 
ATOM      6  C5  UNL d   1       2.882  -0.639  -0.988  0.00  0.00    -0.074 A 
ATOM      7  C6  UNL d   1       4.101  -0.996  -1.785  0.00  0.00     0.077 C 
ATOM      8  C7  UNL d   1       2.509  -1.427   0.109  0.00  0.00    -0.001 A 
ENDROOT
TORSDOF 0
ENDMDL
