MODEL 1
REMARK minimizedAffinity 0.57244128
REMARK minimizedRMSD -1
REMARK  0 active torsions:
REMARK  status: ('A' for Active; 'I' for Inactive)
ROOT
ATOM      1  C   UNL d   1       3.791  -0.980  -1.534  0.00  0.00     0.077 C 
ATOM      2  C1  UNL d   1       2.716  -0.593  -0.563  0.00  0.00    -0.074 A 
ATOM      3  C2  UNL d   1       1.522  -1.319  -0.485  0.00  0.00    -0.005 A 
ATOM      4  C3  UNL d   1       0.535  -0.953   0.431  0.00  0.00     0.006 A 
ATOM      5  C4  UNL d   1       0.731   0.140   1.276  0.00  0.00    -0.005 A 
ATOM      6  C5  UNL d   1       1.918   0.876   1.213  0.00  0.00    -0.074 A 
ATOM      7  C6  UNL d   1       2.149   2.047   2.121  0.00  0.00     0.077 C 
ATOM      8  C7  UNL d   1       2.908   0.498   0.296  0.00  0.00    -0.001 A 
ENDROOT
TORSDOF 0
ENDMDL
