MODEL 1
REMARK minimizedAffinity 0.331391811
REMARK minimizedRMSD -1
REMARK  0 active torsions:
REMARK  status: ('A' for Active; 'I' for Inactive)
ROOT
ATOM      1  C   UNL d   1       1.366   0.929   0.966  0.00  0.00     0.077 C 
ATOM      2  C1  UNL d   1       2.112   0.006   0.049  0.00  0.00    -0.074 A 
ATOM      3  C2  UNL d   1       1.722  -1.328  -0.101  0.00  0.00    -0.005 A 
ATOM      4  C3  UNL d   1       2.419  -2.172  -0.965  0.00  0.00     0.006 A 
ATOM      5  C4  UNL d   1       3.513  -1.692  -1.686  0.00  0.00    -0.005 A 
ATOM      6  C5  UNL d   1       3.917  -0.360  -1.550  0.00  0.00    -0.074 A 
ATOM      7  C6  UNL d   1       5.084   0.176  -2.326  0.00  0.00     0.077 C 
ATOM      8  C7  UNL d   1       3.207   0.484  -0.686  0.00  0.00    -0.001 A 
ENDROOT
TORSDOF 0
ENDMDL
