MODEL 1
REMARK minimizedAffinity -0.162507236
REMARK minimizedRMSD -1
REMARK  0 active torsions:
REMARK  status: ('A' for Active; 'I' for Inactive)
ROOT
ATOM      1  C   UNL d   1       1.246   1.279   0.951  0.00  0.00     0.077 C 
ATOM      2  C1  UNL d   1       1.734   0.362  -0.132  0.00  0.00    -0.074 A 
ATOM      3  C2  UNL d   1       1.003  -0.773  -0.495  0.00  0.00    -0.005 A 
ATOM      4  C3  UNL d   1       1.464  -1.611  -1.510  0.00  0.00     0.006 A 
ATOM      5  C4  UNL d   1       2.659  -1.323  -2.171  0.00  0.00    -0.005 A 
ATOM      6  C5  UNL d   1       3.403  -0.191  -1.821  0.00  0.00    -0.074 A 
ATOM      7  C6  UNL d   1       4.684   0.139  -2.528  0.00  0.00     0.077 C 
ATOM      8  C7  UNL d   1       2.929   0.650  -0.805  0.00  0.00    -0.001 A 
ENDROOT
TORSDOF 0
ENDMDL
