MODEL 1
REMARK minimizedAffinity -0.978474438
REMARK minimizedRMSD -1
REMARK  0 active torsions:
REMARK  status: ('A' for Active; 'I' for Inactive)
ROOT
ATOM      1  C   UNL d   1       2.128  -1.883  -1.402  0.00  0.00     0.077 C 
ATOM      2  C1  UNL d   1       1.645  -1.024  -0.271  0.00  0.00    -0.074 A 
ATOM      3  C2  UNL d   1       2.246   0.209   0.002  0.00  0.00    -0.005 A 
ATOM      4  C3  UNL d   1       1.781   1.001   1.052  0.00  0.00     0.006 A 
ATOM      5  C4  UNL d   1       0.711   0.569   1.837  0.00  0.00    -0.005 A 
ATOM      6  C5  UNL d   1       0.097  -0.661   1.578  0.00  0.00    -0.074 A 
ATOM      7  C6  UNL d   1      -1.059  -1.136   2.407  0.00  0.00     0.077 C 
ATOM      8  C7  UNL d   1       0.566  -1.448   0.518  0.00  0.00    -0.001 A 
ENDROOT
TORSDOF 0
ENDMDL
