MODEL 1
REMARK minimizedAffinity -0.412722975
REMARK minimizedRMSD -1
REMARK  0 active torsions:
REMARK  status: ('A' for Active; 'I' for Inactive)
ROOT
ATOM      1  C   UNL d   1       3.368   1.286  -2.164  0.00  0.00     0.077 C 
ATOM      2  C1  UNL d   1       2.808   0.203  -1.291  0.00  0.00    -0.074 A 
ATOM      3  C2  UNL d   1       3.240  -1.121  -1.422  0.00  0.00    -0.005 A 
ATOM      4  C3  UNL d   1       2.717  -2.116  -0.597  0.00  0.00     0.006 A 
ATOM      5  C4  UNL d   1       1.758  -1.799   0.366  0.00  0.00    -0.005 A 
ATOM      6  C5  UNL d   1       1.315  -0.480   0.513  0.00  0.00    -0.074 A 
ATOM      7  C6  UNL d   1       0.292  -0.120   1.549  0.00  0.00     0.077 C 
ATOM      8  C7  UNL d   1       1.850   0.515  -0.316  0.00  0.00    -0.001 A 
ENDROOT
TORSDOF 0
ENDMDL
