MODEL 1
REMARK minimizedAffinity 3.34304428
REMARK minimizedRMSD -1
REMARK  0 active torsions:
REMARK  status: ('A' for Active; 'I' for Inactive)
ROOT
ATOM      1  C   UNL d   1       4.803   0.710  -2.984  0.00  0.00     0.077 C 
ATOM      2  C1  UNL d   1       3.807   0.007  -2.109  0.00  0.00    -0.074 A 
ATOM      3  C2  UNL d   1       3.710  -1.388  -2.109  0.00  0.00    -0.005 A 
ATOM      4  C3  UNL d   1       2.785  -2.029  -1.284  0.00  0.00     0.006 A 
ATOM      5  C4  UNL d   1       1.951  -1.281  -0.451  0.00  0.00    -0.005 A 
ATOM      6  C5  UNL d   1       2.035   0.114  -0.437  0.00  0.00    -0.074 A 
ATOM      7  C6  UNL d   1       1.153   0.932   0.459  0.00  0.00     0.077 C 
ATOM      8  C7  UNL d   1       2.971   0.750  -1.265  0.00  0.00    -0.001 A 
ENDROOT
TORSDOF 0
ENDMDL
