MODEL 1
REMARK minimizedAffinity -0.99314636
REMARK minimizedRMSD -1
REMARK  0 active torsions:
REMARK  status: ('A' for Active; 'I' for Inactive)
ROOT
ATOM      1  C   UNL d   1       3.538  -1.131  -2.198  0.00  0.00     0.077 C 
ATOM      2  C1  UNL d   1       2.623  -0.699  -1.092  0.00  0.00    -0.074 A 
ATOM      3  C2  UNL d   1       1.988  -1.641  -0.275  0.00  0.00    -0.005 A 
ATOM      4  C3  UNL d   1       1.146  -1.224   0.756  0.00  0.00     0.006 A 
ATOM      5  C4  UNL d   1       0.931   0.136   0.981  0.00  0.00    -0.005 A 
ATOM      6  C5  UNL d   1       1.558   1.092   0.176  0.00  0.00    -0.074 A 
ATOM      7  C6  UNL d   1       1.346   2.558   0.411  0.00  0.00     0.077 C 
ATOM      8  C7  UNL d   1       2.408   0.666  -0.854  0.00  0.00    -0.001 A 
ENDROOT
TORSDOF 0
ENDMDL
