MODEL 1
REMARK minimizedAffinity 0.0619613789
REMARK minimizedRMSD -1
REMARK  0 active torsions:
REMARK  status: ('A' for Active; 'I' for Inactive)
ROOT
ATOM      1  C   UNL d   1       1.894   1.961  -0.051  0.00  0.00     0.077 C 
ATOM      2  C1  UNL d   1       1.393   0.660   0.503  0.00  0.00    -0.074 A 
ATOM      3  C2  UNL d   1       2.150  -0.509   0.388  0.00  0.00    -0.005 A 
ATOM      4  C3  UNL d   1       1.675  -1.710   0.916  0.00  0.00     0.006 A 
ATOM      5  C4  UNL d   1       0.439  -1.752   1.563  0.00  0.00    -0.005 A 
ATOM      6  C5  UNL d   1      -0.332  -0.592   1.688  0.00  0.00    -0.074 A 
ATOM      7  C6  UNL d   1      -1.658  -0.619   2.389  0.00  0.00     0.077 C 
ATOM      8  C7  UNL d   1       0.156   0.611   1.161  0.00  0.00    -0.001 A 
ENDROOT
TORSDOF 0
ENDMDL
