MODEL 1
REMARK minimizedAffinity 2.14513206
REMARK minimizedRMSD -1
REMARK  0 active torsions:
REMARK  status: ('A' for Active; 'I' for Inactive)
ROOT
ATOM      1  C   UNL d   1      -2.001  -1.518   1.984  0.00  0.00     0.077 C 
ATOM      2  C1  UNL d   1      -0.651  -0.951   1.659  0.00  0.00    -0.074 A 
ATOM      3  C2  UNL d   1      -0.171   0.185   2.318  0.00  0.00    -0.005 A 
ATOM      4  C3  UNL d   1       1.091   0.695   2.012  0.00  0.00     0.006 A 
ATOM      5  C4  UNL d   1       1.884   0.075   1.046  0.00  0.00    -0.005 A 
ATOM      6  C5  UNL d   1       1.421  -1.063   0.377  0.00  0.00    -0.074 A 
ATOM      7  C6  UNL d   1       2.265  -1.748  -0.657  0.00  0.00     0.077 C 
ATOM      8  C7  UNL d   1       0.155  -1.574   0.695  0.00  0.00    -0.001 A 
ENDROOT
TORSDOF 0
ENDMDL
