MODEL 1
REMARK minimizedAffinity 0.751821756
REMARK minimizedRMSD -1
REMARK  0 active torsions:
REMARK  status: ('A' for Active; 'I' for Inactive)
ROOT
ATOM      1  C   UNL d   1       2.822   2.371  -1.192  0.00  0.00     0.077 C 
ATOM      2  C1  UNL d   1       2.550   0.921  -0.920  0.00  0.00    -0.074 A 
ATOM      3  C2  UNL d   1       3.355  -0.078  -1.477  0.00  0.00    -0.005 A 
ATOM      4  C3  UNL d   1       3.096  -1.421  -1.207  0.00  0.00     0.006 A 
ATOM      5  C4  UNL d   1       2.031  -1.779  -0.379  0.00  0.00    -0.005 A 
ATOM      6  C5  UNL d   1       1.216  -0.794   0.187  0.00  0.00    -0.074 A 
ATOM      7  C6  UNL d   1       0.074  -1.161   1.087  0.00  0.00     0.077 C 
ATOM      8  C7  UNL d   1       1.487   0.554  -0.083  0.00  0.00    -0.001 A 
ENDROOT
TORSDOF 0
ENDMDL
