MODEL 1
REMARK minimizedAffinity -1.16732514
REMARK minimizedRMSD -1
REMARK  0 active torsions:
REMARK  status: ('A' for Active; 'I' for Inactive)
ROOT
ATOM      1  C   UNL d   1       4.286  -0.065  -2.545  0.00  0.00     0.077 C 
ATOM      2  C1  UNL d   1       3.270  -0.289  -1.465  0.00  0.00    -0.074 A 
ATOM      3  C2  UNL d   1       2.658  -1.535  -1.301  0.00  0.00    -0.005 A 
ATOM      4  C3  UNL d   1       1.721  -1.731  -0.286  0.00  0.00     0.006 A 
ATOM      5  C4  UNL d   1       1.388  -0.683   0.574  0.00  0.00    -0.005 A 
ATOM      6  C5  UNL d   1       1.990   0.570   0.425  0.00  0.00    -0.074 A 
ATOM      7  C6  UNL d   1       1.650   1.704   1.346  0.00  0.00     0.077 C 
ATOM      8  C7  UNL d   1       2.935   0.757  -0.593  0.00  0.00    -0.001 A 
ENDROOT
TORSDOF 0
ENDMDL
