MODEL 1
REMARK minimizedAffinity 7.7024579
REMARK minimizedRMSD -1
REMARK  0 active torsions:
REMARK  status: ('A' for Active; 'I' for Inactive)
ROOT
ATOM      1  C   UNL d   1      -0.322   0.805  -4.015  0.00  0.00     0.077 C 
ATOM      2  C1  UNL d   1      -0.133   2.236  -3.605  0.00  0.00    -0.074 A 
ATOM      3  C2  UNL d   1       1.105   2.869  -3.756  0.00  0.00    -0.005 A 
ATOM      4  C3  UNL d   1       1.263   4.202  -3.380  0.00  0.00     0.006 A 
ATOM      5  C4  UNL d   1       0.188   4.915  -2.848  0.00  0.00    -0.005 A 
ATOM      6  C5  UNL d   1      -1.058   4.299  -2.690  0.00  0.00    -0.074 A 
ATOM      7  C6  UNL d   1      -2.227   5.053  -2.130  0.00  0.00     0.077 C 
ATOM      8  C7  UNL d   1      -1.211   2.960  -3.078  0.00  0.00    -0.001 A 
ENDROOT
TORSDOF 0
ENDMDL
