MODEL 1
REMARK minimizedAffinity -0.870113015
REMARK minimizedRMSD -1
REMARK  0 active torsions:
REMARK  status: ('A' for Active; 'I' for Inactive)
ROOT
ATOM      1  C   UNL d   1       2.419   2.031   0.182  0.00  0.00     0.077 C 
ATOM      2  C1  UNL d   1       1.918   0.630   0.372  0.00  0.00    -0.074 A 
ATOM      3  C2  UNL d   1       2.664  -0.467  -0.074  0.00  0.00    -0.005 A 
ATOM      4  C3  UNL d   1       2.190  -1.764   0.117  0.00  0.00     0.006 A 
ATOM      5  C4  UNL d   1       0.967  -1.979   0.756  0.00  0.00    -0.005 A 
ATOM      6  C5  UNL d   1       0.209  -0.895   1.209  0.00  0.00    -0.074 A 
ATOM      7  C6  UNL d   1      -1.102  -1.108   1.906  0.00  0.00     0.077 C 
ATOM      8  C7  UNL d   1       0.695   0.406   1.019  0.00  0.00    -0.001 A 
ENDROOT
TORSDOF 0
ENDMDL
