MODEL 1
REMARK minimizedAffinity -1.39380288
REMARK minimizedRMSD -1
REMARK  0 active torsions:
REMARK  status: ('A' for Active; 'I' for Inactive)
ROOT
ATOM      1  C   UNL d   1      -3.260  -1.344   1.529  0.00  0.00     0.077 C 
ATOM      2  C1  UNL d   1      -1.772  -1.304   1.713  0.00  0.00    -0.074 A 
ATOM      3  C2  UNL d   1      -1.156  -0.227   2.360  0.00  0.00    -0.005 A 
ATOM      4  C3  UNL d   1       0.228  -0.208   2.532  0.00  0.00     0.006 A 
ATOM      5  C4  UNL d   1       1.009  -1.263   2.059  0.00  0.00    -0.005 A 
ATOM      6  C5  UNL d   1       0.411  -2.348   1.410  0.00  0.00    -0.074 A 
ATOM      7  C6  UNL d   1       1.235  -3.495   0.905  0.00  0.00     0.077 C 
ATOM      8  C7  UNL d   1      -0.981  -2.363   1.248  0.00  0.00    -0.001 A 
ENDROOT
TORSDOF 0
ENDMDL
