MODEL 1
REMARK minimizedAffinity -5.03747606
REMARK minimizedRMSD -1
REMARK  1 active torsions:
REMARK  status: ('A' for Active; 'I' for Inactive)
REMARK    1  A    between atoms: N_2  and  C1_3 
ROOT
ATOM      1  C1  UNL d   1       0.764  -0.596   0.390  0.00  0.00     0.143 A 
ATOM      2  C2  UNL d   1       1.848  -1.413   0.049  0.00  0.00    -0.057 A 
ATOM      3  C3  UNL d   1       2.481  -2.215   1.007  0.00  0.00     0.033 A 
ATOM      4  C4  UNL d   1       2.059  -2.192   2.332  0.00  0.00    -0.042 A 
ATOM      5  C5  UNL d   1       1.000  -1.369   2.698  0.00  0.00     0.033 A 
ATOM      6  C6  UNL d   1       0.367  -0.575   1.736  0.00  0.00    -0.057 A 
ENDROOT
BRANCH   1   7
ATOM      7  N   UNL d   1       0.156   0.297  -0.495  0.00  0.00    -0.732 N 
ATOM      8  C   UNL d   1      -0.709  -0.184  -1.551  0.00  0.00     0.284 C 
ATOM      9  H3  UNL d   1      -0.184   1.135  -0.029  0.00  0.00     0.395 HD
ENDBRANCH   1   7
TORSDOF 1
ENDMDL
