MODEL 1
REMARK minimizedAffinity -3.17499852
REMARK minimizedRMSD -1
REMARK  1 active torsions:
REMARK  status: ('A' for Active; 'I' for Inactive)
REMARK    1  A    between atoms: N_2  and  C1_3 
ROOT
ATOM      1  C1  UNL d   1      -0.432   1.136  -1.417  0.00  0.00     0.143 A 
ATOM      2  C2  UNL d   1       0.580   2.095  -1.533  0.00  0.00    -0.057 A 
ATOM      3  C3  UNL d   1       0.367   3.296  -2.220  0.00  0.00     0.033 A 
ATOM      4  C4  UNL d   1      -0.857   3.547  -2.831  0.00  0.00    -0.042 A 
ATOM      5  C5  UNL d   1      -1.869   2.597  -2.750  0.00  0.00     0.033 A 
ATOM      6  C6  UNL d   1      -1.652   1.403  -2.057  0.00  0.00    -0.057 A 
ENDROOT
BRANCH   1   7
ATOM      7  N   UNL d   1      -0.250  -0.120  -0.831  0.00  0.00    -0.732 N 
ATOM      8  C   UNL d   1      -0.372  -0.289   0.601  0.00  0.00     0.284 C 
ATOM      9  H3  UNL d   1      -0.674  -0.867  -1.376  0.00  0.00     0.395 HD
ENDBRANCH   1   7
TORSDOF 1
ENDMDL
