MODEL 1
REMARK minimizedAffinity -3.90252137
REMARK minimizedRMSD -1
REMARK  1 active torsions:
REMARK  status: ('A' for Active; 'I' for Inactive)
REMARK    1  A    between atoms: N_2  and  C1_3 
ROOT
ATOM      1  C1  UNL d   1       0.480  -1.161   0.018  0.00  0.00     0.143 A 
ATOM      2  C2  UNL d   1      -0.086  -1.214   1.296  0.00  0.00    -0.057 A 
ATOM      3  C3  UNL d   1       0.523  -1.936   2.330  0.00  0.00     0.033 A 
ATOM      4  C4  UNL d   1       1.697  -2.644   2.095  0.00  0.00    -0.042 A 
ATOM      5  C5  UNL d   1       2.264  -2.626   0.826  0.00  0.00     0.033 A 
ATOM      6  C6  UNL d   1       1.655  -1.898  -0.201  0.00  0.00    -0.057 A 
ENDROOT
BRANCH   1   7
ATOM      7  N   UNL d   1      -0.128  -0.542  -1.077  0.00  0.00    -0.732 N 
ATOM      8  C   UNL d   1      -0.195   0.901  -1.165  0.00  0.00     0.284 C 
ATOM      9  H3  UNL d   1       0.096  -1.002  -1.957  0.00  0.00     0.395 HD
ENDBRANCH   1   7
TORSDOF 1
ENDMDL
