MODEL 1
REMARK minimizedAffinity -0.52390027
REMARK minimizedRMSD -1
REMARK  1 active torsions:
REMARK  status: ('A' for Active; 'I' for Inactive)
REMARK    1  A    between atoms: N_2  and  C1_3 
ROOT
ATOM      1  C1  UNL d   1      -0.857   1.149  -1.853  0.00  0.00     0.143 A 
ATOM      2  C2  UNL d   1      -2.124   1.731  -1.746  0.00  0.00    -0.057 A 
ATOM      3  C3  UNL d   1      -2.379   3.014  -2.244  0.00  0.00     0.033 A 
ATOM      4  C4  UNL d   1      -1.359   3.752  -2.835  0.00  0.00    -0.042 A 
ATOM      5  C5  UNL d   1      -0.085   3.204  -2.931  0.00  0.00     0.033 A 
ATOM      6  C6  UNL d   1       0.161   1.919  -2.437  0.00  0.00    -0.057 A 
ENDROOT
BRANCH   1   7
ATOM      7  N   UNL d   1      -0.516  -0.083  -1.290  0.00  0.00    -0.732 N 
ATOM      8  C   UNL d   1      -0.708  -0.326   0.124  0.00  0.00     0.284 C 
ATOM      9  H3  UNL d   1      -0.775  -0.867  -1.885  0.00  0.00     0.395 HD
ENDBRANCH   1   7
TORSDOF 1
ENDMDL
