MODEL 1
REMARK minimizedAffinity -2.37799764
REMARK minimizedRMSD -1
REMARK  1 active torsions:
REMARK  status: ('A' for Active; 'I' for Inactive)
REMARK    1  A    between atoms: N_2  and  C1_3 
ROOT
ATOM      1  C1  UNL d   1      -0.895   0.785  -1.047  0.00  0.00     0.143 A 
ATOM      2  C2  UNL d   1       0.099  -0.198  -0.983  0.00  0.00    -0.057 A 
ATOM      3  C3  UNL d   1       0.275  -0.979   0.165  0.00  0.00     0.033 A 
ATOM      4  C4  UNL d   1      -0.524  -0.771   1.285  0.00  0.00    -0.042 A 
ATOM      5  C5  UNL d   1      -1.502   0.217   1.253  0.00  0.00     0.033 A 
ATOM      6  C6  UNL d   1      -1.677   0.989   0.101  0.00  0.00    -0.057 A 
ENDROOT
BRANCH   1   7
ATOM      7  N   UNL d   1      -1.056   1.660  -2.123  0.00  0.00    -0.732 N 
ATOM      8  C   UNL d   1      -0.130   2.754  -2.328  0.00  0.00     0.284 C 
ATOM      9  H3  UNL d   1      -1.326   1.179  -2.978  0.00  0.00     0.395 HD
ENDBRANCH   1   7
TORSDOF 1
ENDMDL
