MODEL 1
REMARK minimizedAffinity 0.742487788
REMARK minimizedRMSD -1
REMARK  0 active torsions:
REMARK  status: ('A' for Active; 'I' for Inactive)
ROOT
ATOM      1  C1  DEN d   1      -0.482  -3.983   1.044  0.00  0.00     0.130 A 
ATOM      2  C2  DEN d   1       0.657  -4.837   1.371  0.00  0.00    -0.031 A 
ATOM      3  C3  DEN d   1       1.883  -4.167   0.892  0.00  0.00     0.027 A 
ATOM      4  C4  DEN d   1       2.127  -1.901  -0.315  0.00  0.00     0.027 A 
ATOM      5  C5  DEN d   1       1.442  -0.819  -0.822  0.00  0.00    -0.003 A 
ATOM      6  C6  DEN d   1       0.076  -0.733  -0.773  0.00  0.00     0.001 A 
ATOM      7  C7  DEN d   1      -0.646  -1.725  -0.164  0.00  0.00     0.017 A 
ATOM      8  C8  DEN d   1       0.038  -2.823   0.342  0.00  0.00    -0.094 A 
ATOM      9  C9  DEN d   1       1.420  -2.886   0.294  0.00  0.00    -0.072 A 
ENDROOT
TORSDOF 0
ENDMDL
