MODEL 1
REMARK minimizedAffinity 7.18742323
REMARK minimizedRMSD -1
REMARK  0 active torsions:
REMARK  status: ('A' for Active; 'I' for Inactive)
ROOT
ATOM      1  C1  DEN d   1       0.792  -3.142   0.663  0.00  0.00     0.130 A 
ATOM      2  C2  DEN d   1       1.953  -3.048   1.544  0.00  0.00    -0.031 A 
ATOM      3  C3  DEN d   1       2.776  -1.908   1.095  0.00  0.00     0.027 A 
ATOM      4  C4  DEN d   1       2.367  -0.285  -0.868  0.00  0.00     0.027 A 
ATOM      5  C5  DEN d   1       1.521   0.027  -1.909  0.00  0.00    -0.003 A 
ATOM      6  C6  DEN d   1       0.400  -0.711  -2.185  0.00  0.00     0.001 A 
ATOM      7  C7  DEN d   1       0.070  -1.770  -1.381  0.00  0.00     0.017 A 
ATOM      8  C8  DEN d   1       0.922  -2.095  -0.334  0.00  0.00    -0.094 A 
ATOM      9  C9  DEN d   1       2.044  -1.330  -0.064  0.00  0.00    -0.072 A 
ENDROOT
TORSDOF 0
ENDMDL
