MODEL 1
REMARK minimizedAffinity 6.03094339
REMARK minimizedRMSD -1
REMARK  0 active torsions:
REMARK  status: ('A' for Active; 'I' for Inactive)
ROOT
ATOM      1  C1  DEN d   1       0.601  -1.368  -3.795  0.00  0.00     0.130 A 
ATOM      2  C2  DEN d   1      -0.568  -2.162  -4.164  0.00  0.00    -0.031 A 
ATOM      3  C3  DEN d   1      -1.303  -2.495  -2.927  0.00  0.00     0.027 A 
ATOM      4  C4  DEN d   1      -0.750  -1.858  -0.490  0.00  0.00     0.027 A 
ATOM      5  C5  DEN d   1       0.148  -1.202   0.323  0.00  0.00    -0.003 A 
ATOM      6  C6  DEN d   1       1.269  -0.590  -0.172  0.00  0.00     0.001 A 
ATOM      7  C7  DEN d   1       1.497  -0.582  -1.523  0.00  0.00     0.017 A 
ATOM      8  C8  DEN d   1       0.600  -1.247  -2.348  0.00  0.00    -0.094 A 
ATOM      9  C9  DEN d   1      -0.533  -1.850  -1.830  0.00  0.00    -0.072 A 
ENDROOT
TORSDOF 0
ENDMDL
