MODEL 1
REMARK minimizedAffinity 5.99098349
REMARK minimizedRMSD -1
REMARK  0 active torsions:
REMARK  status: ('A' for Active; 'I' for Inactive)
ROOT
ATOM      1  C1  DEN d   1       0.918  -1.460  -1.932  0.00  0.00     0.130 A 
ATOM      2  C2  DEN d   1       1.685  -0.229  -2.104  0.00  0.00    -0.031 A 
ATOM      3  C3  DEN d   1       2.564  -0.071  -0.928  0.00  0.00     0.027 A 
ATOM      4  C4  DEN d   1       2.814  -1.607   1.129  0.00  0.00     0.027 A 
ATOM      5  C5  DEN d   1       2.364  -2.762   1.728  0.00  0.00    -0.003 A 
ATOM      6  C6  DEN d   1       1.385  -3.540   1.171  0.00  0.00     0.001 A 
ATOM      7  C7  DEN d   1       0.854  -3.197  -0.044  0.00  0.00     0.017 A 
ATOM      8  C8  DEN d   1       1.297  -2.029  -0.651  0.00  0.00    -0.094 A 
ATOM      9  C9  DEN d   1       2.297  -1.262  -0.078  0.00  0.00    -0.072 A 
ENDROOT
TORSDOF 0
ENDMDL
