MODEL 1
REMARK minimizedAffinity 11.6389017
REMARK minimizedRMSD -1
REMARK  0 active torsions:
REMARK  status: ('A' for Active; 'I' for Inactive)
ROOT
ATOM      1  C1  DEN d   1      -4.817  -1.349   2.471  0.00  0.00     0.130 A 
ATOM      2  C2  DEN d   1      -5.888  -0.373   2.292  0.00  0.00    -0.031 A 
ATOM      3  C3  DEN d   1      -5.439   0.909   2.871  0.00  0.00     0.027 A 
ATOM      4  C4  DEN d   1      -3.198   1.476   4.016  0.00  0.00     0.027 A 
ATOM      5  C5  DEN d   1      -1.980   0.970   4.411  0.00  0.00    -0.003 A 
ATOM      6  C6  DEN d   1      -1.638  -0.343   4.220  0.00  0.00     0.001 A 
ATOM      7  C7  DEN d   1      -2.507  -1.184   3.577  0.00  0.00     0.017 A 
ATOM      8  C8  DEN d   1      -3.740  -0.682   3.181  0.00  0.00    -0.094 A 
ATOM      9  C9  DEN d   1      -4.062   0.651   3.373  0.00  0.00    -0.072 A 
ENDROOT
TORSDOF 0
ENDMDL
