MODEL 1
REMARK minimizedAffinity -2.34038877
REMARK minimizedRMSD -1
REMARK  0 active torsions:
REMARK  status: ('A' for Active; 'I' for Inactive)
ROOT
ATOM      1  C1  DEN d   1       2.106  -1.122  -0.569  0.00  0.00     0.130 A 
ATOM      2  C2  DEN d   1       1.324  -0.238  -1.429  0.00  0.00    -0.031 A 
ATOM      3  C3  DEN d   1      -0.084  -0.681  -1.379  0.00  0.00     0.027 A 
ATOM      4  C4  DEN d   1      -1.125  -2.636  -0.057  0.00  0.00     0.027 A 
ATOM      5  C5  DEN d   1      -0.857  -3.677   0.804  0.00  0.00    -0.003 A 
ATOM      6  C6  DEN d   1       0.411  -3.958   1.237  0.00  0.00     0.001 A 
ATOM      7  C7  DEN d   1       1.455  -3.161   0.846  0.00  0.00     0.017 A 
ATOM      8  C8  DEN d   1       1.194  -2.114  -0.028  0.00  0.00    -0.094 A 
ATOM      9  C9  DEN d   1      -0.097  -1.838  -0.445  0.00  0.00    -0.072 A 
ENDROOT
TORSDOF 0
ENDMDL
