MODEL 1
REMARK minimizedAffinity -1.6227119
REMARK minimizedRMSD -1
REMARK  0 active torsions:
REMARK  status: ('A' for Active; 'I' for Inactive)
ROOT
ATOM      1  C1  DEN d   1       2.216  -1.414  -0.698  0.00  0.00     0.130 A 
ATOM      2  C2  DEN d   1       1.678  -0.399  -1.599  0.00  0.00    -0.031 A 
ATOM      3  C3  DEN d   1       0.209  -0.551  -1.633  0.00  0.00     0.027 A 
ATOM      4  C4  DEN d   1      -1.276  -2.248  -0.380  0.00  0.00     0.027 A 
ATOM      5  C5  DEN d   1      -1.272  -3.314   0.491  0.00  0.00    -0.003 A 
ATOM      6  C6  DEN d   1      -0.112  -3.840   0.997  0.00  0.00     0.001 A 
ATOM      7  C7  DEN d   1       1.090  -3.270   0.670  0.00  0.00     0.017 A 
ATOM      8  C8  DEN d   1       1.095  -2.199  -0.214  0.00  0.00    -0.094 A 
ATOM      9  C9  DEN d   1      -0.089  -1.675  -0.705  0.00  0.00    -0.072 A 
ENDROOT
TORSDOF 0
ENDMDL
