MODEL 1
REMARK minimizedAffinity 4.44490051
REMARK minimizedRMSD -1
REMARK  0 active torsions:
REMARK  status: ('A' for Active; 'I' for Inactive)
ROOT
ATOM      1  C1  DEN d   1       2.600  -2.114   0.424  0.00  0.00     0.130 A 
ATOM      2  C2  DEN d   1       2.055  -3.401   0.848  0.00  0.00    -0.031 A 
ATOM      3  C3  DEN d   1       0.637  -3.454   0.438  0.00  0.00     0.027 A 
ATOM      4  C4  DEN d   1      -0.759  -1.679  -0.809  0.00  0.00     0.027 A 
ATOM      5  C5  DEN d   1      -0.733  -0.420  -1.367  0.00  0.00    -0.003 A 
ATOM      6  C6  DEN d   1       0.385   0.370  -1.338  0.00  0.00     0.001 A 
ATOM      7  C7  DEN d   1       1.540  -0.110  -0.777  0.00  0.00     0.017 A 
ATOM      8  C8  DEN d   1       1.520  -1.375  -0.206  0.00  0.00    -0.094 A 
ATOM      9  C9  DEN d   1       0.383  -2.163  -0.257  0.00  0.00    -0.072 A 
ENDROOT
TORSDOF 0
ENDMDL
