MODEL 1
REMARK minimizedAffinity 8.09700966
REMARK minimizedRMSD -1
REMARK  0 active torsions:
REMARK  status: ('A' for Active; 'I' for Inactive)
ROOT
ATOM      1  C1  DEN d   1       0.614  -1.724   1.641  0.00  0.00     0.130 A 
ATOM      2  C2  DEN d   1      -0.633  -2.295   1.140  0.00  0.00    -0.031 A 
ATOM      3  C3  DEN d   1      -0.547  -2.356  -0.333  0.00  0.00     0.027 A 
ATOM      4  C4  DEN d   1       1.388  -1.631  -1.877  0.00  0.00     0.027 A 
ATOM      5  C5  DEN d   1       2.649  -1.078  -1.913  0.00  0.00    -0.003 A 
ATOM      6  C6  DEN d   1       3.301  -0.674  -0.778  0.00  0.00     0.001 A 
ATOM      7  C7  DEN d   1       2.713  -0.858   0.445  0.00  0.00     0.017 A 
ATOM      8  C8  DEN d   1       1.438  -1.408   0.489  0.00  0.00    -0.094 A 
ATOM      9  C9  DEN d   1       0.800  -1.821  -0.669  0.00  0.00    -0.072 A 
ENDROOT
TORSDOF 0
ENDMDL
