MODEL 1
REMARK minimizedAffinity 1.33488786
REMARK minimizedRMSD -1
REMARK  0 active torsions:
REMARK  status: ('A' for Active; 'I' for Inactive)
ROOT
ATOM      1  C1  DEN d   1       1.544  -5.145   1.525  0.00  0.00     0.130 A 
ATOM      2  C2  DEN d   1       0.365  -6.000   1.416  0.00  0.00    -0.031 A 
ATOM      3  C3  DEN d   1      -0.722  -5.203   0.811  0.00  0.00     0.027 A 
ATOM      4  C4  DEN d   1      -0.692  -2.744   0.034  0.00  0.00     0.027 A 
ATOM      5  C5  DEN d   1       0.080  -1.607  -0.065  0.00  0.00    -0.003 A 
ATOM      6  C6  DEN d   1       1.372  -1.561   0.386  0.00  0.00     0.001 A 
ATOM      7  C7  DEN d   1       1.947  -2.685   0.916  0.00  0.00     0.017 A 
ATOM      8  C8  DEN d   1       1.173  -3.833   1.027  0.00  0.00    -0.094 A 
ATOM      9  C9  DEN d   1      -0.128  -3.863   0.554  0.00  0.00    -0.072 A 
ENDROOT
TORSDOF 0
ENDMDL
