MODEL 1
REMARK minimizedAffinity 1.33764982
REMARK minimizedRMSD -1
REMARK  0 active torsions:
REMARK  status: ('A' for Active; 'I' for Inactive)
ROOT
ATOM      1  C1  DEN d   1       0.579   0.288  -0.797  0.00  0.00     0.130 A 
ATOM      2  C2  DEN d   1       0.433   1.550  -1.516  0.00  0.00    -0.031 A 
ATOM      3  C3  DEN d   1       0.674   1.290  -2.949  0.00  0.00     0.027 A 
ATOM      4  C4  DEN d   1       1.252  -0.935  -4.119  0.00  0.00     0.027 A 
ATOM      5  C5  DEN d   1       1.495  -2.276  -3.923  0.00  0.00    -0.003 A 
ATOM      6  C6  DEN d   1       1.484  -2.846  -2.677  0.00  0.00     0.001 A 
ATOM      7  C7  DEN d   1       1.179  -2.079  -1.583  0.00  0.00     0.017 A 
ATOM      8  C8  DEN d   1       0.940  -0.725  -1.772  0.00  0.00    -0.094 A 
ATOM      9  C9  DEN d   1       0.945  -0.170  -3.041  0.00  0.00    -0.072 A 
ENDROOT
TORSDOF 0
ENDMDL
