MODEL 1
REMARK minimizedAffinity 1.59560871
REMARK minimizedRMSD -1
REMARK  0 active torsions:
REMARK  status: ('A' for Active; 'I' for Inactive)
ROOT
ATOM      1  C1  DEN d   1       0.684   0.163  -0.347  0.00  0.00     0.130 A 
ATOM      2  C2  DEN d   1       0.947  -1.262  -0.174  0.00  0.00    -0.031 A 
ATOM      3  C3  DEN d   1       1.245  -1.836  -1.502  0.00  0.00     0.027 A 
ATOM      4  C4  DEN d   1       1.329  -0.660  -3.796  0.00  0.00     0.027 A 
ATOM      5  C5  DEN d   1       1.165   0.542  -4.448  0.00  0.00    -0.003 A 
ATOM      6  C6  DEN d   1       0.799   1.686  -3.789  0.00  0.00     0.001 A 
ATOM      7  C7  DEN d   1       0.629   1.661  -2.430  0.00  0.00     0.017 A 
ATOM      8  C8  DEN d   1       0.785   0.451  -1.767  0.00  0.00    -0.094 A 
ATOM      9  C9  DEN d   1       1.167  -0.691  -2.449  0.00  0.00    -0.072 A 
ENDROOT
TORSDOF 0
ENDMDL
