MODEL 1
REMARK minimizedAffinity 1.89147437
REMARK minimizedRMSD -1
REMARK  0 active torsions:
REMARK  status: ('A' for Active; 'I' for Inactive)
ROOT
ATOM      1  C1  DEN d   1       6.000   2.356  -4.650  0.00  0.00     0.130 A 
ATOM      2  C2  DEN d   1       5.541   1.335  -5.587  0.00  0.00    -0.031 A 
ATOM      3  C3  DEN d   1       4.165   1.679  -6.000  0.00  0.00     0.027 A 
ATOM      4  C4  DEN d   1       2.712   3.686  -5.285  0.00  0.00     0.027 A 
ATOM      5  C5  DEN d   1       2.666   4.815  -4.497  0.00  0.00    -0.003 A 
ATOM      6  C6  DEN d   1       3.707   5.182  -3.686  0.00  0.00     0.001 A 
ATOM      7  C7  DEN d   1       4.857   4.437  -3.678  0.00  0.00     0.017 A 
ATOM      8  C8  DEN d   1       4.907   3.293  -4.464  0.00  0.00    -0.094 A 
ATOM      9  C9  DEN d   1       3.849   2.946  -5.286  0.00  0.00    -0.072 A 
ENDROOT
TORSDOF 0
ENDMDL
