MODEL 1
REMARK minimizedAffinity 4.11055803
REMARK minimizedRMSD -1
REMARK  0 active torsions:
REMARK  status: ('A' for Active; 'I' for Inactive)
ROOT
ATOM      1  C1  DEN d   1       6.000   2.236  -4.495  0.00  0.00     0.130 A 
ATOM      2  C2  DEN d   1       5.831   1.018  -5.283  0.00  0.00    -0.031 A 
ATOM      3  C3  DEN d   1       4.544   1.113  -6.000  0.00  0.00     0.027 A 
ATOM      4  C4  DEN d   1       2.807   3.020  -5.970  0.00  0.00     0.027 A 
ATOM      5  C5  DEN d   1       2.504   4.254  -5.440  0.00  0.00    -0.003 A 
ATOM      6  C6  DEN d   1       3.323   4.883  -4.539  0.00  0.00     0.001 A 
ATOM      7  C7  DEN d   1       4.507   4.298  -4.175  0.00  0.00     0.017 A 
ATOM      8  C8  DEN d   1       4.815   3.050  -4.699  0.00  0.00    -0.094 A 
ATOM      9  C9  DEN d   1       3.980   2.436  -5.618  0.00  0.00    -0.072 A 
ENDROOT
TORSDOF 0
ENDMDL
