MODEL 1
REMARK minimizedAffinity 7.99798203
REMARK minimizedRMSD -1
REMARK  0 active torsions:
REMARK  status: ('A' for Active; 'I' for Inactive)
ROOT
ATOM      1  C1  DEN d   1       1.196   1.563  -1.780  0.00  0.00     0.130 A 
ATOM      2  C2  DEN d   1       0.375   1.071  -0.677  0.00  0.00    -0.031 A 
ATOM      3  C3  DEN d   1       0.031  -0.337  -0.957  0.00  0.00     0.027 A 
ATOM      4  C4  DEN d   1       0.689  -1.797  -2.979  0.00  0.00     0.027 A 
ATOM      5  C5  DEN d   1       1.369  -1.815  -4.177  0.00  0.00    -0.003 A 
ATOM      6  C6  DEN d   1       2.004  -0.707  -4.672  0.00  0.00     0.001 A 
ATOM      7  C7  DEN d   1       2.012   0.453  -3.944  0.00  0.00     0.017 A 
ATOM      8  C8  DEN d   1       1.323   0.481  -2.739  0.00  0.00    -0.094 A 
ATOM      9  C9  DEN d   1       0.697  -0.653  -2.249  0.00  0.00    -0.072 A 
ENDROOT
TORSDOF 0
ENDMDL
