MODEL 1
REMARK minimizedAffinity 12.6926241
REMARK minimizedRMSD -1
REMARK  0 active torsions:
REMARK  status: ('A' for Active; 'I' for Inactive)
ROOT
ATOM      1  C   UNL d   1      -2.217  -1.160   6.000  0.00  0.00     0.078 C 
ATOM      2  C1  UNL d   1      -0.820  -1.281   5.468  0.00  0.00    -0.077 A 
ATOM      3  C2  UNL d   1      -0.369  -0.453   4.432  0.00  0.00    -0.001 A 
ATOM      4  C3  UNL d   1       0.931  -0.583   3.940  0.00  0.00     0.003 A 
ATOM      5  C4  UNL d   1       1.789  -1.541   4.477  0.00  0.00    -0.005 A 
ATOM      6  C5  UNL d   1       1.348  -2.370   5.506  0.00  0.00     0.003 A 
ATOM      7  C6  UNL d   1       0.049  -2.241   5.999  0.00  0.00    -0.001 A 
ENDROOT
TORSDOF 0
ENDMDL
