MODEL 1
REMARK minimizedAffinity 3.81584263
REMARK minimizedRMSD -1
REMARK  0 active torsions:
REMARK  status: ('A' for Active; 'I' for Inactive)
ROOT
ATOM      1  C   UNL d   1      -1.385   1.877  -1.069  0.00  0.00     0.078 C 
ATOM      2  C1  UNL d   1      -0.999   0.489  -1.485  0.00  0.00    -0.077 A 
ATOM      3  C2  UNL d   1      -1.972  -0.481  -1.755  0.00  0.00    -0.001 A 
ATOM      4  C3  UNL d   1      -1.598  -1.772  -2.132  0.00  0.00     0.003 A 
ATOM      5  C4  UNL d   1      -0.250  -2.105  -2.240  0.00  0.00    -0.005 A 
ATOM      6  C5  UNL d   1       0.727  -1.148  -1.970  0.00  0.00     0.003 A 
ATOM      7  C6  UNL d   1       0.354   0.143  -1.594  0.00  0.00    -0.001 A 
ENDROOT
TORSDOF 0
ENDMDL
