MODEL 1
REMARK minimizedAffinity 9.45038509
REMARK minimizedRMSD -1
REMARK  0 active torsions:
REMARK  status: ('A' for Active; 'I' for Inactive)
ROOT
ATOM      1  C   UNL d   1      -0.418   3.165  -0.606  0.00  0.00     0.078 C 
ATOM      2  C1  UNL d   1      -0.601   2.373   0.654  0.00  0.00    -0.077 A 
ATOM      3  C2  UNL d   1      -1.863   1.898   1.031  0.00  0.00    -0.001 A 
ATOM      4  C3  UNL d   1      -2.020   1.170   2.211  0.00  0.00     0.003 A 
ATOM      5  C4  UNL d   1      -0.919   0.911   3.025  0.00  0.00    -0.005 A 
ATOM      6  C5  UNL d   1       0.341   1.381   2.659  0.00  0.00     0.003 A 
ATOM      7  C6  UNL d   1       0.500   2.109   1.479  0.00  0.00    -0.001 A 
ENDROOT
TORSDOF 0
ENDMDL
