MODEL 1
REMARK minimizedAffinity 3.46231937
REMARK minimizedRMSD -1
REMARK  0 active torsions:
REMARK  status: ('A' for Active; 'I' for Inactive)
ROOT
ATOM      1  C   UNL d   1      -0.088   4.440   0.016  0.00  0.00     0.078 C 
ATOM      2  C1  UNL d   1       0.355   3.840   1.318  0.00  0.00    -0.077 A 
ATOM      3  C2  UNL d   1       1.620   4.121   1.848  0.00  0.00    -0.001 A 
ATOM      4  C3  UNL d   1       2.022   3.548   3.056  0.00  0.00     0.003 A 
ATOM      5  C4  UNL d   1       1.166   2.690   3.742  0.00  0.00    -0.005 A 
ATOM      6  C5  UNL d   1      -0.094   2.403   3.221  0.00  0.00     0.003 A 
ATOM      7  C6  UNL d   1      -0.498   2.975   2.014  0.00  0.00    -0.001 A 
ENDROOT
TORSDOF 0
ENDMDL
