MODEL 1
REMARK minimizedAffinity 6.83014393
REMARK minimizedRMSD -1
REMARK  0 active torsions:
REMARK  status: ('A' for Active; 'I' for Inactive)
ROOT
ATOM      1  C   UNL d   1       2.434  -2.971   0.404  0.00  0.00     0.078 C 
ATOM      2  C1  UNL d   1       3.679  -2.696  -0.386  0.00  0.00    -0.077 A 
ATOM      3  C2  UNL d   1       4.023  -1.390  -0.758  0.00  0.00    -0.001 A 
ATOM      4  C3  UNL d   1       5.179  -1.150  -1.502  0.00  0.00     0.003 A 
ATOM      5  C4  UNL d   1       6.000  -2.210  -1.881  0.00  0.00    -0.005 A 
ATOM      6  C5  UNL d   1       5.664  -3.512  -1.518  0.00  0.00     0.003 A 
ATOM      7  C6  UNL d   1       4.509  -3.755  -0.774  0.00  0.00    -0.001 A 
ENDROOT
TORSDOF 0
ENDMDL
