MODEL 1
REMARK minimizedAffinity -3.73660684
REMARK minimizedRMSD -1
REMARK  2 active torsions:
REMARK  status: ('A' for Active; 'I' for Inactive)
REMARK    1  A    between atoms: C1_2  and  C2_3 
REMARK    2  A    between atoms: C2_3  and  C3_4 
ROOT
ATOM      1  C3  UNL d   1      -1.203   0.330  -1.301  0.00  0.00    -0.075 A 
ATOM      2  C4  UNL d   1      -0.540  -0.905  -1.259  0.00  0.00     0.002 A 
ATOM      3  C5  UNL d   1      -0.235  -1.504  -0.036  0.00  0.00     0.002 A 
ATOM      4  C6  UNL d   1      -0.580  -0.873   1.157  0.00  0.00    -0.004 A 
ATOM      5  C7  UNL d   1      -1.224   0.361   1.128  0.00  0.00     0.002 A 
ATOM      6  C8  UNL d   1      -1.534   0.961  -0.094  0.00  0.00     0.002 A 
ENDROOT
BRANCH   1   7
ATOM      7  C2  UNL d   1      -1.562   0.969  -2.621  0.00  0.00     0.056 C 
BRANCH   7   8
ATOM      8  C1  UNL d   1      -2.979   0.645  -3.106  0.00  0.00     0.007 C 
ATOM      9  C   UNL d   1      -3.988   1.741  -2.790  0.00  0.00     0.009 C 
ENDBRANCH   7   8
ENDBRANCH   1   7
TORSDOF 2
ENDMDL
