MODEL 1
REMARK minimizedAffinity -4.21759653
REMARK minimizedRMSD -1
REMARK  2 active torsions:
REMARK  status: ('A' for Active; 'I' for Inactive)
REMARK    1  A    between atoms: C1_2  and  C2_3 
REMARK    2  A    between atoms: C2_3  and  C3_4 
ROOT
ATOM      1  C3  UNL d   1      -0.325   1.267  -0.945  0.00  0.00    -0.075 A 
ATOM      2  C4  UNL d   1       0.885   0.596  -1.175  0.00  0.00     0.002 A 
ATOM      3  C5  UNL d   1       1.274  -0.464  -0.355  0.00  0.00     0.002 A 
ATOM      4  C6  UNL d   1       0.466  -0.858   0.709  0.00  0.00    -0.004 A 
ATOM      5  C7  UNL d   1      -0.730  -0.188   0.957  0.00  0.00     0.002 A 
ATOM      6  C8  UNL d   1      -1.124   0.870   0.135  0.00  0.00     0.002 A 
ENDROOT
BRANCH   1   7
ATOM      7  C2  UNL d   1      -0.766   2.395  -1.847  0.00  0.00     0.056 C 
BRANCH   7   8
ATOM      8  C1  UNL d   1      -1.793   1.982  -2.906  0.00  0.00     0.007 C 
ATOM      9  C   UNL d   1      -1.217   1.936  -4.315  0.00  0.00     0.009 C 
ENDBRANCH   7   8
ENDBRANCH   1   7
TORSDOF 2
ENDMDL
