MODEL 1
REMARK minimizedAffinity -0.716702938
REMARK minimizedRMSD -1
REMARK  2 active torsions:
REMARK  status: ('A' for Active; 'I' for Inactive)
REMARK    1  A    between atoms: C1_2  and  C2_3 
REMARK    2  A    between atoms: C2_3  and  C3_4 
ROOT
ATOM      1  C3  UNL d   1      -1.688   1.069  -1.525  0.00  0.00    -0.075 A 
ATOM      2  C4  UNL d   1      -3.053   0.827  -1.737  0.00  0.00     0.002 A 
ATOM      3  C5  UNL d   1      -3.594   0.899  -3.020  0.00  0.00     0.002 A 
ATOM      4  C6  UNL d   1      -2.782   1.223  -4.105  0.00  0.00    -0.004 A 
ATOM      5  C7  UNL d   1      -1.428   1.482  -3.904  0.00  0.00     0.002 A 
ATOM      6  C8  UNL d   1      -0.883   1.406  -2.621  0.00  0.00     0.002 A 
ENDROOT
BRANCH   1   7
ATOM      7  C2  UNL d   1      -1.090   0.965  -0.142  0.00  0.00     0.056 C 
BRANCH   7   8
ATOM      8  C1  UNL d   1      -0.418  -0.382   0.147  0.00  0.00     0.007 C 
ATOM      9  C   UNL d   1      -0.794  -0.962   1.504  0.00  0.00     0.009 C 
ENDBRANCH   7   8
ENDBRANCH   1   7
TORSDOF 2
ENDMDL
