MODEL 1
REMARK minimizedAffinity -3.83801126
REMARK minimizedRMSD -1
REMARK  2 active torsions:
REMARK  status: ('A' for Active; 'I' for Inactive)
REMARK    1  A    between atoms: C1_2  and  C2_3 
REMARK    2  A    between atoms: C2_3  and  C3_4 
ROOT
ATOM      1  C3  UNL d   1       0.895   0.208  -0.229  0.00  0.00    -0.075 A 
ATOM      2  C4  UNL d   1       0.001  -0.472  -1.069  0.00  0.00     0.002 A 
ATOM      3  C5  UNL d   1      -0.252  -1.831  -0.882  0.00  0.00     0.002 A 
ATOM      4  C6  UNL d   1       0.391  -2.529   0.138  0.00  0.00    -0.004 A 
ATOM      5  C7  UNL d   1       1.294  -1.867   0.968  0.00  0.00     0.002 A 
ATOM      6  C8  UNL d   1       1.546  -0.506   0.786  0.00  0.00     0.002 A 
ENDROOT
BRANCH   1   7
ATOM      7  C2  UNL d   1       1.150   1.686  -0.408  0.00  0.00     0.056 C 
BRANCH   7   8
ATOM      8  C1  UNL d   1       2.617   2.036  -0.680  0.00  0.00     0.007 C 
ATOM      9  C   UNL d   1       2.897   3.532  -0.621  0.00  0.00     0.009 C 
ENDBRANCH   7   8
ENDBRANCH   1   7
TORSDOF 2
ENDMDL
