MODEL 1
REMARK minimizedAffinity -3.53672552
REMARK minimizedRMSD -1
REMARK  2 active torsions:
REMARK  status: ('A' for Active; 'I' for Inactive)
REMARK    1  A    between atoms: C1_2  and  C2_3 
REMARK    2  A    between atoms: C2_3  and  C3_4 
ROOT
ATOM      1  C3  UNL d   1       0.478   2.266   0.131  0.00  0.00    -0.075 A 
ATOM      2  C4  UNL d   1       1.816   1.964  -0.159  0.00  0.00     0.002 A 
ATOM      3  C5  UNL d   1       2.815   2.919   0.033  0.00  0.00     0.002 A 
ATOM      4  C6  UNL d   1       2.489   4.187   0.507  0.00  0.00    -0.004 A 
ATOM      5  C7  UNL d   1       1.160   4.504   0.783  0.00  0.00     0.002 A 
ATOM      6  C8  UNL d   1       0.159   3.549   0.595  0.00  0.00     0.002 A 
ENDROOT
BRANCH   1   7
ATOM      7  C2  UNL d   1      -0.605   1.228  -0.048  0.00  0.00     0.056 C 
BRANCH   7   8
ATOM      8  C1  UNL d   1      -0.079  -0.164  -0.415  0.00  0.00     0.007 C 
ATOM      9  C   UNL d   1      -0.287  -1.194   0.688  0.00  0.00     0.009 C 
ENDBRANCH   7   8
ENDBRANCH   1   7
TORSDOF 2
ENDMDL
