MODEL 1
REMARK minimizedAffinity -4.17655134
REMARK minimizedRMSD -1
REMARK  2 active torsions:
REMARK  status: ('A' for Active; 'I' for Inactive)
REMARK    1  A    between atoms: C1_2  and  C2_3 
REMARK    2  A    between atoms: C2_3  and  C3_4 
ROOT
ATOM      1  C3  UNL d   1      -1.778   2.380  -3.774  0.00  0.00    -0.075 A 
ATOM      2  C4  UNL d   1      -3.167   2.380  -3.587  0.00  0.00     0.002 A 
ATOM      3  C5  UNL d   1      -3.821   1.234  -3.134  0.00  0.00     0.002 A 
ATOM      4  C6  UNL d   1      -3.096   0.073  -2.872  0.00  0.00    -0.004 A 
ATOM      5  C7  UNL d   1      -1.717   0.057  -3.071  0.00  0.00     0.002 A 
ATOM      6  C8  UNL d   1      -1.061   1.204  -3.520  0.00  0.00     0.002 A 
ENDROOT
BRANCH   1   7
ATOM      7  C2  UNL d   1      -1.061   3.626  -4.237  0.00  0.00     0.056 C 
BRANCH   7   8
ATOM      8  C1  UNL d   1       0.385   3.735  -3.739  0.00  0.00     0.007 C 
ATOM      9  C   UNL d   1       0.497   3.760  -2.221  0.00  0.00     0.009 C 
ENDBRANCH   7   8
ENDBRANCH   1   7
TORSDOF 2
ENDMDL
