MODEL 1
REMARK minimizedAffinity -5.47930813
REMARK minimizedRMSD -1
REMARK  2 active torsions:
REMARK  status: ('A' for Active; 'I' for Inactive)
REMARK    1  A    between atoms: C1_2  and  C2_3 
REMARK    2  A    between atoms: C2_3  and  C3_4 
ROOT
ATOM      1  C3  UNL d   1       0.243   1.508  -0.158  0.00  0.00    -0.075 A 
ATOM      2  C4  UNL d   1       0.641   2.805   0.196  0.00  0.00     0.002 A 
ATOM      3  C5  UNL d   1       1.994   3.120   0.326  0.00  0.00     0.002 A 
ATOM      4  C6  UNL d   1       2.963   2.142   0.115  0.00  0.00    -0.004 A 
ATOM      5  C7  UNL d   1       2.579   0.846  -0.221  0.00  0.00     0.002 A 
ATOM      6  C8  UNL d   1       1.226   0.529  -0.356  0.00  0.00     0.002 A 
ENDROOT
BRANCH   1   7
ATOM      7  C2  UNL d   1      -1.218   1.168  -0.329  0.00  0.00     0.056 C 
BRANCH   7   8
ATOM      8  C1  UNL d   1      -1.604   0.778  -1.760  0.00  0.00     0.007 C 
ATOM      9  C   UNL d   1      -2.595   1.743  -2.399  0.00  0.00     0.009 C 
ENDBRANCH   7   8
ENDBRANCH   1   7
TORSDOF 2
ENDMDL
