MODEL 1
REMARK minimizedAffinity -4.68398952
REMARK minimizedRMSD -1
REMARK  2 active torsions:
REMARK  status: ('A' for Active; 'I' for Inactive)
REMARK    1  A    between atoms: C1_2  and  C2_3 
REMARK    2  A    between atoms: C2_3  and  C3_4 
ROOT
ATOM      1  C3  UNL d   1       0.312   2.129   0.046  0.00  0.00    -0.075 A 
ATOM      2  C4  UNL d   1       1.669   1.775  -0.000  0.00  0.00     0.002 A 
ATOM      3  C5  UNL d   1       2.657   2.721   0.273  0.00  0.00     0.002 A 
ATOM      4  C6  UNL d   1       2.304   4.032   0.584  0.00  0.00    -0.004 A 
ATOM      5  C7  UNL d   1       0.960   4.399   0.617  0.00  0.00     0.002 A 
ATOM      6  C8  UNL d   1      -0.031   3.453   0.348  0.00  0.00     0.002 A 
ENDROOT
BRANCH   1   7
ATOM      7  C2  UNL d   1      -0.763   1.103  -0.219  0.00  0.00     0.056 C 
BRANCH   7   8
ATOM      8  C1  UNL d   1      -0.248  -0.339  -0.283  0.00  0.00     0.007 C 
ATOM      9  C   UNL d   1      -0.585  -1.152   0.960  0.00  0.00     0.009 C 
ENDBRANCH   7   8
ENDBRANCH   1   7
TORSDOF 2
ENDMDL
