MODEL 1
REMARK minimizedAffinity -4.80242062
REMARK minimizedRMSD -1
REMARK  2 active torsions:
REMARK  status: ('A' for Active; 'I' for Inactive)
REMARK    1  A    between atoms: C1_2  and  C2_3 
REMARK    2  A    between atoms: C2_3  and  C3_4 
ROOT
ATOM      1  C3  UNL d   1       1.849   0.019  -0.283  0.00  0.00    -0.075 A 
ATOM      2  C4  UNL d   1       2.401  -1.157   0.247  0.00  0.00     0.002 A 
ATOM      3  C5  UNL d   1       1.575  -2.198   0.671  0.00  0.00     0.002 A 
ATOM      4  C6  UNL d   1       0.190  -2.074   0.581  0.00  0.00    -0.004 A 
ATOM      5  C7  UNL d   1      -0.369  -0.904   0.071  0.00  0.00     0.002 A 
ATOM      6  C8  UNL d   1       0.455   0.137  -0.358  0.00  0.00     0.002 A 
ENDROOT
BRANCH   1   7
ATOM      7  C2  UNL d   1       2.738   1.138  -0.772  0.00  0.00     0.056 C 
BRANCH   7   8
ATOM      8  C1  UNL d   1       2.501   2.476  -0.064  0.00  0.00     0.007 C 
ATOM      9  C   UNL d   1       3.688   3.426  -0.164  0.00  0.00     0.009 C 
ENDBRANCH   7   8
ENDBRANCH   1   7
TORSDOF 2
ENDMDL
