MODEL 1
REMARK minimizedAffinity -5.08591318
REMARK minimizedRMSD -1
REMARK  2 active torsions:
REMARK  status: ('A' for Active; 'I' for Inactive)
REMARK    1  A    between atoms: C1_2  and  C2_3 
REMARK    2  A    between atoms: C2_3  and  C3_4 
ROOT
ATOM      1  C3  UNL d   1       2.057   1.891  -0.097  0.00  0.00    -0.075 A 
ATOM      2  C4  UNL d   1       1.141   2.863   0.332  0.00  0.00     0.002 A 
ATOM      3  C5  UNL d   1       1.509   4.207   0.390  0.00  0.00     0.002 A 
ATOM      4  C6  UNL d   1       2.798   4.596   0.032  0.00  0.00    -0.004 A 
ATOM      5  C7  UNL d   1       3.722   3.637  -0.379  0.00  0.00     0.002 A 
ATOM      6  C8  UNL d   1       3.355   2.292  -0.443  0.00  0.00     0.002 A 
ENDROOT
BRANCH   1   7
ATOM      7  C2  UNL d   1       1.656   0.439  -0.191  0.00  0.00     0.056 C 
BRANCH   7   8
ATOM      8  C1  UNL d   1       0.145   0.202  -0.100  0.00  0.00     0.007 C 
ATOM      9  C   UNL d   1      -0.399  -0.649  -1.240  0.00  0.00     0.009 C 
ENDBRANCH   7   8
ENDBRANCH   1   7
TORSDOF 2
ENDMDL
