MODEL 1
REMARK minimizedAffinity -4.37569761
REMARK minimizedRMSD -1
REMARK  2 active torsions:
REMARK  status: ('A' for Active; 'I' for Inactive)
REMARK    1  A    between atoms: C1_2  and  C2_3 
REMARK    2  A    between atoms: C2_3  and  C3_4 
ROOT
ATOM      1  C3  UNL d   1       0.830   1.439  -0.303  0.00  0.00    -0.075 A 
ATOM      2  C4  UNL d   1       2.116   1.064  -0.719  0.00  0.00     0.002 A 
ATOM      3  C5  UNL d   1       3.158   1.992  -0.721  0.00  0.00     0.002 A 
ATOM      4  C6  UNL d   1       2.927   3.305  -0.318  0.00  0.00    -0.004 A 
ATOM      5  C7  UNL d   1       1.649   3.692   0.082  0.00  0.00     0.002 A 
ATOM      6  C8  UNL d   1       0.606   2.765   0.089  0.00  0.00     0.002 A 
ENDROOT
BRANCH   1   7
ATOM      7  C2  UNL d   1      -0.295   0.432  -0.270  0.00  0.00     0.056 C 
BRANCH   7   8
ATOM      8  C1  UNL d   1       0.048  -0.863   0.474  0.00  0.00     0.007 C 
ATOM      9  C   UNL d   1      -0.837  -1.109   1.689  0.00  0.00     0.009 C 
ENDBRANCH   7   8
ENDBRANCH   1   7
TORSDOF 2
ENDMDL
