MODEL 1
REMARK minimizedAffinity -4.40140247
REMARK minimizedRMSD -1
REMARK  2 active torsions:
REMARK  status: ('A' for Active; 'I' for Inactive)
REMARK    1  A    between atoms: C1_2  and  C2_3 
REMARK    2  A    between atoms: C2_3  and  C3_4 
ROOT
ATOM      1  C3  UNL d   1       0.226  -0.379  -0.015  0.00  0.00    -0.075 A 
ATOM      2  C4  UNL d   1       1.502  -0.742  -0.468  0.00  0.00     0.002 A 
ATOM      3  C5  UNL d   1       2.159  -1.847   0.076  0.00  0.00     0.002 A 
ATOM      4  C6  UNL d   1       1.554  -2.594   1.084  0.00  0.00    -0.004 A 
ATOM      5  C7  UNL d   1       0.294  -2.232   1.553  0.00  0.00     0.002 A 
ATOM      6  C8  UNL d   1      -0.368  -1.130   1.008  0.00  0.00     0.002 A 
ENDROOT
BRANCH   1   7
ATOM      7  C2  UNL d   1      -0.503   0.798  -0.619  0.00  0.00     0.056 C 
BRANCH   7   8
ATOM      8  C1  UNL d   1      -1.481   0.418  -1.736  0.00  0.00     0.007 C 
ATOM      9  C   UNL d   1      -1.777   1.567  -2.691  0.00  0.00     0.009 C 
ENDBRANCH   7   8
ENDBRANCH   1   7
TORSDOF 2
ENDMDL
