MODEL 1
REMARK minimizedAffinity -4.38126898
REMARK minimizedRMSD -1
REMARK  2 active torsions:
REMARK  status: ('A' for Active; 'I' for Inactive)
REMARK    1  A    between atoms: C1_2  and  C2_3 
REMARK    2  A    between atoms: C2_3  and  C3_4 
ROOT
ATOM      1  C3  UNL d   1      -0.157  -0.176  -0.061  0.00  0.00    -0.075 A 
ATOM      2  C4  UNL d   1      -0.347  -1.334  -0.829  0.00  0.00     0.002 A 
ATOM      3  C5  UNL d   1       0.580  -2.376  -0.781  0.00  0.00     0.002 A 
ATOM      4  C6  UNL d   1       1.711  -2.270   0.026  0.00  0.00    -0.004 A 
ATOM      5  C7  UNL d   1       1.918  -1.117   0.780  0.00  0.00     0.002 A 
ATOM      6  C8  UNL d   1       0.990  -0.075   0.737  0.00  0.00     0.002 A 
ENDROOT
BRANCH   1   7
ATOM      7  C2  UNL d   1      -1.171   0.942  -0.086  0.00  0.00     0.056 C 
BRANCH   7   8
ATOM      8  C1  UNL d   1      -1.497   1.457  -1.492  0.00  0.00     0.007 C 
ATOM      9  C   UNL d   1      -2.981   1.723  -1.705  0.00  0.00     0.009 C 
ENDBRANCH   7   8
ENDBRANCH   1   7
TORSDOF 2
ENDMDL
