MODEL 1
REMARK minimizedAffinity -3.81202745
REMARK minimizedRMSD -1
REMARK  0 active torsions:
REMARK  status: ('A' for Active; 'I' for Inactive)
ROOT
ATOM      1  C   UNL d   1      -2.659   0.706   3.258  0.00  0.00     0.023 A 
ATOM      2  C1  UNL d   1      -2.771  -0.430   2.457  0.00  0.00     0.003 A 
ATOM      3  C2  UNL d   1      -1.875  -0.636   1.405  0.00  0.00     0.048 A 
ATOM      4  C3  UNL d   1      -0.870   0.299   1.161  0.00  0.00     0.023 A 
ATOM      5  C4  UNL d   1      -0.754   1.437   1.961  0.00  0.00     0.048 A 
ATOM      6  C5  UNL d   1      -1.652   1.639   3.011  0.00  0.00     0.003 A 
ATOM      7  I   UNL d   1       0.465  -0.004  -0.403  0.00  0.00    -0.146 I 
ENDROOT
TORSDOF 0
ENDMDL
