MODEL 1
REMARK minimizedAffinity 0.309727043
REMARK minimizedRMSD -1
REMARK  0 active torsions:
REMARK  status: ('A' for Active; 'I' for Inactive)
ROOT
ATOM      1  C   UNL d   1       0.973   0.756  -1.620  0.00  0.00     0.023 A 
ATOM      2  C1  UNL d   1       0.965  -0.376  -0.804  0.00  0.00     0.003 A 
ATOM      3  C2  UNL d   1      -0.075  -0.576   0.105  0.00  0.00     0.048 A 
ATOM      4  C3  UNL d   1      -1.106   0.359   0.194  0.00  0.00     0.023 A 
ATOM      5  C4  UNL d   1      -1.103   1.493  -0.621  0.00  0.00     0.048 A 
ATOM      6  C5  UNL d   1      -0.060   1.689  -1.528  0.00  0.00     0.003 A 
ATOM      7  I   UNL d   1      -2.656   0.064   1.547  0.00  0.00    -0.146 I 
ENDROOT
TORSDOF 0
ENDMDL
