MODEL 1
REMARK minimizedAffinity -2.13132
REMARK minimizedRMSD -1
REMARK  0 active torsions:
REMARK  status: ('A' for Active; 'I' for Inactive)
ROOT
ATOM      1  C   UNL d   1       2.095  -1.190  -1.866  0.00  0.00     0.023 A 
ATOM      2  C1  UNL d   1       1.779   0.117  -2.240  0.00  0.00     0.003 A 
ATOM      3  C2  UNL d   1       0.718   0.783  -1.623  0.00  0.00     0.048 A 
ATOM      4  C3  UNL d   1      -0.022   0.138  -0.633  0.00  0.00     0.023 A 
ATOM      5  C4  UNL d   1       0.292  -1.169  -0.255  0.00  0.00     0.048 A 
ATOM      6  C5  UNL d   1       1.353  -1.831  -0.875  0.00  0.00     0.003 A 
ATOM      7  I   UNL d   1      -1.602   1.127   0.286  0.00  0.00    -0.146 I 
ENDROOT
TORSDOF 0
ENDMDL
