MODEL 1
REMARK minimizedAffinity -0.334626466
REMARK minimizedRMSD -1
REMARK  0 active torsions:
REMARK  status: ('A' for Active; 'I' for Inactive)
ROOT
ATOM      1  C   UNL d   1       0.464   0.389   0.386  0.00  0.00     0.023 A 
ATOM      2  C1  UNL d   1       1.104   1.472  -0.217  0.00  0.00     0.003 A 
ATOM      3  C2  UNL d   1       1.357   1.460  -1.590  0.00  0.00     0.048 A 
ATOM      4  C3  UNL d   1       0.966   0.361  -2.355  0.00  0.00     0.023 A 
ATOM      5  C4  UNL d   1       0.325  -0.724  -1.757  0.00  0.00     0.048 A 
ATOM      6  C5  UNL d   1       0.075  -0.708  -0.383  0.00  0.00     0.003 A 
ATOM      7  I   UNL d   1       1.341   0.341  -4.399  0.00  0.00    -0.146 I 
ENDROOT
TORSDOF 0
ENDMDL
