MODEL 1
REMARK minimizedAffinity 0.247642547
REMARK minimizedRMSD -1
REMARK  0 active torsions:
REMARK  status: ('A' for Active; 'I' for Inactive)
ROOT
ATOM      1  C   UNL d   1       5.257   3.838   4.125  0.00  0.00     0.023 A 
ATOM      2  C1  UNL d   1       5.999   3.561   5.273  0.00  0.00     0.003 A 
ATOM      3  C2  UNL d   1       6.000   2.273   5.812  0.00  0.00     0.048 A 
ATOM      4  C3  UNL d   1       5.256   1.266   5.198  0.00  0.00     0.023 A 
ATOM      5  C4  UNL d   1       4.513   1.538   4.048  0.00  0.00     0.048 A 
ATOM      6  C5  UNL d   1       4.515   2.827   3.513  0.00  0.00     0.003 A 
ATOM      7  I   UNL d   1       5.256  -0.652   5.998  0.00  0.00    -0.146 I 
ENDROOT
TORSDOF 0
ENDMDL
