MODEL 1
REMARK minimizedAffinity -2.49139667
REMARK minimizedRMSD -1
REMARK  0 active torsions:
REMARK  status: ('A' for Active; 'I' for Inactive)
ROOT
ATOM      1  C   UNL d   1      -1.436   2.123   1.488  0.00  0.00     0.023 A 
ATOM      2  C1  UNL d   1      -1.766   2.086   2.843  0.00  0.00     0.003 A 
ATOM      3  C2  UNL d   1      -2.347   0.940   3.390  0.00  0.00     0.048 A 
ATOM      4  C3  UNL d   1      -2.595  -0.165   2.577  0.00  0.00     0.023 A 
ATOM      5  C4  UNL d   1      -2.266  -0.133   1.221  0.00  0.00     0.048 A 
ATOM      6  C5  UNL d   1      -1.686   1.015   0.678  0.00  0.00     0.003 A 
ATOM      7  I   UNL d   1      -3.459  -1.872   3.390  0.00  0.00    -0.146 I 
ENDROOT
TORSDOF 0
ENDMDL
