MODEL 1
REMARK minimizedAffinity -4.53124714
REMARK minimizedRMSD -1
REMARK  0 active torsions:
REMARK  status: ('A' for Active; 'I' for Inactive)
ROOT
ATOM      1  C   UNL d   1       1.836  -1.590  -1.370  0.00  0.00     0.023 A 
ATOM      2  C1  UNL d   1       1.371  -0.281  -1.496  0.00  0.00     0.003 A 
ATOM      3  C2  UNL d   1       0.463   0.231  -0.567  0.00  0.00     0.048 A 
ATOM      4  C3  UNL d   1       0.024  -0.571   0.486  0.00  0.00     0.023 A 
ATOM      5  C4  UNL d   1       0.488  -1.881   0.617  0.00  0.00     0.048 A 
ATOM      6  C5  UNL d   1       1.395  -2.389  -0.314  0.00  0.00     0.003 A 
ATOM      7  I   UNL d   1      -1.327   0.190   1.870  0.00  0.00    -0.146 I 
ENDROOT
TORSDOF 0
ENDMDL
