MODEL 1
REMARK minimizedAffinity -2.63041115
REMARK minimizedRMSD -1
REMARK  0 active torsions:
REMARK  status: ('A' for Active; 'I' for Inactive)
ROOT
ATOM      1  C   UNL d   1       2.687  -1.325  -1.215  0.00  0.00     0.023 A 
ATOM      2  C1  UNL d   1       1.764  -2.141  -0.561  0.00  0.00     0.003 A 
ATOM      3  C2  UNL d   1       0.682  -1.572   0.114  0.00  0.00     0.048 A 
ATOM      4  C3  UNL d   1       0.529  -0.186   0.131  0.00  0.00     0.023 A 
ATOM      5  C4  UNL d   1       1.449   0.635  -0.523  0.00  0.00     0.048 A 
ATOM      6  C5  UNL d   1       2.530   0.061  -1.196  0.00  0.00     0.003 A 
ATOM      7  I   UNL d   1      -1.081   0.663   1.135  0.00  0.00    -0.146 I 
ENDROOT
TORSDOF 0
ENDMDL
