MODEL 1
REMARK minimizedAffinity -4.00832129
REMARK minimizedRMSD -1
REMARK  0 active torsions:
REMARK  status: ('A' for Active; 'I' for Inactive)
ROOT
ATOM      1  C   UNL d   1       1.143  -1.602  -0.665  0.00  0.00     0.023 A 
ATOM      2  C1  UNL d   1       0.151  -0.663  -0.384  0.00  0.00     0.003 A 
ATOM      3  C2  UNL d   1       0.238   0.626  -0.914  0.00  0.00     0.048 A 
ATOM      4  C3  UNL d   1       1.319   0.968  -1.726  0.00  0.00     0.023 A 
ATOM      5  C4  UNL d   1       2.313   0.031  -2.011  0.00  0.00     0.048 A 
ATOM      6  C5  UNL d   1       2.223  -1.256  -1.478  0.00  0.00     0.003 A 
ATOM      7  I   UNL d   1       1.450   2.885  -2.518  0.00  0.00    -0.146 I 
ENDROOT
TORSDOF 0
ENDMDL
