MODEL 1
REMARK minimizedAffinity -2.68964744
REMARK minimizedRMSD -1
REMARK  0 active torsions:
REMARK  status: ('A' for Active; 'I' for Inactive)
ROOT
ATOM      1  C   UNL d   1       3.127  -1.086  -1.321  0.00  0.00     0.023 A 
ATOM      2  C1  UNL d   1       2.378  -1.825  -0.404  0.00  0.00     0.003 A 
ATOM      3  C2  UNL d   1       1.116  -1.376  -0.010  0.00  0.00     0.048 A 
ATOM      4  C3  UNL d   1       0.608  -0.189  -0.536  0.00  0.00     0.023 A 
ATOM      5  C4  UNL d   1       1.353   0.553  -1.454  0.00  0.00     0.048 A 
ATOM      6  C5  UNL d   1       2.615   0.101  -1.845  0.00  0.00     0.003 A 
ATOM      7  I   UNL d   1      -1.271   0.480   0.049  0.00  0.00    -0.146 I 
ENDROOT
TORSDOF 0
ENDMDL
