MODEL 1
REMARK minimizedAffinity -4.0979538
REMARK minimizedRMSD -1
REMARK  0 active torsions:
REMARK  status: ('A' for Active; 'I' for Inactive)
ROOT
ATOM      1  C   UNL d   1       3.101  -0.969  -1.637  0.00  0.00     0.023 A 
ATOM      2  C1  UNL d   1       2.963   0.299  -1.073  0.00  0.00     0.003 A 
ATOM      3  C2  UNL d   1       1.769   0.659  -0.445  0.00  0.00     0.048 A 
ATOM      4  C3  UNL d   1       0.717  -0.254  -0.385  0.00  0.00     0.023 A 
ATOM      5  C4  UNL d   1       0.851  -1.524  -0.947  0.00  0.00     0.048 A 
ATOM      6  C5  UNL d   1       2.046  -1.880  -1.575  0.00  0.00     0.003 A 
ATOM      7  I   UNL d   1      -1.062   0.279   0.549  0.00  0.00    -0.146 I 
ENDROOT
TORSDOF 0
ENDMDL
