MODEL 1
REMARK minimizedAffinity 6.61656761
REMARK minimizedRMSD -1
REMARK  0 active torsions:
REMARK  status: ('A' for Active; 'I' for Inactive)
ROOT
ATOM      1  C   UNL d   1      -1.426   0.805   4.596  0.00  0.00     0.023 A 
ATOM      2  C1  UNL d   1      -1.308   1.829   3.656  0.00  0.00     0.003 A 
ATOM      3  C2  UNL d   1      -1.396   1.541   2.293  0.00  0.00     0.048 A 
ATOM      4  C3  UNL d   1      -1.604   0.226   1.876  0.00  0.00     0.023 A 
ATOM      5  C4  UNL d   1      -1.724  -0.801   2.813  0.00  0.00     0.048 A 
ATOM      6  C5  UNL d   1      -1.633  -0.508   4.175  0.00  0.00     0.003 A 
ATOM      7  I   UNL d   1      -1.737  -0.205  -0.152  0.00  0.00    -0.146 I 
ENDROOT
TORSDOF 0
ENDMDL
