MODEL 1
REMARK minimizedAffinity -4.14807081
REMARK minimizedRMSD -1
REMARK  0 active torsions:
REMARK  status: ('A' for Active; 'I' for Inactive)
ROOT
ATOM      1  C   UNL d   1       2.548  -0.556  -2.203  0.00  0.00     0.023 A 
ATOM      2  C1  UNL d   1       2.257   0.775  -1.902  0.00  0.00     0.003 A 
ATOM      3  C2  UNL d   1       1.279   1.080  -0.954  0.00  0.00     0.048 A 
ATOM      4  C3  UNL d   1       0.595   0.049  -0.310  0.00  0.00     0.023 A 
ATOM      5  C4  UNL d   1       0.884  -1.284  -0.607  0.00  0.00     0.048 A 
ATOM      6  C5  UNL d   1       1.862  -1.584  -1.557  0.00  0.00     0.003 A 
ATOM      7  I   UNL d   1      -0.862   0.500   1.102  0.00  0.00    -0.146 I 
ENDROOT
TORSDOF 0
ENDMDL
