MODEL 1
REMARK minimizedAffinity -5.31940603
REMARK minimizedRMSD -1
REMARK  0 active torsions:
REMARK  status: ('A' for Active; 'I' for Inactive)
ROOT
ATOM      1  C   UNL d   1       3.779   0.408  -2.295  0.00  0.00     0.023 A 
ATOM      2  C1  UNL d   1       2.843   1.392  -2.614  0.00  0.00     0.003 A 
ATOM      3  C2  UNL d   1       1.581   1.377  -2.017  0.00  0.00     0.048 A 
ATOM      4  C3  UNL d   1       1.262   0.376  -1.100  0.00  0.00     0.023 A 
ATOM      5  C4  UNL d   1       2.196  -0.610  -0.776  0.00  0.00     0.048 A 
ATOM      6  C5  UNL d   1       3.456  -0.591  -1.377  0.00  0.00     0.003 A 
ATOM      7  I   UNL d   1      -0.615   0.351  -0.209  0.00  0.00    -0.146 I 
ENDROOT
TORSDOF 0
ENDMDL
