MODEL 1
REMARK minimizedAffinity -5.01045656
REMARK minimizedRMSD -1
REMARK  0 active torsions:
REMARK  status: ('A' for Active; 'I' for Inactive)
ROOT
ATOM      1  C   UNL d   1      -4.294  -2.066   4.161  0.00  0.00     0.023 A 
ATOM      2  C1  UNL d   1      -2.975  -2.200   3.725  0.00  0.00     0.003 A 
ATOM      3  C2  UNL d   1      -2.298  -1.099   3.196  0.00  0.00     0.048 A 
ATOM      4  C3  UNL d   1      -2.946   0.133   3.106  0.00  0.00     0.023 A 
ATOM      5  C4  UNL d   1      -4.265   0.271   3.541  0.00  0.00     0.048 A 
ATOM      6  C5  UNL d   1      -4.938  -0.832   4.069  0.00  0.00     0.003 A 
ATOM      7  I   UNL d   1      -1.941   1.773   2.319  0.00  0.00    -0.146 I 
ENDROOT
TORSDOF 0
ENDMDL
