MODEL 1
REMARK minimizedAffinity 1.36029291
REMARK minimizedRMSD -1
REMARK  0 active torsions:
REMARK  status: ('A' for Active; 'I' for Inactive)
ROOT
ATOM      1  C   UNL d   1       1.411  -0.900  -2.277  0.00  0.00     0.023 A 
ATOM      2  C1  UNL d   1       1.483  -1.821  -1.231  0.00  0.00     0.003 A 
ATOM      3  C2  UNL d   1       0.583  -1.742  -0.167  0.00  0.00     0.048 A 
ATOM      4  C3  UNL d   1      -0.388  -0.741  -0.154  0.00  0.00     0.023 A 
ATOM      5  C4  UNL d   1      -0.465   0.182  -1.199  0.00  0.00     0.048 A 
ATOM      6  C5  UNL d   1       0.438   0.100  -2.261  0.00  0.00     0.003 A 
ATOM      7  I   UNL d   1      -1.729  -0.623   1.429  0.00  0.00    -0.146 I 
ENDROOT
TORSDOF 0
ENDMDL
