MODEL 1
REMARK minimizedAffinity -4.02787352
REMARK minimizedRMSD -1
REMARK  0 active torsions:
REMARK  status: ('A' for Active; 'I' for Inactive)
ROOT
ATOM      1  C   UNL d   1      -1.390   1.802   1.706  0.00  0.00     0.023 A 
ATOM      2  C1  UNL d   1      -1.878   1.953   3.004  0.00  0.00     0.003 A 
ATOM      3  C2  UNL d   1      -2.471   0.872   3.658  0.00  0.00     0.048 A 
ATOM      4  C3  UNL d   1      -2.572  -0.359   3.010  0.00  0.00     0.023 A 
ATOM      5  C4  UNL d   1      -2.084  -0.515   1.711  0.00  0.00     0.048 A 
ATOM      6  C5  UNL d   1      -1.493   0.570   1.060  0.00  0.00     0.003 A 
ATOM      7  I   UNL d   1      -3.454  -1.970   3.982  0.00  0.00    -0.146 I 
ENDROOT
TORSDOF 0
ENDMDL
