MODEL 1
REMARK minimizedAffinity -2.63549757
REMARK minimizedRMSD -1
REMARK  0 active torsions:
REMARK  status: ('A' for Active; 'I' for Inactive)
ROOT
ATOM      1  C4' PXY d   1      -1.913   2.536  -1.835  0.00  0.00     0.077 C 
ATOM      2  C1' PXY d   1       0.353  -1.894   1.108  0.00  0.00     0.077 C 
ATOM      3  C1  PXY d   1      -0.248  -0.729   0.347  0.00  0.00    -0.082 A 
ATOM      4  C2  PXY d   1      -0.297  -0.767  -0.975  0.00  0.00     0.003 A 
ATOM      5  C3  PXY d   1      -0.808   0.292  -1.681  0.00  0.00     0.003 A 
ATOM      6  C4  PXY d   1      -1.324   1.378  -1.024  0.00  0.00    -0.082 A 
ATOM      7  C5  PXY d   1      -1.287   1.419   0.324  0.00  0.00     0.003 A 
ATOM      8  C6  PXY d   1      -0.727   0.352   1.020  0.00  0.00     0.003 A 
ENDROOT
TORSDOF 0
ENDMDL
