MODEL 1
REMARK minimizedAffinity -3.35073757
REMARK minimizedRMSD -1
REMARK  0 active torsions:
REMARK  status: ('A' for Active; 'I' for Inactive)
ROOT
ATOM      1  C4' PXY d   1      -1.093  -2.189   1.657  0.00  0.00     0.077 C 
ATOM      2  C1' PXY d   1       3.026   0.670  -1.221  0.00  0.00     0.077 C 
ATOM      3  C1  PXY d   1       1.953  -0.091  -0.466  0.00  0.00    -0.082 A 
ATOM      4  C2  PXY d   1       0.692   0.301  -0.550  0.00  0.00     0.003 A 
ATOM      5  C3  PXY d   1      -0.286  -0.356   0.152  0.00  0.00     0.003 A 
ATOM      6  C4  PXY d   1       0.022  -1.457   0.905  0.00  0.00    -0.082 A 
ATOM      7  C5  PXY d   1       1.305  -1.869   0.987  0.00  0.00     0.003 A 
ATOM      8  C6  PXY d   1       2.289  -1.164   0.300  0.00  0.00     0.003 A 
ENDROOT
TORSDOF 0
ENDMDL
