MODEL 1
REMARK minimizedAffinity -1.57367384
REMARK minimizedRMSD -1
REMARK  0 active torsions:
REMARK  status: ('A' for Active; 'I' for Inactive)
ROOT
ATOM      1  C4' PXY d   1       0.410   5.968  -4.374  0.00  0.00     0.077 C 
ATOM      2  C1' PXY d   1      -3.303   1.786  -2.913  0.00  0.00     0.077 C 
ATOM      3  C1  PXY d   1      -2.327   2.876  -3.307  0.00  0.00    -0.082 A 
ATOM      4  C2  PXY d   1      -1.770   3.626  -2.370  0.00  0.00     0.003 A 
ATOM      5  C3  PXY d   1      -0.909   4.637  -2.711  0.00  0.00     0.003 A 
ATOM      6  C4  PXY d   1      -0.574   4.850  -4.021  0.00  0.00    -0.082 A 
ATOM      7  C5  PXY d   1      -1.130   4.082  -4.983  0.00  0.00     0.003 A 
ATOM      8  C6  PXY d   1      -2.033   3.087  -4.619  0.00  0.00     0.003 A 
ENDROOT
TORSDOF 0
ENDMDL
