MODEL 1
REMARK minimizedAffinity -4.19889116
REMARK minimizedRMSD -1
REMARK  0 active torsions:
REMARK  status: ('A' for Active; 'I' for Inactive)
ROOT
ATOM      1  C4' PXY d   1      -0.890   1.906  -1.180  0.00  0.00     0.077 C 
ATOM      2  C1' PXY d   1       1.482  -2.549   1.638  0.00  0.00     0.077 C 
ATOM      3  C1  PXY d   1       0.871  -1.373   0.902  0.00  0.00    -0.082 A 
ATOM      4  C2  PXY d   1      -0.443  -1.300   0.765  0.00  0.00     0.003 A 
ATOM      5  C3  PXY d   1      -1.011  -0.260   0.074  0.00  0.00     0.003 A 
ATOM      6  C4  PXY d   1      -0.230   0.742  -0.436  0.00  0.00    -0.082 A 
ATOM      7  C5  PXY d   1       1.111   0.680  -0.290  0.00  0.00     0.003 A 
ATOM      8  C6  PXY d   1       1.671  -0.405   0.378  0.00  0.00     0.003 A 
ENDROOT
TORSDOF 0
ENDMDL
