MODEL 1
REMARK minimizedAffinity -5.24252558
REMARK minimizedRMSD -1
REMARK  0 active torsions:
REMARK  status: ('A' for Active; 'I' for Inactive)
ROOT
ATOM      1  C4' PXY d   1       1.204  -2.641   1.628  0.00  0.00     0.077 C 
ATOM      2  C1' PXY d   1      -0.808   1.938  -1.271  0.00  0.00     0.077 C 
ATOM      3  C1  PXY d   1      -0.270   0.737  -0.518  0.00  0.00    -0.082 A 
ATOM      4  C2  PXY d   1      -1.107  -0.063   0.122  0.00  0.00     0.003 A 
ATOM      5  C3  PXY d   1      -0.634  -1.135   0.835  0.00  0.00     0.003 A 
ATOM      6  C4  PXY d   1       0.705  -1.422   0.847  0.00  0.00    -0.082 A 
ATOM      7  C5  PXY d   1       1.564  -0.617   0.187  0.00  0.00     0.003 A 
ATOM      8  C6  PXY d   1       1.068   0.489  -0.496  0.00  0.00     0.003 A 
ENDROOT
TORSDOF 0
ENDMDL
