MODEL 1
REMARK minimizedAffinity -3.26105261
REMARK minimizedRMSD -1
REMARK  0 active torsions:
REMARK  status: ('A' for Active; 'I' for Inactive)
ROOT
ATOM      1  C4' PXY d   1      -0.649   1.930  -0.903  0.00  0.00     0.077 C 
ATOM      2  C1' PXY d   1       1.636  -2.860   1.390  0.00  0.00     0.077 C 
ATOM      3  C1  PXY d   1       1.049  -1.599   0.786  0.00  0.00    -0.082 A 
ATOM      4  C2  PXY d   1      -0.182  -1.233   1.106  0.00  0.00     0.003 A 
ATOM      5  C3  PXY d   1      -0.740  -0.113   0.546  0.00  0.00     0.003 A 
ATOM      6  C4  PXY d   1      -0.012   0.670  -0.311  0.00  0.00    -0.082 A 
ATOM      7  C5  PXY d   1       1.248   0.308  -0.634  0.00  0.00     0.003 A 
ATOM      8  C6  PXY d   1       1.781  -0.855  -0.085  0.00  0.00     0.003 A 
ENDROOT
TORSDOF 0
ENDMDL
