MODEL 1
REMARK minimizedAffinity -5.35176611
REMARK minimizedRMSD -1
REMARK  0 active torsions:
REMARK  status: ('A' for Active; 'I' for Inactive)
ROOT
ATOM      1  C4' PXY d   1      -0.755   2.320  -1.430  0.00  0.00     0.077 C 
ATOM      2  C1' PXY d   1       1.404  -2.342   1.220  0.00  0.00     0.077 C 
ATOM      3  C1  PXY d   1       0.850  -1.115   0.523  0.00  0.00    -0.082 A 
ATOM      4  C2  PXY d   1      -0.364  -0.684   0.824  0.00  0.00     0.003 A 
ATOM      5  C3  PXY d   1      -0.893   0.405   0.180  0.00  0.00     0.003 A 
ATOM      6  C4  PXY d   1      -0.151   1.091  -0.744  0.00  0.00    -0.082 A 
ATOM      7  C5  PXY d   1       1.092   0.664  -1.049  0.00  0.00     0.003 A 
ATOM      8  C6  PXY d   1       1.595  -0.468  -0.413  0.00  0.00     0.003 A 
ENDROOT
TORSDOF 0
ENDMDL
