MODEL 1
REMARK minimizedAffinity 0.633592069
REMARK minimizedRMSD -1
REMARK  0 active torsions:
REMARK  status: ('A' for Active; 'I' for Inactive)
ROOT
ATOM      1  C4' PXY d   1      -1.186   0.742  -0.797  0.00  0.00     0.077 C 
ATOM      2  C1' PXY d   1       2.783  -2.439   1.949  0.00  0.00     0.077 C 
ATOM      3  C1  PXY d   1       1.735  -1.615   1.227  0.00  0.00    -0.082 A 
ATOM      4  C2  PXY d   1       2.072  -0.454   0.690  0.00  0.00     0.003 A 
ATOM      5  C3  PXY d   1       1.130   0.318   0.061  0.00  0.00     0.003 A 
ATOM      6  C4  PXY d   1      -0.159  -0.127  -0.066  0.00  0.00    -0.082 A 
ATOM      7  C5  PXY d   1      -0.508  -1.316   0.469  0.00  0.00     0.003 A 
ATOM      8  C6  PXY d   1       0.454  -2.066   1.140  0.00  0.00     0.003 A 
ENDROOT
TORSDOF 0
ENDMDL
