MODEL 1
REMARK minimizedAffinity -3.45841765
REMARK minimizedRMSD -1
REMARK  0 active torsions:
REMARK  status: ('A' for Active; 'I' for Inactive)
ROOT
ATOM      1  C4' PXY d   1       1.937  -1.946   1.048  0.00  0.00     0.077 C 
ATOM      2  C1' PXY d   1      -0.705   2.734  -1.082  0.00  0.00     0.077 C 
ATOM      3  C1  PXY d   1      -0.023   1.504  -0.516  0.00  0.00    -0.082 A 
ATOM      4  C2  PXY d   1       1.299   1.441  -0.492  0.00  0.00     0.003 A 
ATOM      5  C3  PXY d   1       1.932   0.323  -0.013  0.00  0.00     0.003 A 
ATOM      6  C4  PXY d   1       1.205  -0.720   0.495  0.00  0.00    -0.082 A 
ATOM      7  C5  PXY d   1      -0.143  -0.660   0.484  0.00  0.00     0.003 A 
ATOM      8  C6  PXY d   1      -0.767   0.467  -0.044  0.00  0.00     0.003 A 
ENDROOT
TORSDOF 0
ENDMDL
