MODEL 1
REMARK minimizedAffinity -1.43096554
REMARK minimizedRMSD -1
REMARK  0 active torsions:
REMARK  status: ('A' for Active; 'I' for Inactive)
ROOT
ATOM      1  C4' PXY d   1       1.546  -3.235   1.157  0.00  0.00     0.077 C 
ATOM      2  C1' PXY d   1      -0.313   1.938  -0.630  0.00  0.00     0.077 C 
ATOM      3  C1  PXY d   1       0.185   0.582  -0.170  0.00  0.00    -0.082 A 
ATOM      4  C2  PXY d   1      -0.662  -0.272   0.382  0.00  0.00     0.003 A 
ATOM      5  C3  PXY d   1      -0.222  -1.490   0.833  0.00  0.00     0.003 A 
ATOM      6  C4  PXY d   1       1.086  -1.859   0.669  0.00  0.00    -0.082 A 
ATOM      7  C5  PXY d   1       1.953  -0.997   0.097  0.00  0.00     0.003 A 
ATOM      8  C6  PXY d   1       1.496   0.251  -0.317  0.00  0.00     0.003 A 
ENDROOT
TORSDOF 0
ENDMDL
