MODEL 1
REMARK minimizedAffinity -3.56117558
REMARK minimizedRMSD -1
REMARK  0 active torsions:
REMARK  status: ('A' for Active; 'I' for Inactive)
ROOT
ATOM      1  C4' PXY d   1      -0.582   4.568  -4.469  0.00  0.00     0.077 C 
ATOM      2  C1' PXY d   1      -3.761   0.378  -2.072  0.00  0.00     0.077 C 
ATOM      3  C1  PXY d   1      -2.937   1.479  -2.709  0.00  0.00    -0.082 A 
ATOM      4  C2  PXY d   1      -1.617   1.438  -2.629  0.00  0.00     0.003 A 
ATOM      5  C3  PXY d   1      -0.858   2.442  -3.172  0.00  0.00     0.003 A 
ATOM      6  C4  PXY d   1      -1.453   3.472  -3.849  0.00  0.00    -0.082 A 
ATOM      7  C5  PXY d   1      -2.799   3.516  -3.944  0.00  0.00     0.003 A 
ATOM      8  C6  PXY d   1      -3.554   2.508  -3.350  0.00  0.00     0.003 A 
ENDROOT
TORSDOF 0
ENDMDL
