MODEL 1
REMARK minimizedAffinity -4.85036039
REMARK minimizedRMSD -1
REMARK  0 active torsions:
REMARK  status: ('A' for Active; 'I' for Inactive)
ROOT
ATOM      1  C4' PXY d   1      -1.577  -1.713   2.134  0.00  0.00     0.077 C 
ATOM      2  C1' PXY d   1       2.646   0.451  -1.167  0.00  0.00     0.077 C 
ATOM      3  C1  PXY d   1       1.543  -0.129  -0.304  0.00  0.00    -0.082 A 
ATOM      4  C2  PXY d   1       0.447   0.579  -0.081  0.00  0.00     0.003 A 
ATOM      5  C3  PXY d   1      -0.546   0.083   0.724  0.00  0.00     0.003 A 
ATOM      6  C4  PXY d   1      -0.441  -1.172   1.261  0.00  0.00    -0.082 A 
ATOM      7  C5  PXY d   1       0.669  -1.904   1.029  0.00  0.00     0.003 A 
ATOM      8  C6  PXY d   1       1.684  -1.366   0.244  0.00  0.00     0.003 A 
ENDROOT
TORSDOF 0
ENDMDL
