MODEL 1
REMARK minimizedAffinity -4.6795311
REMARK minimizedRMSD -1
REMARK  0 active torsions:
REMARK  status: ('A' for Active; 'I' for Inactive)
ROOT
ATOM      1  C4' PXY d   1      -1.150   1.919  -1.611  0.00  0.00     0.077 C 
ATOM      2  C1' PXY d   1       1.556  -2.153   1.474  0.00  0.00     0.077 C 
ATOM      3  C1  PXY d   1       0.834  -1.090   0.668  0.00  0.00    -0.082 A 
ATOM      4  C2  PXY d   1       1.477  -0.454  -0.298  0.00  0.00     0.003 A 
ATOM      5  C3  PXY d   1       0.850   0.532  -1.015  0.00  0.00     0.003 A 
ATOM      6  C4  PXY d   1      -0.465   0.832  -0.777  0.00  0.00    -0.082 A 
ATOM      7  C5  PXY d   1      -1.130   0.180   0.199  0.00  0.00     0.003 A 
ATOM      8  C6  PXY d   1      -0.463  -0.789   0.944  0.00  0.00     0.003 A 
ENDROOT
TORSDOF 0
ENDMDL
