MODEL 1
REMARK minimizedAffinity -3.83197808
REMARK minimizedRMSD -1
REMARK  0 active torsions:
REMARK  status: ('A' for Active; 'I' for Inactive)
ROOT
ATOM      1  C4' PXY d   1       0.927  -3.502   1.564  0.00  0.00     0.077 C 
ATOM      2  C1' PXY d   1      -0.285   1.787  -0.429  0.00  0.00     0.077 C 
ATOM      3  C1  PXY d   1       0.023   0.401   0.102  0.00  0.00    -0.082 A 
ATOM      4  C2  PXY d   1       1.243  -0.094  -0.031  0.00  0.00     0.003 A 
ATOM      5  C3  PXY d   1       1.530  -1.359   0.415  0.00  0.00     0.003 A 
ATOM      6  C4  PXY d   1       0.573  -2.103   1.051  0.00  0.00    -0.082 A 
ATOM      7  C5  PXY d   1      -0.670  -1.601   1.200  0.00  0.00     0.003 A 
ATOM      8  C6  PXY d   1      -0.953  -0.332   0.704  0.00  0.00     0.003 A 
ENDROOT
TORSDOF 0
ENDMDL
