MODEL 1
REMARK minimizedAffinity -1.1118511
REMARK minimizedRMSD -1
REMARK  0 active torsions:
REMARK  status: ('A' for Active; 'I' for Inactive)
ROOT
ATOM      1  C4' PXY d   1       1.893  -1.603   2.051  0.00  0.00     0.077 C 
ATOM      2  C1' PXY d   1      -1.463   1.463  -1.519  0.00  0.00     0.077 C 
ATOM      3  C1  PXY d   1      -0.593   0.658  -0.575  0.00  0.00    -0.082 A 
ATOM      4  C2  PXY d   1       0.722   0.794  -0.620  0.00  0.00     0.003 A 
ATOM      5  C3  PXY d   1       1.526   0.050   0.205  0.00  0.00     0.003 A 
ATOM      6  C4  PXY d   1       0.975  -0.804   1.123  0.00  0.00    -0.082 A 
ATOM      7  C5  PXY d   1      -0.367  -0.940   1.183  0.00  0.00     0.003 A 
ATOM      8  C6  PXY d   1      -1.163  -0.206   0.308  0.00  0.00     0.003 A 
ENDROOT
TORSDOF 0
ENDMDL
