MODEL 1
REMARK minimizedAffinity -3.1220026
REMARK minimizedRMSD -1
REMARK  0 active torsions:
REMARK  status: ('A' for Active; 'I' for Inactive)
ROOT
ATOM      1  C4' PXY d   1       1.725  -2.955   1.353  0.00  0.00     0.077 C 
ATOM      2  C1' PXY d   1      -1.537   1.398  -0.605  0.00  0.00     0.077 C 
ATOM      3  C1  PXY d   1      -0.690   0.255  -0.081  0.00  0.00    -0.082 A 
ATOM      4  C2  PXY d   1       0.592   0.189  -0.404  0.00  0.00     0.003 A 
ATOM      5  C3  PXY d   1       1.365  -0.855   0.034  0.00  0.00     0.003 A 
ATOM      6  C4  PXY d   1       0.834  -1.814   0.855  0.00  0.00    -0.082 A 
ATOM      7  C5  PXY d   1      -0.471  -1.748   1.197  0.00  0.00     0.003 A 
ATOM      8  C6  PXY d   1      -1.248  -0.702   0.708  0.00  0.00     0.003 A 
ENDROOT
TORSDOF 0
ENDMDL
