MODEL 1
REMARK minimizedAffinity -2.75137377
REMARK minimizedRMSD -1
REMARK  0 active torsions:
REMARK  status: ('A' for Active; 'I' for Inactive)
ROOT
ATOM      1  C4' PXY d   1      -1.194   0.934  -1.283  0.00  0.00     0.077 C 
ATOM      2  C1' PXY d   1       1.878  -3.184   1.366  0.00  0.00     0.077 C 
ATOM      3  C1  PXY d   1       1.083  -2.096   0.672  0.00  0.00    -0.082 A 
ATOM      4  C2  PXY d   1      -0.240  -2.131   0.704  0.00  0.00     0.003 A 
ATOM      5  C3  PXY d   1      -0.975  -1.173   0.055  0.00  0.00     0.003 A 
ATOM      6  C4  PXY d   1      -0.350  -0.138  -0.589  0.00  0.00    -0.082 A 
ATOM      7  C5  PXY d   1       0.999  -0.089  -0.617  0.00  0.00     0.003 A 
ATOM      8  C6  PXY d   1       1.727  -1.094   0.014  0.00  0.00     0.003 A 
ENDROOT
TORSDOF 0
ENDMDL
