MODEL 1
REMARK minimizedAffinity -2.869982
REMARK minimizedRMSD -1
REMARK  0 active torsions:
REMARK  status: ('A' for Active; 'I' for Inactive)
ROOT
ATOM      1  C4' PXY d   1       2.968   1.229  -0.398  0.00  0.00     0.077 C 
ATOM      2  C1' PXY d   1      -0.986  -2.844   0.692  0.00  0.00     0.077 C 
ATOM      3  C1  PXY d   1       0.057  -1.779   0.417  0.00  0.00    -0.082 A 
ATOM      4  C2  PXY d   1      -0.270  -0.710  -0.291  0.00  0.00     0.003 A 
ATOM      5  C3  PXY d   1       0.670   0.247  -0.576  0.00  0.00     0.003 A 
ATOM      6  C4  PXY d   1       1.944   0.134  -0.087  0.00  0.00    -0.082 A 
ATOM      7  C5  PXY d   1       2.283  -0.949   0.644  0.00  0.00     0.003 A 
ATOM      8  C6  PXY d   1       1.325  -1.929   0.888  0.00  0.00     0.003 A 
ENDROOT
TORSDOF 0
ENDMDL
