MODEL 1
REMARK minimizedAffinity -4.92516518
REMARK minimizedRMSD -1
REMARK  0 active torsions:
REMARK  status: ('A' for Active; 'I' for Inactive)
ROOT
ATOM      1  C4' PXY d   1       1.784  -2.875   1.042  0.00  0.00     0.077 C 
ATOM      2  C1' PXY d   1      -0.897   1.888  -0.839  0.00  0.00     0.077 C 
ATOM      3  C1  PXY d   1      -0.185   0.640  -0.355  0.00  0.00    -0.082 A 
ATOM      4  C2  PXY d   1      -0.865  -0.290   0.295  0.00  0.00     0.003 A 
ATOM      5  C3  PXY d   1      -0.230  -1.410   0.767  0.00  0.00     0.003 A 
ATOM      6  C4  PXY d   1       1.104  -1.604   0.527  0.00  0.00    -0.082 A 
ATOM      7  C5  PXY d   1       1.803  -0.664  -0.145  0.00  0.00     0.003 A 
ATOM      8  C6  PXY d   1       1.148   0.485  -0.581  0.00  0.00     0.003 A 
ENDROOT
TORSDOF 0
ENDMDL
