MODEL 1
REMARK minimizedAffinity -5.59938622
REMARK minimizedRMSD -1
REMARK  0 active torsions:
REMARK  status: ('A' for Active; 'I' for Inactive)
ROOT
ATOM      1  C4' PXY d   1       1.740  -2.961   1.412  0.00  0.00     0.077 C 
ATOM      2  C1' PXY d   1      -0.829   1.718  -0.806  0.00  0.00     0.077 C 
ATOM      3  C1  PXY d   1      -0.162   0.492  -0.213  0.00  0.00    -0.082 A 
ATOM      4  C2  PXY d   1       1.035   0.127  -0.642  0.00  0.00     0.003 A 
ATOM      5  C3  PXY d   1       1.638  -0.998  -0.140  0.00  0.00     0.003 A 
ATOM      6  C4  PXY d   1       1.033  -1.725   0.850  0.00  0.00    -0.082 A 
ATOM      7  C5  PXY d   1      -0.184  -1.353   1.300  0.00  0.00     0.003 A 
ATOM      8  C6  PXY d   1      -0.797  -0.232   0.748  0.00  0.00     0.003 A 
ENDROOT
TORSDOF 0
ENDMDL
