MODEL 1
REMARK minimizedAffinity -1.80249667
REMARK minimizedRMSD -1
REMARK  1 active torsions:
REMARK  status: ('A' for Active; 'I' for Inactive)
REMARK    1  A    between atoms: N_2  and  C1_3 
ROOT
ATOM      1  C1  UNL d   1       0.135  -0.528  -0.560  0.00  0.00     0.143 A 
ATOM      2  C2  UNL d   1       0.683  -0.252   0.697  0.00  0.00    -0.057 A 
ATOM      3  C3  UNL d   1      -0.116   0.198   1.754  0.00  0.00     0.033 A 
ATOM      4  C4  UNL d   1      -1.478   0.407   1.565  0.00  0.00    -0.042 A 
ATOM      5  C5  UNL d   1      -2.040   0.163   0.317  0.00  0.00     0.033 A 
ATOM      6  C6  UNL d   1      -1.238  -0.292  -0.734  0.00  0.00    -0.057 A 
ENDROOT
BRANCH   1   7
ATOM      7  N   UNL d   1       0.893  -0.883  -1.679  0.00  0.00    -0.732 N 
ATOM      8  C   UNL d   1       0.341  -0.765  -3.011  0.00  0.00     0.284 C 
ATOM      9  H3  UNL d   1       1.863  -0.584  -1.602  0.00  0.00     0.395 HD
ENDBRANCH   1   7
TORSDOF 1
ENDMDL
