MODEL 1
REMARK minimizedAffinity -3.56089997
REMARK minimizedRMSD -1
REMARK  1 active torsions:
REMARK  status: ('A' for Active; 'I' for Inactive)
REMARK    1  A    between atoms: N_2  and  C1_3 
ROOT
ATOM      1  C1  UNL d   1       0.273   0.093  -1.297  0.00  0.00     0.143 A 
ATOM      2  C2  UNL d   1       0.162   0.387   0.066  0.00  0.00    -0.057 A 
ATOM      3  C3  UNL d   1      -1.024   0.140   0.768  0.00  0.00     0.033 A 
ATOM      4  C4  UNL d   1      -2.134  -0.380   0.110  0.00  0.00    -0.042 A 
ATOM      5  C5  UNL d   1      -2.054  -0.657  -1.251  0.00  0.00     0.033 A 
ATOM      6  C6  UNL d   1      -0.865  -0.414  -1.945  0.00  0.00    -0.057 A 
ENDROOT
BRANCH   1   7
ATOM      7  N   UNL d   1       1.392   0.407  -2.072  0.00  0.00    -0.732 N 
ATOM      8  C   UNL d   1       1.239   0.861  -3.438  0.00  0.00     0.284 C 
ATOM      9  H3  UNL d   1       2.101   0.909  -1.544  0.00  0.00     0.395 HD
ENDBRANCH   1   7
TORSDOF 1
ENDMDL
