MODEL 1
REMARK minimizedAffinity -2.88663244
REMARK minimizedRMSD -1
REMARK  1 active torsions:
REMARK  status: ('A' for Active; 'I' for Inactive)
REMARK    1  A    between atoms: N_2  and  C1_3 
ROOT
ATOM      1  C1  UNL d   1      -0.259   0.214  -0.846  0.00  0.00     0.143 A 
ATOM      2  C2  UNL d   1       0.337  -0.320   0.302  0.00  0.00    -0.057 A 
ATOM      3  C3  UNL d   1      -0.347  -0.362   1.523  0.00  0.00     0.033 A 
ATOM      4  C4  UNL d   1      -1.633   0.159   1.625  0.00  0.00    -0.042 A 
ATOM      5  C5  UNL d   1      -2.235   0.717   0.504  0.00  0.00     0.033 A 
ATOM      6  C6  UNL d   1      -1.550   0.749  -0.715  0.00  0.00    -0.057 A 
ENDROOT
BRANCH   1   7
ATOM      7  N   UNL d   1       0.404   0.373  -2.065  0.00  0.00    -0.732 N 
ATOM      8  C   UNL d   1       0.622  -0.760  -2.939  0.00  0.00     0.284 C 
ATOM      9  H3  UNL d   1       0.129   1.225  -2.549  0.00  0.00     0.395 HD
ENDBRANCH   1   7
TORSDOF 1
ENDMDL
