MODEL 1
REMARK minimizedAffinity -3.39882016
REMARK minimizedRMSD -1
REMARK  1 active torsions:
REMARK  status: ('A' for Active; 'I' for Inactive)
REMARK    1  A    between atoms: N_2  and  C1_3 
ROOT
ATOM      1  C1  UNL d   1       0.004  -0.216  -0.708  0.00  0.00     0.143 A 
ATOM      2  C2  UNL d   1      -1.311   0.141  -0.392  0.00  0.00    -0.057 A 
ATOM      3  C3  UNL d   1      -1.745   0.213   0.937  0.00  0.00     0.033 A 
ATOM      4  C4  UNL d   1      -0.875  -0.100   1.977  0.00  0.00    -0.042 A 
ATOM      5  C5  UNL d   1       0.430  -0.481   1.686  0.00  0.00     0.033 A 
ATOM      6  C6  UNL d   1       0.859  -0.545   0.356  0.00  0.00    -0.057 A 
ENDROOT
BRANCH   1   7
ATOM      7  N   UNL d   1       0.468  -0.401  -2.012  0.00  0.00    -0.732 N 
ATOM      8  C   UNL d   1       1.032   0.704  -2.758  0.00  0.00     0.284 C 
ATOM      9  H3  UNL d   1       0.971  -1.278  -2.125  0.00  0.00     0.395 HD
ENDBRANCH   1   7
TORSDOF 1
ENDMDL
