MODEL 1
REMARK minimizedAffinity -1.86533654
REMARK minimizedRMSD -1
REMARK  1 active torsions:
REMARK  status: ('A' for Active; 'I' for Inactive)
REMARK    1  A    between atoms: N_2  and  C1_3 
ROOT
ATOM      1  C1  UNL d   1       0.533  -0.558  -1.110  0.00  0.00     0.143 A 
ATOM      2  C2  UNL d   1       1.598  -0.772  -0.228  0.00  0.00    -0.057 A 
ATOM      3  C3  UNL d   1       1.463  -0.533   1.145  0.00  0.00     0.033 A 
ATOM      4  C4  UNL d   1       0.265  -0.046   1.658  0.00  0.00    -0.042 A 
ATOM      5  C5  UNL d   1      -0.799   0.197   0.796  0.00  0.00     0.033 A 
ATOM      6  C6  UNL d   1      -0.660  -0.050  -0.573  0.00  0.00    -0.057 A 
ENDROOT
BRANCH   1   7
ATOM      7  N   UNL d   1       0.636  -0.683  -2.497  0.00  0.00    -0.732 N 
ATOM      8  C   UNL d   1       0.792   0.488  -3.334  0.00  0.00     0.284 C 
ATOM      9  H3  UNL d   1       1.216  -1.472  -2.775  0.00  0.00     0.395 HD
ENDBRANCH   1   7
TORSDOF 1
ENDMDL
