MODEL 1
REMARK minimizedAffinity -1.68834841
REMARK minimizedRMSD -1
REMARK  1 active torsions:
REMARK  status: ('A' for Active; 'I' for Inactive)
REMARK    1  A    between atoms: N_2  and  C1_3 
ROOT
ATOM      1  C1  UNL d   1       0.020  -0.474  -1.229  0.00  0.00     0.143 A 
ATOM      2  C2  UNL d   1      -1.270   0.001  -0.970  0.00  0.00    -0.057 A 
ATOM      3  C3  UNL d   1      -1.741   0.141   0.341  0.00  0.00     0.033 A 
ATOM      4  C4  UNL d   1      -0.938  -0.219   1.418  0.00  0.00    -0.042 A 
ATOM      5  C5  UNL d   1       0.338  -0.717   1.183  0.00  0.00     0.033 A 
ATOM      6  C6  UNL d   1       0.806  -0.849  -0.128  0.00  0.00    -0.057 A 
ENDROOT
BRANCH   1   7
ATOM      7  N   UNL d   1       0.512  -0.729  -2.512  0.00  0.00    -0.732 N 
ATOM      8  C   UNL d   1       0.847   0.361  -3.403  0.00  0.00     0.284 C 
ATOM      9  H3  UNL d   1       1.178  -1.498  -2.527  0.00  0.00     0.395 HD
ENDBRANCH   1   7
TORSDOF 1
ENDMDL
