MODEL 1
REMARK minimizedAffinity -3.05497503
REMARK minimizedRMSD -1
REMARK  1 active torsions:
REMARK  status: ('A' for Active; 'I' for Inactive)
REMARK    1  A    between atoms: N_2  and  C1_3 
ROOT
ATOM      1  C1  UNL d   1       0.080  -0.317   2.058  0.00  0.00     0.143 A 
ATOM      2  C2  UNL d   1      -1.159   0.248   2.376  0.00  0.00    -0.057 A 
ATOM      3  C3  UNL d   1      -2.076   0.595   1.376  0.00  0.00     0.033 A 
ATOM      4  C4  UNL d   1      -1.757   0.409   0.036  0.00  0.00    -0.042 A 
ATOM      5  C5  UNL d   1      -0.521  -0.128  -0.305  0.00  0.00     0.033 A 
ATOM      6  C6  UNL d   1       0.388  -0.479   0.698  0.00  0.00    -0.057 A 
ENDROOT
BRANCH   1   7
ATOM      7  N   UNL d   1       1.074  -0.592   3.000  0.00  0.00    -0.732 N 
ATOM      8  C   UNL d   1       2.427  -0.888   2.580  0.00  0.00     0.284 C 
ATOM      9  H3  UNL d   1       1.016   0.015   3.815  0.00  0.00     0.395 HD
ENDBRANCH   1   7
TORSDOF 1
ENDMDL
