MODEL 1
REMARK minimizedAffinity -3.52674174
REMARK minimizedRMSD -1
REMARK  1 active torsions:
REMARK  status: ('A' for Active; 'I' for Inactive)
REMARK    1  A    between atoms: N_2  and  C1_3 
ROOT
ATOM      1  C1  UNL d   1       0.314   0.094   1.773  0.00  0.00     0.143 A 
ATOM      2  C2  UNL d   1       0.193  -0.266   0.426  0.00  0.00    -0.057 A 
ATOM      3  C3  UNL d   1      -1.028  -0.150  -0.250  0.00  0.00     0.033 A 
ATOM      4  C4  UNL d   1      -2.160   0.302   0.420  0.00  0.00    -0.042 A 
ATOM      5  C5  UNL d   1      -2.069   0.642   1.765  0.00  0.00     0.033 A 
ATOM      6  C6  UNL d   1      -0.846   0.531   2.433  0.00  0.00    -0.057 A 
ENDROOT
BRANCH   1   7
ATOM      7  N   UNL d   1       1.476  -0.091   2.526  0.00  0.00    -0.732 N 
ATOM      8  C   UNL d   1       1.398  -0.381   3.942  0.00  0.00     0.284 C 
ATOM      9  H3  UNL d   1       2.179  -0.633   2.029  0.00  0.00     0.395 HD
ENDBRANCH   1   7
TORSDOF 1
ENDMDL
