MODEL 1
REMARK minimizedAffinity -6.14792252
REMARK minimizedRMSD -1
REMARK  3 active torsions:
REMARK  status: ('A' for Active; 'I' for Inactive)
REMARK    1  A    between atoms: C3'_2  and  C2'_3 
REMARK    2  A    between atoms: C2'_3  and  C1'_4 
REMARK    3  A    between atoms: C1'_4  and  C1_5 
ROOT
ATOM      1  C1  N4B d   1       0.026   0.381   0.156  0.00  0.00    -0.075 A 
ATOM      2  C2  N4B d   1       1.128  -0.478   0.363  0.00  0.00     0.002 A 
ATOM      3  C3  N4B d   1       0.919  -1.796   0.687  0.00  0.00     0.002 A 
ATOM      4  C4  N4B d   1      -0.376  -2.271   0.828  0.00  0.00    -0.004 A 
ATOM      5  C5  N4B d   1      -1.435  -1.442   0.601  0.00  0.00     0.002 A 
ATOM      6  C6  N4B d   1      -1.240  -0.116   0.271  0.00  0.00     0.002 A 
ENDROOT
BRANCH   1   7
ATOM      7  C1' N4B d   1       0.204   1.849  -0.116  0.00  0.00     0.057 C 
BRANCH   7   8
ATOM      8  C2' N4B d   1       1.253   2.033  -1.209  0.00  0.00     0.009 C 
BRANCH   8   9
ATOM      9  C3' N4B d   1       0.621   2.294  -2.565  0.00  0.00     0.004 C 
ATOM     10  C4' N4B d   1       1.466   1.806  -3.703  0.00  0.00     0.003 C 
ENDBRANCH   8   9
ENDBRANCH   7   8
ENDBRANCH   1   7
TORSDOF 3
ENDMDL
