MODEL 1
REMARK minimizedAffinity -4.42398739
REMARK minimizedRMSD -1
REMARK  3 active torsions:
REMARK  status: ('A' for Active; 'I' for Inactive)
REMARK    1  A    between atoms: C3'_2  and  C2'_3 
REMARK    2  A    between atoms: C2'_3  and  C1'_4 
REMARK    3  A    between atoms: C1'_4  and  C1_5 
ROOT
ATOM      1  C1  N4B d   1       0.280   1.165  -1.408  0.00  0.00    -0.075 A 
ATOM      2  C2  N4B d   1      -0.524   0.998  -2.557  0.00  0.00     0.002 A 
ATOM      3  C3  N4B d   1      -0.110   1.506  -3.764  0.00  0.00     0.002 A 
ATOM      4  C4  N4B d   1       1.090   2.198  -3.842  0.00  0.00    -0.004 A 
ATOM      5  C5  N4B d   1       1.872   2.332  -2.732  0.00  0.00     0.002 A 
ATOM      6  C6  N4B d   1       1.471   1.823  -1.514  0.00  0.00     0.002 A 
ENDROOT
BRANCH   1   7
ATOM      7  C1' N4B d   1      -0.171   0.702  -0.049  0.00  0.00     0.057 C 
BRANCH   7   8
ATOM      8  C2' N4B d   1       0.680  -0.489   0.382  0.00  0.00     0.009 C 
BRANCH   8   9
ATOM      9  C3' N4B d   1       0.083  -1.809  -0.075  0.00  0.00     0.004 C 
ATOM     10  C4' N4B d   1      -0.638  -2.532   1.023  0.00  0.00     0.003 C 
ENDBRANCH   8   9
ENDBRANCH   7   8
ENDBRANCH   1   7
TORSDOF 3
ENDMDL
