MODEL 1
REMARK minimizedAffinity -4.89104223
REMARK minimizedRMSD -1
REMARK  3 active torsions:
REMARK  status: ('A' for Active; 'I' for Inactive)
REMARK    1  A    between atoms: C3'_2  and  C2'_3 
REMARK    2  A    between atoms: C2'_3  and  C1'_4 
REMARK    3  A    between atoms: C1'_4  and  C1_5 
ROOT
ATOM      1  C1  N4B d   1       0.170  -0.163  -0.271  0.00  0.00    -0.075 A 
ATOM      2  C2  N4B d   1      -1.225  -0.324  -0.119  0.00  0.00     0.002 A 
ATOM      3  C3  N4B d   1      -1.721  -1.418   0.545  0.00  0.00     0.002 A 
ATOM      4  C4  N4B d   1      -0.848  -2.371   1.047  0.00  0.00    -0.004 A 
ATOM      5  C5  N4B d   1       0.499  -2.195   0.919  0.00  0.00     0.002 A 
ATOM      6  C6  N4B d   1       1.013  -1.098   0.258  0.00  0.00     0.002 A 
ENDROOT
BRANCH   1   7
ATOM      7  C1' N4B d   1       0.757   0.973  -1.063  0.00  0.00     0.057 C 
BRANCH   7   8
ATOM      8  C2' N4B d   1      -0.094   1.208  -2.308  0.00  0.00     0.009 C 
BRANCH   8   9
ATOM      9  C3' N4B d   1       0.751   1.600  -3.508  0.00  0.00     0.004 C 
ATOM     10  C4' N4B d   1       2.173   1.906  -3.142  0.00  0.00     0.003 C 
ENDBRANCH   8   9
ENDBRANCH   7   8
ENDBRANCH   1   7
TORSDOF 3
ENDMDL
