MODEL 1
REMARK minimizedAffinity -2.69687724
REMARK minimizedRMSD -1
REMARK  3 active torsions:
REMARK  status: ('A' for Active; 'I' for Inactive)
REMARK    1  A    between atoms: C3'_2  and  C2'_3 
REMARK    2  A    between atoms: C2'_3  and  C1'_4 
REMARK    3  A    between atoms: C1'_4  and  C1_5 
ROOT
ATOM      1  C1  N4B d   1      -0.269  -0.371   0.402  0.00  0.00    -0.075 A 
ATOM      2  C2  N4B d   1      -1.517  -0.282  -0.253  0.00  0.00     0.002 A 
ATOM      3  C3  N4B d   1      -2.469  -1.251  -0.052  0.00  0.00     0.002 A 
ATOM      4  C4  N4B d   1      -2.190  -2.324   0.781  0.00  0.00    -0.004 A 
ATOM      5  C5  N4B d   1      -0.992  -2.390   1.430  0.00  0.00     0.002 A 
ATOM      6  C6  N4B d   1      -0.027  -1.421   1.240  0.00  0.00     0.002 A 
ENDROOT
BRANCH   1   7
ATOM      7  C1' N4B d   1       0.834   0.619   0.147  0.00  0.00     0.057 C 
BRANCH   7   8
ATOM      8  C2' N4B d   1       1.491   0.303  -1.194  0.00  0.00     0.009 C 
BRANCH   8   9
ATOM      9  C3' N4B d   1       2.071   1.544  -1.849  0.00  0.00     0.004 C 
ATOM     10  C4' N4B d   1       1.785   1.611  -3.320  0.00  0.00     0.003 C 
ENDBRANCH   8   9
ENDBRANCH   7   8
ENDBRANCH   1   7
TORSDOF 3
ENDMDL
