MODEL 1
REMARK minimizedAffinity -5.33942175
REMARK minimizedRMSD -1
REMARK  3 active torsions:
REMARK  status: ('A' for Active; 'I' for Inactive)
REMARK    1  A    between atoms: C3'_2  and  C2'_3 
REMARK    2  A    between atoms: C2'_3  and  C1'_4 
REMARK    3  A    between atoms: C1'_4  and  C1_5 
ROOT
ATOM      1  C1  N4B d   1       0.046   0.051   0.289  0.00  0.00    -0.075 A 
ATOM      2  C2  N4B d   1      -1.361   0.052   0.414  0.00  0.00     0.002 A 
ATOM      3  C3  N4B d   1      -2.028  -1.122   0.666  0.00  0.00     0.002 A 
ATOM      4  C4  N4B d   1      -1.314  -2.306   0.777  0.00  0.00    -0.004 A 
ATOM      5  C5  N4B d   1       0.047  -2.294   0.679  0.00  0.00     0.002 A 
ATOM      6  C6  N4B d   1       0.730  -1.121   0.430  0.00  0.00     0.002 A 
ENDROOT
BRANCH   1   7
ATOM      7  C1' N4B d   1       0.811   1.295  -0.071  0.00  0.00     0.057 C 
BRANCH   7   8
ATOM      8  C2' N4B d   1       1.506   1.085  -1.414  0.00  0.00     0.009 C 
BRANCH   8   9
ATOM      9  C3' N4B d   1       0.603   1.442  -2.582  0.00  0.00     0.004 C 
ATOM     10  C4' N4B d   1       1.364   1.679  -3.853  0.00  0.00     0.003 C 
ENDBRANCH   8   9
ENDBRANCH   7   8
ENDBRANCH   1   7
TORSDOF 3
ENDMDL
