MODEL 1
REMARK minimizedAffinity -6.24811888
REMARK minimizedRMSD -1
REMARK  3 active torsions:
REMARK  status: ('A' for Active; 'I' for Inactive)
REMARK    1  A    between atoms: C3'_2  and  C2'_3 
REMARK    2  A    between atoms: C2'_3  and  C1'_4 
REMARK    3  A    between atoms: C1'_4  and  C1_5 
ROOT
ATOM      1  C1  N4B d   1       0.027  -0.097  -0.185  0.00  0.00    -0.075 A 
ATOM      2  C2  N4B d   1      -1.365  -0.082   0.056  0.00  0.00     0.002 A 
ATOM      3  C3  N4B d   1      -1.985  -1.194   0.571  0.00  0.00     0.002 A 
ATOM      4  C4  N4B d   1      -1.240  -2.335   0.833  0.00  0.00    -0.004 A 
ATOM      5  C5  N4B d   1       0.107  -2.333   0.621  0.00  0.00     0.002 A 
ATOM      6  C6  N4B d   1       0.744  -1.221   0.108  0.00  0.00     0.002 A 
ENDROOT
BRANCH   1   7
ATOM      7  C1' N4B d   1       0.734   1.065  -0.827  0.00  0.00     0.057 C 
BRANCH   7   8
ATOM      8  C2' N4B d   1      -0.077   1.544  -2.027  0.00  0.00     0.009 C 
BRANCH   8   9
ATOM      9  C3' N4B d   1       0.797   2.218  -3.071  0.00  0.00     0.004 C 
ATOM     10  C4' N4B d   1       1.637   1.243  -3.842  0.00  0.00     0.003 C 
ENDBRANCH   8   9
ENDBRANCH   7   8
ENDBRANCH   1   7
TORSDOF 3
ENDMDL
