MODEL 1
REMARK minimizedAffinity 10.8469772
REMARK minimizedRMSD -1
REMARK  0 active torsions:
REMARK  status: ('A' for Active; 'I' for Inactive)
ROOT
ATOM      1  C   UNL d   1      -0.698   3.422   0.290  0.00  0.00    -0.002 A 
ATOM      2  C1  UNL d   1       0.657   3.614   0.061  0.00  0.00     0.010 A 
ATOM      3  C2  UNL d   1       1.094   4.348  -1.043  0.00  0.00     0.041 A 
ATOM      4  C3  UNL d   1       0.136   4.893  -1.921  0.00  0.00    -0.075 A 
ATOM      5  S   UNL d   1       0.437   5.828  -3.338  0.00  0.00     0.015 SA
ATOM      6  C4  UNL d   1      -1.226   5.995  -3.672  0.00  0.00     0.022 A 
ATOM      7  C5  UNL d   1      -2.006   5.359  -2.736  0.00  0.00     0.026 A 
ATOM      8  C6  UNL d   1      -1.234   4.714  -1.711  0.00  0.00    -0.082 A 
ATOM      9  C7  UNL d   1      -1.645   3.964  -0.583  0.00  0.00     0.045 A 
ENDROOT
TORSDOF 0
ENDMDL
