MODEL 1
REMARK minimizedAffinity 17.3955231
REMARK minimizedRMSD -1
REMARK  0 active torsions:
REMARK  status: ('A' for Active; 'I' for Inactive)
ROOT
ATOM      1  C   UNL d   1       0.331  -4.129  -1.078  0.00  0.00    -0.002 A 
ATOM      2  C1  UNL d   1      -0.459  -3.001  -0.906  0.00  0.00     0.010 A 
ATOM      3  C2  UNL d   1      -0.917  -2.280  -2.011  0.00  0.00     0.041 A 
ATOM      4  C3  UNL d   1      -0.566  -2.717  -3.303  0.00  0.00    -0.075 A 
ATOM      5  S   UNL d   1      -1.012  -1.993  -4.802  0.00  0.00     0.015 SA
ATOM      6  C4  UNL d   1      -0.166  -3.165  -5.706  0.00  0.00     0.022 A 
ATOM      7  C5  UNL d   1       0.448  -4.093  -4.899  0.00  0.00     0.026 A 
ATOM      8  C6  UNL d   1       0.227  -3.851  -3.501  0.00  0.00    -0.082 A 
ATOM      9  C7  UNL d   1       0.677  -4.560  -2.361  0.00  0.00     0.045 A 
ENDROOT
TORSDOF 0
ENDMDL
