MODEL 1
REMARK minimizedAffinity 3.39329863
REMARK minimizedRMSD -1
REMARK  0 active torsions:
REMARK  status: ('A' for Active; 'I' for Inactive)
ROOT
ATOM      1  C   UNL d   1      -5.998   1.609  -3.828  0.00  0.00    -0.002 A 
ATOM      2  C1  UNL d   1      -6.000   1.970  -2.489  0.00  0.00     0.010 A 
ATOM      3  C2  UNL d   1      -5.568   3.238  -2.095  0.00  0.00     0.041 A 
ATOM      4  C3  UNL d   1      -5.133   4.147  -3.080  0.00  0.00    -0.075 A 
ATOM      5  S   UNL d   1      -4.562   5.755  -2.831  0.00  0.00     0.015 SA
ATOM      6  C4  UNL d   1      -4.304   6.000  -4.498  0.00  0.00     0.022 A 
ATOM      7  C5  UNL d   1      -4.639   4.893  -5.240  0.00  0.00     0.026 A 
ATOM      8  C6  UNL d   1      -5.123   3.806  -4.435  0.00  0.00    -0.082 A 
ATOM      9  C7  UNL d   1      -5.566   2.513  -4.803  0.00  0.00     0.045 A 
ENDROOT
TORSDOF 0
ENDMDL
