MODEL 1
REMARK minimizedAffinity 4.33966589
REMARK minimizedRMSD -1
REMARK  0 active torsions:
REMARK  status: ('A' for Active; 'I' for Inactive)
ROOT
ATOM      1  C   UNL d   1       0.260   3.753  -0.067  0.00  0.00    -0.002 A 
ATOM      2  C1  UNL d   1       1.415   4.449   0.260  0.00  0.00     0.010 A 
ATOM      3  C2  UNL d   1       2.095   4.179   1.449  0.00  0.00     0.041 A 
ATOM      4  C3  UNL d   1       1.590   3.186   2.312  0.00  0.00    -0.075 A 
ATOM      5  S   UNL d   1       2.256   2.685   3.821  0.00  0.00     0.015 SA
ATOM      6  C4  UNL d   1       1.023   1.534   4.068  0.00  0.00     0.022 A 
ATOM      7  C5  UNL d   1       0.117   1.520   3.034  0.00  0.00     0.026 A 
ATOM      8  C6  UNL d   1       0.429   2.471   2.005  0.00  0.00    -0.082 A 
ATOM      9  C7  UNL d   1      -0.238   2.769   0.792  0.00  0.00     0.045 A 
ENDROOT
TORSDOF 0
ENDMDL
