MODEL 1
REMARK minimizedAffinity 7.94272041
REMARK minimizedRMSD -1
REMARK  0 active torsions:
REMARK  status: ('A' for Active; 'I' for Inactive)
ROOT
ATOM      1  C   UNL d   1      -0.985   3.690   0.745  0.00  0.00    -0.002 A 
ATOM      2  C1  UNL d   1       0.083   2.988   0.204  0.00  0.00     0.010 A 
ATOM      3  C2  UNL d   1       0.545   3.278  -1.081  0.00  0.00     0.041 A 
ATOM      4  C3  UNL d   1      -0.089   4.296  -1.820  0.00  0.00    -0.075 A 
ATOM      5  S   UNL d   1       0.306   4.824  -3.413  0.00  0.00     0.015 SA
ATOM      6  C4  UNL d   1      -0.934   5.994  -3.412  0.00  0.00     0.022 A 
ATOM      7  C5  UNL d   1      -1.642   5.995  -2.234  0.00  0.00     0.026 A 
ATOM      8  C6  UNL d   1      -1.166   5.017  -1.296  0.00  0.00    -0.082 A 
ATOM      9  C7  UNL d   1      -1.612   4.699   0.009  0.00  0.00     0.045 A 
ENDROOT
TORSDOF 0
ENDMDL
