MODEL 1
REMARK minimizedAffinity 13.4054527
REMARK minimizedRMSD -1
REMARK  0 active torsions:
REMARK  status: ('A' for Active; 'I' for Inactive)
ROOT
ATOM      1  C   UNL d   1      -5.995   1.491  -5.628  0.00  0.00    -0.002 A 
ATOM      2  C1  UNL d   1      -5.998   0.269  -4.971  0.00  0.00     0.010 A 
ATOM      3  C2  UNL d   1      -5.999   0.213  -3.575  0.00  0.00     0.041 A 
ATOM      4  C3  UNL d   1      -5.998   1.417  -2.845  0.00  0.00    -0.075 A 
ATOM      5  S   UNL d   1      -5.999   1.593  -1.130  0.00  0.00     0.015 SA
ATOM      6  C4  UNL d   1      -5.996   3.294  -1.230  0.00  0.00     0.022 A 
ATOM      7  C5  UNL d   1      -5.994   3.735  -2.532  0.00  0.00     0.026 A 
ATOM      8  C6  UNL d   1      -5.995   2.660  -3.485  0.00  0.00    -0.082 A 
ATOM      9  C7  UNL d   1      -5.994   2.684  -4.900  0.00  0.00     0.045 A 
ENDROOT
TORSDOF 0
ENDMDL
