MODEL 1
REMARK minimizedAffinity -3.28576374
REMARK minimizedRMSD -1
REMARK  1 active torsions:
REMARK  status: ('A' for Active; 'I' for Inactive)
REMARK    1  A    between atoms: C3_4  and  O_7 
ROOT
ATOM      1  C   UNL d   1      -0.263  -0.601  -1.133  0.00  0.00    -0.033 A 
ATOM      2  C1  UNL d   1      -1.515  -0.167  -0.695  0.00  0.00     0.039 A 
ATOM      3  C2  UNL d   1      -1.663   0.361   0.590  0.00  0.00    -0.080 A 
ATOM      4  C3  UNL d   1      -0.552   0.450   1.423  0.00  0.00     0.150 A 
ATOM      5  C4  UNL d   1       0.700   0.024   0.992  0.00  0.00    -0.007 A 
ATOM      6  C5  UNL d   1       0.845  -0.504  -0.290  0.00  0.00     0.039 A 
ENDROOT
BRANCH   4   7
ATOM      7  O   UNL d   1      -0.648   0.954   2.687  0.00  0.00    -0.526 OA
ATOM      8  H5  UNL d   1      -1.577   1.182   2.857  0.00  0.00     0.418 HD
ENDBRANCH   4   7
TORSDOF 1
ENDMDL
