MODEL 1
REMARK minimizedAffinity -3.58153081
REMARK minimizedRMSD -1
REMARK  1 active torsions:
REMARK  status: ('A' for Active; 'I' for Inactive)
REMARK    1  A    between atoms: C3_4  and  O_7 
ROOT
ATOM      1  C   UNL d   1      -1.679   0.563   1.676  0.00  0.00    -0.033 A 
ATOM      2  C1  UNL d   1      -0.996   0.429   2.886  0.00  0.00     0.039 A 
ATOM      3  C2  UNL d   1       0.305  -0.077   2.902  0.00  0.00    -0.080 A 
ATOM      4  C3  UNL d   1       0.911  -0.444   1.704  0.00  0.00     0.150 A 
ATOM      5  C4  UNL d   1       0.237  -0.310   0.494  0.00  0.00    -0.007 A 
ATOM      6  C5  UNL d   1      -1.062   0.195   0.480  0.00  0.00     0.039 A 
ENDROOT
BRANCH   4   7
ATOM      7  O   UNL d   1       2.177  -0.947   1.670  0.00  0.00    -0.526 OA
ATOM      8  H5  UNL d   1       2.508  -1.010   2.582  0.00  0.00     0.418 HD
ENDBRANCH   4   7
TORSDOF 1
ENDMDL
