MODEL 1
REMARK minimizedAffinity -1.12090456
REMARK minimizedRMSD -1
REMARK  1 active torsions:
REMARK  status: ('A' for Active; 'I' for Inactive)
REMARK    1  A    between atoms: C3_4  and  O_7 
ROOT
ATOM      1  C   UNL d   1       1.968  -0.414   2.910  0.00  0.00    -0.033 A 
ATOM      2  C1  UNL d   1       1.723  -0.247   1.546  0.00  0.00     0.039 A 
ATOM      3  C2  UNL d   1       0.453   0.129   1.103  0.00  0.00    -0.080 A 
ATOM      4  C3  UNL d   1      -0.561   0.336   2.034  0.00  0.00     0.150 A 
ATOM      5  C4  UNL d   1      -0.323   0.175   3.395  0.00  0.00    -0.007 A 
ATOM      6  C5  UNL d   1       0.945  -0.201   3.835  0.00  0.00     0.039 A 
ENDROOT
BRANCH   4   7
ATOM      7  O   UNL d   1      -1.817   0.700   1.650  0.00  0.00    -0.526 OA
ATOM      8  H5  UNL d   1      -1.841   0.745   0.679  0.00  0.00     0.418 HD
ENDBRANCH   4   7
TORSDOF 1
ENDMDL
