MODEL 1
REMARK minimizedAffinity -4.77891016
REMARK minimizedRMSD -1
REMARK  1 active torsions:
REMARK  status: ('A' for Active; 'I' for Inactive)
REMARK    1  A    between atoms: C3_4  and  O_7 
ROOT
ATOM      1  C   UNL d   1      -0.737  -0.208  -0.073  0.00  0.00    -0.033 A 
ATOM      2  C1  UNL d   1      -0.013  -0.921  -1.031  0.00  0.00     0.039 A 
ATOM      3  C2  UNL d   1       1.262  -1.403  -0.729  0.00  0.00    -0.080 A 
ATOM      4  C3  UNL d   1       1.801  -1.166   0.533  0.00  0.00     0.150 A 
ATOM      5  C4  UNL d   1       1.083  -0.461   1.493  0.00  0.00    -0.007 A 
ATOM      6  C5  UNL d   1      -0.189   0.020   1.189  0.00  0.00     0.039 A 
ENDROOT
BRANCH   4   7
ATOM      7  O   UNL d   1       3.043  -1.613   0.872  0.00  0.00    -0.526 OA
ATOM      8  H5  UNL d   1       3.432  -2.058   0.101  0.00  0.00     0.418 HD
ENDBRANCH   4   7
TORSDOF 1
ENDMDL
