MODEL 1
REMARK minimizedAffinity -1.82609916
REMARK minimizedRMSD -1
REMARK  1 active torsions:
REMARK  status: ('A' for Active; 'I' for Inactive)
REMARK    1  A    between atoms: C3_4  and  O_7 
ROOT
ATOM      1  C   UNL d   1      -1.554   0.583   2.501  0.00  0.00    -0.033 A 
ATOM      2  C1  UNL d   1      -0.239   0.117   2.531  0.00  0.00     0.039 A 
ATOM      3  C2  UNL d   1       0.385  -0.296   1.353  0.00  0.00    -0.080 A 
ATOM      4  C3  UNL d   1      -0.316  -0.237   0.151  0.00  0.00     0.150 A 
ATOM      5  C4  UNL d   1      -1.626   0.231   0.113  0.00  0.00    -0.007 A 
ATOM      6  C5  UNL d   1      -2.247   0.641   1.291  0.00  0.00     0.039 A 
ENDROOT
BRANCH   4   7
ATOM      7  O   UNL d   1       0.249  -0.633  -1.024  0.00  0.00    -0.526 OA
ATOM      8  H5  UNL d   1       1.146  -0.959  -0.840  0.00  0.00     0.418 HD
ENDBRANCH   4   7
TORSDOF 1
ENDMDL
