MODEL 1
REMARK minimizedAffinity -2.47697067
REMARK minimizedRMSD -1
REMARK  1 active torsions:
REMARK  status: ('A' for Active; 'I' for Inactive)
REMARK    1  A    between atoms: C3_4  and  O_7 
ROOT
ATOM      1  C   UNL d   1       0.126  -0.668  -0.457  0.00  0.00    -0.033 A 
ATOM      2  C1  UNL d   1       0.166  -1.535  -1.550  0.00  0.00     0.039 A 
ATOM      3  C2  UNL d   1       0.556  -1.062  -2.805  0.00  0.00    -0.080 A 
ATOM      4  C3  UNL d   1       0.904   0.278  -2.952  0.00  0.00     0.150 A 
ATOM      5  C4  UNL d   1       0.870   1.146  -1.866  0.00  0.00    -0.007 A 
ATOM      6  C5  UNL d   1       0.480   0.673  -0.614  0.00  0.00     0.039 A 
ENDROOT
BRANCH   4   7
ATOM      7  O   UNL d   1       1.286   0.786  -4.158  0.00  0.00    -0.526 OA
ATOM      8  H5  UNL d   1       1.234   0.078  -4.821  0.00  0.00     0.418 HD
ENDBRANCH   4   7
TORSDOF 1
ENDMDL
