MODEL 1
REMARK minimizedAffinity -2.80241776
REMARK minimizedRMSD -1
REMARK  1 active torsions:
REMARK  status: ('A' for Active; 'I' for Inactive)
REMARK    1  A    between atoms: C3_4  and  O_7 
ROOT
ATOM      1  C   UNL d   1      -2.259   0.748   1.501  0.00  0.00    -0.033 A 
ATOM      2  C1  UNL d   1      -1.069   0.430   2.157  0.00  0.00     0.039 A 
ATOM      3  C2  UNL d   1       0.027  -0.040   1.430  0.00  0.00    -0.080 A 
ATOM      4  C3  UNL d   1      -0.081  -0.186   0.050  0.00  0.00     0.150 A 
ATOM      5  C4  UNL d   1      -1.263   0.133  -0.611  0.00  0.00    -0.007 A 
ATOM      6  C5  UNL d   1      -2.356   0.601   0.117  0.00  0.00     0.039 A 
ENDROOT
BRANCH   4   7
ATOM      7  O   UNL d   1       0.960  -0.646  -0.702  0.00  0.00    -0.526 OA
ATOM      8  H5  UNL d   1       1.700  -0.853  -0.108  0.00  0.00     0.418 HD
ENDBRANCH   4   7
TORSDOF 1
ENDMDL
