MODEL 1
REMARK minimizedAffinity -2.93588185
REMARK minimizedRMSD -1
REMARK  1 active torsions:
REMARK  status: ('A' for Active; 'I' for Inactive)
REMARK    1  A    between atoms: C3_4  and  O_7 
ROOT
ATOM      1  C   UNL d   1      -1.539   0.407   0.846  0.00  0.00    -0.033 A 
ATOM      2  C1  UNL d   1      -1.510   0.467   2.240  0.00  0.00     0.039 A 
ATOM      3  C2  UNL d   1      -0.376   0.043   2.936  0.00  0.00    -0.080 A 
ATOM      4  C3  UNL d   1       0.722  -0.436   2.226  0.00  0.00     0.150 A 
ATOM      5  C4  UNL d   1       0.702  -0.494   0.836  0.00  0.00    -0.007 A 
ATOM      6  C5  UNL d   1      -0.432  -0.072   0.144  0.00  0.00     0.039 A 
ENDROOT
BRANCH   4   7
ATOM      7  O   UNL d   1       1.849  -0.865   2.861  0.00  0.00    -0.526 OA
ATOM      8  H5  UNL d   1       1.708  -0.794   3.820  0.00  0.00     0.418 HD
ENDBRANCH   4   7
TORSDOF 1
ENDMDL
