MODEL 1
REMARK minimizedAffinity -2.26668715
REMARK minimizedRMSD -1
REMARK  1 active torsions:
REMARK  status: ('A' for Active; 'I' for Inactive)
REMARK    1  A    between atoms: C3_4  and  O_7 
ROOT
ATOM      1  C   UNL d   1      -1.544   0.365  -0.383  0.00  0.00    -0.033 A 
ATOM      2  C1  UNL d   1      -1.534   0.411   1.012  0.00  0.00     0.039 A 
ATOM      3  C2  UNL d   1      -0.423  -0.054   1.720  0.00  0.00    -0.080 A 
ATOM      4  C3  UNL d   1       0.669  -0.560   1.021  0.00  0.00     0.150 A 
ATOM      5  C4  UNL d   1       0.667  -0.605  -0.369  0.00  0.00    -0.007 A 
ATOM      6  C5  UNL d   1      -0.443  -0.141  -1.074  0.00  0.00     0.039 A 
ENDROOT
BRANCH   4   7
ATOM      7  O   UNL d   1       1.773  -1.029   1.668  0.00  0.00    -0.526 OA
ATOM      8  H5  UNL d   1       1.621  -0.962   2.626  0.00  0.00     0.418 HD
ENDBRANCH   4   7
TORSDOF 1
ENDMDL
