MODEL 1
REMARK minimizedAffinity 2.66873789
REMARK minimizedRMSD -1
REMARK  2 active torsions:
REMARK  status: ('A' for Active; 'I' for Inactive)
REMARK    1  A    between atoms: C1_2  and  C2_3 
REMARK    2  A    between atoms: C2_3  and  C3_4 
ROOT
ATOM      1  C3  UNL d   1       3.794  -5.854  -3.544  0.00  0.00    -0.075 A 
ATOM      2  C4  UNL d   1       5.196  -5.871  -3.586  0.00  0.00     0.002 A 
ATOM      3  C5  UNL d   1       5.867  -5.924  -4.808  0.00  0.00     0.002 A 
ATOM      4  C6  UNL d   1       5.147  -5.971  -6.000  0.00  0.00    -0.004 A 
ATOM      5  C7  UNL d   1       3.754  -5.971  -5.969  0.00  0.00     0.002 A 
ATOM      6  C8  UNL d   1       3.080  -5.914  -4.748  0.00  0.00     0.002 A 
ENDROOT
BRANCH   1   7
ATOM      7  C2  UNL d   1       3.062  -5.767  -2.226  0.00  0.00     0.056 C 
BRANCH   7   8
ATOM      8  C1  UNL d   1       3.339  -4.479  -1.442  0.00  0.00     0.007 C 
ATOM      9  C   UNL d   1       4.185  -3.476  -2.216  0.00  0.00     0.009 C 
ENDBRANCH   7   8
ENDBRANCH   1   7
TORSDOF 2
ENDMDL
