MODEL 1
REMARK minimizedAffinity 10.2168579
REMARK minimizedRMSD -1
REMARK  2 active torsions:
REMARK  status: ('A' for Active; 'I' for Inactive)
REMARK    1  A    between atoms: C1_2  and  C2_3 
REMARK    2  A    between atoms: C2_3  and  C3_4 
ROOT
ATOM      1  C3  UNL d   1       4.285  -5.868  -3.294  0.00  0.00    -0.075 A 
ATOM      2  C4  UNL d   1       3.310  -5.674  -4.284  0.00  0.00     0.002 A 
ATOM      3  C5  UNL d   1       3.673  -5.594  -5.629  0.00  0.00     0.002 A 
ATOM      4  C6  UNL d   1       5.012  -5.695  -6.000  0.00  0.00    -0.004 A 
ATOM      5  C7  UNL d   1       5.990  -5.871  -5.023  0.00  0.00     0.002 A 
ATOM      6  C8  UNL d   1       5.630  -5.957  -3.677  0.00  0.00     0.002 A 
ENDROOT
BRANCH   1   7
ATOM      7  C2  UNL d   1       3.896  -5.986  -1.840  0.00  0.00     0.056 C 
BRANCH   7   8
ATOM      8  C1  UNL d   1       2.655  -5.173  -1.458  0.00  0.00     0.007 C 
ATOM      9  C   UNL d   1       1.619  -5.983  -0.691  0.00  0.00     0.009 C 
ENDBRANCH   7   8
ENDBRANCH   1   7
TORSDOF 2
ENDMDL
