MODEL 1
REMARK minimizedAffinity 2.84001398
REMARK minimizedRMSD -1
REMARK  2 active torsions:
REMARK  status: ('A' for Active; 'I' for Inactive)
REMARK    1  A    between atoms: C1_2  and  C2_3 
REMARK    2  A    between atoms: C2_3  and  C3_4 
ROOT
ATOM      1  C3  UNL d   1       3.977  -5.196  -3.617  0.00  0.00    -0.075 A 
ATOM      2  C4  UNL d   1       4.363  -4.365  -4.678  0.00  0.00     0.002 A 
ATOM      3  C5  UNL d   1       3.606  -4.314  -5.849  0.00  0.00     0.002 A 
ATOM      4  C6  UNL d   1       2.462  -5.099  -5.978  0.00  0.00    -0.004 A 
ATOM      5  C7  UNL d   1       2.079  -5.940  -4.936  0.00  0.00     0.002 A 
ATOM      6  C8  UNL d   1       2.831  -5.990  -3.761  0.00  0.00     0.002 A 
ENDROOT
BRANCH   1   7
ATOM      7  C2  UNL d   1       4.775  -5.233  -2.335  0.00  0.00     0.056 C 
BRANCH   7   8
ATOM      8  C1  UNL d   1       4.090  -5.996  -1.196  0.00  0.00     0.007 C 
ATOM      9  C   UNL d   1       2.641  -5.581  -0.982  0.00  0.00     0.009 C 
ENDBRANCH   7   8
ENDBRANCH   1   7
TORSDOF 2
ENDMDL
