MODEL 1
REMARK minimizedAffinity 0.287708074
REMARK minimizedRMSD -1
REMARK  2 active torsions:
REMARK  status: ('A' for Active; 'I' for Inactive)
REMARK    1  A    between atoms: C1_2  and  C2_3 
REMARK    2  A    between atoms: C2_3  and  C3_4 
ROOT
ATOM      1  C3  UNL d   1       3.584  -5.570  -5.231  0.00  0.00    -0.075 A 
ATOM      2  C4  UNL d   1       4.782  -5.277  -5.898  0.00  0.00     0.002 A 
ATOM      3  C5  UNL d   1       5.920  -4.906  -5.181  0.00  0.00     0.002 A 
ATOM      4  C6  UNL d   1       5.872  -4.815  -3.792  0.00  0.00    -0.004 A 
ATOM      5  C7  UNL d   1       4.683  -5.088  -3.120  0.00  0.00     0.002 A 
ATOM      6  C8  UNL d   1       3.544  -5.463  -3.834  0.00  0.00     0.002 A 
ENDROOT
BRANCH   1   7
ATOM      7  C2  UNL d   1       2.357  -6.000  -5.999  0.00  0.00     0.056 C 
BRANCH   7   8
ATOM      8  C1  UNL d   1       1.035  -5.577  -5.350  0.00  0.00     0.007 C 
ATOM      9  C   UNL d   1       0.416  -4.344  -5.995  0.00  0.00     0.009 C 
ENDBRANCH   7   8
ENDBRANCH   1   7
TORSDOF 2
ENDMDL
