MODEL 1
REMARK minimizedAffinity -0.623461008
REMARK minimizedRMSD -1
REMARK  2 active torsions:
REMARK  status: ('A' for Active; 'I' for Inactive)
REMARK    1  A    between atoms: C1_2  and  C2_3 
REMARK    2  A    between atoms: C2_3  and  C3_4 
ROOT
ATOM      1  C3  UNL d   1       4.362  -5.630  -4.274  0.00  0.00    -0.075 A 
ATOM      2  C4  UNL d   1       5.696  -5.675  -3.841  0.00  0.00     0.002 A 
ATOM      3  C5  UNL d   1       5.996  -5.863  -2.492  0.00  0.00     0.002 A 
ATOM      4  C6  UNL d   1       4.970  -5.997  -1.559  0.00  0.00    -0.004 A 
ATOM      5  C7  UNL d   1       3.642  -5.937  -1.975  0.00  0.00     0.002 A 
ATOM      6  C8  UNL d   1       3.339  -5.754  -3.326  0.00  0.00     0.002 A 
ENDROOT
BRANCH   1   7
ATOM      7  C2  UNL d   1       4.031  -5.457  -5.737  0.00  0.00     0.056 C 
BRANCH   7   8
ATOM      8  C1  UNL d   1       2.622  -4.912  -5.997  0.00  0.00     0.007 C 
ATOM      9  C   UNL d   1       1.551  -5.994  -5.998  0.00  0.00     0.009 C 
ENDBRANCH   7   8
ENDBRANCH   1   7
TORSDOF 2
ENDMDL
