MODEL 1
REMARK minimizedAffinity 4.29097128
REMARK minimizedRMSD -1
REMARK  2 active torsions:
REMARK  status: ('A' for Active; 'I' for Inactive)
REMARK    1  A    between atoms: C1_2  and  C2_3 
REMARK    2  A    between atoms: C2_3  and  C3_4 
ROOT
ATOM      1  C3  UNL d   1       1.031   2.687   1.467  0.00  0.00    -0.075 A 
ATOM      2  C4  UNL d   1       1.285   1.588   0.633  0.00  0.00     0.002 A 
ATOM      3  C5  UNL d   1       2.595   1.208   0.341  0.00  0.00     0.002 A 
ATOM      4  C6  UNL d   1       3.666   1.926   0.868  0.00  0.00    -0.004 A 
ATOM      5  C7  UNL d   1       3.426   3.030   1.684  0.00  0.00     0.002 A 
ATOM      6  C8  UNL d   1       2.116   3.410   1.982  0.00  0.00     0.002 A 
ENDROOT
BRANCH   1   7
ATOM      7  C2  UNL d   1      -0.384   3.086   1.811  0.00  0.00     0.056 C 
BRANCH   7   8
ATOM      8  C1  UNL d   1      -1.326   3.147   0.604  0.00  0.00     0.007 C 
ATOM      9  C   UNL d   1      -2.757   2.750   0.938  0.00  0.00     0.009 C 
ENDBRANCH   7   8
ENDBRANCH   1   7
TORSDOF 2
ENDMDL
