MODEL 1
REMARK minimizedAffinity 9.43887806
REMARK minimizedRMSD -1
REMARK  2 active torsions:
REMARK  status: ('A' for Active; 'I' for Inactive)
REMARK    1  A    between atoms: C1_2  and  C2_3 
REMARK    2  A    between atoms: C2_3  and  C3_4 
ROOT
ATOM      1  C3  UNL d   1       3.050  -5.516  -2.949  0.00  0.00    -0.075 A 
ATOM      2  C4  UNL d   1       2.706  -4.994  -4.204  0.00  0.00     0.002 A 
ATOM      3  C5  UNL d   1       3.641  -4.966  -5.239  0.00  0.00     0.002 A 
ATOM      4  C6  UNL d   1       4.931  -5.448  -5.030  0.00  0.00    -0.004 A 
ATOM      5  C7  UNL d   1       5.288  -5.954  -3.782  0.00  0.00     0.002 A 
ATOM      6  C8  UNL d   1       4.354  -5.987  -2.746  0.00  0.00     0.002 A 
ENDROOT
BRANCH   1   7
ATOM      7  C2  UNL d   1       2.034  -5.577  -1.833  0.00  0.00     0.056 C 
BRANCH   7   8
ATOM      8  C1  UNL d   1       0.712  -4.872  -2.154  0.00  0.00     0.007 C 
ATOM      9  C   UNL d   1      -0.426  -5.279  -1.228  0.00  0.00     0.009 C 
ENDBRANCH   7   8
ENDBRANCH   1   7
TORSDOF 2
ENDMDL
