MODEL 1
REMARK minimizedAffinity -1.8458668
REMARK minimizedRMSD -1
REMARK  2 active torsions:
REMARK  status: ('A' for Active; 'I' for Inactive)
REMARK    1  A    between atoms: C1_2  and  C2_3 
REMARK    2  A    between atoms: C2_3  and  C3_4 
ROOT
ATOM      1  C3  UNL d   1      -3.221   3.175  -5.767  0.00  0.00    -0.075 A 
ATOM      2  C4  UNL d   1      -4.092   2.080  -5.665  0.00  0.00     0.002 A 
ATOM      3  C5  UNL d   1      -5.472   2.263  -5.743  0.00  0.00     0.002 A 
ATOM      4  C6  UNL d   1      -6.000   3.541  -5.913  0.00  0.00    -0.004 A 
ATOM      5  C7  UNL d   1      -5.145   4.638  -6.000  0.00  0.00     0.002 A 
ATOM      6  C8  UNL d   1      -3.763   4.457  -5.927  0.00  0.00     0.002 A 
ENDROOT
BRANCH   1   7
ATOM      7  C2  UNL d   1      -1.725   2.980  -5.713  0.00  0.00     0.056 C 
BRANCH   7   8
ATOM      8  C1  UNL d   1      -1.108   3.262  -4.339  0.00  0.00     0.007 C 
ATOM      9  C   UNL d   1       0.193   2.509  -4.099  0.00  0.00     0.009 C 
ENDBRANCH   7   8
ENDBRANCH   1   7
TORSDOF 2
ENDMDL
