MODEL 1
REMARK minimizedAffinity 8.6764946
REMARK minimizedRMSD -1
REMARK  2 active torsions:
REMARK  status: ('A' for Active; 'I' for Inactive)
REMARK    1  A    between atoms: C1_2  and  C2_3 
REMARK    2  A    between atoms: C2_3  and  C3_4 
ROOT
ATOM      1  C3  UNL d   1       2.100   1.460   0.651  0.00  0.00    -0.075 A 
ATOM      2  C4  UNL d   1       2.761   1.115  -0.536  0.00  0.00     0.002 A 
ATOM      3  C5  UNL d   1       4.154   1.153  -0.608  0.00  0.00     0.002 A 
ATOM      4  C6  UNL d   1       4.901   1.546   0.500  0.00  0.00    -0.004 A 
ATOM      5  C7  UNL d   1       4.254   1.907   1.680  0.00  0.00     0.002 A 
ATOM      6  C8  UNL d   1       2.861   1.865   1.756  0.00  0.00     0.002 A 
ENDROOT
BRANCH   1   7
ATOM      7  C2  UNL d   1       0.594   1.392   0.745  0.00  0.00     0.056 C 
BRANCH   7   8
ATOM      8  C1  UNL d   1      -0.102   2.750   0.600  0.00  0.00     0.007 C 
ATOM      9  C   UNL d   1      -0.973   3.109   1.795  0.00  0.00     0.009 C 
ENDBRANCH   7   8
ENDBRANCH   1   7
TORSDOF 2
ENDMDL
