MODEL 1
REMARK minimizedAffinity 0.907390475
REMARK minimizedRMSD -1
REMARK  2 active torsions:
REMARK  status: ('A' for Active; 'I' for Inactive)
REMARK    1  A    between atoms: C1_2  and  C2_3 
REMARK    2  A    between atoms: C2_3  and  C3_4 
ROOT
ATOM      1  C3  UNL d   1       0.225   2.498   1.548  0.00  0.00    -0.075 A 
ATOM      2  C4  UNL d   1       0.276   1.391   0.688  0.00  0.00     0.002 A 
ATOM      3  C5  UNL d   1       1.502   0.890   0.251  0.00  0.00     0.002 A 
ATOM      4  C6  UNL d   1       2.690   1.494   0.658  0.00  0.00    -0.004 A 
ATOM      5  C7  UNL d   1       2.650   2.604   1.499  0.00  0.00     0.002 A 
ATOM      6  C8  UNL d   1       1.425   3.105   1.941  0.00  0.00     0.002 A 
ENDROOT
BRANCH   1   7
ATOM      7  C2  UNL d   1      -1.098   3.027   2.048  0.00  0.00     0.056 C 
BRANCH   7   8
ATOM      8  C1  UNL d   1      -2.135   3.259   0.944  0.00  0.00     0.007 C 
ATOM      9  C   UNL d   1      -1.568   3.985  -0.269  0.00  0.00     0.009 C 
ENDBRANCH   7   8
ENDBRANCH   1   7
TORSDOF 2
ENDMDL
