MODEL 1
REMARK minimizedAffinity -1.09636879
REMARK minimizedRMSD -1
REMARK  2 active torsions:
REMARK  status: ('A' for Active; 'I' for Inactive)
REMARK    1  A    between atoms: C1_2  and  C2_3 
REMARK    2  A    between atoms: C2_3  and  C3_4 
ROOT
ATOM      1  C3  UNL d   1       3.626  -5.623  -3.593  0.00  0.00    -0.075 A 
ATOM      2  C4  UNL d   1       4.955  -5.673  -3.147  0.00  0.00     0.002 A 
ATOM      3  C5  UNL d   1       6.000  -5.855  -4.053  0.00  0.00     0.002 A 
ATOM      4  C6  UNL d   1       5.730  -6.000  -5.412  0.00  0.00    -0.004 A 
ATOM      5  C7  UNL d   1       4.413  -5.968  -5.865  0.00  0.00     0.002 A 
ATOM      6  C8  UNL d   1       3.366  -5.782  -4.961  0.00  0.00     0.002 A 
ENDROOT
BRANCH   1   7
ATOM      7  C2  UNL d   1       2.493  -5.396  -2.621  0.00  0.00     0.056 C 
BRANCH   7   8
ATOM      8  C1  UNL d   1       1.201  -4.894  -3.275  0.00  0.00     0.007 C 
ATOM      9  C   UNL d   1       0.118  -4.537  -2.267  0.00  0.00     0.009 C 
ENDBRANCH   7   8
ENDBRANCH   1   7
TORSDOF 2
ENDMDL
