MODEL 1
REMARK minimizedAffinity 1.98454249
REMARK minimizedRMSD -1
REMARK  2 active torsions:
REMARK  status: ('A' for Active; 'I' for Inactive)
REMARK    1  A    between atoms: C1_2  and  C2_3 
REMARK    2  A    between atoms: C2_3  and  C3_4 
ROOT
ATOM      1  C3  UNL d   1       2.335   3.013   1.504  0.00  0.00    -0.075 A 
ATOM      2  C4  UNL d   1       3.121   2.115   0.768  0.00  0.00     0.002 A 
ATOM      3  C5  UNL d   1       2.526   1.087   0.036  0.00  0.00     0.002 A 
ATOM      4  C6  UNL d   1       1.141   0.937   0.039  0.00  0.00    -0.004 A 
ATOM      5  C7  UNL d   1       0.351   1.814   0.780  0.00  0.00     0.002 A 
ATOM      6  C8  UNL d   1       0.943   2.846   1.509  0.00  0.00     0.002 A 
ENDROOT
BRANCH   1   7
ATOM      7  C2  UNL d   1       2.971   4.145   2.274  0.00  0.00     0.056 C 
BRANCH   7   8
ATOM      8  C1  UNL d   1       3.637   5.204   1.389  0.00  0.00     0.007 C 
ATOM      9  C   UNL d   1       4.715   6.000   2.114  0.00  0.00     0.009 C 
ENDBRANCH   7   8
ENDBRANCH   1   7
TORSDOF 2
ENDMDL
