MODEL 1
REMARK minimizedAffinity 6.54734993
REMARK minimizedRMSD -1
REMARK  0 active torsions:
REMARK  status: ('A' for Active; 'I' for Inactive)
ROOT
ATOM      1  C2' OXE d   1       0.955   0.278   3.373  0.00  0.00     0.078 C 
ATOM      2  C1' OXE d   1       3.089   2.091   3.177  0.00  0.00     0.078 C 
ATOM      3  C1  OXE d   1       1.862   2.355   2.340  0.00  0.00    -0.078 A 
ATOM      4  C2  OXE d   1       0.842   1.437   2.407  0.00  0.00    -0.078 A 
ATOM      5  C3  OXE d   1      -0.334   1.661   1.697  0.00  0.00     0.003 A 
ATOM      6  C4  OXE d   1      -0.427   2.731   0.798  0.00  0.00    -0.002 A 
ATOM      7  C5  OXE d   1       0.617   3.656   0.685  0.00  0.00    -0.002 A 
ATOM      8  C6  OXE d   1       1.749   3.506   1.479  0.00  0.00     0.003 A 
ENDROOT
TORSDOF 0
ENDMDL
