MODEL 1
REMARK minimizedAffinity 7.23376894
REMARK minimizedRMSD -1
REMARK  0 active torsions:
REMARK  status: ('A' for Active; 'I' for Inactive)
ROOT
ATOM      1  C2' OXE d   1       1.892  -5.976  -1.211  0.00  0.00     0.078 C 
ATOM      2  C1' OXE d   1       3.930  -5.278   0.589  0.00  0.00     0.078 C 
ATOM      3  C1  OXE d   1       4.135  -4.947  -0.868  0.00  0.00    -0.078 A 
ATOM      4  C2  OXE d   1       3.153  -5.334  -1.748  0.00  0.00    -0.078 A 
ATOM      5  C3  OXE d   1       3.266  -5.005  -3.096  0.00  0.00     0.003 A 
ATOM      6  C4  OXE d   1       4.440  -4.421  -3.587  0.00  0.00    -0.002 A 
ATOM      7  C5  OXE d   1       5.469  -4.054  -2.713  0.00  0.00    -0.002 A 
ATOM      8  C6  OXE d   1       5.315  -4.271  -1.348  0.00  0.00     0.003 A 
ENDROOT
TORSDOF 0
ENDMDL
