MODEL 1
REMARK minimizedAffinity 10.3142967
REMARK minimizedRMSD -1
REMARK  0 active torsions:
REMARK  status: ('A' for Active; 'I' for Inactive)
ROOT
ATOM      1  C2' OXE d   1      -2.073   3.733   0.923  0.00  0.00     0.078 C 
ATOM      2  C1' OXE d   1       0.507   2.630   0.858  0.00  0.00     0.078 C 
ATOM      3  C1  OXE d   1       0.212   3.783  -0.067  0.00  0.00    -0.078 A 
ATOM      4  C2  OXE d   1      -1.067   4.286  -0.063  0.00  0.00    -0.078 A 
ATOM      5  C3  OXE d   1      -1.378   5.386  -0.857  0.00  0.00     0.003 A 
ATOM      6  C4  OXE d   1      -0.444   5.885  -1.773  0.00  0.00    -0.002 A 
ATOM      7  C5  OXE d   1       0.852   5.362  -1.823  0.00  0.00    -0.002 A 
ATOM      8  C6  OXE d   1       1.208   4.341  -0.948  0.00  0.00     0.003 A 
ENDROOT
TORSDOF 0
ENDMDL
