MODEL 1
REMARK minimizedAffinity 14.9735622
REMARK minimizedRMSD -1
REMARK  0 active torsions:
REMARK  status: ('A' for Active; 'I' for Inactive)
ROOT
ATOM      1  C2' OXE d   1       0.420   2.058   0.192  0.00  0.00     0.078 C 
ATOM      2  C1' OXE d   1      -2.212   3.030   0.106  0.00  0.00     0.078 C 
ATOM      3  C1  OXE d   1      -1.161   3.773  -0.681  0.00  0.00    -0.078 A 
ATOM      4  C2  OXE d   1       0.132   3.318  -0.596  0.00  0.00    -0.078 A 
ATOM      5  C3  OXE d   1       1.131   3.934  -1.345  0.00  0.00     0.003 A 
ATOM      6  C4  OXE d   1       0.858   5.105  -2.062  0.00  0.00    -0.002 A 
ATOM      7  C5  OXE d   1      -0.446   5.608  -2.131  0.00  0.00    -0.002 A 
ATOM      8  C6  OXE d   1      -1.472   4.931  -1.482  0.00  0.00     0.003 A 
ENDROOT
TORSDOF 0
ENDMDL
