MODEL 1
REMARK minimizedAffinity -1.0219276
REMARK minimizedRMSD -1
REMARK  1 active torsions:
REMARK  status: ('A' for Active; 'I' for Inactive)
REMARK    1  A    between atoms: C1_2  and  C2_3 
ROOT
ATOM      1  C2  UNL d   1       0.696   1.134   0.442  0.00  0.00    -0.073 A 
ATOM      2  C3  UNL d   1       2.014   1.149  -0.029  0.00  0.00    -0.002 A 
ATOM      3  C4  UNL d   1       2.874   2.192   0.317  0.00  0.00     0.004 A 
ATOM      4  C5  UNL d   1       2.428   3.225   1.142  0.00  0.00    -0.004 A 
ATOM      5  C6  UNL d   1       1.118   3.221   1.632  0.00  0.00    -0.075 A 
ATOM      6  C7  UNL d   1       0.623   4.326   2.519  0.00  0.00     0.076 C 
ATOM      7  C8  UNL d   1       0.260   2.172   1.278  0.00  0.00     0.001 A 
ENDROOT
BRANCH   1   8
ATOM      8  C1  UNL d   1      -0.235   0.006   0.077  0.00  0.00     0.053 C 
ATOM      9  C   UNL d   1      -0.961  -0.550   1.291  0.00  0.00     0.018 C 
ENDBRANCH   1   8
TORSDOF 1
ENDMDL
