MODEL 1
REMARK minimizedAffinity 10.9324617
REMARK minimizedRMSD -1
REMARK  1 active torsions:
REMARK  status: ('A' for Active; 'I' for Inactive)
REMARK    1  A    between atoms: C1_2  and  C2_3 
ROOT
ATOM      1  C2  UNL d   1       2.397   3.281   0.858  0.00  0.00    -0.073 A 
ATOM      2  C3  UNL d   1       3.237   2.183   0.639  0.00  0.00    -0.002 A 
ATOM      3  C4  UNL d   1       4.279   2.266  -0.286  0.00  0.00     0.004 A 
ATOM      4  C5  UNL d   1       4.495   3.447  -0.996  0.00  0.00    -0.004 A 
ATOM      5  C6  UNL d   1       3.674   4.558  -0.782  0.00  0.00    -0.075 A 
ATOM      6  C7  UNL d   1       3.892   5.835  -1.539  0.00  0.00     0.076 C 
ATOM      7  C8  UNL d   1       2.628   4.467   0.146  0.00  0.00     0.001 A 
ENDROOT
BRANCH   1   8
ATOM      8  C1  UNL d   1       1.275   3.198   1.861  0.00  0.00     0.053 C 
ATOM      9  C   UNL d   1       0.549   4.525   2.014  0.00  0.00     0.018 C 
ENDBRANCH   1   8
TORSDOF 1
ENDMDL
