MODEL 1
REMARK minimizedAffinity 6.55588007
REMARK minimizedRMSD -1
REMARK  1 active torsions:
REMARK  status: ('A' for Active; 'I' for Inactive)
REMARK    1  A    between atoms: C1_2  and  C2_3 
ROOT
ATOM      1  C2  UNL d   1      -1.384  -2.472  -0.918  0.00  0.00    -0.073 A 
ATOM      2  C3  UNL d   1      -0.383  -1.600  -1.362  0.00  0.00    -0.002 A 
ATOM      3  C4  UNL d   1       0.157  -0.648  -0.496  0.00  0.00     0.004 A 
ATOM      4  C5  UNL d   1      -0.291  -0.563   0.822  0.00  0.00    -0.004 A 
ATOM      5  C6  UNL d   1      -1.282  -1.434   1.288  0.00  0.00    -0.075 A 
ATOM      6  C7  UNL d   1      -1.776  -1.354   2.702  0.00  0.00     0.076 C 
ATOM      7  C8  UNL d   1      -1.822  -2.385   0.412  0.00  0.00     0.001 A 
ENDROOT
BRANCH   1   8
ATOM      8  C1  UNL d   1      -1.967  -3.505  -1.847  0.00  0.00     0.053 C 
ATOM      9  C   UNL d   1      -1.233  -3.552  -3.178  0.00  0.00     0.018 C 
ENDBRANCH   1   8
TORSDOF 1
ENDMDL
