MODEL 1
REMARK minimizedAffinity -2.35791516
REMARK minimizedRMSD -1
REMARK  1 active torsions:
REMARK  status: ('A' for Active; 'I' for Inactive)
REMARK    1  A    between atoms: C1_2  and  C2_3 
ROOT
ATOM      1  C2  UNL d   1       0.783   1.476   0.276  0.00  0.00    -0.073 A 
ATOM      2  C3  UNL d   1       0.130   2.712   0.218  0.00  0.00    -0.002 A 
ATOM      3  C4  UNL d   1       0.754   3.862   0.703  0.00  0.00     0.004 A 
ATOM      4  C5  UNL d   1       2.037   3.790   1.244  0.00  0.00    -0.004 A 
ATOM      5  C6  UNL d   1       2.711   2.566   1.300  0.00  0.00    -0.075 A 
ATOM      6  C7  UNL d   1       4.091   2.470   1.881  0.00  0.00     0.076 C 
ATOM      7  C8  UNL d   1       2.077   1.414   0.814  0.00  0.00     0.001 A 
ENDROOT
BRANCH   1   8
ATOM      8  C1  UNL d   1       0.116   0.232  -0.252  0.00  0.00     0.053 C 
ATOM      9  C   UNL d   1      -1.070  -0.186   0.602  0.00  0.00     0.018 C 
ENDBRANCH   1   8
TORSDOF 1
ENDMDL
