MODEL 1
REMARK minimizedAffinity -3.91037393
REMARK minimizedRMSD -1
REMARK  1 active torsions:
REMARK  status: ('A' for Active; 'I' for Inactive)
REMARK    1  A    between atoms: C1_2  and  C2_3 
ROOT
ATOM      1  C2  UNL d   1      -0.684  -2.666  -0.469  0.00  0.00    -0.073 A 
ATOM      2  C3  UNL d   1      -0.625  -3.083  -1.804  0.00  0.00    -0.002 A 
ATOM      3  C4  UNL d   1      -1.663  -3.838  -2.353  0.00  0.00     0.004 A 
ATOM      4  C5  UNL d   1      -2.771  -4.177  -1.577  0.00  0.00    -0.004 A 
ATOM      5  C6  UNL d   1      -2.854  -3.759  -0.245  0.00  0.00    -0.075 A 
ATOM      6  C7  UNL d   1      -4.039  -4.118   0.603  0.00  0.00     0.076 C 
ATOM      7  C8  UNL d   1      -1.807  -3.004   0.300  0.00  0.00     0.001 A 
ENDROOT
BRANCH   1   8
ATOM      8  C1  UNL d   1       0.430  -1.846   0.127  0.00  0.00     0.053 C 
ATOM      9  C   UNL d   1       0.057  -0.377   0.244  0.00  0.00     0.018 C 
ENDBRANCH   1   8
TORSDOF 1
ENDMDL
