MODEL 1
REMARK minimizedAffinity -2.38197184
REMARK minimizedRMSD -1
REMARK  1 active torsions:
REMARK  status: ('A' for Active; 'I' for Inactive)
REMARK    1  A    between atoms: C1_2  and  C2_3 
ROOT
ATOM      1  C2  UNL d   1      -0.099   0.511   0.451  0.00  0.00    -0.073 A 
ATOM      2  C3  UNL d   1      -0.648  -0.207   1.519  0.00  0.00    -0.002 A 
ATOM      3  C4  UNL d   1      -1.005  -1.546   1.360  0.00  0.00     0.004 A 
ATOM      4  C5  UNL d   1      -0.809  -2.184   0.135  0.00  0.00    -0.004 A 
ATOM      5  C6  UNL d   1      -0.251  -1.487  -0.942  0.00  0.00    -0.075 A 
ATOM      6  C7  UNL d   1      -0.036  -2.157  -2.267  0.00  0.00     0.076 C 
ATOM      7  C8  UNL d   1       0.102  -0.141  -0.775  0.00  0.00     0.001 A 
ENDROOT
BRANCH   1   8
ATOM      8  C1  UNL d   1       0.293   1.956   0.620  0.00  0.00     0.053 C 
ATOM      9  C   UNL d   1       1.777   2.177   0.371  0.00  0.00     0.018 C 
ENDBRANCH   1   8
TORSDOF 1
ENDMDL
