MODEL 1
REMARK minimizedAffinity -0.77686584
REMARK minimizedRMSD -1
REMARK  1 active torsions:
REMARK  status: ('A' for Active; 'I' for Inactive)
REMARK    1  A    between atoms: C1_2  and  C2_3 
ROOT
ATOM      1  C2  UNL d   1      -0.236   0.845   0.403  0.00  0.00    -0.073 A 
ATOM      2  C3  UNL d   1      -0.796  -0.075   1.296  0.00  0.00    -0.002 A 
ATOM      3  C4  UNL d   1      -1.023  -1.393   0.900  0.00  0.00     0.004 A 
ATOM      4  C5  UNL d   1      -0.686  -1.807  -0.389  0.00  0.00    -0.004 A 
ATOM      5  C6  UNL d   1      -0.114  -0.906  -1.292  0.00  0.00    -0.075 A 
ATOM      6  C7  UNL d   1       0.252  -1.335  -2.683  0.00  0.00     0.076 C 
ATOM      7  C8  UNL d   1       0.108   0.417  -0.888  0.00  0.00     0.001 A 
ENDROOT
BRANCH   1   8
ATOM      8  C1  UNL d   1       0.017   2.269   0.828  0.00  0.00     0.053 C 
ATOM      9  C   UNL d   1       1.493   2.628   0.767  0.00  0.00     0.018 C 
ENDBRANCH   1   8
TORSDOF 1
ENDMDL
