MODEL 1
REMARK minimizedAffinity 2.6494081
REMARK minimizedRMSD -1
REMARK  1 active torsions:
REMARK  status: ('A' for Active; 'I' for Inactive)
REMARK    1  A    between atoms: C1_2  and  C2_3 
ROOT
ATOM      1  C2  UNL d   1      -1.638   0.202   0.085  0.00  0.00    -0.073 A 
ATOM      2  C3  UNL d   1      -1.776  -1.167   0.338  0.00  0.00    -0.002 A 
ATOM      3  C4  UNL d   1      -0.885  -2.081  -0.226  0.00  0.00     0.004 A 
ATOM      4  C5  UNL d   1       0.155  -1.637  -1.042  0.00  0.00    -0.004 A 
ATOM      5  C6  UNL d   1       0.317  -0.271  -1.297  0.00  0.00    -0.075 A 
ATOM      6  C7  UNL d   1       1.429   0.223  -2.175  0.00  0.00     0.076 C 
ATOM      7  C8  UNL d   1      -0.584   0.641  -0.730  0.00  0.00     0.001 A 
ENDROOT
BRANCH   1   8
ATOM      8  C1  UNL d   1      -2.593   1.194   0.696  0.00  0.00     0.053 C 
ATOM      9  C   UNL d   1      -3.363   0.598   1.865  0.00  0.00     0.018 C 
ENDBRANCH   1   8
TORSDOF 1
ENDMDL
