MODEL 1
REMARK minimizedAffinity -3.5136137
REMARK minimizedRMSD -1
REMARK  1 active torsions:
REMARK  status: ('A' for Active; 'I' for Inactive)
REMARK    1  A    between atoms: C1_2  and  C2_3 
ROOT
ATOM      1  C2  UNL d   1       0.134  -0.431   0.755  0.00  0.00    -0.073 A 
ATOM      2  C3  UNL d   1      -0.467   0.021  -0.425  0.00  0.00    -0.002 A 
ATOM      3  C4  UNL d   1      -0.150   1.279  -0.941  0.00  0.00     0.004 A 
ATOM      4  C5  UNL d   1       0.775   2.092  -0.288  0.00  0.00    -0.004 A 
ATOM      5  C6  UNL d   1       1.396   1.653   0.886  0.00  0.00    -0.075 A 
ATOM      6  C7  UNL d   1       2.391   2.518   1.602  0.00  0.00     0.076 C 
ATOM      7  C8  UNL d   1       1.070   0.391   1.399  0.00  0.00     0.001 A 
ENDROOT
BRANCH   1   8
ATOM      8  C1  UNL d   1      -0.200  -1.790   1.312  0.00  0.00     0.053 C 
ATOM      9  C   UNL d   1      -1.092  -2.588   0.373  0.00  0.00     0.018 C 
ENDBRANCH   1   8
TORSDOF 1
ENDMDL
