MODEL 1
REMARK minimizedAffinity -2.97152901
REMARK minimizedRMSD -1
REMARK  1 active torsions:
REMARK  status: ('A' for Active; 'I' for Inactive)
REMARK    1  A    between atoms: C1_2  and  C2_3 
ROOT
ATOM      1  C2  UNL d   1       0.260   1.203   0.400  0.00  0.00    -0.073 A 
ATOM      2  C3  UNL d   1      -0.308   0.549   1.500  0.00  0.00    -0.002 A 
ATOM      3  C4  UNL d   1      -0.704  -0.785   1.399  0.00  0.00     0.004 A 
ATOM      4  C5  UNL d   1      -0.532  -1.480   0.202  0.00  0.00    -0.004 A 
ATOM      5  C6  UNL d   1       0.044  -0.847  -0.904  0.00  0.00    -0.075 A 
ATOM      6  C7  UNL d   1       0.235  -1.580  -2.200  0.00  0.00     0.076 C 
ATOM      7  C8  UNL d   1       0.438   0.494  -0.796  0.00  0.00     0.001 A 
ENDROOT
BRANCH   1   8
ATOM      8  C1  UNL d   1       0.696   2.642   0.507  0.00  0.00     0.053 C 
ATOM      9  C   UNL d   1       2.203   2.771   0.660  0.00  0.00     0.018 C 
ENDBRANCH   1   8
TORSDOF 1
ENDMDL
