MODEL 1
REMARK minimizedAffinity -4.42233086
REMARK minimizedRMSD -1
REMARK  1 active torsions:
REMARK  status: ('A' for Active; 'I' for Inactive)
REMARK    1  A    between atoms: C1_2  and  C2_3 
ROOT
ATOM      1  C2  UNL d   1      -0.701  -2.033  -0.817  0.00  0.00    -0.073 A 
ATOM      2  C3  UNL d   1      -0.958  -2.602   0.435  0.00  0.00    -0.002 A 
ATOM      3  C4  UNL d   1      -0.695  -1.884   1.603  0.00  0.00     0.004 A 
ATOM      4  C5  UNL d   1      -0.179  -0.590   1.530  0.00  0.00    -0.004 A 
ATOM      5  C6  UNL d   1       0.074  -0.001   0.287  0.00  0.00    -0.075 A 
ATOM      6  C7  UNL d   1       0.632   1.389   0.191  0.00  0.00     0.076 C 
ATOM      7  C8  UNL d   1      -0.191  -0.729  -0.881  0.00  0.00     0.001 A 
ENDROOT
BRANCH   1   8
ATOM      8  C1  UNL d   1      -0.990  -2.802  -2.081  0.00  0.00     0.053 C 
ATOM      9  C   UNL d   1      -0.140  -2.323  -3.247  0.00  0.00     0.018 C 
ENDBRANCH   1   8
TORSDOF 1
ENDMDL
