MODEL 1
REMARK minimizedAffinity -4.98281574
REMARK minimizedRMSD -1
REMARK  1 active torsions:
REMARK  status: ('A' for Active; 'I' for Inactive)
REMARK    1  A    between atoms: C1_2  and  C2_3 
ROOT
ATOM      1  C2  UNL d   1      -0.208  -1.829   0.091  0.00  0.00    -0.073 A 
ATOM      2  C3  UNL d   1       0.562  -0.917  -0.639  0.00  0.00    -0.002 A 
ATOM      3  C4  UNL d   1       0.219   0.436  -0.662  0.00  0.00     0.004 A 
ATOM      4  C5  UNL d   1      -0.892   0.891   0.048  0.00  0.00    -0.004 A 
ATOM      5  C6  UNL d   1      -1.667  -0.004   0.793  0.00  0.00    -0.075 A 
ATOM      6  C7  UNL d   1      -2.867   0.469   1.560  0.00  0.00     0.076 C 
ATOM      7  C8  UNL d   1      -1.318  -1.361   0.809  0.00  0.00     0.001 A 
ENDROOT
BRANCH   1   8
ATOM      8  C1  UNL d   1       0.162  -3.289   0.124  0.00  0.00     0.053 C 
ATOM      9  C   UNL d   1      -0.026  -3.956  -1.229  0.00  0.00     0.018 C 
ENDBRANCH   1   8
TORSDOF 1
ENDMDL
