MODEL 1
REMARK minimizedAffinity -3.56783009
REMARK minimizedRMSD -1
REMARK  1 active torsions:
REMARK  status: ('A' for Active; 'I' for Inactive)
REMARK    1  A    between atoms: C1_2  and  C2_3 
ROOT
ATOM      1  C2  UNL d   1      -0.254  -1.604  -1.373  0.00  0.00    -0.073 A 
ATOM      2  C3  UNL d   1      -0.774  -2.427  -0.368  0.00  0.00    -0.002 A 
ATOM      3  C4  UNL d   1      -1.114  -1.891   0.876  0.00  0.00     0.004 A 
ATOM      4  C5  UNL d   1      -0.944  -0.529   1.123  0.00  0.00    -0.004 A 
ATOM      5  C6  UNL d   1      -0.437   0.311   0.127  0.00  0.00    -0.075 A 
ATOM      6  C7  UNL d   1      -0.246   1.778   0.378  0.00  0.00     0.076 C 
ATOM      7  C8  UNL d   1      -0.096  -0.235  -1.118  0.00  0.00     0.001 A 
ENDROOT
BRANCH   1   8
ATOM      8  C1  UNL d   1       0.108  -2.177  -2.719  0.00  0.00     0.053 C 
ATOM      9  C   UNL d   1      -0.630  -3.475  -3.004  0.00  0.00     0.018 C 
ENDBRANCH   1   8
TORSDOF 1
ENDMDL
