MODEL 1
REMARK minimizedAffinity -4.20996094
REMARK minimizedRMSD -1
REMARK  1 active torsions:
REMARK  status: ('A' for Active; 'I' for Inactive)
REMARK    1  A    between atoms: C1_2  and  C2_3 
ROOT
ATOM      1  C2  UNL d   1      -0.740  -1.836  -0.463  0.00  0.00    -0.073 A 
ATOM      2  C3  UNL d   1      -1.279  -2.146   0.791  0.00  0.00    -0.002 A 
ATOM      3  C4  UNL d   1      -1.346  -1.173   1.789  0.00  0.00     0.004 A 
ATOM      4  C5  UNL d   1      -0.882   0.119   1.542  0.00  0.00    -0.004 A 
ATOM      5  C6  UNL d   1      -0.351   0.451   0.292  0.00  0.00    -0.075 A 
ATOM      6  C7  UNL d   1       0.154   1.836   0.011  0.00  0.00     0.076 C 
ATOM      7  C8  UNL d   1      -0.284  -0.532  -0.705  0.00  0.00     0.001 A 
ENDROOT
BRANCH   1   8
ATOM      8  C1  UNL d   1      -0.671  -2.882  -1.546  0.00  0.00     0.053 C 
ATOM      9  C   UNL d   1      -0.184  -2.305  -2.865  0.00  0.00     0.018 C 
ENDBRANCH   1   8
TORSDOF 1
ENDMDL
