MODEL 1
REMARK minimizedAffinity -3.28187799
REMARK minimizedRMSD -1
REMARK  1 active torsions:
REMARK  status: ('A' for Active; 'I' for Inactive)
REMARK    1  A    between atoms: C1_2  and  C2_3 
ROOT
ATOM      1  C2  UNL d   1       0.245   1.640   0.370  0.00  0.00    -0.073 A 
ATOM      2  C3  UNL d   1      -0.559   0.910   1.253  0.00  0.00    -0.002 A 
ATOM      3  C4  UNL d   1      -1.218  -0.241   0.819  0.00  0.00     0.004 A 
ATOM      4  C5  UNL d   1      -1.075  -0.677  -0.498  0.00  0.00    -0.004 A 
ATOM      5  C6  UNL d   1      -0.266   0.032  -1.392  0.00  0.00    -0.075 A 
ATOM      6  C7  UNL d   1      -0.103  -0.423  -2.813  0.00  0.00     0.076 C 
ATOM      7  C8  UNL d   1       0.390   1.188  -0.950  0.00  0.00     0.001 A 
ENDROOT
BRANCH   1   8
ATOM      8  C1  UNL d   1       0.964   2.880   0.836  0.00  0.00     0.053 C 
ATOM      9  C   UNL d   1       2.400   2.926   0.340  0.00  0.00     0.018 C 
ENDBRANCH   1   8
TORSDOF 1
ENDMDL
