MODEL 1
REMARK minimizedAffinity 5.44268513
REMARK minimizedRMSD -1
REMARK  3 active torsions:
REMARK  status: ('A' for Active; 'I' for Inactive)
REMARK    1  A    between atoms: C3'_2  and  C2'_3 
REMARK    2  A    between atoms: C2'_3  and  C1'_4 
REMARK    3  A    between atoms: C1'_4  and  C1_5 
ROOT
ATOM      1  C1  N4B d   1      -2.788   1.334  -3.165  0.00  0.00    -0.075 A 
ATOM      2  C2  N4B d   1      -2.720   0.187  -3.987  0.00  0.00     0.002 A 
ATOM      3  C3  N4B d   1      -2.396  -1.031  -3.441  0.00  0.00     0.002 A 
ATOM      4  C4  N4B d   1      -2.119  -1.123  -2.085  0.00  0.00    -0.004 A 
ATOM      5  C5  N4B d   1      -2.212  -0.016  -1.293  0.00  0.00     0.002 A 
ATOM      6  C6  N4B d   1      -2.540   1.214  -1.828  0.00  0.00     0.002 A 
ENDROOT
BRANCH   1   7
ATOM      7  C1' N4B d   1      -3.053   2.702  -3.730  0.00  0.00     0.057 C 
BRANCH   7   8
ATOM      8  C2' N4B d   1      -4.222   3.336  -2.981  0.00  0.00     0.009 C 
BRANCH   8   9
ATOM      9  C3' N4B d   1      -4.145   4.853  -2.987  0.00  0.00     0.004 C 
ATOM     10  C4' N4B d   1      -5.316   5.496  -2.307  0.00  0.00     0.003 C 
ENDBRANCH   8   9
ENDBRANCH   7   8
ENDBRANCH   1   7
TORSDOF 3
ENDMDL
