MODEL 1
REMARK minimizedAffinity 8.88709927
REMARK minimizedRMSD -1
REMARK  3 active torsions:
REMARK  status: ('A' for Active; 'I' for Inactive)
REMARK    1  A    between atoms: C3'_2  and  C2'_3 
REMARK    2  A    between atoms: C2'_3  and  C1'_4 
REMARK    3  A    between atoms: C1'_4  and  C1_5 
ROOT
ATOM      1  C1  N4B d   1       0.958  -2.529   3.375  0.00  0.00    -0.075 A 
ATOM      2  C2  N4B d   1       1.605  -3.579   2.688  0.00  0.00     0.002 A 
ATOM      3  C3  N4B d   1       1.012  -4.150   1.589  0.00  0.00     0.002 A 
ATOM      4  C4  N4B d   1      -0.232  -3.702   1.172  0.00  0.00    -0.004 A 
ATOM      5  C5  N4B d   1      -0.840  -2.669   1.825  0.00  0.00     0.002 A 
ATOM      6  C6  N4B d   1      -0.253  -2.083   2.928  0.00  0.00     0.002 A 
ENDROOT
BRANCH   1   7
ATOM      7  C1' N4B d   1       1.528  -1.931   4.632  0.00  0.00     0.057 C 
BRANCH   7   8
ATOM      8  C2' N4B d   1       2.231  -0.621   4.290  0.00  0.00     0.009 C 
BRANCH   8   9
ATOM      9  C3' N4B d   1       1.848   0.496   5.246  0.00  0.00     0.004 C 
ATOM     10  C4' N4B d   1       1.863   1.847   4.597  0.00  0.00     0.003 C 
ENDBRANCH   8   9
ENDBRANCH   7   8
ENDBRANCH   1   7
TORSDOF 3
ENDMDL
