MODEL 1
REMARK minimizedAffinity 11.338419
REMARK minimizedRMSD -1
REMARK  3 active torsions:
REMARK  status: ('A' for Active; 'I' for Inactive)
REMARK    1  A    between atoms: C3'_2  and  C2'_3 
REMARK    2  A    between atoms: C2'_3  and  C1'_4 
REMARK    3  A    between atoms: C1'_4  and  C1_5 
ROOT
ATOM      1  C1  N4B d   1      -2.665   1.154  -3.376  0.00  0.00    -0.075 A 
ATOM      2  C2  N4B d   1      -1.869   0.686  -2.308  0.00  0.00     0.002 A 
ATOM      3  C3  N4B d   1      -1.514  -0.640  -2.246  0.00  0.00     0.002 A 
ATOM      4  C4  N4B d   1      -1.957  -1.515  -3.225  0.00  0.00    -0.004 A 
ATOM      5  C5  N4B d   1      -2.705  -1.050  -4.267  0.00  0.00     0.002 A 
ATOM      6  C6  N4B d   1      -3.066   0.280  -4.345  0.00  0.00     0.002 A 
ENDROOT
BRANCH   1   7
ATOM      7  C1' N4B d   1      -3.150   2.576  -3.441  0.00  0.00     0.057 C 
BRANCH   7   8
ATOM      8  C2' N4B d   1      -3.792   2.948  -2.107  0.00  0.00     0.009 C 
BRANCH   8   9
ATOM      9  C3' N4B d   1      -4.566   4.252  -2.193  0.00  0.00     0.004 C 
ATOM     10  C4' N4B d   1      -5.997   4.107  -1.766  0.00  0.00     0.003 C 
ENDBRANCH   8   9
ENDBRANCH   7   8
ENDBRANCH   1   7
TORSDOF 3
ENDMDL
