MODEL 1
REMARK minimizedAffinity 2.05554008
REMARK minimizedRMSD -1
REMARK  1 active torsions:
REMARK  status: ('A' for Active; 'I' for Inactive)
REMARK    1  A    between atoms: C1_2  and  C2_3 
ROOT
ATOM      1  C2  UNL d   1       1.403   1.520  -0.146  0.00  0.00    -0.076 A 
ATOM      2  C3  UNL d   1       1.017   0.170  -0.075  0.00  0.00     0.004 A 
ATOM      3  C4  UNL d   1       0.785  -0.571  -1.233  0.00  0.00    -0.003 A 
ATOM      4  C5  UNL d   1       0.938   0.025  -2.480  0.00  0.00     0.000 A 
ATOM      5  C6  UNL d   1       1.338   1.357  -2.569  0.00  0.00     0.000 A 
ATOM      6  C7  UNL d   1       1.591   2.115  -1.412  0.00  0.00    -0.073 A 
ATOM      7  C8  UNL d   1       2.014   3.550  -1.567  0.00  0.00     0.078 C 
ENDROOT
BRANCH   1   8
ATOM      8  C1  UNL d   1       1.613   2.282   1.143  0.00  0.00     0.053 C 
ATOM      9  C   UNL d   1       2.300   1.443   2.210  0.00  0.00     0.018 C 
ENDBRANCH   1   8
TORSDOF 1
ENDMDL
