MODEL 1
REMARK minimizedAffinity 8.96863937
REMARK minimizedRMSD -1
REMARK  1 active torsions:
REMARK  status: ('A' for Active; 'I' for Inactive)
REMARK    1  A    between atoms: C1_2  and  C2_3 
ROOT
ATOM      1  C2  UNL d   1      -2.118   3.467   2.853  0.00  0.00    -0.076 A 
ATOM      2  C3  UNL d   1      -2.750   3.725   1.624  0.00  0.00     0.004 A 
ATOM      3  C4  UNL d   1      -3.712   2.855   1.115  0.00  0.00    -0.003 A 
ATOM      4  C5  UNL d   1      -4.058   1.712   1.827  0.00  0.00     0.000 A 
ATOM      5  C6  UNL d   1      -3.455   1.449   3.056  0.00  0.00     0.000 A 
ATOM      6  C7  UNL d   1      -2.495   2.325   3.592  0.00  0.00    -0.073 A 
ATOM      7  C8  UNL d   1      -1.872   1.990   4.919  0.00  0.00     0.078 C 
ENDROOT
BRANCH   1   8
ATOM      8  C1  UNL d   1      -1.063   4.433   3.342  0.00  0.00     0.053 C 
ATOM      9  C   UNL d   1      -1.480   5.886   3.173  0.00  0.00     0.018 C 
ENDBRANCH   1   8
TORSDOF 1
ENDMDL
