MODEL 1
REMARK minimizedAffinity -2.12731934
REMARK minimizedRMSD -1
REMARK  1 active torsions:
REMARK  status: ('A' for Active; 'I' for Inactive)
REMARK    1  A    between atoms: C1_2  and  C2_3 
ROOT
ATOM      1  C2  UNL d   1       1.762   2.920  -0.913  0.00  0.00    -0.076 A 
ATOM      2  C3  UNL d   1       1.711   2.837   0.490  0.00  0.00     0.004 A 
ATOM      3  C4  UNL d   1       1.593   1.605   1.132  0.00  0.00    -0.003 A 
ATOM      4  C5  UNL d   1       1.524   0.436   0.381  0.00  0.00     0.000 A 
ATOM      5  C6  UNL d   1       1.591   0.499  -1.010  0.00  0.00     0.000 A 
ATOM      6  C7  UNL d   1       1.727   1.731  -1.672  0.00  0.00    -0.073 A 
ATOM      7  C8  UNL d   1       1.788   1.740  -3.175  0.00  0.00     0.078 C 
ENDROOT
BRANCH   1   8
ATOM      8  C1  UNL d   1       1.863   4.285  -1.554  0.00  0.00     0.053 C 
ATOM      9  C   UNL d   1       2.101   5.391  -0.537  0.00  0.00     0.018 C 
ENDBRANCH   1   8
TORSDOF 1
ENDMDL
