MODEL 1
REMARK minimizedAffinity 11.580266
REMARK minimizedRMSD -1
REMARK  1 active torsions:
REMARK  status: ('A' for Active; 'I' for Inactive)
REMARK    1  A    between atoms: C1_2  and  C2_3 
ROOT
ATOM      1  C2  UNL d   1       1.672   3.425  -1.705  0.00  0.00    -0.076 A 
ATOM      2  C3  UNL d   1       2.097   2.892  -0.476  0.00  0.00     0.004 A 
ATOM      3  C4  UNL d   1       1.543   1.716   0.027  0.00  0.00    -0.003 A 
ATOM      4  C5  UNL d   1       0.554   1.053  -0.692  0.00  0.00     0.000 A 
ATOM      5  C6  UNL d   1       0.132   1.558  -1.922  0.00  0.00     0.000 A 
ATOM      6  C7  UNL d   1       0.692   2.734  -2.450  0.00  0.00    -0.073 A 
ATOM      7  C8  UNL d   1       0.196   3.237  -3.778  0.00  0.00     0.078 C 
ENDROOT
BRANCH   1   8
ATOM      8  C1  UNL d   1       2.290   4.718  -2.187  0.00  0.00     0.053 C 
ATOM      9  C   UNL d   1       2.421   5.750  -1.077  0.00  0.00     0.018 C 
ENDBRANCH   1   8
TORSDOF 1
ENDMDL
