MODEL 1
REMARK minimizedAffinity 7.14640236
REMARK minimizedRMSD -1
REMARK  1 active torsions:
REMARK  status: ('A' for Active; 'I' for Inactive)
REMARK    1  A    between atoms: C1_2  and  C2_3 
ROOT
ATOM      1  C2  UNL d   1       1.554   1.790  -0.571  0.00  0.00    -0.076 A 
ATOM      2  C3  UNL d   1       1.811   2.290   0.718  0.00  0.00     0.004 A 
ATOM      3  C4  UNL d   1       1.761   1.457   1.834  0.00  0.00    -0.003 A 
ATOM      4  C5  UNL d   1       1.452   0.110   1.680  0.00  0.00     0.000 A 
ATOM      5  C6  UNL d   1       1.211  -0.407   0.408  0.00  0.00     0.000 A 
ATOM      6  C7  UNL d   1       1.274   0.416  -0.730  0.00  0.00    -0.073 A 
ATOM      7  C8  UNL d   1       0.999  -0.194  -2.077  0.00  0.00     0.078 C 
ENDROOT
BRANCH   1   8
ATOM      8  C1  UNL d   1       1.596   2.746  -1.741  0.00  0.00     0.053 C 
ATOM      9  C   UNL d   1       2.259   4.069  -1.389  0.00  0.00     0.018 C 
ENDBRANCH   1   8
TORSDOF 1
ENDMDL
