MODEL 1
REMARK minimizedAffinity -1.21357763
REMARK minimizedRMSD -1
REMARK  1 active torsions:
REMARK  status: ('A' for Active; 'I' for Inactive)
REMARK    1  A    between atoms: C1_2  and  C2_3 
ROOT
ATOM      1  C2  UNL d   1       1.233   0.276  -0.628  0.00  0.00    -0.076 A 
ATOM      2  C3  UNL d   1       0.507  -0.645  -1.402  0.00  0.00     0.004 A 
ATOM      3  C4  UNL d   1       0.706  -2.017  -1.259  0.00  0.00    -0.003 A 
ATOM      4  C5  UNL d   1       1.634  -2.490  -0.337  0.00  0.00     0.000 A 
ATOM      5  C6  UNL d   1       2.350  -1.591   0.452  0.00  0.00     0.000 A 
ATOM      6  C7  UNL d   1       2.149  -0.205   0.331  0.00  0.00    -0.073 A 
ATOM      7  C8  UNL d   1       2.953   0.720   1.204  0.00  0.00     0.078 C 
ENDROOT
BRANCH   1   8
ATOM      8  C1  UNL d   1       0.994   1.753  -0.847  0.00  0.00     0.053 C 
ATOM      9  C   UNL d   1       1.858   2.324  -1.960  0.00  0.00     0.018 C 
ENDBRANCH   1   8
TORSDOF 1
ENDMDL
