MODEL 1
REMARK minimizedAffinity 0.77658695
REMARK minimizedRMSD -1
REMARK  1 active torsions:
REMARK  status: ('A' for Active; 'I' for Inactive)
REMARK    1  A    between atoms: C1_2  and  C2_3 
ROOT
ATOM      1  C2  UNL d   1       0.352  -1.308  -1.338  0.00  0.00    -0.076 A 
ATOM      2  C3  UNL d   1       0.086   0.033  -1.668  0.00  0.00     0.004 A 
ATOM      3  C4  UNL d   1       0.481   1.071  -0.826  0.00  0.00    -0.003 A 
ATOM      4  C5  UNL d   1       1.149   0.785   0.360  0.00  0.00     0.000 A 
ATOM      5  C6  UNL d   1       1.437  -0.537   0.695  0.00  0.00     0.000 A 
ATOM      6  C7  UNL d   1       1.060  -1.595  -0.151  0.00  0.00    -0.073 A 
ATOM      7  C8  UNL d   1       1.390  -3.003   0.262  0.00  0.00     0.078 C 
ENDROOT
BRANCH   1   8
ATOM      8  C1  UNL d   1      -0.125  -2.393  -2.276  0.00  0.00     0.053 C 
ATOM      9  C   UNL d   1      -0.895  -3.489  -1.556  0.00  0.00     0.018 C 
ENDBRANCH   1   8
TORSDOF 1
ENDMDL
