MODEL 1
REMARK minimizedAffinity -5.89793539
REMARK minimizedRMSD -1
REMARK  1 active torsions:
REMARK  status: ('A' for Active; 'I' for Inactive)
REMARK    1  A    between atoms: C1_2  and  C2_3 
ROOT
ATOM      1  C2  UNL d   1       0.090   0.027   0.234  0.00  0.00    -0.076 A 
ATOM      2  C3  UNL d   1       1.384   0.081   0.781  0.00  0.00     0.004 A 
ATOM      3  C4  UNL d   1       1.599  -0.148   2.139  0.00  0.00    -0.003 A 
ATOM      4  C5  UNL d   1       0.524  -0.434   2.973  0.00  0.00     0.000 A 
ATOM      5  C6  UNL d   1      -0.765  -0.509   2.444  0.00  0.00     0.000 A 
ATOM      6  C7  UNL d   1      -0.997  -0.297   1.074  0.00  0.00    -0.073 A 
ATOM      7  C8  UNL d   1      -2.407  -0.384   0.559  0.00  0.00     0.078 C 
ENDROOT
BRANCH   1   8
ATOM      8  C1  UNL d   1      -0.085   0.311  -1.240  0.00  0.00     0.053 C 
ATOM      9  C   UNL d   1       0.893  -0.470  -2.104  0.00  0.00     0.018 C 
ENDBRANCH   1   8
TORSDOF 1
ENDMDL
