MODEL 1
REMARK minimizedAffinity -1.33147287
REMARK minimizedRMSD -1
REMARK  1 active torsions:
REMARK  status: ('A' for Active; 'I' for Inactive)
REMARK    1  A    between atoms: C1_2  and  C2_3 
ROOT
ATOM      1  C2  UNL d   1       0.256  -0.682   0.010  0.00  0.00    -0.076 A 
ATOM      2  C3  UNL d   1      -0.708  -1.545   0.562  0.00  0.00     0.004 A 
ATOM      3  C4  UNL d   1      -1.003  -1.513   1.923  0.00  0.00    -0.003 A 
ATOM      4  C5  UNL d   1      -0.341  -0.618   2.756  0.00  0.00     0.000 A 
ATOM      5  C6  UNL d   1       0.605   0.257   2.223  0.00  0.00     0.000 A 
ATOM      6  C7  UNL d   1       0.903   0.250   0.849  0.00  0.00    -0.073 A 
ATOM      7  C8  UNL d   1       1.936   1.212   0.329  0.00  0.00     0.078 C 
ENDROOT
BRANCH   1   8
ATOM      8  C1  UNL d   1       0.554  -0.780  -1.469  0.00  0.00     0.053 C 
ATOM      9  C   UNL d   1       1.487  -1.935  -1.800  0.00  0.00     0.018 C 
ENDBRANCH   1   8
TORSDOF 1
ENDMDL
