MODEL 1
REMARK minimizedAffinity -4.57471085
REMARK minimizedRMSD -1
REMARK  1 active torsions:
REMARK  status: ('A' for Active; 'I' for Inactive)
REMARK    1  A    between atoms: C1_2  and  C2_3 
ROOT
ATOM      1  C2  UNL d   1      -0.127   0.132   0.021  0.00  0.00    -0.076 A 
ATOM      2  C3  UNL d   1      -1.189  -0.682   0.450  0.00  0.00     0.004 A 
ATOM      3  C4  UNL d   1      -1.343  -1.011   1.795  0.00  0.00    -0.003 A 
ATOM      4  C5  UNL d   1      -0.438  -0.529   2.734  0.00  0.00     0.000 A 
ATOM      5  C6  UNL d   1       0.612   0.295   2.329  0.00  0.00     0.000 A 
ATOM      6  C7  UNL d   1       0.772   0.649   0.979  0.00  0.00    -0.073 A 
ATOM      7  C8  UNL d   1       1.926   1.535   0.597  0.00  0.00     0.078 C 
ENDROOT
BRANCH   1   8
ATOM      8  C1  UNL d   1       0.006   0.433  -1.455  0.00  0.00     0.053 C 
ATOM      9  C   UNL d   1       0.389  -0.794  -2.267  0.00  0.00     0.018 C 
ENDBRANCH   1   8
TORSDOF 1
ENDMDL
