MODEL 1
REMARK minimizedAffinity -0.793877065
REMARK minimizedRMSD -1
REMARK  1 active torsions:
REMARK  status: ('A' for Active; 'I' for Inactive)
REMARK    1  A    between atoms: C1_2  and  C2_3 
ROOT
ATOM      1  C2  UNL d   1       0.019  -0.085   0.755  0.00  0.00    -0.076 A 
ATOM      2  C3  UNL d   1       1.359  -0.336   0.410  0.00  0.00     0.004 A 
ATOM      3  C4  UNL d   1       1.721  -0.613  -0.907  0.00  0.00    -0.003 A 
ATOM      4  C5  UNL d   1       0.750  -0.642  -1.901  0.00  0.00     0.000 A 
ATOM      5  C6  UNL d   1      -0.582  -0.379  -1.580  0.00  0.00     0.000 A 
ATOM      6  C7  UNL d   1      -0.961  -0.082  -0.260  0.00  0.00    -0.073 A 
ATOM      7  C8  UNL d   1      -2.412   0.189   0.030  0.00  0.00     0.078 C 
ENDROOT
BRANCH   1   8
ATOM      8  C1  UNL d   1      -0.318   0.182   2.204  0.00  0.00     0.053 C 
ATOM      9  C   UNL d   1      -1.008  -0.999   2.870  0.00  0.00     0.018 C 
ENDBRANCH   1   8
TORSDOF 1
ENDMDL
