MODEL 1
REMARK minimizedAffinity -5.26091385
REMARK minimizedRMSD -1
REMARK  1 active torsions:
REMARK  status: ('A' for Active; 'I' for Inactive)
REMARK    1  A    between atoms: C1_2  and  C2_3 
ROOT
ATOM      1  C2  UNL d   1      -0.415   0.239   0.243  0.00  0.00    -0.076 A 
ATOM      2  C3  UNL d   1       0.838   0.136   0.872  0.00  0.00     0.004 A 
ATOM      3  C4  UNL d   1       0.936  -0.136   2.236  0.00  0.00    -0.003 A 
ATOM      4  C5  UNL d   1      -0.217  -0.310   2.992  0.00  0.00     0.000 A 
ATOM      5  C6  UNL d   1      -1.468  -0.230   2.382  0.00  0.00     0.000 A 
ATOM      6  C7  UNL d   1      -1.585   0.028   1.005  0.00  0.00    -0.073 A 
ATOM      7  C8  UNL d   1      -2.959   0.110   0.399  0.00  0.00     0.078 C 
ENDROOT
BRANCH   1   8
ATOM      8  C1  UNL d   1      -0.460   0.562  -1.233  0.00  0.00     0.053 C 
ATOM      9  C   UNL d   1       0.373  -0.399  -2.066  0.00  0.00     0.018 C 
ENDBRANCH   1   8
TORSDOF 1
ENDMDL
