MODEL 1
REMARK minimizedAffinity -5.03941488
REMARK minimizedRMSD -1
REMARK  1 active torsions:
REMARK  status: ('A' for Active; 'I' for Inactive)
REMARK    1  A    between atoms: C1_2  and  C2_3 
ROOT
ATOM      1  C2  UNL d   1       0.076  -0.106   1.466  0.00  0.00    -0.076 A 
ATOM      2  C3  UNL d   1      -1.146  -0.419   0.846  0.00  0.00     0.004 A 
ATOM      3  C4  UNL d   1      -1.273  -0.396  -0.542  0.00  0.00    -0.003 A 
ATOM      4  C5  UNL d   1      -0.180  -0.060  -1.333  0.00  0.00     0.000 A 
ATOM      5  C6  UNL d   1       1.045   0.236  -0.735  0.00  0.00     0.000 A 
ATOM      6  C7  UNL d   1       1.194   0.201   0.662  0.00  0.00    -0.073 A 
ATOM      7  C8  UNL d   1       2.537   0.535   1.252  0.00  0.00     0.078 C 
ENDROOT
BRANCH   1   8
ATOM      8  C1  UNL d   1       0.147  -0.121   2.976  0.00  0.00     0.053 C 
ATOM      9  C   UNL d   1      -0.890  -1.043   3.599  0.00  0.00     0.018 C 
ENDBRANCH   1   8
TORSDOF 1
ENDMDL
