MODEL 1
REMARK minimizedAffinity -5.49064875
REMARK minimizedRMSD -1
REMARK  1 active torsions:
REMARK  status: ('A' for Active; 'I' for Inactive)
REMARK    1  A    between atoms: C1_2  and  C2_3 
ROOT
ATOM      1  C2  UNL d   1       0.243  -0.200   0.060  0.00  0.00    -0.076 A 
ATOM      2  C3  UNL d   1      -0.995  -0.805   0.341  0.00  0.00     0.004 A 
ATOM      3  C4  UNL d   1      -1.404  -1.026   1.655  0.00  0.00    -0.003 A 
ATOM      4  C5  UNL d   1      -0.583  -0.644   2.710  0.00  0.00     0.000 A 
ATOM      5  C6  UNL d   1       0.640  -0.026   2.451  0.00  0.00     0.000 A 
ATOM      6  C7  UNL d   1       1.061   0.218   1.132  0.00  0.00    -0.073 A 
ATOM      7  C8  UNL d   1       2.392   0.882   0.910  0.00  0.00     0.078 C 
ENDROOT
BRANCH   1   8
ATOM      8  C1  UNL d   1       0.646  -0.010  -1.385  0.00  0.00     0.053 C 
ATOM      9  C   UNL d   1       0.625  -1.312  -2.171  0.00  0.00     0.018 C 
ENDBRANCH   1   8
TORSDOF 1
ENDMDL
