MODEL 1
REMARK minimizedAffinity -4.82611132
REMARK minimizedRMSD -1
REMARK  1 active torsions:
REMARK  status: ('A' for Active; 'I' for Inactive)
REMARK    1  A    between atoms: C1_2  and  C2_3 
ROOT
ATOM      1  C2  UNL d   1      -0.205   0.186   1.190  0.00  0.00    -0.076 A 
ATOM      2  C3  UNL d   1      -0.624  -0.042   2.512  0.00  0.00     0.004 A 
ATOM      3  C4  UNL d   1      -1.979  -0.114   2.833  0.00  0.00    -0.003 A 
ATOM      4  C5  UNL d   1      -2.936   0.040   1.837  0.00  0.00     0.000 A 
ATOM      5  C6  UNL d   1      -2.538   0.250   0.517  0.00  0.00     0.000 A 
ATOM      6  C7  UNL d   1      -1.176   0.308   0.174  0.00  0.00    -0.073 A 
ATOM      7  C8  UNL d   1      -0.804   0.542  -1.265  0.00  0.00     0.078 C 
ENDROOT
BRANCH   1   8
ATOM      8  C1  UNL d   1       1.277   0.281   0.907  0.00  0.00     0.053 C 
ATOM      9  C   UNL d   1       1.724   1.705   0.614  0.00  0.00     0.018 C 
ENDBRANCH   1   8
TORSDOF 1
ENDMDL
