MODEL 1
REMARK minimizedAffinity -3.43904781
REMARK minimizedRMSD -1
REMARK  1 active torsions:
REMARK  status: ('A' for Active; 'I' for Inactive)
REMARK    1  A    between atoms: C1_2  and  C2_3 
ROOT
ATOM      1  C2  UNL d   1      -0.033   0.146   0.134  0.00  0.00    -0.076 A 
ATOM      2  C3  UNL d   1       1.119   0.129   0.939  0.00  0.00     0.004 A 
ATOM      3  C4  UNL d   1       1.033  -0.097   2.311  0.00  0.00    -0.003 A 
ATOM      4  C5  UNL d   1      -0.207  -0.311   2.902  0.00  0.00     0.000 A 
ATOM      5  C6  UNL d   1      -1.360  -0.315   2.117  0.00  0.00     0.000 A 
ATOM      6  C7  UNL d   1      -1.289  -0.104   0.729  0.00  0.00    -0.073 A 
ATOM      7  C8  UNL d   1      -2.564  -0.113  -0.069  0.00  0.00     0.078 C 
ENDROOT
BRANCH   1   8
ATOM      8  C1  UNL d   1       0.119   0.423  -1.344  0.00  0.00     0.053 C 
ATOM      9  C   UNL d   1       0.916  -0.656  -2.060  0.00  0.00     0.018 C 
ENDBRANCH   1   8
TORSDOF 1
ENDMDL
