MODEL 1
REMARK minimizedAffinity -4.99520826
REMARK minimizedRMSD -1
REMARK  1 active torsions:
REMARK  status: ('A' for Active; 'I' for Inactive)
REMARK    1  A    between atoms: C1_2  and  C2_3 
ROOT
ATOM      1  C2  UNL d   1      -0.350   0.005  -0.245  0.00  0.00    -0.076 A 
ATOM      2  C3  UNL d   1       0.991  -0.113   0.161  0.00  0.00     0.004 A 
ATOM      3  C4  UNL d   1       1.318  -0.373   1.491  0.00  0.00    -0.003 A 
ATOM      4  C5  UNL d   1       0.309  -0.521   2.436  0.00  0.00     0.000 A 
ATOM      5  C6  UNL d   1      -1.027  -0.425   2.048  0.00  0.00     0.000 A 
ATOM      6  C7  UNL d   1      -1.374  -0.179   0.708  0.00  0.00    -0.073 A 
ATOM      7  C8  UNL d   1      -2.831  -0.079   0.347  0.00  0.00     0.078 C 
ENDROOT
BRANCH   1   8
ATOM      8  C1  UNL d   1      -0.643   0.315  -1.696  0.00  0.00     0.053 C 
ATOM      9  C   UNL d   1       0.496  -0.088  -2.619  0.00  0.00     0.018 C 
ENDBRANCH   1   8
TORSDOF 1
ENDMDL
