MODEL 1
REMARK minimizedAffinity 8.87451649
REMARK minimizedRMSD -1
REMARK  1 active torsions:
REMARK  status: ('A' for Active; 'I' for Inactive)
REMARK    1  A    between atoms: C1_2  and  C2_3 
ROOT
ATOM      1  C2  UNL d   1       4.050  -1.585  -3.067  0.00  0.00    -0.081 A 
ATOM      2  C3  UNL d   1       5.357  -1.868  -3.482  0.00  0.00     0.006 A 
ATOM      3  C4  UNL d   1       5.986  -1.068  -4.438  0.00  0.00     0.002 A 
ATOM      4  C5  UNL d   1       5.322   0.034  -4.989  0.00  0.00    -0.080 A 
ATOM      5  C6  UNL d   1       5.996   0.919  -5.994  0.00  0.00     0.076 C 
ATOM      6  C7  UNL d   1       4.010   0.307  -4.588  0.00  0.00     0.002 A 
ATOM      7  C8  UNL d   1       3.381  -0.494  -3.632  0.00  0.00     0.006 A 
ENDROOT
BRANCH   1   8
ATOM      8  C1  UNL d   1       3.393  -2.408  -1.988  0.00  0.00     0.054 C 
ATOM      9  C   UNL d   1       2.004  -2.866  -2.411  0.00  0.00     0.018 C 
ENDBRANCH   1   8
TORSDOF 1
ENDMDL
