MODEL 1
REMARK minimizedAffinity 10.7560062
REMARK minimizedRMSD -1
REMARK  1 active torsions:
REMARK  status: ('A' for Active; 'I' for Inactive)
REMARK    1  A    between atoms: C1_2  and  C2_3 
ROOT
ATOM      1  C2  UNL d   1      -5.848  -4.668  -3.173  0.00  0.00    -0.081 A 
ATOM      2  C3  UNL d   1      -6.000  -4.605  -4.564  0.00  0.00     0.006 A 
ATOM      3  C4  UNL d   1      -5.801  -3.401  -5.244  0.00  0.00     0.002 A 
ATOM      4  C5  UNL d   1      -5.439  -2.243  -4.547  0.00  0.00    -0.080 A 
ATOM      5  C6  UNL d   1      -5.193  -0.952  -5.269  0.00  0.00     0.076 C 
ATOM      6  C7  UNL d   1      -5.304  -2.302  -3.156  0.00  0.00     0.002 A 
ATOM      7  C8  UNL d   1      -5.504  -3.505  -2.475  0.00  0.00     0.006 A 
ENDROOT
BRANCH   1   8
ATOM      8  C1  UNL d   1      -5.999  -5.979  -2.444  0.00  0.00     0.054 C 
ATOM      9  C   UNL d   1      -5.183  -5.995  -1.160  0.00  0.00     0.018 C 
ENDBRANCH   1   8
TORSDOF 1
ENDMDL
