MODEL 1
REMARK minimizedAffinity 7.4442153
REMARK minimizedRMSD -1
REMARK  1 active torsions:
REMARK  status: ('A' for Active; 'I' for Inactive)
REMARK    1  A    between atoms: C1_2  and  C2_3 
ROOT
ATOM      1  C2  UNL d   1      -5.520  -4.696  -3.277  0.00  0.00    -0.081 A 
ATOM      2  C3  UNL d   1      -5.658  -4.776  -4.668  0.00  0.00     0.006 A 
ATOM      3  C4  UNL d   1      -5.604  -3.621  -5.452  0.00  0.00     0.002 A 
ATOM      4  C5  UNL d   1      -5.403  -2.370  -4.861  0.00  0.00    -0.080 A 
ATOM      5  C6  UNL d   1      -5.313  -1.126  -5.694  0.00  0.00     0.076 C 
ATOM      6  C7  UNL d   1      -5.284  -2.288  -3.469  0.00  0.00     0.002 A 
ATOM      7  C8  UNL d   1      -5.338  -3.441  -2.684  0.00  0.00     0.006 A 
ENDROOT
BRANCH   1   8
ATOM      8  C1  UNL d   1      -5.514  -5.946  -2.434  0.00  0.00     0.054 C 
ATOM      9  C   UNL d   1      -4.289  -5.998  -1.532  0.00  0.00     0.018 C 
ENDBRANCH   1   8
TORSDOF 1
ENDMDL
