MODEL 1
REMARK minimizedAffinity 5.14283276
REMARK minimizedRMSD -1
REMARK  1 active torsions:
REMARK  status: ('A' for Active; 'I' for Inactive)
REMARK    1  A    between atoms: C1_2  and  C2_3 
ROOT
ATOM      1  C2  UNL d   1       4.109  -0.452  -2.748  0.00  0.00    -0.081 A 
ATOM      2  C3  UNL d   1       3.515   0.699  -3.282  0.00  0.00     0.006 A 
ATOM      3  C4  UNL d   1       4.130   1.394  -4.325  0.00  0.00     0.002 A 
ATOM      4  C5  UNL d   1       5.344   0.947  -4.858  0.00  0.00    -0.080 A 
ATOM      5  C6  UNL d   1       6.000   1.667  -5.999  0.00  0.00     0.076 C 
ATOM      6  C7  UNL d   1       5.946  -0.193  -4.313  0.00  0.00     0.002 A 
ATOM      7  C8  UNL d   1       5.332  -0.888  -3.269  0.00  0.00     0.006 A 
ENDROOT
BRANCH   1   8
ATOM      8  C1  UNL d   1       3.416  -1.240  -1.667  0.00  0.00     0.054 C 
ATOM      9  C   UNL d   1       1.964  -1.519  -2.029  0.00  0.00     0.018 C 
ENDBRANCH   1   8
TORSDOF 1
ENDMDL
