MODEL 1
REMARK minimizedAffinity 1.28186131
REMARK minimizedRMSD -1
REMARK  0 active torsions:
REMARK  status: ('A' for Active; 'I' for Inactive)
ROOT
ATOM      1  C   UNL d   1      -1.975  -0.598   1.945  0.00  0.00     0.078 C 
ATOM      2  C1  UNL d   1      -0.531  -0.709   1.555  0.00  0.00    -0.077 A 
ATOM      3  C2  UNL d   1      -0.161  -1.136   0.274  0.00  0.00    -0.001 A 
ATOM      4  C3  UNL d   1       1.187  -1.244  -0.072  0.00  0.00     0.003 A 
ATOM      5  C4  UNL d   1       2.175  -0.928   0.857  0.00  0.00    -0.005 A 
ATOM      6  C5  UNL d   1       1.817  -0.504   2.135  0.00  0.00     0.003 A 
ATOM      7  C6  UNL d   1       0.469  -0.395   2.483  0.00  0.00    -0.001 A 
ENDROOT
TORSDOF 0
ENDMDL
