MODEL 1
REMARK minimizedAffinity -1.88189352
REMARK minimizedRMSD -1
REMARK  0 active torsions:
REMARK  status: ('A' for Active; 'I' for Inactive)
ROOT
ATOM      1  C   UNL d   1       3.424   5.986   1.720  0.00  0.00     0.078 C 
ATOM      2  C1  UNL d   1       3.135   5.982   3.191  0.00  0.00    -0.077 A 
ATOM      3  C2  UNL d   1       1.818   5.980   3.667  0.00  0.00    -0.001 A 
ATOM      4  C3  UNL d   1       1.563   5.987   5.040  0.00  0.00     0.003 A 
ATOM      5  C4  UNL d   1       2.621   5.996   5.947  0.00  0.00    -0.005 A 
ATOM      6  C5  UNL d   1       3.934   6.000   5.483  0.00  0.00     0.003 A 
ATOM      7  C6  UNL d   1       4.191   5.994   4.111  0.00  0.00    -0.001 A 
ENDROOT
TORSDOF 0
ENDMDL
