MODEL 1
REMARK minimizedAffinity 6.02383089
REMARK minimizedRMSD -1
REMARK  0 active torsions:
REMARK  status: ('A' for Active; 'I' for Inactive)
ROOT
ATOM      1  C   UNL d   1      -0.932  -1.860   3.423  0.00  0.00     0.078 C 
ATOM      2  C1  UNL d   1      -0.234  -1.401   2.177  0.00  0.00    -0.077 A 
ATOM      3  C2  UNL d   1      -0.866  -0.541   1.272  0.00  0.00    -0.001 A 
ATOM      4  C3  UNL d   1      -0.208  -0.129   0.112  0.00  0.00     0.003 A 
ATOM      5  C4  UNL d   1       1.085  -0.574  -0.154  0.00  0.00    -0.005 A 
ATOM      6  C5  UNL d   1       1.722  -1.432   0.740  0.00  0.00     0.003 A 
ATOM      7  C6  UNL d   1       1.065  -1.845   1.901  0.00  0.00    -0.001 A 
ENDROOT
TORSDOF 0
ENDMDL
