MODEL 1
REMARK minimizedAffinity 6.82272196
REMARK minimizedRMSD -1
REMARK  0 active torsions:
REMARK  status: ('A' for Active; 'I' for Inactive)
ROOT
ATOM      1  C   UNL d   1       1.284  -0.545  -0.526  0.00  0.00     0.078 C 
ATOM      2  C1  UNL d   1      -0.072  -0.546   0.115  0.00  0.00    -0.077 A 
ATOM      3  C2  UNL d   1      -0.236  -0.927   1.453  0.00  0.00    -0.001 A 
ATOM      4  C3  UNL d   1      -1.505  -0.932   2.034  0.00  0.00     0.003 A 
ATOM      5  C4  UNL d   1      -2.620  -0.559   1.285  0.00  0.00    -0.005 A 
ATOM      6  C5  UNL d   1      -2.466  -0.181  -0.047  0.00  0.00     0.003 A 
ATOM      7  C6  UNL d   1      -1.198  -0.175  -0.630  0.00  0.00    -0.001 A 
ENDROOT
TORSDOF 0
ENDMDL
