MODEL 1
REMARK minimizedAffinity -3.22353792
REMARK minimizedRMSD -1
REMARK  0 active torsions:
REMARK  status: ('A' for Active; 'I' for Inactive)
ROOT
ATOM      1  C   UNL d   1       3.777   5.998   2.283  0.00  0.00     0.078 C 
ATOM      2  C1  UNL d   1       2.997   5.991   3.564  0.00  0.00    -0.077 A 
ATOM      3  C2  UNL d   1       1.597   5.994   3.556  0.00  0.00    -0.001 A 
ATOM      4  C3  UNL d   1       0.885   5.998   4.756  0.00  0.00     0.003 A 
ATOM      5  C4  UNL d   1       1.563   5.999   5.973  0.00  0.00    -0.005 A 
ATOM      6  C5  UNL d   1       2.957   5.997   5.991  0.00  0.00     0.003 A 
ATOM      7  C6  UNL d   1       3.671   5.994   4.792  0.00  0.00    -0.001 A 
ENDROOT
TORSDOF 0
ENDMDL
