MODEL 1
REMARK minimizedAffinity 11.5291719
REMARK minimizedRMSD -1
REMARK  0 active torsions:
REMARK  status: ('A' for Active; 'I' for Inactive)
ROOT
ATOM      1  N1  IND d   1      -3.582   1.822   5.619  0.00  0.00    -0.196 N 
ATOM      2  C2  IND d   1      -4.911   1.758   5.932  0.00  0.00     0.054 A 
ATOM      3  C3  IND d   1      -5.317   0.471   6.000  0.00  0.00    -0.031 A 
ATOM      4  C4  IND d   1      -3.948  -1.693   5.733  0.00  0.00     0.051 A 
ATOM      5  C5  IND d   1      -2.700  -2.144   5.405  0.00  0.00    -0.031 A 
ATOM      6  C6  IND d   1      -1.661  -1.279   5.128  0.00  0.00     0.015 A 
ATOM      7  C7  IND d   1      -1.829   0.076   5.181  0.00  0.00    -0.016 A 
ATOM      8  C8  IND d   1      -3.096   0.538   5.507  0.00  0.00    -0.047 A 
ATOM      9  C9  IND d   1      -4.165  -0.335   5.747  0.00  0.00    -0.096 A 
ATOM     10  HN1 IND d   1      -3.126   2.543   5.510  0.00  0.00     0.298 HD
ENDROOT
TORSDOF 0
ENDMDL
