MODEL 1
REMARK minimizedAffinity 7.33491993
REMARK minimizedRMSD -1
REMARK  0 active torsions:
REMARK  status: ('A' for Active; 'I' for Inactive)
ROOT
ATOM      1  N1  IND d   1      -0.994  -5.244   2.129  0.00  0.00    -0.196 N 
ATOM      2  C2  IND d   1      -0.172  -5.626   1.105  0.00  0.00     0.054 A 
ATOM      3  C3  IND d   1      -0.016  -4.612   0.224  0.00  0.00    -0.031 A 
ATOM      4  C4  IND d   1      -0.936  -2.210   0.316  0.00  0.00     0.051 A 
ATOM      5  C5  IND d   1      -1.767  -1.401   1.039  0.00  0.00    -0.031 A 
ATOM      6  C6  IND d   1      -2.393  -1.840   2.188  0.00  0.00     0.015 A 
ATOM      7  C7  IND d   1      -2.202  -3.107   2.664  0.00  0.00    -0.016 A 
ATOM      8  C8  IND d   1      -1.364  -3.933   1.928  0.00  0.00    -0.047 A 
ATOM      9  C9  IND d   1      -0.760  -3.506   0.738  0.00  0.00    -0.096 A 
ATOM     10  HN1 IND d   1      -1.238  -5.740   2.787  0.00  0.00     0.298 HD
ENDROOT
TORSDOF 0
ENDMDL
