MODEL 1
REMARK minimizedAffinity 13.4625607
REMARK minimizedRMSD -1
REMARK  0 active torsions:
REMARK  status: ('A' for Active; 'I' for Inactive)
ROOT
ATOM      1  N1  IND d   1      -0.434  -2.794  -0.970  0.00  0.00    -0.196 N 
ATOM      2  C2  IND d   1      -0.623  -3.121   0.344  0.00  0.00     0.054 A 
ATOM      3  C3  IND d   1      -1.701  -2.473   0.840  0.00  0.00    -0.031 A 
ATOM      4  C4  IND d   1      -3.359  -0.907  -0.354  0.00  0.00     0.051 A 
ATOM      5  C5  IND d   1      -3.579  -0.279  -1.548  0.00  0.00    -0.031 A 
ATOM      6  C6  IND d   1      -2.747  -0.464  -2.633  0.00  0.00     0.015 A 
ATOM      7  C7  IND d   1      -1.665  -1.296  -2.568  0.00  0.00    -0.016 A 
ATOM      8  C8  IND d   1      -1.434  -1.929  -1.355  0.00  0.00    -0.047 A 
ATOM      9  C9  IND d   1      -2.251  -1.712  -0.237  0.00  0.00    -0.096 A 
ATOM     10  HN1 IND d   1       0.203  -3.081  -1.471  0.00  0.00     0.298 HD
ENDROOT
TORSDOF 0
ENDMDL
