MODEL 1
REMARK minimizedAffinity 13.5749111
REMARK minimizedRMSD -1
REMARK  0 active torsions:
REMARK  status: ('A' for Active; 'I' for Inactive)
ROOT
ATOM      1  N1  IND d   1       1.049   3.390  -3.808  0.00  0.00    -0.196 N 
ATOM      2  C2  IND d   1       0.153   3.263  -4.832  0.00  0.00     0.054 A 
ATOM      3  C3  IND d   1      -0.367   2.015  -4.850  0.00  0.00    -0.031 A 
ATOM      4  C4  IND d   1       0.034   0.053  -3.232  0.00  0.00     0.051 A 
ATOM      5  C5  IND d   1       0.795  -0.322  -2.161  0.00  0.00    -0.031 A 
ATOM      6  C6  IND d   1       1.697   0.540  -1.570  0.00  0.00     0.015 A 
ATOM      7  C7  IND d   1       1.863   1.818  -2.024  0.00  0.00    -0.016 A 
ATOM      8  C8  IND d   1       1.096   2.200  -3.116  0.00  0.00    -0.047 A 
ATOM      9  C9  IND d   1       0.210   1.316  -3.746  0.00  0.00    -0.096 A 
ATOM     10  HN1 IND d   1       1.507   4.095  -3.626  0.00  0.00     0.298 HD
ENDROOT
TORSDOF 0
ENDMDL
