MODEL 1
REMARK minimizedAffinity 16.1218624
REMARK minimizedRMSD -1
REMARK  0 active torsions:
REMARK  status: ('A' for Active; 'I' for Inactive)
ROOT
ATOM      1  N1  IND d   1      -2.545   4.076  -3.802  0.00  0.00    -0.196 N 
ATOM      2  C2  IND d   1      -2.392   2.771  -4.179  0.00  0.00     0.054 A 
ATOM      3  C3  IND d   1      -3.421   2.386  -4.967  0.00  0.00    -0.031 A 
ATOM      4  C4  IND d   1      -5.410   3.763  -5.848  0.00  0.00     0.051 A 
ATOM      5  C5  IND d   1      -5.999   4.992  -5.746  0.00  0.00    -0.031 A 
ATOM      6  C6  IND d   1      -5.454   6.000  -4.977  0.00  0.00     0.015 A 
ATOM      7  C7  IND d   1      -4.289   5.819  -4.288  0.00  0.00    -0.016 A 
ATOM      8  C8  IND d   1      -3.692   4.570  -4.384  0.00  0.00    -0.047 A 
ATOM      9  C9  IND d   1      -4.262   3.529  -5.128  0.00  0.00    -0.096 A 
ATOM     10  HN1 IND d   1      -2.013   4.515  -3.287  0.00  0.00     0.298 HD
ENDROOT
TORSDOF 0
ENDMDL
