MODEL 1
REMARK minimizedAffinity 11.2825012
REMARK minimizedRMSD -1
REMARK  0 active torsions:
REMARK  status: ('A' for Active; 'I' for Inactive)
ROOT
ATOM      1  N1  IND d   1      -3.673   2.059   5.995  0.00  0.00    -0.196 N 
ATOM      2  C2  IND d   1      -4.992   2.420   6.000  0.00  0.00     0.054 A 
ATOM      3  C3  IND d   1      -5.760   1.400   5.555  0.00  0.00    -0.031 A 
ATOM      4  C4  IND d   1      -5.074  -0.983   4.863  0.00  0.00     0.051 A 
ATOM      5  C5  IND d   1      -3.977  -1.771   4.658  0.00  0.00    -0.031 A 
ATOM      6  C6  IND d   1      -2.696  -1.315   4.894  0.00  0.00     0.015 A 
ATOM      7  C7  IND d   1      -2.465  -0.051   5.359  0.00  0.00    -0.016 A 
ATOM      8  C8  IND d   1      -3.577   0.755   5.562  0.00  0.00    -0.047 A 
ATOM      9  C9  IND d   1      -4.876   0.311   5.283  0.00  0.00    -0.096 A 
ATOM     10  HN1 IND d   1      -3.015   2.563   6.223  0.00  0.00     0.298 HD
ENDROOT
TORSDOF 0
ENDMDL
