MODEL 1
REMARK minimizedAffinity 15.3088417
REMARK minimizedRMSD -1
REMARK  0 active torsions:
REMARK  status: ('A' for Active; 'I' for Inactive)
ROOT
ATOM      1  N1  IND d   1       0.926  -1.863  -3.211  0.00  0.00    -0.196 N 
ATOM      2  C2  IND d   1      -0.407  -1.647  -3.002  0.00  0.00     0.054 A 
ATOM      3  C3  IND d   1      -0.602  -0.449  -2.406  0.00  0.00    -0.031 A 
ATOM      4  C4  IND d   1       1.114   1.364  -1.778  0.00  0.00     0.051 A 
ATOM      5  C5  IND d   1       2.458   1.608  -1.741  0.00  0.00    -0.031 A 
ATOM      6  C6  IND d   1       3.379   0.690  -2.204  0.00  0.00     0.015 A 
ATOM      7  C7  IND d   1       2.987  -0.506  -2.734  0.00  0.00    -0.016 A 
ATOM      8  C8  IND d   1       1.624  -0.761  -2.767  0.00  0.00    -0.047 A 
ATOM      9  C9  IND d   1       0.687   0.149  -2.259  0.00  0.00    -0.096 A 
ATOM     10  HN1 IND d   1       1.272  -2.568  -3.561  0.00  0.00     0.298 HD
ENDROOT
TORSDOF 0
ENDMDL
