MODEL 1
REMARK minimizedAffinity 18.677927
REMARK minimizedRMSD -1
REMARK  0 active torsions:
REMARK  status: ('A' for Active; 'I' for Inactive)
ROOT
ATOM      1  N1  IND d   1      -5.078  -1.611   0.175  0.00  0.00    -0.196 N 
ATOM      2  C2  IND d   1      -5.658  -2.442   1.093  0.00  0.00     0.054 A 
ATOM      3  C3  IND d   1      -4.713  -3.160   1.741  0.00  0.00    -0.031 A 
ATOM      4  C4  IND d   1      -2.150  -3.058   1.528  0.00  0.00     0.051 A 
ATOM      5  C5  IND d   1      -1.152  -2.478   0.796  0.00  0.00    -0.031 A 
ATOM      6  C6  IND d   1      -1.417  -1.558  -0.198  0.00  0.00     0.015 A 
ATOM      7  C7  IND d   1      -2.695  -1.175  -0.491  0.00  0.00    -0.016 A 
ATOM      8  C8  IND d   1      -3.711  -1.767   0.245  0.00  0.00    -0.047 A 
ATOM      9  C9  IND d   1      -3.451  -2.732   1.226  0.00  0.00    -0.096 A 
ATOM     10  HN1 IND d   1      -5.497  -1.080  -0.356  0.00  0.00     0.298 HD
ENDROOT
TORSDOF 0
ENDMDL
