MODEL 1
REMARK minimizedAffinity 2.52809381
REMARK minimizedRMSD -1
REMARK  0 active torsions:
REMARK  status: ('A' for Active; 'I' for Inactive)
ROOT
ATOM      1  N1  IND d   1      -3.065   3.389   0.738  0.00  0.00    -0.196 N 
ATOM      2  C2  IND d   1      -3.923   2.832   1.645  0.00  0.00     0.054 A 
ATOM      3  C3  IND d   1      -5.149   3.390   1.536  0.00  0.00    -0.031 A 
ATOM      4  C4  IND d   1      -5.999   5.160  -0.129  0.00  0.00     0.051 A 
ATOM      5  C5  IND d   1      -5.574   5.993  -1.125  0.00  0.00    -0.031 A 
ATOM      6  C6  IND d   1      -4.265   6.000  -1.561  0.00  0.00     0.015 A 
ATOM      7  C7  IND d   1      -3.330   5.161  -1.023  0.00  0.00    -0.016 A 
ATOM      8  C8  IND d   1      -3.757   4.318  -0.007  0.00  0.00    -0.047 A 
ATOM      9  C9  IND d   1      -5.074   4.337   0.469  0.00  0.00    -0.096 A 
ATOM     10  HN1 IND d   1      -2.232   3.192   0.649  0.00  0.00     0.298 HD
ENDROOT
TORSDOF 0
ENDMDL
