MODEL 1
REMARK minimizedAffinity 9.02170467
REMARK minimizedRMSD -1
REMARK  0 active torsions:
REMARK  status: ('A' for Active; 'I' for Inactive)
ROOT
ATOM      1  N1  IND d   1      -1.807  -0.156   5.235  0.00  0.00    -0.196 N 
ATOM      2  C2  IND d   1      -1.899  -1.502   5.013  0.00  0.00     0.054 A 
ATOM      3  C3  IND d   1      -3.181  -1.913   5.136  0.00  0.00    -0.031 A 
ATOM      4  C4  IND d   1      -5.304  -0.532   5.593  0.00  0.00     0.051 A 
ATOM      5  C5  IND d   1      -5.721   0.733   5.900  0.00  0.00    -0.031 A 
ATOM      6  C6  IND d   1      -4.837   1.788   5.999  0.00  0.00     0.015 A 
ATOM      7  C7  IND d   1      -3.499   1.619   5.784  0.00  0.00    -0.016 A 
ATOM      8  C8  IND d   1      -3.071   0.334   5.480  0.00  0.00    -0.047 A 
ATOM      9  C9  IND d   1      -3.958  -0.748   5.419  0.00  0.00    -0.096 A 
ATOM     10  HN1 IND d   1      -1.083   0.306   5.223  0.00  0.00     0.298 HD
ENDROOT
TORSDOF 0
ENDMDL
