MODEL 1
REMARK minimizedAffinity 8.73189926
REMARK minimizedRMSD -1
REMARK  0 active torsions:
REMARK  status: ('A' for Active; 'I' for Inactive)
ROOT
ATOM      1  N1  IND d   1       2.636   1.403  -2.568  0.00  0.00    -0.196 N 
ATOM      2  C2  IND d   1       2.016   0.340  -1.973  0.00  0.00     0.054 A 
ATOM      3  C3  IND d   1       2.751  -0.783  -2.133  0.00  0.00    -0.031 A 
ATOM      4  C4  IND d   1       5.052  -1.087  -3.247  0.00  0.00     0.051 A 
ATOM      5  C5  IND d   1       5.999  -0.411  -3.964  0.00  0.00    -0.031 A 
ATOM      6  C6  IND d   1       5.873   0.931  -4.256  0.00  0.00     0.015 A 
ATOM      7  C7  IND d   1       4.795   1.654  -3.830  0.00  0.00    -0.016 A 
ATOM      8  C8  IND d   1       3.827   0.970  -3.108  0.00  0.00    -0.047 A 
ATOM      9  C9  IND d   1       3.930  -0.402  -2.845  0.00  0.00    -0.096 A 
ATOM     10  HN1 IND d   1       2.333   2.207  -2.600  0.00  0.00     0.298 HD
ENDROOT
TORSDOF 0
ENDMDL
