MODEL 1
REMARK minimizedAffinity 14.2221746
REMARK minimizedRMSD -1
REMARK  0 active torsions:
REMARK  status: ('A' for Active; 'I' for Inactive)
ROOT
ATOM      1  N1  IND d   1       0.017  -3.296  -3.400  0.00  0.00    -0.196 N 
ATOM      2  C2  IND d   1      -0.086  -1.950  -3.183  0.00  0.00     0.054 A 
ATOM      3  C3  IND d   1      -0.189  -1.694  -1.859  0.00  0.00    -0.031 A 
ATOM      4  C4  IND d   1      -0.109  -3.323   0.133  0.00  0.00     0.051 A 
ATOM      5  C5  IND d   1      -0.063  -4.655   0.434  0.00  0.00    -0.031 A 
ATOM      6  C6  IND d   1       0.016  -5.622  -0.548  0.00  0.00     0.015 A 
ATOM      7  C7  IND d   1       0.064  -5.290  -1.872  0.00  0.00    -0.016 A 
ATOM      8  C8  IND d   1       0.011  -3.938  -2.182  0.00  0.00    -0.047 A 
ATOM      9  C9  IND d   1      -0.113  -2.955  -1.192  0.00  0.00    -0.096 A 
ATOM     10  HN1 IND d   1       0.076  -3.676  -4.169  0.00  0.00     0.298 HD
ENDROOT
TORSDOF 0
ENDMDL
