MODEL 1
REMARK minimizedAffinity 11.4652357
REMARK minimizedRMSD -1
REMARK  0 active torsions:
REMARK  status: ('A' for Active; 'I' for Inactive)
ROOT
ATOM      1  N1  IND d   1      -2.719  -0.966   0.128  0.00  0.00    -0.196 N 
ATOM      2  C2  IND d   1      -1.961  -0.907  -1.007  0.00  0.00     0.054 A 
ATOM      3  C3  IND d   1      -1.084  -1.936  -1.042  0.00  0.00    -0.031 A 
ATOM      4  C4  IND d   1      -0.790  -3.890   0.608  0.00  0.00     0.051 A 
ATOM      5  C5  IND d   1      -1.230  -4.356   1.815  0.00  0.00    -0.031 A 
ATOM      6  C6  IND d   1      -2.210  -3.704   2.535  0.00  0.00     0.015 A 
ATOM      7  C7  IND d   1      -2.798  -2.563   2.067  0.00  0.00    -0.016 A 
ATOM      8  C8  IND d   1      -2.349  -2.083   0.845  0.00  0.00    -0.047 A 
ATOM      9  C9  IND d   1      -1.325  -2.717   0.130  0.00  0.00    -0.096 A 
ATOM     10  HN1 IND d   1      -3.326  -0.401   0.357  0.00  0.00     0.298 HD
ENDROOT
TORSDOF 0
ENDMDL
