MODEL 1
REMARK minimizedAffinity -3.31479788
REMARK minimizedRMSD -1
REMARK  2 active torsions:
REMARK  status: ('A' for Active; 'I' for Inactive)
REMARK    1  A    between atoms: C1_2  and  C2_3 
REMARK    2  A    between atoms: C2_3  and  C3_4 
ROOT
ATOM      1  C3  UNL d   1       0.584  -0.056  -2.051  0.00  0.00    -0.075 A 
ATOM      2  C4  UNL d   1       1.738   0.649  -2.421  0.00  0.00     0.002 A 
ATOM      3  C5  UNL d   1       2.057   0.829  -3.768  0.00  0.00     0.002 A 
ATOM      4  C6  UNL d   1       1.234   0.298  -4.758  0.00  0.00    -0.004 A 
ATOM      5  C7  UNL d   1       0.094  -0.418  -4.402  0.00  0.00     0.002 A 
ATOM      6  C8  UNL d   1      -0.230  -0.596  -3.056  0.00  0.00     0.002 A 
ENDROOT
BRANCH   1   7
ATOM      7  C2  UNL d   1       0.217  -0.228  -0.596  0.00  0.00     0.056 C 
BRANCH   7   8
ATOM      8  C1  UNL d   1      -1.265   0.017  -0.293  0.00  0.00     0.007 C 
ATOM      9  C   UNL d   1      -1.512   0.531   1.118  0.00  0.00     0.009 C 
ENDBRANCH   7   8
ENDBRANCH   1   7
TORSDOF 2
ENDMDL
