MODEL 1
REMARK minimizedAffinity -5.17774677
REMARK minimizedRMSD -1
REMARK  2 active torsions:
REMARK  status: ('A' for Active; 'I' for Inactive)
REMARK    1  A    between atoms: C1_2  and  C2_3 
REMARK    2  A    between atoms: C2_3  and  C3_4 
ROOT
ATOM      1  C3  UNL d   1      -0.092   0.551   1.194  0.00  0.00    -0.075 A 
ATOM      2  C4  UNL d   1       1.143   0.118   1.697  0.00  0.00     0.002 A 
ATOM      3  C5  UNL d   1       1.418   0.196   3.063  0.00  0.00     0.002 A 
ATOM      4  C6  UNL d   1       0.468   0.715   3.939  0.00  0.00    -0.004 A 
ATOM      5  C7  UNL d   1      -0.756   1.164   3.448  0.00  0.00     0.002 A 
ATOM      6  C8  UNL d   1      -1.036   1.083   2.082  0.00  0.00     0.002 A 
ENDROOT
BRANCH   1   7
ATOM      7  C2  UNL d   1      -0.406   0.443  -0.279  0.00  0.00     0.056 C 
BRANCH   7   8
ATOM      8  C1  UNL d   1       0.315  -0.708  -0.988  0.00  0.00     0.007 C 
ATOM      9  C   UNL d   1       1.007  -0.281  -2.276  0.00  0.00     0.009 C 
ENDBRANCH   7   8
ENDBRANCH   1   7
TORSDOF 2
ENDMDL
