MODEL 1
REMARK minimizedAffinity -5.9972887
REMARK minimizedRMSD -1
REMARK  2 active torsions:
REMARK  status: ('A' for Active; 'I' for Inactive)
REMARK    1  A    between atoms: C1_2  and  C2_3 
REMARK    2  A    between atoms: C2_3  and  C3_4 
ROOT
ATOM      1  C3  UNL d   1      -0.162   0.259   1.148  0.00  0.00    -0.075 A 
ATOM      2  C4  UNL d   1       1.182   0.064   1.496  0.00  0.00     0.002 A 
ATOM      3  C5  UNL d   1       1.621   0.316   2.796  0.00  0.00     0.002 A 
ATOM      4  C6  UNL d   1       0.726   0.775   3.760  0.00  0.00    -0.004 A 
ATOM      5  C7  UNL d   1      -0.609   0.989   3.421  0.00  0.00     0.002 A 
ATOM      6  C8  UNL d   1      -1.051   0.733   2.122  0.00  0.00     0.002 A 
ENDROOT
BRANCH   1   7
ATOM      7  C2  UNL d   1      -0.650  -0.040  -0.250  0.00  0.00     0.056 C 
BRANCH   7   8
ATOM      8  C1  UNL d   1       0.385  -0.743  -1.134  0.00  0.00     0.007 C 
ATOM      9  C   UNL d   1       0.688   0.013  -2.421  0.00  0.00     0.009 C 
ENDBRANCH   7   8
ENDBRANCH   1   7
TORSDOF 2
ENDMDL
