MODEL 1
REMARK minimizedAffinity -5.27589035
REMARK minimizedRMSD -1
REMARK  2 active torsions:
REMARK  status: ('A' for Active; 'I' for Inactive)
REMARK    1  A    between atoms: C1_2  and  C2_3 
REMARK    2  A    between atoms: C2_3  and  C3_4 
ROOT
ATOM      1  C3  UNL d   1       0.806  -0.489  -0.777  0.00  0.00    -0.075 A 
ATOM      2  C4  UNL d   1      -0.076   0.295  -0.019  0.00  0.00     0.002 A 
ATOM      3  C5  UNL d   1       0.169   0.528   1.335  0.00  0.00     0.002 A 
ATOM      4  C6  UNL d   1       1.290  -0.027   1.948  0.00  0.00    -0.004 A 
ATOM      5  C7  UNL d   1       2.164  -0.821   1.208  0.00  0.00     0.002 A 
ATOM      6  C8  UNL d   1       1.924  -1.052  -0.147  0.00  0.00     0.002 A 
ENDROOT
BRANCH   1   7
ATOM      7  C2  UNL d   1       0.562  -0.720  -2.250  0.00  0.00     0.056 C 
BRANCH   7   8
ATOM      8  C1  UNL d   1       1.480   0.093  -3.169  0.00  0.00     0.007 C 
ATOM      9  C   UNL d   1       1.026   0.093  -4.623  0.00  0.00     0.009 C 
ENDBRANCH   7   8
ENDBRANCH   1   7
TORSDOF 2
ENDMDL
