MODEL 1
REMARK minimizedAffinity -4.30934572
REMARK minimizedRMSD -1
REMARK  2 active torsions:
REMARK  status: ('A' for Active; 'I' for Inactive)
REMARK    1  A    between atoms: C1_2  and  C2_3 
REMARK    2  A    between atoms: C2_3  and  C3_4 
ROOT
ATOM      1  C3  UNL d   1      -0.682  -0.243   0.389  0.00  0.00    -0.075 A 
ATOM      2  C4  UNL d   1       0.492   0.244   0.983  0.00  0.00     0.002 A 
ATOM      3  C5  UNL d   1       0.457   0.815   2.255  0.00  0.00     0.002 A 
ATOM      4  C6  UNL d   1      -0.749   0.916   2.944  0.00  0.00    -0.004 A 
ATOM      5  C7  UNL d   1      -1.924   0.450   2.357  0.00  0.00     0.002 A 
ATOM      6  C8  UNL d   1      -1.892  -0.125   1.086  0.00  0.00     0.002 A 
ENDROOT
BRANCH   1   7
ATOM      7  C2  UNL d   1      -0.646  -0.889  -0.976  0.00  0.00     0.056 C 
BRANCH   7   8
ATOM      8  C1  UNL d   1       0.763  -1.041  -1.558  0.00  0.00     0.007 C 
ATOM      9  C   UNL d   1       0.860  -0.612  -3.016  0.00  0.00     0.009 C 
ENDBRANCH   7   8
ENDBRANCH   1   7
TORSDOF 2
ENDMDL
