MODEL 1
REMARK minimizedAffinity -5.85676765
REMARK minimizedRMSD -1
REMARK  2 active torsions:
REMARK  status: ('A' for Active; 'I' for Inactive)
REMARK    1  A    between atoms: C1_2  and  C2_3 
REMARK    2  A    between atoms: C2_3  and  C3_4 
ROOT
ATOM      1  C3  UNL d   1       0.514  -0.462  -0.256  0.00  0.00    -0.075 A 
ATOM      2  C4  UNL d   1      -0.567   0.308   0.197  0.00  0.00     0.002 A 
ATOM      3  C5  UNL d   1      -0.608   0.765   1.515  0.00  0.00     0.002 A 
ATOM      4  C6  UNL d   1       0.423   0.449   2.397  0.00  0.00    -0.004 A 
ATOM      5  C7  UNL d   1       1.493  -0.330   1.962  0.00  0.00     0.002 A 
ATOM      6  C8  UNL d   1       1.539  -0.784   0.643  0.00  0.00     0.002 A 
ENDROOT
BRANCH   1   7
ATOM      7  C2  UNL d   1       0.578  -0.934  -1.689  0.00  0.00     0.056 C 
BRANCH   7   8
ATOM      8  C1  UNL d   1       1.401  -0.025  -2.608  0.00  0.00     0.007 C 
ATOM      9  C   UNL d   1       1.050  -0.184  -4.082  0.00  0.00     0.009 C 
ENDBRANCH   7   8
ENDBRANCH   1   7
TORSDOF 2
ENDMDL
