MODEL 1
REMARK minimizedAffinity -5.17090368
REMARK minimizedRMSD -1
REMARK  2 active torsions:
REMARK  status: ('A' for Active; 'I' for Inactive)
REMARK    1  A    between atoms: C1_2  and  C2_3 
REMARK    2  A    between atoms: C2_3  and  C3_4 
ROOT
ATOM      1  C3  UNL d   1      -0.329   0.397   0.992  0.00  0.00    -0.075 A 
ATOM      2  C4  UNL d   1       0.954   0.283   1.548  0.00  0.00     0.002 A 
ATOM      3  C5  UNL d   1       1.132   0.321   2.931  0.00  0.00     0.002 A 
ATOM      4  C6  UNL d   1       0.034   0.483   3.773  0.00  0.00    -0.004 A 
ATOM      5  C7  UNL d   1      -1.243   0.614   3.231  0.00  0.00     0.002 A 
ATOM      6  C8  UNL d   1      -1.424   0.572   1.848  0.00  0.00     0.002 A 
ENDROOT
BRANCH   1   7
ATOM      7  C2  UNL d   1      -0.531   0.327  -0.503  0.00  0.00     0.056 C 
BRANCH   7   8
ATOM      8  C1  UNL d   1       0.467  -0.584  -1.226  0.00  0.00     0.007 C 
ATOM      9  C   UNL d   1       0.885  -0.053  -2.591  0.00  0.00     0.009 C 
ENDBRANCH   7   8
ENDBRANCH   1   7
TORSDOF 2
ENDMDL
