MODEL 1
REMARK minimizedAffinity -3.21470833
REMARK minimizedRMSD -1
REMARK  2 active torsions:
REMARK  status: ('A' for Active; 'I' for Inactive)
REMARK    1  A    between atoms: C1_2  and  C2_3 
REMARK    2  A    between atoms: C2_3  and  C3_4 
ROOT
ATOM      1  C3  UNL d   1       0.026  -0.234  -0.304  0.00  0.00    -0.075 A 
ATOM      2  C4  UNL d   1      -1.364  -0.102  -0.431  0.00  0.00     0.002 A 
ATOM      3  C5  UNL d   1      -2.119   0.464   0.597  0.00  0.00     0.002 A 
ATOM      4  C6  UNL d   1      -1.496   0.896   1.766  0.00  0.00    -0.004 A 
ATOM      5  C7  UNL d   1      -0.118   0.755   1.910  0.00  0.00     0.002 A 
ATOM      6  C8  UNL d   1       0.640   0.193   0.881  0.00  0.00     0.002 A 
ENDROOT
BRANCH   1   7
ATOM      7  C2  UNL d   1       0.852  -0.819  -1.424  0.00  0.00     0.056 C 
BRANCH   7   8
ATOM      8  C1  UNL d   1       0.388  -0.403  -2.824  0.00  0.00     0.007 C 
ATOM      9  C   UNL d   1       1.511   0.153  -3.689  0.00  0.00     0.009 C 
ENDBRANCH   7   8
ENDBRANCH   1   7
TORSDOF 2
ENDMDL
