MODEL 1
REMARK minimizedAffinity -4.54534197
REMARK minimizedRMSD -1
REMARK  2 active torsions:
REMARK  status: ('A' for Active; 'I' for Inactive)
REMARK    1  A    between atoms: C1_2  and  C2_3 
REMARK    2  A    between atoms: C2_3  and  C3_4 
ROOT
ATOM      1  C3  UNL d   1       0.353  -0.260   0.332  0.00  0.00    -0.075 A 
ATOM      2  C4  UNL d   1       1.189   0.296   1.311  0.00  0.00     0.002 A 
ATOM      3  C5  UNL d   1       0.652   1.040   2.362  0.00  0.00     0.002 A 
ATOM      4  C6  UNL d   1      -0.723   1.245   2.443  0.00  0.00    -0.004 A 
ATOM      5  C7  UNL d   1      -1.562   0.711   1.467  0.00  0.00     0.002 A 
ATOM      6  C8  UNL d   1      -1.028  -0.037   0.417  0.00  0.00     0.002 A 
ENDROOT
BRANCH   1   7
ATOM      7  C2  UNL d   1       0.925  -1.091  -0.792  0.00  0.00     0.056 C 
BRANCH   7   8
ATOM      8  C1  UNL d   1       0.277  -0.827  -2.155  0.00  0.00     0.007 C 
ATOM      9  C   UNL d   1       1.093   0.108  -3.037  0.00  0.00     0.009 C 
ENDBRANCH   7   8
ENDBRANCH   1   7
TORSDOF 2
ENDMDL
