MODEL 1
REMARK minimizedAffinity -6.11806345
REMARK minimizedRMSD -1
REMARK  2 active torsions:
REMARK  status: ('A' for Active; 'I' for Inactive)
REMARK    1  A    between atoms: C1_2  and  C2_3 
REMARK    2  A    between atoms: C2_3  and  C3_4 
ROOT
ATOM      1  C3  UNL d   1      -0.280   0.200   0.101  0.00  0.00    -0.075 A 
ATOM      2  C4  UNL d   1       0.646   0.671   1.043  0.00  0.00     0.002 A 
ATOM      3  C5  UNL d   1       0.213   1.190   2.264  0.00  0.00     0.002 A 
ATOM      4  C6  UNL d   1      -1.148   1.253   2.553  0.00  0.00    -0.004 A 
ATOM      5  C7  UNL d   1      -2.078   0.803   1.618  0.00  0.00     0.002 A 
ATOM      6  C8  UNL d   1      -1.647   0.280   0.398  0.00  0.00     0.002 A 
ENDROOT
BRANCH   1   7
ATOM      7  C2  UNL d   1       0.184  -0.390  -1.210  0.00  0.00     0.056 C 
BRANCH   7   8
ATOM      8  C1  UNL d   1       0.875   0.616  -2.136  0.00  0.00     0.007 C 
ATOM      9  C   UNL d   1       0.943   0.150  -3.584  0.00  0.00     0.009 C 
ENDBRANCH   7   8
ENDBRANCH   1   7
TORSDOF 2
ENDMDL
