MODEL 1
REMARK minimizedAffinity -4.83775473
REMARK minimizedRMSD -1
REMARK  2 active torsions:
REMARK  status: ('A' for Active; 'I' for Inactive)
REMARK    1  A    between atoms: C1_2  and  C2_3 
REMARK    2  A    between atoms: C2_3  and  C3_4 
ROOT
ATOM      1  C3  UNL d   1       0.400  -0.636  -0.051  0.00  0.00    -0.075 A 
ATOM      2  C4  UNL d   1      -0.976  -0.413  -0.206  0.00  0.00     0.002 A 
ATOM      3  C5  UNL d   1      -1.696   0.276   0.770  0.00  0.00     0.002 A 
ATOM      4  C6  UNL d   1      -1.054   0.741   1.916  0.00  0.00    -0.004 A 
ATOM      5  C7  UNL d   1       0.310   0.510   2.088  0.00  0.00     0.002 A 
ATOM      6  C8  UNL d   1       1.033  -0.175   1.111  0.00  0.00     0.002 A 
ENDROOT
BRANCH   1   7
ATOM      7  C2  UNL d   1       1.191  -1.356  -1.118  0.00  0.00     0.056 C 
BRANCH   7   8
ATOM      8  C1  UNL d   1       0.871  -0.900  -2.545  0.00  0.00     0.007 C 
ATOM      9  C   UNL d   1       1.748   0.251  -3.019  0.00  0.00     0.009 C 
ENDBRANCH   7   8
ENDBRANCH   1   7
TORSDOF 2
ENDMDL
