MODEL 1
REMARK minimizedAffinity -4.71748209
REMARK minimizedRMSD -1
REMARK  2 active torsions:
REMARK  status: ('A' for Active; 'I' for Inactive)
REMARK    1  A    between atoms: C1_2  and  C2_3 
REMARK    2  A    between atoms: C2_3  and  C3_4 
ROOT
ATOM      1  C3  UNL d   1      -0.454  -0.257   0.341  0.00  0.00    -0.075 A 
ATOM      2  C4  UNL d   1       0.778  -0.028   0.970  0.00  0.00     0.002 A 
ATOM      3  C5  UNL d   1       0.833   0.616   2.207  0.00  0.00     0.002 A 
ATOM      4  C6  UNL d   1      -0.339   1.047   2.823  0.00  0.00    -0.004 A 
ATOM      5  C7  UNL d   1      -1.568   0.840   2.199  0.00  0.00     0.002 A 
ATOM      6  C8  UNL d   1      -1.626   0.192   0.964  0.00  0.00     0.002 A 
ENDROOT
BRANCH   1   7
ATOM      7  C2  UNL d   1      -0.522  -0.980  -0.983  0.00  0.00     0.056 C 
BRANCH   7   8
ATOM      8  C1  UNL d   1       0.460  -0.450  -2.034  0.00  0.00     0.007 C 
ATOM      9  C   UNL d   1       0.051  -0.789  -3.462  0.00  0.00     0.009 C 
ENDBRANCH   7   8
ENDBRANCH   1   7
TORSDOF 2
ENDMDL
