MODEL 1
REMARK minimizedAffinity 4.51054573
REMARK minimizedRMSD -1
REMARK  0 active torsions:
REMARK  status: ('A' for Active; 'I' for Inactive)
ROOT
ATOM      1  C   UNL d   1       2.283   1.469  -3.221  0.00  0.00     0.172 C 
ATOM      2  N   UNL d   1       3.018   0.227  -3.176  0.00  0.00    -0.070 N 
ATOM      3  C1  UNL d   1       2.718  -0.850  -2.384  0.00  0.00    -0.004 A 
ATOM      4  C2  UNL d   1       3.653  -1.831  -2.634  0.00  0.00    -0.047 A 
ATOM      5  C3  UNL d   1       4.546  -1.326  -3.609  0.00  0.00    -0.047 A 
ATOM      6  C4  UNL d   1       4.130  -0.051  -3.926  0.00  0.00    -0.004 A 
ENDROOT
TORSDOF 0
ENDMDL
