MODEL 1
REMARK minimizedAffinity 0.138790458
REMARK minimizedRMSD -1
REMARK  0 active torsions:
REMARK  status: ('A' for Active; 'I' for Inactive)
ROOT
ATOM      1  C   UNL d   1      -2.796  -0.035  -3.099  0.00  0.00     0.172 C 
ATOM      2  N   UNL d   1      -2.231  -0.077  -1.771  0.00  0.00    -0.070 N 
ATOM      3  C1  UNL d   1      -2.386  -1.097  -0.869  0.00  0.00    -0.004 A 
ATOM      4  C2  UNL d   1      -1.695  -0.758   0.274  0.00  0.00    -0.047 A 
ATOM      5  C3  UNL d   1      -1.105   0.509   0.052  0.00  0.00    -0.047 A 
ATOM      6  C4  UNL d   1      -1.453   0.907  -1.221  0.00  0.00    -0.004 A 
ENDROOT
TORSDOF 0
ENDMDL
