MODEL 1
REMARK minimizedAffinity -2.24886847
REMARK minimizedRMSD -1
REMARK  0 active torsions:
REMARK  status: ('A' for Active; 'I' for Inactive)
ROOT
ATOM      1  C   UNL d   1       4.276  -4.974   5.268  0.00  0.00     0.172 C 
ATOM      2  N   UNL d   1       4.958  -3.799   4.777  0.00  0.00    -0.070 N 
ATOM      3  C1  UNL d   1       5.264  -3.543   3.467  0.00  0.00    -0.004 A 
ATOM      4  C2  UNL d   1       5.911  -2.327   3.415  0.00  0.00    -0.047 A 
ATOM      5  C3  UNL d   1       5.998  -1.836   4.739  0.00  0.00    -0.047 A 
ATOM      6  C4  UNL d   1       5.400  -2.768   5.562  0.00  0.00    -0.004 A 
ENDROOT
TORSDOF 0
ENDMDL
