MODEL 1
REMARK minimizedAffinity 2.98881817
REMARK minimizedRMSD -1
REMARK  0 active torsions:
REMARK  status: ('A' for Active; 'I' for Inactive)
ROOT
ATOM      1  C   UNL d   1      -5.331   5.868   5.983  0.00  0.00     0.172 C 
ATOM      2  N   UNL d   1      -4.098   5.117   5.986  0.00  0.00    -0.070 N 
ATOM      3  C1  UNL d   1      -2.838   5.651   5.975  0.00  0.00    -0.004 A 
ATOM      4  C2  UNL d   1      -1.937   4.608   5.982  0.00  0.00    -0.047 A 
ATOM      5  C3  UNL d   1      -2.682   3.405   5.998  0.00  0.00    -0.047 A 
ATOM      6  C4  UNL d   1      -4.018   3.749   6.000  0.00  0.00    -0.004 A 
ENDROOT
TORSDOF 0
ENDMDL
