MODEL 1
REMARK minimizedAffinity 0.5989694
REMARK minimizedRMSD -1
REMARK  0 active torsions:
REMARK  status: ('A' for Active; 'I' for Inactive)
ROOT
ATOM      1  C   UNL d   1       2.741   1.758   0.463  0.00  0.00     0.172 C 
ATOM      2  N   UNL d   1       3.892   1.397   1.258  0.00  0.00    -0.070 N 
ATOM      3  C1  UNL d   1       3.859   0.714   2.444  0.00  0.00    -0.004 A 
ATOM      4  C2  UNL d   1       5.158   0.569   2.883  0.00  0.00    -0.047 A 
ATOM      5  C3  UNL d   1       5.999   1.187   1.928  0.00  0.00    -0.047 A 
ATOM      6  C4  UNL d   1       5.189   1.691   0.932  0.00  0.00    -0.004 A 
ENDROOT
TORSDOF 0
ENDMDL
