MODEL 1
REMARK minimizedAffinity 2.23718548
REMARK minimizedRMSD -1
REMARK  0 active torsions:
REMARK  status: ('A' for Active; 'I' for Inactive)
ROOT
ATOM      1  C   UNL d   1      -6.000   1.555   5.467  0.00  0.00     0.172 C 
ATOM      2  N   UNL d   1      -5.782   1.225   4.078  0.00  0.00    -0.070 N 
ATOM      3  C1  UNL d   1      -5.994   2.062   3.016  0.00  0.00    -0.004 A 
ATOM      4  C2  UNL d   1      -5.669   1.376   1.866  0.00  0.00    -0.047 A 
ATOM      5  C3  UNL d   1      -5.247   0.081   2.250  0.00  0.00    -0.047 A 
ATOM      6  C4  UNL d   1      -5.327   0.014   3.625  0.00  0.00    -0.004 A 
ENDROOT
TORSDOF 0
ENDMDL
