MODEL 1
REMARK minimizedAffinity 4.09493113
REMARK minimizedRMSD -1
REMARK  0 active torsions:
REMARK  status: ('A' for Active; 'I' for Inactive)
ROOT
ATOM      1  C   UNL d   1       0.211   0.792   1.633  0.00  0.00     0.172 C 
ATOM      2  N   UNL d   1      -0.187   0.258   0.352  0.00  0.00    -0.070 N 
ATOM      3  C1  UNL d   1      -0.121   0.921  -0.845  0.00  0.00    -0.004 A 
ATOM      4  C2  UNL d   1      -0.591   0.073  -1.824  0.00  0.00    -0.047 A 
ATOM      5  C3  UNL d   1      -0.953  -1.142  -1.194  0.00  0.00    -0.047 A 
ATOM      6  C4  UNL d   1      -0.692  -1.000   0.152  0.00  0.00    -0.004 A 
ENDROOT
TORSDOF 0
ENDMDL
