MODEL 1
REMARK minimizedAffinity 0.0606497191
REMARK minimizedRMSD -1
REMARK  0 active torsions:
REMARK  status: ('A' for Active; 'I' for Inactive)
ROOT
ATOM      1  C   UNL d   1       1.294   1.446  -2.377  0.00  0.00     0.172 C 
ATOM      2  N   UNL d   1       2.376   1.057  -3.251  0.00  0.00    -0.070 N 
ATOM      3  C1  UNL d   1       3.028  -0.147  -3.228  0.00  0.00    -0.004 A 
ATOM      4  C2  UNL d   1       3.989  -0.125  -4.214  0.00  0.00    -0.047 A 
ATOM      5  C3  UNL d   1       3.914   1.136  -4.852  0.00  0.00    -0.047 A 
ATOM      6  C4  UNL d   1       2.906   1.848  -4.236  0.00  0.00    -0.004 A 
ENDROOT
TORSDOF 0
ENDMDL
