MODEL 1
REMARK minimizedAffinity -1.26812732
REMARK minimizedRMSD -1
REMARK  0 active torsions:
REMARK  status: ('A' for Active; 'I' for Inactive)
ROOT
ATOM      1  C   UNL d   1       0.144  -1.592   3.085  0.00  0.00     0.172 C 
ATOM      2  N   UNL d   1       0.353  -0.481   2.187  0.00  0.00    -0.070 N 
ATOM      3  C1  UNL d   1       1.540   0.173   1.989  0.00  0.00    -0.004 A 
ATOM      4  C2  UNL d   1       1.324   1.167   1.059  0.00  0.00    -0.047 A 
ATOM      5  C3  UNL d   1      -0.040   1.108   0.686  0.00  0.00    -0.047 A 
ATOM      6  C4  UNL d   1      -0.617   0.079   1.399  0.00  0.00    -0.004 A 
ENDROOT
TORSDOF 0
ENDMDL
