MODEL 1
REMARK minimizedAffinity 1.2458421
REMARK minimizedRMSD -1
REMARK  0 active torsions:
REMARK  status: ('A' for Active; 'I' for Inactive)
ROOT
ATOM      1  C   UNL d   1      -0.192  -0.865  -1.121  0.00  0.00     0.172 C 
ATOM      2  N   UNL d   1      -1.195  -0.658  -2.139  0.00  0.00    -0.070 N 
ATOM      3  C1  UNL d   1      -2.274  -1.468  -2.373  0.00  0.00    -0.004 A 
ATOM      4  C2  UNL d   1      -2.987  -0.929  -3.422  0.00  0.00    -0.047 A 
ATOM      5  C3  UNL d   1      -2.313   0.245  -3.833  0.00  0.00    -0.047 A 
ATOM      6  C4  UNL d   1      -1.207   0.389  -3.022  0.00  0.00    -0.004 A 
ENDROOT
TORSDOF 0
ENDMDL
