MODEL 1
REMARK minimizedAffinity 4.41016197
REMARK minimizedRMSD -1
REMARK  0 active torsions:
REMARK  status: ('A' for Active; 'I' for Inactive)
ROOT
ATOM      1  C   UNL d   1       0.538   1.023  -0.174  0.00  0.00     0.172 C 
ATOM      2  N   UNL d   1       0.217  -0.225   0.478  0.00  0.00    -0.070 N 
ATOM      3  C1  UNL d   1       0.986  -0.855   1.420  0.00  0.00    -0.004 A 
ATOM      4  C2  UNL d   1       0.335  -2.011   1.793  0.00  0.00    -0.047 A 
ATOM      5  C3  UNL d   1      -0.867  -2.078   1.049  0.00  0.00    -0.047 A 
ATOM      6  C4  UNL d   1      -0.915  -0.960   0.244  0.00  0.00    -0.004 A 
ENDROOT
TORSDOF 0
ENDMDL
