MODEL 1
REMARK minimizedAffinity 4.88211489
REMARK minimizedRMSD -1
REMARK  0 active torsions:
REMARK  status: ('A' for Active; 'I' for Inactive)
ROOT
ATOM      1  C   UNL d   1      -5.981  -2.975   1.641  0.00  0.00     0.172 C 
ATOM      2  N   UNL d   1      -5.986  -2.299   2.917  0.00  0.00    -0.070 N 
ATOM      3  C1  UNL d   1      -5.977  -2.909   4.143  0.00  0.00    -0.004 A 
ATOM      4  C2  UNL d   1      -5.985  -1.922   5.106  0.00  0.00    -0.047 A 
ATOM      5  C3  UNL d   1      -6.000  -0.677   4.434  0.00  0.00    -0.047 A 
ATOM      6  C4  UNL d   1      -6.000  -0.939   3.081  0.00  0.00    -0.004 A 
ENDROOT
TORSDOF 0
ENDMDL
