MODEL 1
REMARK minimizedAffinity -1.60897195
REMARK minimizedRMSD -1
REMARK  0 active torsions:
REMARK  status: ('A' for Active; 'I' for Inactive)
ROOT
ATOM      1  C   UNL d   1       5.946   0.366   3.399  0.00  0.00     0.172 C 
ATOM      2  N   UNL d   1       5.747  -0.948   3.963  0.00  0.00    -0.070 N 
ATOM      3  C1  UNL d   1       5.300  -2.049   3.283  0.00  0.00    -0.004 A 
ATOM      4  C2  UNL d   1       5.247  -3.101   4.172  0.00  0.00    -0.047 A 
ATOM      5  C3  UNL d   1       5.677  -2.615   5.430  0.00  0.00    -0.047 A 
ATOM      6  C4  UNL d   1       5.980  -1.279   5.272  0.00  0.00    -0.004 A 
ENDROOT
TORSDOF 0
ENDMDL
