MODEL 1
REMARK minimizedAffinity 3.69622278
REMARK minimizedRMSD -1
REMARK  0 active torsions:
REMARK  status: ('A' for Active; 'I' for Inactive)
ROOT
ATOM      1  C   UNL d   1      -2.638   0.081   1.277  0.00  0.00     0.172 C 
ATOM      2  N   UNL d   1      -3.930   0.456   1.802  0.00  0.00    -0.070 N 
ATOM      3  C1  UNL d   1      -4.410   1.735   1.901  0.00  0.00    -0.004 A 
ATOM      4  C2  UNL d   1      -5.673   1.669   2.449  0.00  0.00    -0.047 A 
ATOM      5  C3  UNL d   1      -5.961   0.305   2.688  0.00  0.00    -0.047 A 
ATOM      6  C4  UNL d   1      -4.865  -0.424   2.278  0.00  0.00    -0.004 A 
ENDROOT
TORSDOF 0
ENDMDL
