MODEL 1
REMARK minimizedAffinity 2.87939167
REMARK minimizedRMSD -1
REMARK  0 active torsions:
REMARK  status: ('A' for Active; 'I' for Inactive)
ROOT
ATOM      1  C   UNL d   1       4.242  -1.634  -5.999  0.00  0.00     0.172 C 
ATOM      2  N   UNL d   1       3.930  -1.101  -4.694  0.00  0.00    -0.070 N 
ATOM      3  C1  UNL d   1       3.289  -1.774  -3.688  0.00  0.00    -0.004 A 
ATOM      4  C2  UNL d   1       3.184  -0.922  -2.610  0.00  0.00    -0.047 A 
ATOM      5  C3  UNL d   1       3.781   0.307  -2.981  0.00  0.00    -0.047 A 
ATOM      6  C4  UNL d   1       4.235   0.168  -4.276  0.00  0.00    -0.004 A 
ENDROOT
TORSDOF 0
ENDMDL
