MODEL 1
REMARK minimizedAffinity 4.79723787
REMARK minimizedRMSD -1
REMARK  0 active torsions:
REMARK  status: ('A' for Active; 'I' for Inactive)
ROOT
ATOM      1  C   UNL d   1      -4.576  -0.346   2.156  0.00  0.00     0.172 C 
ATOM      2  N   UNL d   1      -3.301   0.103   1.650  0.00  0.00    -0.070 N 
ATOM      3  C1  UNL d   1      -2.852   1.397   1.652  0.00  0.00    -0.004 A 
ATOM      4  C2  UNL d   1      -1.595   1.408   1.086  0.00  0.00    -0.047 A 
ATOM      5  C3  UNL d   1      -1.278   0.075   0.732  0.00  0.00    -0.047 A 
ATOM      6  C4  UNL d   1      -2.351  -0.712   1.092  0.00  0.00    -0.004 A 
ENDROOT
TORSDOF 0
ENDMDL
