MODEL 1
REMARK minimizedAffinity 6.78555822
REMARK minimizedRMSD -1
REMARK  2 active torsions:
REMARK  status: ('A' for Active; 'I' for Inactive)
REMARK    1  A    between atoms: C1_2  and  C2_3 
REMARK    2  A    between atoms: C2_3  and  C3_4 
ROOT
ATOM      1  C3  UNL d   1      -2.950   2.260  -2.042  0.00  0.00    -0.075 A 
ATOM      2  C4  UNL d   1      -1.672   2.680  -2.438  0.00  0.00     0.002 A 
ATOM      3  C5  UNL d   1      -0.605   1.781  -2.455  0.00  0.00     0.002 A 
ATOM      4  C6  UNL d   1      -0.800   0.457  -2.067  0.00  0.00    -0.004 A 
ATOM      5  C7  UNL d   1      -2.062   0.033  -1.656  0.00  0.00     0.002 A 
ATOM      6  C8  UNL d   1      -3.132   0.930  -1.642  0.00  0.00     0.002 A 
ENDROOT
BRANCH   1   7
ATOM      7  C2  UNL d   1      -4.115   3.221  -2.049  0.00  0.00     0.056 C 
BRANCH   7   8
ATOM      8  C1  UNL d   1      -3.770   4.616  -2.581  0.00  0.00     0.007 C 
ATOM      9  C   UNL d   1      -4.195   4.829  -4.028  0.00  0.00     0.009 C 
ENDBRANCH   7   8
ENDBRANCH   1   7
TORSDOF 2
ENDMDL
