MODEL 1
REMARK minimizedAffinity 4.75556946
REMARK minimizedRMSD -1
REMARK  2 active torsions:
REMARK  status: ('A' for Active; 'I' for Inactive)
REMARK    1  A    between atoms: C1_2  and  C2_3 
REMARK    2  A    between atoms: C2_3  and  C3_4 
ROOT
ATOM      1  C3  UNL d   1      -0.374   1.596  -0.488  0.00  0.00    -0.075 A 
ATOM      2  C4  UNL d   1       0.526   0.584  -0.851  0.00  0.00     0.002 A 
ATOM      3  C5  UNL d   1       0.486   0.026  -2.129  0.00  0.00     0.002 A 
ATOM      4  C6  UNL d   1      -0.458   0.463  -3.054  0.00  0.00    -0.004 A 
ATOM      5  C7  UNL d   1      -1.368   1.457  -2.699  0.00  0.00     0.002 A 
ATOM      6  C8  UNL d   1      -1.328   2.020  -1.423  0.00  0.00     0.002 A 
ENDROOT
BRANCH   1   7
ATOM      7  C2  UNL d   1      -0.317   2.225   0.884  0.00  0.00     0.056 C 
BRANCH   7   8
ATOM      8  C1  UNL d   1       0.426   1.383   1.926  0.00  0.00     0.007 C 
ATOM      9  C   UNL d   1      -0.357   1.200   3.219  0.00  0.00     0.009 C 
ENDBRANCH   7   8
ENDBRANCH   1   7
TORSDOF 2
ENDMDL
