MODEL 1
REMARK minimizedAffinity 5.25985813
REMARK minimizedRMSD -1
REMARK  2 active torsions:
REMARK  status: ('A' for Active; 'I' for Inactive)
REMARK    1  A    between atoms: C1_2  and  C2_3 
REMARK    2  A    between atoms: C2_3  and  C3_4 
ROOT
ATOM      1  C3  UNL d   1      -2.089   2.546  -2.375  0.00  0.00    -0.075 A 
ATOM      2  C4  UNL d   1      -2.881   1.554  -1.777  0.00  0.00     0.002 A 
ATOM      3  C5  UNL d   1      -4.230   1.789  -1.511  0.00  0.00     0.002 A 
ATOM      4  C6  UNL d   1      -4.801   3.020  -1.828  0.00  0.00    -0.004 A 
ATOM      5  C7  UNL d   1      -4.021   4.018  -2.406  0.00  0.00     0.002 A 
ATOM      6  C8  UNL d   1      -2.672   3.784  -2.678  0.00  0.00     0.002 A 
ENDROOT
BRANCH   1   7
ATOM      7  C2  UNL d   1      -0.636   2.288  -2.693  0.00  0.00     0.056 C 
BRANCH   7   8
ATOM      8  C1  UNL d   1      -0.293   0.807  -2.884  0.00  0.00     0.007 C 
ATOM      9  C   UNL d   1      -0.429   0.341  -4.328  0.00  0.00     0.009 C 
ENDBRANCH   7   8
ENDBRANCH   1   7
TORSDOF 2
ENDMDL
