MODEL 1
REMARK minimizedAffinity 6.51925659
REMARK minimizedRMSD -1
REMARK  2 active torsions:
REMARK  status: ('A' for Active; 'I' for Inactive)
REMARK    1  A    between atoms: C1_2  and  C2_3 
REMARK    2  A    between atoms: C2_3  and  C3_4 
ROOT
ATOM      1  C3  UNL d   1      -4.452  -0.668   2.739  0.00  0.00    -0.075 A 
ATOM      2  C4  UNL d   1      -5.714  -0.570   3.343  0.00  0.00     0.002 A 
ATOM      3  C5  UNL d   1      -5.999  -1.284   4.507  0.00  0.00     0.002 A 
ATOM      4  C6  UNL d   1      -5.032  -2.111   5.075  0.00  0.00    -0.004 A 
ATOM      5  C7  UNL d   1      -3.781  -2.229   4.474  0.00  0.00     0.002 A 
ATOM      6  C8  UNL d   1      -3.491  -1.512   3.312  0.00  0.00     0.002 A 
ENDROOT
BRANCH   1   7
ATOM      7  C2  UNL d   1      -4.127   0.125   1.496  0.00  0.00     0.056 C 
BRANCH   7   8
ATOM      8  C1  UNL d   1      -3.466  -0.699   0.386  0.00  0.00     0.007 C 
ATOM      9  C   UNL d   1      -3.839  -0.229  -1.014  0.00  0.00     0.009 C 
ENDBRANCH   7   8
ENDBRANCH   1   7
TORSDOF 2
ENDMDL
