MODEL 1
REMARK minimizedAffinity 3.68189573
REMARK minimizedRMSD -1
REMARK  2 active torsions:
REMARK  status: ('A' for Active; 'I' for Inactive)
REMARK    1  A    between atoms: C1_2  and  C2_3 
REMARK    2  A    between atoms: C2_3  and  C3_4 
ROOT
ATOM      1  C3  UNL d   1       4.520  -3.283  -1.696  0.00  0.00    -0.075 A 
ATOM      2  C4  UNL d   1       4.077  -4.046  -2.787  0.00  0.00     0.002 A 
ATOM      3  C5  UNL d   1       4.536  -5.350  -2.972  0.00  0.00     0.002 A 
ATOM      4  C6  UNL d   1       5.450  -5.904  -2.078  0.00  0.00    -0.004 A 
ATOM      5  C7  UNL d   1       5.910  -5.149  -1.001  0.00  0.00     0.002 A 
ATOM      6  C8  UNL d   1       5.449  -3.845  -0.811  0.00  0.00     0.002 A 
ENDROOT
BRANCH   1   7
ATOM      7  C2  UNL d   1       4.005  -1.881  -1.474  0.00  0.00     0.056 C 
BRANCH   7   8
ATOM      8  C1  UNL d   1       2.908  -1.782  -0.408  0.00  0.00     0.007 C 
ATOM      9  C   UNL d   1       2.426  -3.140   0.086  0.00  0.00     0.009 C 
ENDBRANCH   7   8
ENDBRANCH   1   7
TORSDOF 2
ENDMDL
