MODEL 1
REMARK minimizedAffinity 0.254107654
REMARK minimizedRMSD -1
REMARK  2 active torsions:
REMARK  status: ('A' for Active; 'I' for Inactive)
REMARK    1  A    between atoms: C1_2  and  C2_3 
REMARK    2  A    between atoms: C2_3  and  C3_4 
ROOT
ATOM      1  C3  UNL d   1      -0.624  -0.643  -0.280  0.00  0.00    -0.075 A 
ATOM      2  C4  UNL d   1      -0.019   0.379  -1.026  0.00  0.00     0.002 A 
ATOM      3  C5  UNL d   1       0.895   1.247  -0.427  0.00  0.00     0.002 A 
ATOM      4  C6  UNL d   1       1.206   1.111   0.924  0.00  0.00    -0.004 A 
ATOM      5  C7  UNL d   1       0.598   0.110   1.679  0.00  0.00     0.002 A 
ATOM      6  C8  UNL d   1      -0.313  -0.762   1.081  0.00  0.00     0.002 A 
ENDROOT
BRANCH   1   7
ATOM      7  C2  UNL d   1      -1.591  -1.604  -0.929  0.00  0.00     0.056 C 
BRANCH   7   8
ATOM      8  C1  UNL d   1      -1.083  -3.048  -0.999  0.00  0.00     0.007 C 
ATOM      9  C   UNL d   1      -1.868  -3.914  -1.976  0.00  0.00     0.009 C 
ENDBRANCH   7   8
ENDBRANCH   1   7
TORSDOF 2
ENDMDL
