MODEL 1
REMARK minimizedAffinity 8.84768772
REMARK minimizedRMSD -1
REMARK  2 active torsions:
REMARK  status: ('A' for Active; 'I' for Inactive)
REMARK    1  A    between atoms: C1_2  and  C2_3 
REMARK    2  A    between atoms: C2_3  and  C3_4 
ROOT
ATOM      1  C3  UNL d   1      -0.272   0.611  -0.055  0.00  0.00    -0.075 A 
ATOM      2  C4  UNL d   1       0.899  -0.046  -0.461  0.00  0.00     0.002 A 
ATOM      3  C5  UNL d   1       1.896  -0.354   0.465  0.00  0.00     0.002 A 
ATOM      4  C6  UNL d   1       1.741  -0.002   1.803  0.00  0.00    -0.004 A 
ATOM      5  C7  UNL d   1       0.589   0.666   2.215  0.00  0.00     0.002 A 
ATOM      6  C8  UNL d   1      -0.412   0.972   1.292  0.00  0.00     0.002 A 
ENDROOT
BRANCH   1   7
ATOM      7  C2  UNL d   1      -1.367   0.921  -1.047  0.00  0.00     0.056 C 
BRANCH   7   8
ATOM      8  C1  UNL d   1      -2.748   1.117  -0.410  0.00  0.00     0.007 C 
ATOM      9  C   UNL d   1      -3.735   1.828  -1.326  0.00  0.00     0.009 C 
ENDBRANCH   7   8
ENDBRANCH   1   7
TORSDOF 2
ENDMDL
