MODEL 1
REMARK minimizedAffinity -0.471653908
REMARK minimizedRMSD -1
REMARK  0 active torsions:
REMARK  status: ('A' for Active; 'I' for Inactive)
ROOT
ATOM      1  C   UNL d   1       1.000   0.785   2.263  0.00  0.00     0.023 A 
ATOM      2  C1  UNL d   1       0.368   1.996   1.983  0.00  0.00     0.003 A 
ATOM      3  C2  UNL d   1      -0.187   2.221   0.721  0.00  0.00     0.048 A 
ATOM      4  C3  UNL d   1      -0.108   1.229  -0.256  0.00  0.00     0.023 A 
ATOM      5  C4  UNL d   1       0.523   0.014   0.020  0.00  0.00     0.048 A 
ATOM      6  C5  UNL d   1       1.077  -0.205   1.283  0.00  0.00     0.003 A 
ATOM      7  I   UNL d   1      -0.933   1.560  -2.134  0.00  0.00    -0.146 I 
ENDROOT
TORSDOF 0
ENDMDL
