MODEL 1
REMARK minimizedAffinity 3.93599224
REMARK minimizedRMSD -1
REMARK  0 active torsions:
REMARK  status: ('A' for Active; 'I' for Inactive)
ROOT
ATOM      1  C   UNL d   1      -4.153   1.835  -0.724  0.00  0.00     0.023 A 
ATOM      2  C1  UNL d   1      -5.468   1.716  -1.176  0.00  0.00     0.003 A 
ATOM      3  C2  UNL d   1      -5.999   2.672  -2.044  0.00  0.00     0.048 A 
ATOM      4  C3  UNL d   1      -5.211   3.745  -2.456  0.00  0.00     0.023 A 
ATOM      5  C4  UNL d   1      -3.895   3.869  -2.007  0.00  0.00     0.048 A 
ATOM      6  C5  UNL d   1      -3.368   2.911  -1.139  0.00  0.00     0.003 A 
ATOM      7  I   UNL d   1      -5.999   5.170  -3.747  0.00  0.00    -0.146 I 
ENDROOT
TORSDOF 0
ENDMDL
