MODEL 1
REMARK minimizedAffinity 4.71109056
REMARK minimizedRMSD -1
REMARK  0 active torsions:
REMARK  status: ('A' for Active; 'I' for Inactive)
ROOT
ATOM      1  C   UNL d   1       0.841   3.935   1.380  0.00  0.00     0.023 A 
ATOM      2  C1  UNL d   1       1.308   3.473   2.610  0.00  0.00     0.003 A 
ATOM      3  C2  UNL d   1       1.128   2.136   2.970  0.00  0.00     0.048 A 
ATOM      4  C3  UNL d   1       0.481   1.266   2.094  0.00  0.00     0.023 A 
ATOM      5  C4  UNL d   1       0.013   1.723   0.861  0.00  0.00     0.048 A 
ATOM      6  C5  UNL d   1       0.194   3.061   0.506  0.00  0.00     0.003 A 
ATOM      7  I   UNL d   1       0.212  -0.725   2.627  0.00  0.00    -0.146 I 
ENDROOT
TORSDOF 0
ENDMDL
