MODEL 1
REMARK minimizedAffinity -2.38017845
REMARK minimizedRMSD -1
REMARK  0 active torsions:
REMARK  status: ('A' for Active; 'I' for Inactive)
ROOT
ATOM      1  C   UNL d   1      -0.749  -4.038  -0.918  0.00  0.00     0.023 A 
ATOM      2  C1  UNL d   1       0.344  -3.495  -0.243  0.00  0.00     0.003 A 
ATOM      3  C2  UNL d   1       0.549  -2.114  -0.241  0.00  0.00     0.048 A 
ATOM      4  C3  UNL d   1      -0.345  -1.281  -0.914  0.00  0.00     0.023 A 
ATOM      5  C4  UNL d   1      -1.440  -1.820  -1.590  0.00  0.00     0.048 A 
ATOM      6  C5  UNL d   1      -1.640  -3.202  -1.591  0.00  0.00     0.003 A 
ATOM      7  I   UNL d   1      -0.042   0.775  -0.912  0.00  0.00    -0.146 I 
ENDROOT
TORSDOF 0
ENDMDL
