MODEL 1
REMARK minimizedAffinity 6.75916433
REMARK minimizedRMSD -1
REMARK  0 active torsions:
REMARK  status: ('A' for Active; 'I' for Inactive)
ROOT
ATOM      1  C   UNL d   1      -1.711   0.036  -2.524  0.00  0.00     0.023 A 
ATOM      2  C1  UNL d   1      -0.689   0.940  -2.231  0.00  0.00     0.003 A 
ATOM      3  C2  UNL d   1       0.103   0.755  -1.095  0.00  0.00     0.048 A 
ATOM      4  C3  UNL d   1      -0.131  -0.335  -0.259  0.00  0.00     0.023 A 
ATOM      5  C4  UNL d   1      -1.152  -1.243  -0.549  0.00  0.00     0.048 A 
ATOM      6  C5  UNL d   1      -1.942  -1.054  -1.685  0.00  0.00     0.003 A 
ATOM      7  I   UNL d   1       1.046  -0.612   1.431  0.00  0.00    -0.146 I 
ENDROOT
TORSDOF 0
ENDMDL
