MODEL 1
REMARK minimizedAffinity -4.50021601
REMARK minimizedRMSD -1
REMARK  0 active torsions:
REMARK  status: ('A' for Active; 'I' for Inactive)
ROOT
ATOM      1  C   UNL d   1       2.469  -1.472   0.623  0.00  0.00    -0.002 A 
ATOM      2  C1  UNL d   1       2.608  -0.295   1.346  0.00  0.00     0.010 A 
ATOM      3  C2  UNL d   1       1.581   0.651   1.366  0.00  0.00     0.041 A 
ATOM      4  C3  UNL d   1       0.400   0.391   0.643  0.00  0.00    -0.075 A 
ATOM      5  S   UNL d   1      -0.990   1.404   0.523  0.00  0.00     0.015 SA
ATOM      6  C4  UNL d   1      -1.800   0.298  -0.489  0.00  0.00     0.022 A 
ATOM      7  C5  UNL d   1      -1.044  -0.822  -0.740  0.00  0.00     0.026 A 
ATOM      8  C6  UNL d   1       0.237  -0.787  -0.091  0.00  0.00    -0.082 A 
ATOM      9  C7  UNL d   1       1.297  -1.726  -0.093  0.00  0.00     0.045 A 
ENDROOT
TORSDOF 0
ENDMDL
