MODEL 1
REMARK minimizedAffinity -0.40493381
REMARK minimizedRMSD -1
REMARK  0 active torsions:
REMARK  status: ('A' for Active; 'I' for Inactive)
ROOT
ATOM      1  C   UNL d   1       2.786  -1.906   0.482  0.00  0.00    -0.002 A 
ATOM      2  C1  UNL d   1       2.248  -1.158   1.520  0.00  0.00     0.010 A 
ATOM      3  C2  UNL d   1       0.971  -0.604   1.409  0.00  0.00     0.041 A 
ATOM      4  C3  UNL d   1       0.236  -0.817   0.226  0.00  0.00    -0.075 A 
ATOM      5  S   UNL d   1      -1.347  -0.237  -0.134  0.00  0.00     0.015 SA
ATOM      6  C4  UNL d   1      -1.347  -0.969  -1.673  0.00  0.00     0.022 A 
ATOM      7  C5  UNL d   1      -0.175  -1.643  -1.923  0.00  0.00     0.026 A 
ATOM      8  C6  UNL d   1       0.756  -1.568  -0.833  0.00  0.00    -0.082 A 
ATOM      9  C7  UNL d   1       2.054  -2.116  -0.689  0.00  0.00     0.045 A 
ENDROOT
TORSDOF 0
ENDMDL
