MODEL 1
REMARK minimizedAffinity 0.516213298
REMARK minimizedRMSD -1
REMARK  0 active torsions:
REMARK  status: ('A' for Active; 'I' for Inactive)
ROOT
ATOM      1  C   UNL d   1       0.704   0.093   0.807  0.00  0.00    -0.002 A 
ATOM      2  C1  UNL d   1       0.268  -0.691  -0.252  0.00  0.00     0.010 A 
ATOM      3  C2  UNL d   1      -1.075  -0.681  -0.636  0.00  0.00     0.041 A 
ATOM      4  C3  UNL d   1      -1.979   0.138   0.068  0.00  0.00    -0.075 A 
ATOM      5  S   UNL d   1      -3.669   0.311  -0.226  0.00  0.00     0.015 SA
ATOM      6  C4  UNL d   1      -3.851   1.431   1.047  0.00  0.00     0.022 A 
ATOM      7  C5  UNL d   1      -2.662   1.677   1.691  0.00  0.00     0.026 A 
ATOM      8  C6  UNL d   1      -1.563   0.937   1.137  0.00  0.00    -0.082 A 
ATOM      9  C7  UNL d   1      -0.196   0.905   1.503  0.00  0.00     0.045 A 
ENDROOT
TORSDOF 0
ENDMDL
