MODEL 1
REMARK minimizedAffinity -4.38772011
REMARK minimizedRMSD -1
REMARK  0 active torsions:
REMARK  status: ('A' for Active; 'I' for Inactive)
ROOT
ATOM      1  C   UNL d   1      -0.978  -1.418  -1.175  0.00  0.00    -0.002 A 
ATOM      2  C1  UNL d   1      -1.060  -0.034  -1.232  0.00  0.00     0.010 A 
ATOM      3  C2  UNL d   1      -0.068   0.760  -0.653  0.00  0.00     0.041 A 
ATOM      4  C3  UNL d   1       1.018   0.134  -0.010  0.00  0.00    -0.075 A 
ATOM      5  S   UNL d   1       2.350   0.904   0.768  0.00  0.00     0.015 SA
ATOM      6  C4  UNL d   1       3.058  -0.587   1.194  0.00  0.00     0.022 A 
ATOM      7  C5  UNL d   1       2.311  -1.656   0.761  0.00  0.00     0.026 A 
ATOM      8  C6  UNL d   1       1.123  -1.258   0.059  0.00  0.00    -0.082 A 
ATOM      9  C7  UNL d   1       0.101  -2.036  -0.537  0.00  0.00     0.045 A 
ENDROOT
TORSDOF 0
ENDMDL
