MODEL 1
REMARK minimizedAffinity -2.07695222
REMARK minimizedRMSD -1
REMARK  0 active torsions:
REMARK  status: ('A' for Active; 'I' for Inactive)
ROOT
ATOM      1  C   UNL d   1       2.739  -0.280   1.088  0.00  0.00    -0.002 A 
ATOM      2  C1  UNL d   1       2.632  -1.551   0.541  0.00  0.00     0.010 A 
ATOM      3  C2  UNL d   1       1.508  -1.911  -0.205  0.00  0.00     0.041 A 
ATOM      4  C3  UNL d   1       0.484  -0.962  -0.396  0.00  0.00    -0.075 A 
ATOM      5  S   UNL d   1      -0.984  -1.179  -1.274  0.00  0.00     0.015 SA
ATOM      6  C4  UNL d   1      -1.503   0.410  -0.945  0.00  0.00     0.022 A 
ATOM      7  C5  UNL d   1      -0.591   1.104  -0.184  0.00  0.00     0.026 A 
ATOM      8  C6  UNL d   1       0.569   0.324   0.144  0.00  0.00    -0.082 A 
ATOM      9  C7  UNL d   1       1.721   0.658   0.896  0.00  0.00     0.045 A 
ENDROOT
TORSDOF 0
ENDMDL
