MODEL 1
REMARK minimizedAffinity 3.05758595
REMARK minimizedRMSD -1
REMARK  0 active torsions:
REMARK  status: ('A' for Active; 'I' for Inactive)
ROOT
ATOM      1  C   UNL d   1      -0.553  -2.812  -1.988  0.00  0.00     0.077 C 
ATOM      2  C1  UNL d   1      -0.547  -2.101  -0.667  0.00  0.00    -0.074 A 
ATOM      3  C2  UNL d   1      -0.733  -2.803   0.528  0.00  0.00    -0.005 A 
ATOM      4  C3  UNL d   1      -0.716  -2.130   1.749  0.00  0.00     0.006 A 
ATOM      5  C4  UNL d   1      -0.513  -0.750   1.788  0.00  0.00    -0.005 A 
ATOM      6  C5  UNL d   1      -0.325  -0.031   0.603  0.00  0.00    -0.074 A 
ATOM      7  C6  UNL d   1      -0.097   1.451   0.628  0.00  0.00     0.077 C 
ATOM      8  C7  UNL d   1      -0.337  -0.716  -0.620  0.00  0.00    -0.001 A 
ENDROOT
TORSDOF 0
ENDMDL
