MODEL 1
REMARK minimizedAffinity 5.7918334
REMARK minimizedRMSD -1
REMARK  0 active torsions:
REMARK  status: ('A' for Active; 'I' for Inactive)
ROOT
ATOM      1  C   UNL d   1      -5.968  -2.175  -2.930  0.00  0.00     0.077 C 
ATOM      2  C1  UNL d   1      -4.479  -2.337  -2.865  0.00  0.00    -0.074 A 
ATOM      3  C2  UNL d   1      -3.628  -1.426  -3.499  0.00  0.00    -0.005 A 
ATOM      4  C3  UNL d   1      -2.244  -1.585  -3.422  0.00  0.00     0.006 A 
ATOM      5  C4  UNL d   1      -1.698  -2.655  -2.712  0.00  0.00    -0.005 A 
ATOM      6  C5  UNL d   1      -2.533  -3.576  -2.071  0.00  0.00    -0.074 A 
ATOM      7  C6  UNL d   1      -1.963  -4.726  -1.295  0.00  0.00     0.077 C 
ATOM      8  C7  UNL d   1      -3.923  -3.405  -2.147  0.00  0.00    -0.001 A 
ENDROOT
TORSDOF 0
ENDMDL
