MODEL 1
REMARK minimizedAffinity 12.4459181
REMARK minimizedRMSD -1
REMARK  0 active torsions:
REMARK  status: ('A' for Active; 'I' for Inactive)
ROOT
ATOM      1  C   UNL d   1       2.627   1.754  -0.006  0.00  0.00     0.077 C 
ATOM      2  C1  UNL d   1       1.188   2.147   0.150  0.00  0.00    -0.074 A 
ATOM      3  C2  UNL d   1       0.163   1.217  -0.052  0.00  0.00    -0.005 A 
ATOM      4  C3  UNL d   1      -1.171   1.594   0.106  0.00  0.00     0.006 A 
ATOM      5  C4  UNL d   1      -1.493   2.903   0.466  0.00  0.00    -0.005 A 
ATOM      6  C5  UNL d   1      -0.481   3.847   0.672  0.00  0.00    -0.074 A 
ATOM      7  C6  UNL d   1      -0.810   5.256   1.069  0.00  0.00     0.077 C 
ATOM      8  C7  UNL d   1       0.856   3.458   0.519  0.00  0.00    -0.001 A 
ENDROOT
TORSDOF 0
ENDMDL
