MODEL 1
REMARK minimizedAffinity -3.79156566
REMARK minimizedRMSD -1
REMARK  0 active torsions:
REMARK  status: ('A' for Active; 'I' for Inactive)
ROOT
ATOM      1  C   UNL d   1       4.594  -4.803  -3.210  0.00  0.00     0.077 C 
ATOM      2  C1  UNL d   1       4.426  -3.562  -4.036  0.00  0.00    -0.074 A 
ATOM      3  C2  UNL d   1       3.562  -3.542  -5.136  0.00  0.00    -0.005 A 
ATOM      4  C3  UNL d   1       3.409  -2.379  -5.889  0.00  0.00     0.006 A 
ATOM      5  C4  UNL d   1       4.117  -1.225  -5.551  0.00  0.00    -0.005 A 
ATOM      6  C5  UNL d   1       4.986  -1.226  -4.455  0.00  0.00    -0.074 A 
ATOM      7  C6  UNL d   1       5.747   0.009  -4.073  0.00  0.00     0.077 C 
ATOM      8  C7  UNL d   1       5.129  -2.397  -3.699  0.00  0.00    -0.001 A 
ENDROOT
TORSDOF 0
ENDMDL
