MODEL 1
REMARK minimizedAffinity -4.19560719
REMARK minimizedRMSD -1
REMARK  0 active torsions:
REMARK  status: ('A' for Active; 'I' for Inactive)
ROOT
ATOM      1  C   UNL d   1       4.908  -1.116  -4.322  0.00  0.00     0.077 C 
ATOM      2  C1  UNL d   1       4.496  -2.530  -4.606  0.00  0.00    -0.074 A 
ATOM      3  C2  UNL d   1       3.748  -2.846  -5.744  0.00  0.00    -0.005 A 
ATOM      4  C3  UNL d   1       3.380  -4.166  -6.000  0.00  0.00     0.006 A 
ATOM      5  C4  UNL d   1       3.756  -5.183  -5.121  0.00  0.00    -0.005 A 
ATOM      6  C5  UNL d   1       4.505  -4.886  -3.978  0.00  0.00    -0.074 A 
ATOM      7  C6  UNL d   1       4.926  -5.968  -3.028  0.00  0.00     0.077 C 
ATOM      8  C7  UNL d   1       4.876  -3.558  -3.732  0.00  0.00    -0.001 A 
ENDROOT
TORSDOF 0
ENDMDL
