MODEL 1
REMARK minimizedAffinity 6.99200153
REMARK minimizedRMSD -1
REMARK  0 active torsions:
REMARK  status: ('A' for Active; 'I' for Inactive)
ROOT
ATOM      1  C   UNL d   1       3.274   2.940   3.961  0.00  0.00     0.077 C 
ATOM      2  C1  UNL d   1       2.640   1.922   3.060  0.00  0.00    -0.074 A 
ATOM      3  C2  UNL d   1       2.365   0.629   3.516  0.00  0.00    -0.005 A 
ATOM      4  C3  UNL d   1       1.767  -0.303   2.669  0.00  0.00     0.006 A 
ATOM      5  C4  UNL d   1       1.438   0.047   1.359  0.00  0.00    -0.005 A 
ATOM      6  C5  UNL d   1       1.704   1.336   0.885  0.00  0.00    -0.074 A 
ATOM      7  C6  UNL d   1       1.347   1.732  -0.517  0.00  0.00     0.077 C 
ATOM      8  C7  UNL d   1       2.299   2.269   1.745  0.00  0.00    -0.001 A 
ENDROOT
TORSDOF 0
ENDMDL
