MODEL 1
REMARK minimizedAffinity 8.03445435
REMARK minimizedRMSD -1
REMARK  0 active torsions:
REMARK  status: ('A' for Active; 'I' for Inactive)
ROOT
ATOM      1  C   UNL d   1      -0.598   1.242  -0.523  0.00  0.00     0.077 C 
ATOM      2  C1  UNL d   1       0.610   1.211   0.366  0.00  0.00    -0.074 A 
ATOM      3  C2  UNL d   1       1.650   2.131   0.199  0.00  0.00    -0.005 A 
ATOM      4  C3  UNL d   1       2.762   2.095   1.039  0.00  0.00     0.006 A 
ATOM      5  C4  UNL d   1       2.847   1.140   2.053  0.00  0.00    -0.005 A 
ATOM      6  C5  UNL d   1       1.816   0.212   2.236  0.00  0.00    -0.074 A 
ATOM      7  C6  UNL d   1       1.886  -0.814   3.327  0.00  0.00     0.077 C 
ATOM      8  C7  UNL d   1       0.698   0.259   1.392  0.00  0.00    -0.001 A 
ENDROOT
TORSDOF 0
ENDMDL
