MODEL 1
REMARK minimizedAffinity 7.85766077
REMARK minimizedRMSD -1
REMARK  0 active torsions:
REMARK  status: ('A' for Active; 'I' for Inactive)
ROOT
ATOM      1  C   UNL d   1      -0.078  -1.917   1.579  0.00  0.00     0.077 C 
ATOM      2  C1  UNL d   1       0.721  -0.649   1.614  0.00  0.00    -0.074 A 
ATOM      3  C2  UNL d   1       1.913  -0.570   2.342  0.00  0.00    -0.005 A 
ATOM      4  C3  UNL d   1       2.650   0.614   2.358  0.00  0.00     0.006 A 
ATOM      5  C4  UNL d   1       2.203   1.730   1.647  0.00  0.00    -0.005 A 
ATOM      6  C5  UNL d   1       1.014   1.669   0.914  0.00  0.00    -0.074 A 
ATOM      7  C6  UNL d   1       0.525   2.855   0.137  0.00  0.00     0.077 C 
ATOM      8  C7  UNL d   1       0.283   0.474   0.897  0.00  0.00    -0.001 A 
ENDROOT
TORSDOF 0
ENDMDL
