MODEL 1
REMARK minimizedAffinity -0.714029014
REMARK minimizedRMSD -1
REMARK  0 active torsions:
REMARK  status: ('A' for Active; 'I' for Inactive)
ROOT
ATOM      1  C   UNL d   1       2.771  -5.997  -2.576  0.00  0.00     0.077 C 
ATOM      2  C1  UNL d   1       3.374  -5.293  -3.755  0.00  0.00    -0.074 A 
ATOM      3  C2  UNL d   1       3.735  -6.000  -4.907  0.00  0.00    -0.005 A 
ATOM      4  C3  UNL d   1       4.285  -5.330  -6.000  0.00  0.00     0.006 A 
ATOM      5  C4  UNL d   1       4.481  -3.949  -5.952  0.00  0.00    -0.005 A 
ATOM      6  C5  UNL d   1       4.125  -3.226  -4.809  0.00  0.00    -0.074 A 
ATOM      7  C6  UNL d   1       4.319  -1.740  -4.745  0.00  0.00     0.077 C 
ATOM      8  C7  UNL d   1       3.566  -3.905  -3.718  0.00  0.00    -0.001 A 
ENDROOT
TORSDOF 0
ENDMDL
