MODEL 1
REMARK minimizedAffinity 0.457493126
REMARK minimizedRMSD -1
REMARK  2 active torsions:
REMARK  status: ('A' for Active; 'I' for Inactive)
REMARK    1  A    between atoms: C2'_3  and  C1'_4 
REMARK    2  A    between atoms: C1'_4  and  C1_5 
ROOT
ATOM      1  C1  I4B d   1       0.524   0.247  -0.720  0.00  0.00    -0.075 A 
ATOM      2  C2  I4B d   1       0.158   1.158   0.240  0.00  0.00     0.003 A 
ATOM      3  C3  I4B d   1       0.900   1.265   1.441  0.00  0.00     0.002 A 
ATOM      4  C4  I4B d   1       1.964   0.414   1.661  0.00  0.00    -0.004 A 
ATOM      5  C5  I4B d   1       2.348  -0.493   0.677  0.00  0.00     0.002 A 
ATOM      6  C6  I4B d   1       1.632  -0.569  -0.526  0.00  0.00     0.003 A 
ENDROOT
BRANCH   1   7
ATOM      7  C1' I4B d   1      -0.301   0.138  -1.962  0.00  0.00     0.060 C 
BRANCH   7   8
ATOM      8  C2' I4B d   1       0.641  -0.050  -3.134  0.00  0.00    -0.013 C 
ATOM      9  C4' I4B d   1       0.239  -1.234  -3.973  0.00  0.00     0.013 C 
ATOM     10  C3' I4B d   1       0.632   1.214  -3.942  0.00  0.00     0.013 C 
ENDBRANCH   7   8
ENDBRANCH   1   7
TORSDOF 2
ENDMDL
