MODEL 1
REMARK minimizedAffinity 0.0529371686
REMARK minimizedRMSD -1
REMARK  2 active torsions:
REMARK  status: ('A' for Active; 'I' for Inactive)
REMARK    1  A    between atoms: C2'_3  and  C1'_4 
REMARK    2  A    between atoms: C1'_4  and  C1_5 
ROOT
ATOM      1  C1  I4B d   1      -0.289   0.820   0.814  0.00  0.00    -0.075 A 
ATOM      2  C2  I4B d   1       0.962   0.463   1.251  0.00  0.00     0.003 A 
ATOM      3  C3  I4B d   1       1.269   0.491   2.633  0.00  0.00     0.002 A 
ATOM      4  C4  I4B d   1       0.317   0.926   3.532  0.00  0.00    -0.004 A 
ATOM      5  C5  I4B d   1      -0.959   1.265   3.089  0.00  0.00     0.002 A 
ATOM      6  C6  I4B d   1      -1.268   1.200   1.723  0.00  0.00     0.003 A 
ENDROOT
BRANCH   1   7
ATOM      7  C1' I4B d   1      -0.569   0.811  -0.656  0.00  0.00     0.060 C 
BRANCH   7   8
ATOM      8  C2' I4B d   1      -1.135  -0.548  -1.015  0.00  0.00    -0.013 C 
ATOM      9  C4' I4B d   1      -0.174  -1.651  -0.657  0.00  0.00     0.013 C 
ATOM     10  C3' I4B d   1      -2.440  -0.711  -0.293  0.00  0.00     0.013 C 
ENDBRANCH   7   8
ENDBRANCH   1   7
TORSDOF 2
ENDMDL
