MODEL 1
REMARK minimizedAffinity 1.93540704
REMARK minimizedRMSD -1
REMARK  2 active torsions:
REMARK  status: ('A' for Active; 'I' for Inactive)
REMARK    1  A    between atoms: C2'_3  and  C1'_4 
REMARK    2  A    between atoms: C1'_4  and  C1_5 
ROOT
ATOM      1  C1  I4B d   1      -0.409  -0.510   0.839  0.00  0.00    -0.075 A 
ATOM      2  C2  I4B d   1      -0.104  -1.175  -0.323  0.00  0.00     0.003 A 
ATOM      3  C3  I4B d   1      -1.057  -1.260  -1.367  0.00  0.00     0.002 A 
ATOM      4  C4  I4B d   1      -2.312  -0.714  -1.187  0.00  0.00    -0.004 A 
ATOM      5  C5  I4B d   1      -2.611  -0.021  -0.018  0.00  0.00     0.002 A 
ATOM      6  C6  I4B d   1      -1.650   0.092   0.997  0.00  0.00     0.003 A 
ENDROOT
BRANCH   1   7
ATOM      7  C1' I4B d   1       0.610  -0.467   1.933  0.00  0.00     0.060 C 
BRANCH   7   8
ATOM      8  C2' I4B d   1      -0.035  -1.009   3.193  0.00  0.00    -0.013 C 
ATOM      9  C4' I4B d   1       1.003  -1.463   4.185  0.00  0.00     0.013 C 
ATOM     10  C3' I4B d   1      -0.901   0.070   3.770  0.00  0.00     0.013 C 
ENDBRANCH   7   8
ENDBRANCH   1   7
TORSDOF 2
ENDMDL
