MODEL 1
REMARK minimizedAffinity 1.49309027
REMARK minimizedRMSD -1
REMARK  2 active torsions:
REMARK  status: ('A' for Active; 'I' for Inactive)
REMARK    1  A    between atoms: C2'_3  and  C1'_4 
REMARK    2  A    between atoms: C1'_4  and  C1_5 
ROOT
ATOM      1  C1  I4B d   1       0.040  -0.086   3.168  0.00  0.00    -0.075 A 
ATOM      2  C2  I4B d   1       1.314   0.421   3.234  0.00  0.00     0.003 A 
ATOM      3  C3  I4B d   1       2.371  -0.371   3.744  0.00  0.00     0.002 A 
ATOM      4  C4  I4B d   1       2.103  -1.637   4.221  0.00  0.00    -0.004 A 
ATOM      5  C5  I4B d   1       0.815  -2.159   4.132  0.00  0.00     0.002 A 
ATOM      6  C6  I4B d   1      -0.221  -1.383   3.591  0.00  0.00     0.003 A 
ENDROOT
BRANCH   1   7
ATOM      7  C1' I4B d   1      -1.058   0.789   2.654  0.00  0.00     0.060 C 
BRANCH   7   8
ATOM      8  C2' I4B d   1      -2.037  -0.086   1.898  0.00  0.00    -0.013 C 
ATOM      9  C4' I4B d   1      -3.144  -0.570   2.797  0.00  0.00     0.013 C 
ATOM     10  C3' I4B d   1      -2.581   0.713   0.751  0.00  0.00     0.013 C 
ENDBRANCH   7   8
ENDBRANCH   1   7
TORSDOF 2
ENDMDL
