MODEL 1
REMARK minimizedAffinity 2.15295577
REMARK minimizedRMSD -1
REMARK  2 active torsions:
REMARK  status: ('A' for Active; 'I' for Inactive)
REMARK    1  A    between atoms: C2'_3  and  C1'_4 
REMARK    2  A    between atoms: C1'_4  and  C1_5 
ROOT
ATOM      1  C1  I4B d   1       0.267  -1.327   3.328  0.00  0.00    -0.075 A 
ATOM      2  C2  I4B d   1      -0.022  -1.951   4.516  0.00  0.00     0.003 A 
ATOM      3  C3  I4B d   1      -1.368  -2.134   4.916  0.00  0.00     0.002 A 
ATOM      4  C4  I4B d   1      -2.385  -1.637   4.128  0.00  0.00    -0.004 A 
ATOM      5  C5  I4B d   1      -2.091  -1.025   2.913  0.00  0.00     0.002 A 
ATOM      6  C6  I4B d   1      -0.758  -0.879   2.504  0.00  0.00     0.003 A 
ENDROOT
BRANCH   1   7
ATOM      7  C1' I4B d   1       1.700  -1.120   2.952  0.00  0.00     0.060 C 
BRANCH   7   8
ATOM      8  C2' I4B d   1       1.745  -0.117   1.818  0.00  0.00    -0.013 C 
ATOM      9  C4' I4B d   1       2.669   1.028   2.139  0.00  0.00     0.013 C 
ATOM     10  C3' I4B d   1       2.186  -0.837   0.579  0.00  0.00     0.013 C 
ENDBRANCH   7   8
ENDBRANCH   1   7
TORSDOF 2
ENDMDL
