MODEL 1
REMARK minimizedAffinity 4.24950981
REMARK minimizedRMSD -1
REMARK  2 active torsions:
REMARK  status: ('A' for Active; 'I' for Inactive)
REMARK    1  A    between atoms: C2'_3  and  C1'_4 
REMARK    2  A    between atoms: C1'_4  and  C1_5 
ROOT
ATOM      1  C1  I4B d   1      -1.318   0.131   1.795  0.00  0.00    -0.075 A 
ATOM      2  C2  I4B d   1      -2.131  -0.465   2.726  0.00  0.00     0.003 A 
ATOM      3  C3  I4B d   1      -1.570  -1.227   3.779  0.00  0.00     0.002 A 
ATOM      4  C4  I4B d   1      -0.203  -1.408   3.833  0.00  0.00    -0.004 A 
ATOM      5  C5  I4B d   1       0.621  -0.784   2.902  0.00  0.00     0.002 A 
ATOM      6  C6  I4B d   1       0.062   0.001   1.883  0.00  0.00     0.003 A 
ENDROOT
BRANCH   1   7
ATOM      7  C1' I4B d   1      -1.946   0.902   0.677  0.00  0.00     0.060 C 
BRANCH   7   8
ATOM      8  C2' I4B d   1      -2.725  -0.073  -0.182  0.00  0.00    -0.013 C 
ATOM      9  C4' I4B d   1      -3.730   0.643  -1.045  0.00  0.00     0.013 C 
ATOM     10  C3' I4B d   1      -1.744  -0.842  -1.017  0.00  0.00     0.013 C 
ENDBRANCH   7   8
ENDBRANCH   1   7
TORSDOF 2
ENDMDL
