MODEL 1
REMARK minimizedAffinity 3.49199653
REMARK minimizedRMSD -1
REMARK  2 active torsions:
REMARK  status: ('A' for Active; 'I' for Inactive)
REMARK    1  A    between atoms: C2'_3  and  C1'_4 
REMARK    2  A    between atoms: C1'_4  and  C1_5 
ROOT
ATOM      1  C1  I4B d   1      -1.022   0.151   1.744  0.00  0.00    -0.075 A 
ATOM      2  C2  I4B d   1      -1.112  -0.466   2.967  0.00  0.00     0.003 A 
ATOM      3  C3  I4B d   1       0.035  -1.050   3.557  0.00  0.00     0.002 A 
ATOM      4  C4  I4B d   1       1.233  -1.038   2.871  0.00  0.00    -0.004 A 
ATOM      5  C5  I4B d   1       1.327  -0.392   1.641  0.00  0.00     0.002 A 
ATOM      6  C6  I4B d   1       0.196   0.217   1.079  0.00  0.00     0.003 A 
ENDROOT
BRANCH   1   7
ATOM      7  C1' I4B d   1      -2.261   0.728   1.135  0.00  0.00     0.060 C 
BRANCH   7   8
ATOM      8  C2' I4B d   1      -2.243   0.413  -0.347  0.00  0.00    -0.013 C 
ATOM      9  C4' I4B d   1      -2.399  -1.065  -0.592  0.00  0.00     0.013 C 
ATOM     10  C3' I4B d   1      -3.348   1.189  -0.999  0.00  0.00     0.013 C 
ENDBRANCH   7   8
ENDBRANCH   1   7
TORSDOF 2
ENDMDL
