MODEL 1
REMARK minimizedAffinity 2.05584693
REMARK minimizedRMSD -1
REMARK  2 active torsions:
REMARK  status: ('A' for Active; 'I' for Inactive)
REMARK    1  A    between atoms: C2'_3  and  C1'_4 
REMARK    2  A    between atoms: C1'_4  and  C1_5 
ROOT
ATOM      1  C1  I4B d   1      -0.273   0.244   1.646  0.00  0.00    -0.075 A 
ATOM      2  C2  I4B d   1      -1.082  -0.360   0.716  0.00  0.00     0.003 A 
ATOM      3  C3  I4B d   1      -1.424   0.319  -0.479  0.00  0.00     0.002 A 
ATOM      4  C4  I4B d   1      -0.978   1.610  -0.679  0.00  0.00    -0.004 A 
ATOM      5  C5  I4B d   1      -0.139   2.211   0.255  0.00  0.00     0.002 A 
ATOM      6  C6  I4B d   1       0.226   1.519   1.419  0.00  0.00     0.003 A 
ENDROOT
BRANCH   1   7
ATOM      7  C1' I4B d   1       0.041  -0.489   2.912  0.00  0.00     0.060 C 
BRANCH   7   8
ATOM      8  C2' I4B d   1      -1.225  -0.550   3.742  0.00  0.00    -0.013 C 
ATOM      9  C4' I4B d   1      -1.768  -1.953   3.806  0.00  0.00     0.013 C 
ATOM     10  C3' I4B d   1      -0.906  -0.030   5.112  0.00  0.00     0.013 C 
ENDBRANCH   7   8
ENDBRANCH   1   7
TORSDOF 2
ENDMDL
