MODEL 1
REMARK minimizedAffinity -2.32261348
REMARK minimizedRMSD -1
REMARK  1 active torsions:
REMARK  status: ('A' for Active; 'I' for Inactive)
REMARK    1  A    between atoms: C1_2  and  C2_3 
ROOT
ATOM      1  C2  UNL d   1      -0.065   0.730   0.169  0.00  0.00    -0.073 A 
ATOM      2  C3  UNL d   1       0.765  -0.362  -0.110  0.00  0.00    -0.002 A 
ATOM      3  C4  UNL d   1       2.114  -0.164  -0.408  0.00  0.00     0.004 A 
ATOM      4  C5  UNL d   1       2.647   1.125  -0.425  0.00  0.00    -0.004 A 
ATOM      5  C6  UNL d   1       1.836   2.228  -0.137  0.00  0.00    -0.075 A 
ATOM      6  C7  UNL d   1       2.393   3.621  -0.153  0.00  0.00     0.076 C 
ATOM      7  C8  UNL d   1       0.482   2.021   0.159  0.00  0.00     0.001 A 
ENDROOT
BRANCH   1   8
ATOM      8  C1  UNL d   1      -1.521   0.520   0.498  0.00  0.00     0.053 C 
ATOM      9  C   UNL d   1      -1.708  -0.154   1.848  0.00  0.00     0.018 C 
ENDBRANCH   1   8
TORSDOF 1
ENDMDL
