MODEL 1
REMARK minimizedAffinity -3.50844002
REMARK minimizedRMSD -1
REMARK  1 active torsions:
REMARK  status: ('A' for Active; 'I' for Inactive)
REMARK    1  A    between atoms: C1_2  and  C2_3 
ROOT
ATOM      1  C2  UNL d   1       0.299   3.585  -0.805  0.00  0.00    -0.073 A 
ATOM      2  C3  UNL d   1      -0.360   2.371  -0.582  0.00  0.00    -0.002 A 
ATOM      3  C4  UNL d   1      -0.934   1.674  -1.646  0.00  0.00     0.004 A 
ATOM      4  C5  UNL d   1      -0.849   2.180  -2.943  0.00  0.00    -0.004 A 
ATOM      5  C6  UNL d   1      -0.184   3.386  -3.188  0.00  0.00    -0.075 A 
ATOM      6  C7  UNL d   1      -0.086   3.944  -4.577  0.00  0.00     0.076 C 
ATOM      7  C8  UNL d   1       0.387   4.081  -2.114  0.00  0.00     0.001 A 
ENDROOT
BRANCH   1   8
ATOM      8  C1  UNL d   1       0.925   4.338   0.340  0.00  0.00     0.053 C 
ATOM      9  C   UNL d   1       2.426   4.105   0.423  0.00  0.00     0.018 C 
ENDBRANCH   1   8
TORSDOF 1
ENDMDL
