MODEL 1
REMARK minimizedAffinity -3.10963202
REMARK minimizedRMSD -1
REMARK  1 active torsions:
REMARK  status: ('A' for Active; 'I' for Inactive)
REMARK    1  A    between atoms: C1_2  and  C2_3 
ROOT
ATOM      1  C2  UNL d   1       2.288   1.318  -0.029  0.00  0.00    -0.073 A 
ATOM      2  C3  UNL d   1       3.142   0.229  -0.235  0.00  0.00    -0.002 A 
ATOM      3  C4  UNL d   1       2.659  -1.076  -0.127  0.00  0.00     0.004 A 
ATOM      4  C5  UNL d   1       1.318  -1.304   0.182  0.00  0.00    -0.004 A 
ATOM      5  C6  UNL d   1       0.446  -0.228   0.380  0.00  0.00    -0.075 A 
ATOM      6  C7  UNL d   1      -0.999  -0.457   0.715  0.00  0.00     0.076 C 
ATOM      7  C8  UNL d   1       0.940   1.079   0.272  0.00  0.00     0.001 A 
ENDROOT
BRANCH   1   8
ATOM      8  C1  UNL d   1       2.804   2.729  -0.152  0.00  0.00     0.053 C 
ATOM      9  C   UNL d   1       1.804   3.749   0.369  0.00  0.00     0.018 C 
ENDBRANCH   1   8
TORSDOF 1
ENDMDL
