MODEL 1
REMARK minimizedAffinity -4.19305658
REMARK minimizedRMSD -1
REMARK  1 active torsions:
REMARK  status: ('A' for Active; 'I' for Inactive)
REMARK    1  A    between atoms: C1_2  and  C2_3 
ROOT
ATOM      1  C2  UNL d   1       0.582   0.778   0.061  0.00  0.00    -0.073 A 
ATOM      2  C3  UNL d   1       1.736   0.026  -0.189  0.00  0.00    -0.002 A 
ATOM      3  C4  UNL d   1       1.823  -1.296   0.248  0.00  0.00     0.004 A 
ATOM      4  C5  UNL d   1       0.758  -1.882   0.932  0.00  0.00    -0.004 A 
ATOM      5  C6  UNL d   1      -0.408  -1.150   1.181  0.00  0.00    -0.075 A 
ATOM      6  C7  UNL d   1      -1.562  -1.764   1.917  0.00  0.00     0.076 C 
ATOM      7  C8  UNL d   1      -0.487   0.178   0.741  0.00  0.00     0.001 A 
ENDROOT
BRANCH   1   8
ATOM      8  C1  UNL d   1       0.481   2.204  -0.415  0.00  0.00     0.053 C 
ATOM      9  C   UNL d   1       1.355   3.142   0.402  0.00  0.00     0.018 C 
ENDBRANCH   1   8
TORSDOF 1
ENDMDL
