MODEL 1
REMARK minimizedAffinity -6.03886652
REMARK minimizedRMSD -1
REMARK  1 active torsions:
REMARK  status: ('A' for Active; 'I' for Inactive)
REMARK    1  A    between atoms: C1_2  and  C2_3 
ROOT
ATOM      1  C2  UNL d   1       0.707   2.026   0.416  0.00  0.00    -0.073 A 
ATOM      2  C3  UNL d   1      -0.610   1.584   0.245  0.00  0.00    -0.002 A 
ATOM      3  C4  UNL d   1      -0.886   0.222   0.121  0.00  0.00     0.004 A 
ATOM      4  C5  UNL d   1       0.149  -0.712   0.174  0.00  0.00    -0.004 A 
ATOM      5  C6  UNL d   1       1.470  -0.290   0.357  0.00  0.00    -0.075 A 
ATOM      6  C7  UNL d   1       2.595  -1.282   0.414  0.00  0.00     0.076 C 
ATOM      7  C8  UNL d   1       1.739   1.080   0.477  0.00  0.00     0.001 A 
ENDROOT
BRANCH   1   8
ATOM      8  C1  UNL d   1       1.009   3.496   0.556  0.00  0.00     0.053 C 
ATOM      9  C   UNL d   1       2.439   3.743   1.007  0.00  0.00     0.018 C 
ENDBRANCH   1   8
TORSDOF 1
ENDMDL
