MODEL 1
REMARK minimizedAffinity -1.90844321
REMARK minimizedRMSD -1
REMARK  1 active torsions:
REMARK  status: ('A' for Active; 'I' for Inactive)
REMARK    1  A    between atoms: C1_2  and  C2_3 
ROOT
ATOM      1  C2  UNL d   1       0.777   2.006  -0.354  0.00  0.00    -0.073 A 
ATOM      2  C3  UNL d   1       2.171   1.934  -0.457  0.00  0.00    -0.002 A 
ATOM      3  C4  UNL d   1       2.966   2.993  -0.017  0.00  0.00     0.004 A 
ATOM      4  C5  UNL d   1       2.378   4.130   0.536  0.00  0.00    -0.004 A 
ATOM      5  C6  UNL d   1       0.987   4.216   0.658  0.00  0.00    -0.075 A 
ATOM      6  C7  UNL d   1       0.338   5.434   1.248  0.00  0.00     0.076 C 
ATOM      7  C8  UNL d   1       0.195   3.150   0.211  0.00  0.00     0.001 A 
ENDROOT
BRANCH   1   8
ATOM      8  C1  UNL d   1      -0.086   0.863  -0.822  0.00  0.00     0.053 C 
ATOM      9  C   UNL d   1      -0.843   0.214   0.325  0.00  0.00     0.018 C 
ENDBRANCH   1   8
TORSDOF 1
ENDMDL
