MODEL 1
REMARK minimizedAffinity 3.10118484
REMARK minimizedRMSD -1
REMARK  1 active torsions:
REMARK  status: ('A' for Active; 'I' for Inactive)
REMARK    1  A    between atoms: C1_2  and  C2_3 
ROOT
ATOM      1  C2  UNL d   1      -1.089   1.430  -1.473  0.00  0.00    -0.073 A 
ATOM      2  C3  UNL d   1      -2.289   0.769  -1.760  0.00  0.00    -0.002 A 
ATOM      3  C4  UNL d   1      -2.975   1.038  -2.946  0.00  0.00     0.004 A 
ATOM      4  C5  UNL d   1      -2.466   1.963  -3.857  0.00  0.00    -0.004 A 
ATOM      5  C6  UNL d   1      -1.262   2.624  -3.593  0.00  0.00    -0.075 A 
ATOM      6  C7  UNL d   1      -0.702   3.623  -4.563  0.00  0.00     0.076 C 
ATOM      7  C8  UNL d   1      -0.580   2.351  -2.400  0.00  0.00     0.001 A 
ENDROOT
BRANCH   1   8
ATOM      8  C1  UNL d   1      -0.341   1.138  -0.197  0.00  0.00     0.053 C 
ATOM      9  C   UNL d   1      -0.918  -0.060   0.540  0.00  0.00     0.018 C 
ENDBRANCH   1   8
TORSDOF 1
ENDMDL
