MODEL 1
REMARK minimizedAffinity -2.39935231
REMARK minimizedRMSD -1
REMARK  1 active torsions:
REMARK  status: ('A' for Active; 'I' for Inactive)
REMARK    1  A    between atoms: C1_2  and  C2_3 
ROOT
ATOM      1  C2  UNL d   1       2.037   0.005   0.051  0.00  0.00    -0.073 A 
ATOM      2  C3  UNL d   1       2.738  -1.103   0.540  0.00  0.00    -0.002 A 
ATOM      3  C4  UNL d   1       2.051  -2.190   1.080  0.00  0.00     0.004 A 
ATOM      4  C5  UNL d   1       0.657  -2.185   1.131  0.00  0.00    -0.004 A 
ATOM      5  C6  UNL d   1      -0.063  -1.092   0.637  0.00  0.00    -0.075 A 
ATOM      6  C7  UNL d   1      -1.562  -1.069   0.686  0.00  0.00     0.076 C 
ATOM      7  C8  UNL d   1       0.635  -0.002   0.098  0.00  0.00     0.001 A 
ENDROOT
BRANCH   1   8
ATOM      8  C1  UNL d   1       2.775   1.179  -0.539  0.00  0.00     0.053 C 
ATOM      9  C   UNL d   1       2.400   2.487   0.139  0.00  0.00     0.018 C 
ENDBRANCH   1   8
TORSDOF 1
ENDMDL
