MODEL 1
REMARK minimizedAffinity -5.20982075
REMARK minimizedRMSD -1
REMARK  1 active torsions:
REMARK  status: ('A' for Active; 'I' for Inactive)
REMARK    1  A    between atoms: C1_2  and  C2_3 
ROOT
ATOM      1  C2  UNL d   1      -0.636   2.082  -1.237  0.00  0.00    -0.073 A 
ATOM      2  C3  UNL d   1      -1.806   1.316  -1.302  0.00  0.00    -0.002 A 
ATOM      3  C4  UNL d   1      -2.636   1.390  -2.421  0.00  0.00     0.004 A 
ATOM      4  C5  UNL d   1      -2.304   2.224  -3.488  0.00  0.00    -0.004 A 
ATOM      5  C6  UNL d   1      -1.133   2.989  -3.447  0.00  0.00    -0.075 A 
ATOM      6  C7  UNL d   1      -0.762   3.893  -4.586  0.00  0.00     0.076 C 
ATOM      7  C8  UNL d   1      -0.306   2.911  -2.319  0.00  0.00     0.001 A 
ENDROOT
BRANCH   1   8
ATOM      8  C1  UNL d   1       0.267   2.001  -0.034  0.00  0.00     0.053 C 
ATOM      9  C   UNL d   1       0.875   3.350   0.315  0.00  0.00     0.018 C 
ENDBRANCH   1   8
TORSDOF 1
ENDMDL
