MODEL 1
REMARK minimizedAffinity -3.53781962
REMARK minimizedRMSD -1
REMARK  1 active torsions:
REMARK  status: ('A' for Active; 'I' for Inactive)
REMARK    1  A    between atoms: C1_2  and  C2_3 
ROOT
ATOM      1  C2  UNL d   1       0.038   2.868  -0.704  0.00  0.00    -0.073 A 
ATOM      2  C3  UNL d   1       0.150   1.712   0.076  0.00  0.00    -0.002 A 
ATOM      3  C4  UNL d   1      -0.673   0.612  -0.171  0.00  0.00     0.004 A 
ATOM      4  C5  UNL d   1      -1.610   0.655  -1.203  0.00  0.00    -0.004 A 
ATOM      5  C6  UNL d   1      -1.729   1.797  -2.001  0.00  0.00    -0.075 A 
ATOM      6  C7  UNL d   1      -2.734   1.860  -3.114  0.00  0.00     0.076 C 
ATOM      7  C8  UNL d   1      -0.900   2.898  -1.745  0.00  0.00     0.001 A 
ENDROOT
BRANCH   1   8
ATOM      8  C1  UNL d   1       0.930   4.055  -0.445  0.00  0.00     0.053 C 
ATOM      9  C   UNL d   1       2.202   3.663   0.288  0.00  0.00     0.018 C 
ENDBRANCH   1   8
TORSDOF 1
ENDMDL
