MODEL 1
REMARK minimizedAffinity -3.90539217
REMARK minimizedRMSD -1
REMARK  1 active torsions:
REMARK  status: ('A' for Active; 'I' for Inactive)
REMARK    1  A    between atoms: C1_2  and  C2_3 
ROOT
ATOM      1  C2  UNL d   1      -0.355   2.928  -0.382  0.00  0.00    -0.073 A 
ATOM      2  C3  UNL d   1      -0.631   1.890   0.516  0.00  0.00    -0.002 A 
ATOM      3  C4  UNL d   1      -1.489   0.852   0.151  0.00  0.00     0.004 A 
ATOM      4  C5  UNL d   1      -2.073   0.836  -1.115  0.00  0.00    -0.004 A 
ATOM      5  C6  UNL d   1      -1.800   1.857  -2.031  0.00  0.00    -0.075 A 
ATOM      6  C7  UNL d   1      -2.422   1.856  -3.397  0.00  0.00     0.076 C 
ATOM      7  C8  UNL d   1      -0.940   2.898  -1.656  0.00  0.00     0.001 A 
ENDROOT
BRANCH   1   8
ATOM      8  C1  UNL d   1       0.575   4.048   0.005  0.00  0.00     0.053 C 
ATOM      9  C   UNL d   1       2.029   3.603   0.017  0.00  0.00     0.018 C 
ENDBRANCH   1   8
TORSDOF 1
ENDMDL
