MODEL 1
REMARK minimizedAffinity -2.16449571
REMARK minimizedRMSD -1
REMARK  1 active torsions:
REMARK  status: ('A' for Active; 'I' for Inactive)
REMARK    1  A    between atoms: C1_2  and  C2_3 
ROOT
ATOM      1  C2  UNL d   1      -1.078   0.385  -1.280  0.00  0.00    -0.073 A 
ATOM      2  C3  UNL d   1      -0.835   0.478  -2.655  0.00  0.00    -0.002 A 
ATOM      3  C4  UNL d   1      -1.769   1.083  -3.496  0.00  0.00     0.004 A 
ATOM      4  C5  UNL d   1      -2.951   1.607  -2.971  0.00  0.00    -0.004 A 
ATOM      5  C6  UNL d   1      -3.206   1.534  -1.598  0.00  0.00    -0.075 A 
ATOM      6  C7  UNL d   1      -4.473   2.091  -1.018  0.00  0.00     0.076 C 
ATOM      7  C8  UNL d   1      -2.264   0.922  -0.760  0.00  0.00     0.001 A 
ENDROOT
BRANCH   1   8
ATOM      8  C1  UNL d   1      -0.068  -0.263  -0.367  0.00  0.00     0.053 C 
ATOM      9  C   UNL d   1      -0.732  -0.979   0.799  0.00  0.00     0.018 C 
ENDBRANCH   1   8
TORSDOF 1
ENDMDL
