MODEL 1
REMARK minimizedAffinity -3.6329453
REMARK minimizedRMSD -1
REMARK  1 active torsions:
REMARK  status: ('A' for Active; 'I' for Inactive)
REMARK    1  A    between atoms: C1_2  and  C2_3 
ROOT
ATOM      1  C2  UNL d   1       1.258  -1.311   0.542  0.00  0.00    -0.073 A 
ATOM      2  C3  UNL d   1       1.240  -0.334  -0.460  0.00  0.00    -0.002 A 
ATOM      3  C4  UNL d   1       2.258   0.617  -0.537  0.00  0.00     0.004 A 
ATOM      4  C5  UNL d   1       3.307   0.598   0.382  0.00  0.00    -0.004 A 
ATOM      5  C6  UNL d   1       3.350  -0.377   1.384  0.00  0.00    -0.075 A 
ATOM      6  C7  UNL d   1       4.470  -0.411   2.381  0.00  0.00     0.076 C 
ATOM      7  C8  UNL d   1       2.322  -1.328   1.456  0.00  0.00     0.001 A 
ENDROOT
BRANCH   1   8
ATOM      8  C1  UNL d   1       0.164  -2.344   0.625  0.00  0.00     0.053 C 
ATOM      9  C   UNL d   1      -1.048  -1.831   1.387  0.00  0.00     0.018 C 
ENDBRANCH   1   8
TORSDOF 1
ENDMDL
