MODEL 1
REMARK minimizedAffinity -4.86573076
REMARK minimizedRMSD -1
REMARK  1 active torsions:
REMARK  status: ('A' for Active; 'I' for Inactive)
REMARK    1  A    between atoms: C1_2  and  C2_3 
ROOT
ATOM      1  C2  UNL d   1      -1.059   3.109  -1.021  0.00  0.00    -0.073 A 
ATOM      2  C3  UNL d   1      -1.989   2.065  -1.082  0.00  0.00    -0.002 A 
ATOM      3  C4  UNL d   1      -2.473   1.625  -2.315  0.00  0.00     0.004 A 
ATOM      4  C5  UNL d   1      -2.029   2.218  -3.496  0.00  0.00    -0.004 A 
ATOM      5  C6  UNL d   1      -1.091   3.254  -3.456  0.00  0.00    -0.075 A 
ATOM      6  C7  UNL d   1      -0.604   3.904  -4.718  0.00  0.00     0.076 C 
ATOM      7  C8  UNL d   1      -0.611   3.693  -2.214  0.00  0.00     0.001 A 
ENDROOT
BRANCH   1   8
ATOM      8  C1  UNL d   1      -0.528   3.584   0.307  0.00  0.00     0.053 C 
ATOM      9  C   UNL d   1       0.983   3.754   0.289  0.00  0.00     0.018 C 
ENDBRANCH   1   8
TORSDOF 1
ENDMDL
