MODEL 1
REMARK minimizedAffinity -5.20251703
REMARK minimizedRMSD -1
REMARK  0 active torsions:
REMARK  status: ('A' for Active; 'I' for Inactive)
ROOT
ATOM      1  C   UNL d   1      -1.522  -0.381   1.111  0.00  0.00     0.078 C 
ATOM      2  C1  UNL d   1      -0.062  -0.672   1.292  0.00  0.00    -0.077 A 
ATOM      3  C2  UNL d   1       0.489  -0.830   2.569  0.00  0.00    -0.001 A 
ATOM      4  C3  UNL d   1       1.851  -1.092   2.723  0.00  0.00     0.003 A 
ATOM      5  C4  UNL d   1       2.674  -1.197   1.604  0.00  0.00    -0.005 A 
ATOM      6  C5  UNL d   1       2.136  -1.039   0.329  0.00  0.00     0.003 A 
ATOM      7  C6  UNL d   1       0.773  -0.777   0.173  0.00  0.00    -0.001 A 
ENDROOT
TORSDOF 0
ENDMDL
