MODEL 1
REMARK minimizedAffinity -5.0893774
REMARK minimizedRMSD -1
REMARK  0 active torsions:
REMARK  status: ('A' for Active; 'I' for Inactive)
ROOT
ATOM      1  C   UNL d   1      -0.699   0.327  -1.164  0.00  0.00     0.078 C 
ATOM      2  C1  UNL d   1       0.011  -0.066   0.097  0.00  0.00    -0.077 A 
ATOM      3  C2  UNL d   1       1.409  -0.111   0.153  0.00  0.00    -0.001 A 
ATOM      4  C3  UNL d   1       2.057  -0.488   1.330  0.00  0.00     0.003 A 
ATOM      5  C4  UNL d   1       1.314  -0.825   2.460  0.00  0.00    -0.005 A 
ATOM      6  C5  UNL d   1      -0.078  -0.785   2.413  0.00  0.00     0.003 A 
ATOM      7  C6  UNL d   1      -0.727  -0.408   1.236  0.00  0.00    -0.001 A 
ENDROOT
TORSDOF 0
ENDMDL
