MODEL 1
REMARK minimizedAffinity -4.58769941
REMARK minimizedRMSD -1
REMARK  0 active torsions:
REMARK  status: ('A' for Active; 'I' for Inactive)
ROOT
ATOM      1  C   UNL d   1      -0.012   0.444  -0.994  0.00  0.00     0.078 C 
ATOM      2  C1  UNL d   1       0.287   0.044   0.420  0.00  0.00    -0.077 A 
ATOM      3  C2  UNL d   1      -0.744  -0.268   1.314  0.00  0.00    -0.001 A 
ATOM      4  C3  UNL d   1      -0.451  -0.630   2.630  0.00  0.00     0.003 A 
ATOM      5  C4  UNL d   1       0.872  -0.681   3.064  0.00  0.00    -0.005 A 
ATOM      6  C5  UNL d   1       1.904  -0.370   2.182  0.00  0.00     0.003 A 
ATOM      7  C6  UNL d   1       1.614  -0.008   0.865  0.00  0.00    -0.001 A 
ENDROOT
TORSDOF 0
ENDMDL
