MODEL 1
REMARK minimizedAffinity -4.69339895
REMARK minimizedRMSD -1
REMARK  0 active torsions:
REMARK  status: ('A' for Active; 'I' for Inactive)
ROOT
ATOM      1  C   UNL d   1       0.871  -0.251   3.033  0.00  0.00     0.078 C 
ATOM      2  C1  UNL d   1       0.321  -0.264   1.638  0.00  0.00    -0.077 A 
ATOM      3  C2  UNL d   1       1.170  -0.178   0.527  0.00  0.00    -0.001 A 
ATOM      4  C3  UNL d   1       0.643  -0.182  -0.766  0.00  0.00     0.003 A 
ATOM      5  C4  UNL d   1      -0.734  -0.271  -0.960  0.00  0.00    -0.005 A 
ATOM      6  C5  UNL d   1      -1.586  -0.355   0.139  0.00  0.00     0.003 A 
ATOM      7  C6  UNL d   1      -1.062  -0.351   1.432  0.00  0.00    -0.001 A 
ENDROOT
TORSDOF 0
ENDMDL
