MODEL 1
REMARK minimizedAffinity -2.79971719
REMARK minimizedRMSD -1
REMARK  0 active torsions:
REMARK  status: ('A' for Active; 'I' for Inactive)
ROOT
ATOM      1  C   UNL d   1      -1.016   0.086   0.858  0.00  0.00     0.078 C 
ATOM      2  C1  UNL d   1       0.258  -0.599   1.252  0.00  0.00    -0.077 A 
ATOM      3  C2  UNL d   1       1.170  -1.038   0.285  0.00  0.00    -0.001 A 
ATOM      4  C3  UNL d   1       2.348  -1.683   0.665  0.00  0.00     0.003 A 
ATOM      5  C4  UNL d   1       2.624  -1.896   2.014  0.00  0.00    -0.005 A 
ATOM      6  C5  UNL d   1       1.722  -1.465   2.985  0.00  0.00     0.003 A 
ATOM      7  C6  UNL d   1       0.543  -0.820   2.606  0.00  0.00    -0.001 A 
ENDROOT
TORSDOF 0
ENDMDL
