MODEL 1
REMARK minimizedAffinity -3.98873186
REMARK minimizedRMSD -1
REMARK  0 active torsions:
REMARK  status: ('A' for Active; 'I' for Inactive)
ROOT
ATOM      1  C   UNL d   1       1.560  -0.059   2.847  0.00  0.00     0.078 C 
ATOM      2  C1  UNL d   1       0.677  -0.138   1.637  0.00  0.00    -0.077 A 
ATOM      3  C2  UNL d   1       1.220  -0.123   0.346  0.00  0.00    -0.001 A 
ATOM      4  C3  UNL d   1       0.386  -0.187  -0.771  0.00  0.00     0.003 A 
ATOM      5  C4  UNL d   1      -0.996  -0.265  -0.609  0.00  0.00    -0.005 A 
ATOM      6  C5  UNL d   1      -1.545  -0.278   0.672  0.00  0.00     0.003 A 
ATOM      7  C6  UNL d   1      -0.713  -0.214   1.790  0.00  0.00    -0.001 A 
ENDROOT
TORSDOF 0
ENDMDL
