MODEL 1
REMARK minimizedAffinity -3.34358478
REMARK minimizedRMSD -1
REMARK  0 active torsions:
REMARK  status: ('A' for Active; 'I' for Inactive)
ROOT
ATOM      1  C   UNL d   1       1.523  -0.794   2.800  0.00  0.00     0.078 C 
ATOM      2  C1  UNL d   1       0.794  -0.542   1.513  0.00  0.00    -0.077 A 
ATOM      3  C2  UNL d   1       1.485  -0.452   0.299  0.00  0.00    -0.001 A 
ATOM      4  C3  UNL d   1       0.795  -0.208  -0.889  0.00  0.00     0.003 A 
ATOM      5  C4  UNL d   1      -0.589  -0.051  -0.875  0.00  0.00    -0.005 A 
ATOM      6  C5  UNL d   1      -1.285  -0.136   0.329  0.00  0.00     0.003 A 
ATOM      7  C6  UNL d   1      -0.597  -0.380   1.518  0.00  0.00    -0.001 A 
ENDROOT
TORSDOF 0
ENDMDL
