MODEL 1
REMARK minimizedAffinity -3.23095059
REMARK minimizedRMSD -1
REMARK  0 active torsions:
REMARK  status: ('A' for Active; 'I' for Inactive)
ROOT
ATOM      1  C   UNL d   1       1.171  -0.431   2.755  0.00  0.00     0.078 C 
ATOM      2  C1  UNL d   1       0.427  -0.557   1.460  0.00  0.00    -0.077 A 
ATOM      3  C2  UNL d   1       1.100  -0.509   0.233  0.00  0.00    -0.001 A 
ATOM      4  C3  UNL d   1       0.393  -0.618  -0.965  0.00  0.00     0.003 A 
ATOM      5  C4  UNL d   1      -0.991  -0.774  -0.949  0.00  0.00    -0.005 A 
ATOM      6  C5  UNL d   1      -1.671  -0.820   0.266  0.00  0.00     0.003 A 
ATOM      7  C6  UNL d   1      -0.965  -0.711   1.466  0.00  0.00    -0.001 A 
ENDROOT
TORSDOF 0
ENDMDL
