MODEL 1
REMARK minimizedAffinity -3.56176496
REMARK minimizedRMSD -1
REMARK  0 active torsions:
REMARK  status: ('A' for Active; 'I' for Inactive)
ROOT
ATOM      1  N1  IND d   1      -0.768  -1.010  -0.104  0.00  0.00    -0.196 N 
ATOM      2  C2  IND d   1       0.409  -1.082  -0.795  0.00  0.00     0.054 A 
ATOM      3  C3  IND d   1       1.061   0.101  -0.738  0.00  0.00    -0.031 A 
ATOM      4  C4  IND d   1       0.429   2.258   0.519  0.00  0.00     0.051 A 
ATOM      5  C5  IND d   1      -0.573   2.818   1.260  0.00  0.00    -0.031 A 
ATOM      6  C6  IND d   1      -1.714   2.116   1.594  0.00  0.00     0.015 A 
ATOM      7  C7  IND d   1      -1.890   0.818   1.206  0.00  0.00    -0.016 A 
ATOM      8  C8  IND d   1      -0.877   0.248   0.447  0.00  0.00    -0.047 A 
ATOM      9  C9  IND d   1       0.263   0.969   0.070  0.00  0.00    -0.096 A 
ATOM     10  HN1 IND d   1      -1.344  -1.644  -0.026  0.00  0.00     0.298 HD
ENDROOT
TORSDOF 0
ENDMDL
