MODEL 1
REMARK minimizedAffinity -2.59456325
REMARK minimizedRMSD -1
REMARK  0 active torsions:
REMARK  status: ('A' for Active; 'I' for Inactive)
ROOT
ATOM      1  N1  IND d   1      -0.100   2.059  -1.596  0.00  0.00    -0.196 N 
ATOM      2  C2  IND d   1      -0.568   3.323  -1.368  0.00  0.00     0.054 A 
ATOM      3  C3  IND d   1      -0.835   3.496  -0.054  0.00  0.00    -0.031 A 
ATOM      4  C4  IND d   1      -0.484   1.874   1.914  0.00  0.00     0.051 A 
ATOM      5  C5  IND d   1      -0.114   0.589   2.198  0.00  0.00    -0.031 A 
ATOM      6  C6  IND d   1       0.290  -0.288   1.213  0.00  0.00     0.015 A 
ATOM      7  C7  IND d   1       0.350   0.092  -0.098  0.00  0.00    -0.016 A 
ATOM      8  C8  IND d   1      -0.031   1.393  -0.391  0.00  0.00    -0.047 A 
ATOM      9  C9  IND d   1      -0.482   2.275   0.599  0.00  0.00    -0.096 A 
ATOM     10  HN1 IND d   1       0.114   1.734  -2.362  0.00  0.00     0.298 HD
ENDROOT
TORSDOF 0
ENDMDL
