MODEL 1
REMARK minimizedAffinity -5.84583759
REMARK minimizedRMSD -1
REMARK  0 active torsions:
REMARK  status: ('A' for Active; 'I' for Inactive)
ROOT
ATOM      1  N1  IND d   1       0.045   1.256  -1.500  0.00  0.00    -0.196 N 
ATOM      2  C2  IND d   1      -0.517   2.407  -1.979  0.00  0.00     0.054 A 
ATOM      3  C3  IND d   1      -1.078   3.111  -0.971  0.00  0.00    -0.031 A 
ATOM      4  C4  IND d   1      -1.104   2.614   1.555  0.00  0.00     0.051 A 
ATOM      5  C5  IND d   1      -0.750   1.661   2.469  0.00  0.00    -0.031 A 
ATOM      6  C6  IND d   1      -0.098   0.503   2.099  0.00  0.00     0.015 A 
ATOM      7  C7  IND d   1       0.237   0.258   0.798  0.00  0.00    -0.016 A 
ATOM      8  C8  IND d   1      -0.127   1.220  -0.134  0.00  0.00    -0.047 A 
ATOM      9  C9  IND d   1      -0.827   2.378   0.229  0.00  0.00    -0.096 A 
ATOM     10  HN1 IND d   1       0.440   0.656  -1.973  0.00  0.00     0.298 HD
ENDROOT
TORSDOF 0
ENDMDL
