MODEL 1
REMARK minimizedAffinity -5.58354521
REMARK minimizedRMSD -1
REMARK  0 active torsions:
REMARK  status: ('A' for Active; 'I' for Inactive)
ROOT
ATOM      1  N1  IND d   1       0.102   0.199  -1.121  0.00  0.00    -0.196 N 
ATOM      2  C2  IND d   1       0.343  -0.739  -0.156  0.00  0.00     0.054 A 
ATOM      3  C3  IND d   1       0.129  -0.217   1.072  0.00  0.00    -0.031 A 
ATOM      4  C4  IND d   1      -0.718   2.124   1.729  0.00  0.00     0.051 A 
ATOM      5  C5  IND d   1      -1.040   3.341   1.197  0.00  0.00    -0.031 A 
ATOM      6  C6  IND d   1      -0.999   3.577  -0.162  0.00  0.00     0.015 A 
ATOM      7  C7  IND d   1      -0.645   2.597  -1.045  0.00  0.00    -0.016 A 
ATOM      8  C8  IND d   1      -0.310   1.362  -0.508  0.00  0.00    -0.047 A 
ATOM      9  C9  IND d   1      -0.308   1.129   0.873  0.00  0.00    -0.096 A 
ATOM     10  HN1 IND d   1       0.193   0.082  -1.968  0.00  0.00     0.298 HD
ENDROOT
TORSDOF 0
ENDMDL
