MODEL 1
REMARK minimizedAffinity -4.90310526
REMARK minimizedRMSD -1
REMARK  0 active torsions:
REMARK  status: ('A' for Active; 'I' for Inactive)
ROOT
ATOM      1  N1  IND d   1      -0.381  -0.267  -0.959  0.00  0.00    -0.196 N 
ATOM      2  C2  IND d   1       0.413  -1.045  -0.163  0.00  0.00     0.054 A 
ATOM      3  C3  IND d   1       0.616  -0.442   1.031  0.00  0.00    -0.031 A 
ATOM      4  C4  IND d   1      -0.341   1.772   1.929  0.00  0.00     0.051 A 
ATOM      5  C5  IND d   1      -1.087   2.854   1.554  0.00  0.00    -0.031 A 
ATOM      6  C6  IND d   1      -1.650   2.952   0.298  0.00  0.00     0.015 A 
ATOM      7  C7  IND d   1      -1.496   1.961  -0.630  0.00  0.00    -0.016 A 
ATOM      8  C8  IND d   1      -0.733   0.864  -0.256  0.00  0.00    -0.047 A 
ATOM      9  C9  IND d   1      -0.124   0.779   1.003  0.00  0.00    -0.096 A 
ATOM     10  HN1 IND d   1      -0.620  -0.453  -1.763  0.00  0.00     0.298 HD
ENDROOT
TORSDOF 0
ENDMDL
