MODEL 1
REMARK minimizedAffinity -6.5564127
REMARK minimizedRMSD -1
REMARK  0 active torsions:
REMARK  status: ('A' for Active; 'I' for Inactive)
ROOT
ATOM      1  N1  IND d   1      -0.183   0.444  -1.026  0.00  0.00    -0.196 N 
ATOM      2  C2  IND d   1       0.312  -0.480  -0.149  0.00  0.00     0.054 A 
ATOM      3  C3  IND d   1       0.288   0.007   1.112  0.00  0.00    -0.031 A 
ATOM      4  C4  IND d   1      -0.615   2.257   1.979  0.00  0.00     0.051 A 
ATOM      5  C5  IND d   1      -1.132   3.447   1.550  0.00  0.00    -0.031 A 
ATOM      6  C6  IND d   1      -1.366   3.701   0.214  0.00  0.00     0.015 A 
ATOM      7  C7  IND d   1      -1.102   2.766  -0.746  0.00  0.00    -0.016 A 
ATOM      8  C8  IND d   1      -0.570   1.559  -0.315  0.00  0.00    -0.047 A 
ATOM      9  C9  IND d   1      -0.290   1.311   1.035  0.00  0.00    -0.096 A 
ATOM     10  HN1 IND d   1      -0.243   0.346  -1.878  0.00  0.00     0.298 HD
ENDROOT
TORSDOF 0
ENDMDL
