MODEL 1
REMARK minimizedAffinity -4.8079915
REMARK minimizedRMSD -1
REMARK  0 active torsions:
REMARK  status: ('A' for Active; 'I' for Inactive)
ROOT
ATOM      1  N1  IND d   1       0.308  -0.003  -0.888  0.00  0.00    -0.196 N 
ATOM      2  C2  IND d   1       0.427  -0.891   0.145  0.00  0.00     0.054 A 
ATOM      3  C3  IND d   1       0.319  -0.250   1.330  0.00  0.00    -0.031 A 
ATOM      4  C4  IND d   1      -0.156   2.234   1.809  0.00  0.00     0.051 A 
ATOM      5  C5  IND d   1      -0.305   3.442   1.186  0.00  0.00    -0.031 A 
ATOM      6  C6  IND d   1      -0.258   3.565  -0.187  0.00  0.00     0.015 A 
ATOM      7  C7  IND d   1      -0.072   2.478  -0.994  0.00  0.00    -0.016 A 
ATOM      8  C8  IND d   1       0.086   1.251  -0.365  0.00  0.00    -0.047 A 
ATOM      9  C9  IND d   1       0.082   1.127   1.030  0.00  0.00    -0.096 A 
ATOM     10  HN1 IND d   1       0.363  -0.196  -1.725  0.00  0.00     0.298 HD
ENDROOT
TORSDOF 0
ENDMDL
