MODEL 1
REMARK minimizedAffinity -4.67959404
REMARK minimizedRMSD -1
REMARK  0 active torsions:
REMARK  status: ('A' for Active; 'I' for Inactive)
ROOT
ATOM      1  N1  IND d   1       0.085   2.621  -1.825  0.00  0.00    -0.196 N 
ATOM      2  C2  IND d   1      -0.196   3.772  -1.144  0.00  0.00     0.054 A 
ATOM      3  C3  IND d   1      -0.246   3.532   0.186  0.00  0.00    -0.031 A 
ATOM      4  C4  IND d   1       0.200   1.346   1.470  0.00  0.00     0.051 A 
ATOM      5  C5  IND d   1       0.457   0.017   1.279  0.00  0.00    -0.031 A 
ATOM      6  C6  IND d   1       0.609  -0.522   0.018  0.00  0.00     0.015 A 
ATOM      7  C7  IND d   1       0.520   0.253  -1.103  0.00  0.00    -0.016 A 
ATOM      8  C8  IND d   1       0.252   1.602  -0.913  0.00  0.00    -0.047 A 
ATOM      9  C9  IND d   1       0.055   2.146   0.362  0.00  0.00    -0.096 A 
ATOM     10  HN1 IND d   1       0.146   2.546  -2.679  0.00  0.00     0.298 HD
ENDROOT
TORSDOF 0
ENDMDL
