MODEL 1
REMARK minimizedAffinity -4.51751804
REMARK minimizedRMSD -1
REMARK  0 active torsions:
REMARK  status: ('A' for Active; 'I' for Inactive)
ROOT
ATOM      1  N1  IND d   1       0.273   0.086  -0.024  0.00  0.00    -0.196 N 
ATOM      2  C2  IND d   1       0.532  -0.216   1.283  0.00  0.00     0.054 A 
ATOM      3  C3  IND d   1      -0.021   0.709   2.099  0.00  0.00    -0.031 A 
ATOM      4  C4  IND d   1      -1.481   2.746   1.508  0.00  0.00     0.051 A 
ATOM      5  C5  IND d   1      -1.962   3.454   0.442  0.00  0.00    -0.031 A 
ATOM      6  C6  IND d   1      -1.720   3.066  -0.860  0.00  0.00     0.015 A 
ATOM      7  C7  IND d   1      -0.994   1.944  -1.145  0.00  0.00    -0.016 A 
ATOM      8  C8  IND d   1      -0.498   1.227  -0.066  0.00  0.00    -0.047 A 
ATOM      9  C9  IND d   1      -0.704   1.639   1.257  0.00  0.00    -0.096 A 
ATOM     10  HN1 IND d   1       0.547  -0.361  -0.706  0.00  0.00     0.298 HD
ENDROOT
TORSDOF 0
ENDMDL
