MODEL 1
REMARK minimizedAffinity -4.28834105
REMARK minimizedRMSD -1
REMARK  0 active torsions:
REMARK  status: ('A' for Active; 'I' for Inactive)
ROOT
ATOM      1  N1  IND d   1       1.069   1.125  -2.490  0.00  0.00    -0.196 N 
ATOM      2  C2  IND d   1       0.076   2.062  -2.529  0.00  0.00     0.054 A 
ATOM      3  C3  IND d   1      -0.628   2.051  -1.374  0.00  0.00    -0.031 A 
ATOM      4  C4  IND d   1      -0.258   0.648   0.752  0.00  0.00     0.051 A 
ATOM      5  C5  IND d   1       0.504  -0.372   1.251  0.00  0.00    -0.031 A 
ATOM      6  C6  IND d   1       1.515  -0.954   0.515  0.00  0.00     0.015 A 
ATOM      7  C7  IND d   1       1.811  -0.529  -0.750  0.00  0.00    -0.016 A 
ATOM      8  C8  IND d   1       1.035   0.500  -1.262  0.00  0.00    -0.047 A 
ATOM      9  C9  IND d   1      -0.020   1.067  -0.536  0.00  0.00    -0.096 A 
ATOM     10  HN1 IND d   1       1.623   0.953  -3.125  0.00  0.00     0.298 HD
ENDROOT
TORSDOF 0
ENDMDL
