MODEL 1
REMARK minimizedAffinity 5.68586111
REMARK minimizedRMSD -1
REMARK  0 active torsions:
REMARK  status: ('A' for Active; 'I' for Inactive)
ROOT
ATOM      1  N1  IND d   1      -0.830  -4.781  -1.937  0.00  0.00    -0.196 N 
ATOM      2  C2  IND d   1      -0.432  -4.291  -0.724  0.00  0.00     0.054 A 
ATOM      3  C3  IND d   1      -0.715  -2.972  -0.634  0.00  0.00    -0.031 A 
ATOM      4  C4  IND d   1      -1.920  -1.439  -2.315  0.00  0.00     0.051 A 
ATOM      5  C5  IND d   1      -2.438  -1.424  -3.579  0.00  0.00    -0.031 A 
ATOM      6  C6  IND d   1      -2.449  -2.550  -4.376  0.00  0.00     0.015 A 
ATOM      7  C7  IND d   1      -1.951  -3.742  -3.931  0.00  0.00    -0.016 A 
ATOM      8  C8  IND d   1      -1.418  -3.760  -2.650  0.00  0.00    -0.047 A 
ATOM      9  C9  IND d   1      -1.365  -2.609  -1.853  0.00  0.00    -0.096 A 
ATOM     10  HN1 IND d   1      -0.730  -5.591  -2.208  0.00  0.00     0.298 HD
ENDROOT
TORSDOF 0
ENDMDL
