MODEL 1
REMARK minimizedAffinity -5.08413935
REMARK minimizedRMSD -1
REMARK  0 active torsions:
REMARK  status: ('A' for Active; 'I' for Inactive)
ROOT
ATOM      1  C2' OXE d   1       0.991   0.527   0.102  0.00  0.00     0.078 C 
ATOM      2  C1' OXE d   1       3.481   1.726   0.597  0.00  0.00     0.078 C 
ATOM      3  C1  OXE d   1       2.300   2.632   0.352  0.00  0.00    -0.078 A 
ATOM      4  C2  OXE d   1       1.096   2.037   0.065  0.00  0.00    -0.078 A 
ATOM      5  C3  OXE d   1      -0.037   2.826  -0.115  0.00  0.00     0.003 A 
ATOM      6  C4  OXE d   1       0.070   4.221  -0.157  0.00  0.00    -0.002 A 
ATOM      7  C5  OXE d   1       1.296   4.847   0.094  0.00  0.00    -0.002 A 
ATOM      8  C6  OXE d   1       2.409   4.069   0.392  0.00  0.00     0.003 A 
ENDROOT
TORSDOF 0
ENDMDL
