MODEL 1
REMARK minimizedAffinity 2.40983987
REMARK minimizedRMSD -1
REMARK  0 active torsions:
REMARK  status: ('A' for Active; 'I' for Inactive)
ROOT
ATOM      1  C2' OXE d   1       2.456   4.320   0.630  0.00  0.00     0.078 C 
ATOM      2  C1' OXE d   1      -0.045   3.327   1.429  0.00  0.00     0.078 C 
ATOM      3  C1  OXE d   1       0.987   2.334   0.955  0.00  0.00    -0.078 A 
ATOM      4  C2  OXE d   1       2.192   2.834   0.522  0.00  0.00    -0.078 A 
ATOM      5  C3  OXE d   1       3.199   1.958   0.126  0.00  0.00     0.003 A 
ATOM      6  C4  OXE d   1       2.943   0.585   0.019  0.00  0.00    -0.002 A 
ATOM      7  C5  OXE d   1       1.709   0.060   0.418  0.00  0.00    -0.002 A 
ATOM      8  C6  OXE d   1       0.737   0.915   0.927  0.00  0.00     0.003 A 
ENDROOT
TORSDOF 0
ENDMDL
