MODEL 1
REMARK minimizedAffinity 7.10386992
REMARK minimizedRMSD -1
REMARK  0 active torsions:
REMARK  status: ('A' for Active; 'I' for Inactive)
ROOT
ATOM      1  C2' OXE d   1       1.374  -0.648   0.520  0.00  0.00     0.078 C 
ATOM      2  C1' OXE d   1       2.955   1.371  -0.623  0.00  0.00     0.078 C 
ATOM      3  C1  OXE d   1       1.594   1.755  -0.099  0.00  0.00    -0.078 A 
ATOM      4  C2  OXE d   1       0.809   0.752   0.417  0.00  0.00    -0.078 A 
ATOM      5  C3  OXE d   1      -0.433   1.062   0.964  0.00  0.00     0.003 A 
ATOM      6  C4  OXE d   1      -0.953   2.357   0.856  0.00  0.00    -0.002 A 
ATOM      7  C5  OXE d   1      -0.186   3.386   0.299  0.00  0.00    -0.002 A 
ATOM      8  C6  OXE d   1       1.104   3.111  -0.144  0.00  0.00     0.003 A 
ENDROOT
TORSDOF 0
ENDMDL
