MODEL 1
REMARK minimizedAffinity 9.37567234
REMARK minimizedRMSD -1
REMARK  0 active torsions:
REMARK  status: ('A' for Active; 'I' for Inactive)
ROOT
ATOM      1  C2' OXE d   1      -1.091  -0.943   2.172  0.00  0.00     0.078 C 
ATOM      2  C1' OXE d   1      -2.838  -2.241   0.399  0.00  0.00     0.078 C 
ATOM      3  C1  OXE d   1      -2.402  -2.991   1.632  0.00  0.00    -0.078 A 
ATOM      4  C2  OXE d   1      -1.511  -2.366   2.470  0.00  0.00    -0.078 A 
ATOM      5  C3  OXE d   1      -1.119  -2.992   3.650  0.00  0.00     0.003 A 
ATOM      6  C4  OXE d   1      -1.504  -4.313   3.914  0.00  0.00    -0.002 A 
ATOM      7  C5  OXE d   1      -2.380  -4.982   3.053  0.00  0.00    -0.002 A 
ATOM      8  C6  OXE d   1      -2.871  -4.321   1.932  0.00  0.00     0.003 A 
ENDROOT
TORSDOF 0
ENDMDL
