MODEL 1
REMARK minimizedAffinity 1.56383932
REMARK minimizedRMSD -1
REMARK  0 active torsions:
REMARK  status: ('A' for Active; 'I' for Inactive)
ROOT
ATOM      1  C2' OXE d   1       0.737   0.270   0.446  0.00  0.00     0.078 C 
ATOM      2  C1' OXE d   1      -0.130   2.919   0.114  0.00  0.00     0.078 C 
ATOM      3  C1  OXE d   1       1.319   2.692   0.466  0.00  0.00    -0.078 A 
ATOM      4  C2  OXE d   1       1.724   1.395   0.672  0.00  0.00    -0.078 A 
ATOM      5  C3  OXE d   1       3.062   1.125   0.945  0.00  0.00     0.003 A 
ATOM      6  C4  OXE d   1       3.966   2.172   1.163  0.00  0.00    -0.002 A 
ATOM      7  C5  OXE d   1       3.565   3.502   0.997  0.00  0.00    -0.002 A 
ATOM      8  C6  OXE d   1       2.259   3.777   0.608  0.00  0.00     0.003 A 
ENDROOT
TORSDOF 0
ENDMDL
