MODEL 1
REMARK minimizedAffinity 2.75528073
REMARK minimizedRMSD -1
REMARK  0 active torsions:
REMARK  status: ('A' for Active; 'I' for Inactive)
ROOT
ATOM      1  C2' OXE d   1       3.941   1.527   0.939  0.00  0.00     0.078 C 
ATOM      2  C1' OXE d   1       1.952  -0.392   0.446  0.00  0.00     0.078 C 
ATOM      3  C1  OXE d   1       1.533   1.056   0.507  0.00  0.00    -0.078 A 
ATOM      4  C2  OXE d   1       2.505   1.983   0.796  0.00  0.00    -0.078 A 
ATOM      5  C3  OXE d   1       2.183   3.337   0.810  0.00  0.00     0.003 A 
ATOM      6  C4  OXE d   1       0.851   3.751   0.686  0.00  0.00    -0.002 A 
ATOM      7  C5  OXE d   1      -0.160   2.819   0.431  0.00  0.00    -0.002 A 
ATOM      8  C6  OXE d   1       0.170   1.474   0.297  0.00  0.00     0.003 A 
ENDROOT
TORSDOF 0
ENDMDL
