MODEL 1
REMARK minimizedAffinity 2.16149163
REMARK minimizedRMSD -1
REMARK  0 active torsions:
REMARK  status: ('A' for Active; 'I' for Inactive)
ROOT
ATOM      1  C2' OXE d   1       0.172  -0.059   1.425  0.00  0.00     0.078 C 
ATOM      2  C1' OXE d   1       1.737   2.259   1.182  0.00  0.00     0.078 C 
ATOM      3  C1  OXE d   1       0.270   2.362   0.849  0.00  0.00    -0.078 A 
ATOM      4  C2  OXE d   1      -0.479   1.212   0.926  0.00  0.00    -0.078 A 
ATOM      5  C3  OXE d   1      -1.849   1.264   0.683  0.00  0.00     0.003 A 
ATOM      6  C4  OXE d   1      -2.441   2.442   0.212  0.00  0.00    -0.002 A 
ATOM      7  C5  OXE d   1      -1.689   3.615   0.089  0.00  0.00    -0.002 A 
ATOM      8  C6  OXE d   1      -0.344   3.602   0.443  0.00  0.00     0.003 A 
ENDROOT
TORSDOF 0
ENDMDL
