MODEL 1
REMARK minimizedAffinity 5.80416727
REMARK minimizedRMSD -1
REMARK  0 active torsions:
REMARK  status: ('A' for Active; 'I' for Inactive)
ROOT
ATOM      1  C2' OXE d   1      -5.631   1.958  -0.490  0.00  0.00     0.078 C 
ATOM      2  C1' OXE d   1      -5.757   4.435   0.825  0.00  0.00     0.078 C 
ATOM      3  C1  OXE d   1      -5.835   4.433  -0.682  0.00  0.00    -0.078 A 
ATOM      4  C2  OXE d   1      -5.726   3.221  -1.319  0.00  0.00    -0.078 A 
ATOM      5  C3  OXE d   1      -5.846   3.157  -2.704  0.00  0.00     0.003 A 
ATOM      6  C4  OXE d   1      -5.924   4.330  -3.464  0.00  0.00    -0.002 A 
ATOM      7  C5  OXE d   1      -5.997   5.578  -2.836  0.00  0.00    -0.002 A 
ATOM      8  C6  OXE d   1      -5.997   5.644  -1.448  0.00  0.00     0.003 A 
ENDROOT
TORSDOF 0
ENDMDL
