MODEL 1
REMARK minimizedAffinity 7.68689299
REMARK minimizedRMSD -1
REMARK  0 active torsions:
REMARK  status: ('A' for Active; 'I' for Inactive)
ROOT
ATOM      1  C2' OXE d   1      -0.664  -0.319   1.882  0.00  0.00     0.078 C 
ATOM      2  C1' OXE d   1      -1.441   2.284   2.589  0.00  0.00     0.078 C 
ATOM      3  C1  OXE d   1      -0.286   2.130   1.631  0.00  0.00    -0.078 A 
ATOM      4  C2  OXE d   1       0.117   0.852   1.326  0.00  0.00    -0.078 A 
ATOM      5  C3  OXE d   1       1.141   0.653   0.405  0.00  0.00     0.003 A 
ATOM      6  C4  OXE d   1       1.864   1.742  -0.096  0.00  0.00    -0.002 A 
ATOM      7  C5  OXE d   1       1.496   3.051   0.232  0.00  0.00    -0.002 A 
ATOM      8  C6  OXE d   1       0.398   3.263   1.058  0.00  0.00     0.003 A 
ENDROOT
TORSDOF 0
ENDMDL
