MODEL 1
REMARK minimizedAffinity -2.06236434
REMARK minimizedRMSD -1
REMARK  0 active torsions:
REMARK  status: ('A' for Active; 'I' for Inactive)
ROOT
ATOM      1  C2' OXE d   1       1.507  -0.254   0.736  0.00  0.00     0.078 C 
ATOM      2  C1' OXE d   1       2.770   2.233   0.421  0.00  0.00     0.078 C 
ATOM      3  C1  OXE d   1       1.262   2.201   0.395  0.00  0.00    -0.078 A 
ATOM      4  C2  OXE d   1       0.654   0.974   0.503  0.00  0.00    -0.078 A 
ATOM      5  C3  OXE d   1      -0.735   0.894   0.539  0.00  0.00     0.003 A 
ATOM      6  C4  OXE d   1      -1.517   2.033   0.312  0.00  0.00    -0.002 A 
ATOM      7  C5  OXE d   1      -0.917   3.287   0.160  0.00  0.00    -0.002 A 
ATOM      8  C6  OXE d   1       0.467   3.395   0.241  0.00  0.00     0.003 A 
ENDROOT
TORSDOF 0
ENDMDL
