MODEL 1
REMARK minimizedAffinity -0.106234074
REMARK minimizedRMSD -1
REMARK  0 active torsions:
REMARK  status: ('A' for Active; 'I' for Inactive)
ROOT
ATOM      1  C2' OXE d   1       1.496  -0.577   0.720  0.00  0.00     0.078 C 
ATOM      2  C1' OXE d   1       3.257   1.599   0.513  0.00  0.00     0.078 C 
ATOM      3  C1  OXE d   1       1.786   1.896   0.663  0.00  0.00    -0.078 A 
ATOM      4  C2  OXE d   1       0.927   0.825   0.716  0.00  0.00    -0.078 A 
ATOM      5  C3  OXE d   1      -0.434   1.043   0.909  0.00  0.00     0.003 A 
ATOM      6  C4  OXE d   1      -0.953   2.343   0.894  0.00  0.00    -0.002 A 
ATOM      7  C5  OXE d   1      -0.100   3.448   0.800  0.00  0.00    -0.002 A 
ATOM      8  C6  OXE d   1       1.274   3.243   0.727  0.00  0.00     0.003 A 
ENDROOT
TORSDOF 0
ENDMDL
