MODEL 1
REMARK minimizedAffinity 4.29340267
REMARK minimizedRMSD -1
REMARK  0 active torsions:
REMARK  status: ('A' for Active; 'I' for Inactive)
ROOT
ATOM      1  C2' OXE d   1      -0.463  -0.588   1.413  0.00  0.00     0.078 C 
ATOM      2  C1' OXE d   1       1.610   0.995   0.376  0.00  0.00     0.078 C 
ATOM      3  C1  OXE d   1       0.271   1.650   0.604  0.00  0.00    -0.078 A 
ATOM      4  C2  OXE d   1      -0.751   0.857   1.068  0.00  0.00    -0.078 A 
ATOM      5  C3  OXE d   1      -1.992   1.423   1.346  0.00  0.00     0.003 A 
ATOM      6  C4  OXE d   1      -2.252   2.758   1.014  0.00  0.00    -0.002 A 
ATOM      7  C5  OXE d   1      -1.237   3.574   0.504  0.00  0.00    -0.002 A 
ATOM      8  C6  OXE d   1       0.039   3.048   0.333  0.00  0.00     0.003 A 
ENDROOT
TORSDOF 0
ENDMDL
