MODEL 1
REMARK minimizedAffinity 5.40752792
REMARK minimizedRMSD -1
REMARK  0 active torsions:
REMARK  status: ('A' for Active; 'I' for Inactive)
ROOT
ATOM      1  C2' OXE d   1       1.949  -1.188   0.153  0.00  0.00     0.078 C 
ATOM      2  C1' OXE d   1       3.728   0.950   0.533  0.00  0.00     0.078 C 
ATOM      3  C1  OXE d   1       2.255   1.222   0.706  0.00  0.00    -0.078 A 
ATOM      4  C2  OXE d   1       1.388   0.181   0.472  0.00  0.00    -0.078 A 
ATOM      5  C3  OXE d   1       0.023   0.363   0.671  0.00  0.00     0.003 A 
ATOM      6  C4  OXE d   1      -0.489   1.635   0.956  0.00  0.00    -0.002 A 
ATOM      7  C5  OXE d   1       0.373   2.718   1.159  0.00  0.00    -0.002 A 
ATOM      8  C6  OXE d   1       1.747   2.519   1.080  0.00  0.00     0.003 A 
ENDROOT
TORSDOF 0
ENDMDL
