MODEL 1
REMARK minimizedAffinity 2.31776524
REMARK minimizedRMSD -1
REMARK  0 active torsions:
REMARK  status: ('A' for Active; 'I' for Inactive)
ROOT
ATOM      1  C2' OXE d   1      -0.535   1.323   1.839  0.00  0.00     0.078 C 
ATOM      2  C1' OXE d   1      -1.906   3.239   0.312  0.00  0.00     0.078 C 
ATOM      3  C1  OXE d   1      -0.398   3.261   0.279  0.00  0.00    -0.078 A 
ATOM      4  C2  OXE d   1       0.265   2.350   1.066  0.00  0.00    -0.078 A 
ATOM      5  C3  OXE d   1       1.655   2.292   1.031  0.00  0.00     0.003 A 
ATOM      6  C4  OXE d   1       2.387   3.252   0.321  0.00  0.00    -0.002 A 
ATOM      7  C5  OXE d   1       1.731   4.213  -0.455  0.00  0.00    -0.002 A 
ATOM      8  C6  OXE d   1       0.343   4.205  -0.521  0.00  0.00     0.003 A 
ENDROOT
TORSDOF 0
ENDMDL
