MODEL 1
REMARK minimizedAffinity 9.03525639
REMARK minimizedRMSD -1
REMARK  0 active torsions:
REMARK  status: ('A' for Active; 'I' for Inactive)
ROOT
ATOM      1  C2' OXE d   1       0.015   4.393  -1.181  0.00  0.00     0.078 C 
ATOM      2  C1' OXE d   1      -0.884   2.684   0.856  0.00  0.00     0.078 C 
ATOM      3  C1  OXE d   1       0.597   2.724   0.574  0.00  0.00    -0.078 A 
ATOM      4  C2  OXE d   1       1.023   3.528  -0.455  0.00  0.00    -0.078 A 
ATOM      5  C3  OXE d   1       2.384   3.643  -0.722  0.00  0.00     0.003 A 
ATOM      6  C4  OXE d   1       3.309   2.832  -0.053  0.00  0.00    -0.002 A 
ATOM      7  C5  OXE d   1       2.891   1.976   0.973  0.00  0.00    -0.002 A 
ATOM      8  C6  OXE d   1       1.547   1.942   1.326  0.00  0.00     0.003 A 
ENDROOT
TORSDOF 0
ENDMDL
