MODEL 1
REMARK minimizedAffinity 13.9588737
REMARK minimizedRMSD -1
REMARK  0 active torsions:
REMARK  status: ('A' for Active; 'I' for Inactive)
ROOT
ATOM      1  C2' OXE d   1      -0.923   3.326   2.166  0.00  0.00     0.078 C 
ATOM      2  C1' OXE d   1      -1.050   0.522   2.122  0.00  0.00     0.078 C 
ATOM      3  C1  OXE d   1       0.152   1.182   1.493  0.00  0.00    -0.078 A 
ATOM      4  C2  OXE d   1       0.183   2.555   1.477  0.00  0.00    -0.078 A 
ATOM      5  C3  OXE d   1       1.294   3.214   0.958  0.00  0.00     0.003 A 
ATOM      6  C4  OXE d   1       2.308   2.494   0.314  0.00  0.00    -0.002 A 
ATOM      7  C5  OXE d   1       2.276   1.096   0.284  0.00  0.00    -0.002 A 
ATOM      8  C6  OXE d   1       1.229   0.424   0.904  0.00  0.00     0.003 A 
ENDROOT
TORSDOF 0
ENDMDL
