MODEL 1
REMARK minimizedAffinity 3.08288336
REMARK minimizedRMSD -1
REMARK  0 active torsions:
REMARK  status: ('A' for Active; 'I' for Inactive)
ROOT
ATOM      1  C1  DEN d   1       0.704  -0.528   4.126  0.00  0.00     0.130 A 
ATOM      2  C2  DEN d   1       1.515  -1.488   4.870  0.00  0.00    -0.031 A 
ATOM      3  C3  DEN d   1       0.613  -2.273   5.736  0.00  0.00     0.027 A 
ATOM      4  C4  DEN d   1      -1.948  -2.098   5.994  0.00  0.00     0.027 A 
ATOM      5  C5  DEN d   1      -3.074  -1.422   5.578  0.00  0.00    -0.003 A 
ATOM      6  C6  DEN d   1      -3.017  -0.388   4.683  0.00  0.00     0.001 A 
ATOM      7  C7  DEN d   1      -1.812  -0.028   4.138  0.00  0.00     0.017 A 
ATOM      8  C8  DEN d   1      -0.671  -0.699   4.558  0.00  0.00    -0.094 A 
ATOM      9  C9  DEN d   1      -0.752  -1.750   5.455  0.00  0.00    -0.072 A 
ENDROOT
TORSDOF 0
ENDMDL
