MODEL 1
REMARK minimizedAffinity 2.16277814
REMARK minimizedRMSD -1
REMARK  0 active torsions:
REMARK  status: ('A' for Active; 'I' for Inactive)
ROOT
ATOM      1  C1  DEN d   1       0.516  -1.117   4.599  0.00  0.00     0.130 A 
ATOM      2  C2  DEN d   1       1.106  -2.247   5.311  0.00  0.00    -0.031 A 
ATOM      3  C3  DEN d   1       0.017  -2.979   5.988  0.00  0.00     0.027 A 
ATOM      4  C4  DEN d   1      -2.513  -2.477   6.000  0.00  0.00     0.027 A 
ATOM      5  C5  DEN d   1      -3.488  -1.615   5.549  0.00  0.00    -0.003 A 
ATOM      6  C6  DEN d   1      -3.196  -0.517   4.784  0.00  0.00     0.001 A 
ATOM      7  C7  DEN d   1      -1.900  -0.276   4.409  0.00  0.00     0.017 A 
ATOM      8  C8  DEN d   1      -0.910  -1.136   4.866  0.00  0.00    -0.094 A 
ATOM      9  C9  DEN d   1      -1.228  -2.248   5.628  0.00  0.00    -0.072 A 
ENDROOT
TORSDOF 0
ENDMDL
