MODEL 1
REMARK minimizedAffinity -3.02288485
REMARK minimizedRMSD -1
REMARK  0 active torsions:
REMARK  status: ('A' for Active; 'I' for Inactive)
ROOT
ATOM      1  C1  DEN d   1      -0.047   1.464  -0.435  0.00  0.00     0.130 A 
ATOM      2  C2  DEN d   1       0.084   0.036  -0.159  0.00  0.00    -0.031 A 
ATOM      3  C3  DEN d   1       1.354  -0.176   0.562  0.00  0.00     0.027 A 
ATOM      4  C4  DEN d   1       3.122   1.560   1.280  0.00  0.00     0.027 A 
ATOM      5  C5  DEN d   1       3.456   2.896   1.258  0.00  0.00    -0.003 A 
ATOM      6  C6  DEN d   1       2.670   3.836   0.646  0.00  0.00     0.001 A 
ATOM      7  C7  DEN d   1       1.486   3.459   0.069  0.00  0.00     0.017 A 
ATOM      8  C8  DEN d   1       1.146   2.113   0.081  0.00  0.00    -0.094 A 
ATOM      9  C9  DEN d   1       1.948   1.180   0.715  0.00  0.00    -0.072 A 
ENDROOT
TORSDOF 0
ENDMDL
