MODEL 1
REMARK minimizedAffinity -5.68039608
REMARK minimizedRMSD -1
REMARK  0 active torsions:
REMARK  status: ('A' for Active; 'I' for Inactive)
ROOT
ATOM      1  C1  DEN d   1      -0.536   0.708  -0.025  0.00  0.00     0.130 A 
ATOM      2  C2  DEN d   1      -0.267  -0.562   0.643  0.00  0.00    -0.031 A 
ATOM      3  C3  DEN d   1       0.989  -0.420   1.406  0.00  0.00     0.027 A 
ATOM      4  C4  DEN d   1       2.534   1.634   1.620  0.00  0.00     0.027 A 
ATOM      5  C5  DEN d   1       2.727   2.940   1.225  0.00  0.00    -0.003 A 
ATOM      6  C6  DEN d   1       1.871   3.576   0.365  0.00  0.00     0.001 A 
ATOM      7  C7  DEN d   1       0.757   2.923  -0.092  0.00  0.00     0.017 A 
ATOM      8  C8  DEN d   1       0.560   1.604   0.296  0.00  0.00    -0.094 A 
ATOM      9  C9  DEN d   1       1.430   0.982   1.175  0.00  0.00    -0.072 A 
ENDROOT
TORSDOF 0
ENDMDL
