MODEL 1
REMARK minimizedAffinity -3.43055272
REMARK minimizedRMSD -1
REMARK  0 active torsions:
REMARK  status: ('A' for Active; 'I' for Inactive)
ROOT
ATOM      1  C1  DEN d   1       0.017  -3.053  -0.260  0.00  0.00     0.130 A 
ATOM      2  C2  DEN d   1       1.322  -2.543  -0.669  0.00  0.00    -0.031 A 
ATOM      3  C3  DEN d   1       1.456  -1.165  -0.156  0.00  0.00     0.027 A 
ATOM      4  C4  DEN d   1      -0.222   0.220   1.229  0.00  0.00     0.027 A 
ATOM      5  C5  DEN d   1      -1.471   0.216   1.810  0.00  0.00    -0.003 A 
ATOM      6  C6  DEN d   1      -2.318  -0.856   1.714  0.00  0.00     0.001 A 
ATOM      7  C7  DEN d   1      -1.909  -1.987   1.059  0.00  0.00     0.017 A 
ATOM      8  C8  DEN d   1      -0.654  -1.988   0.464  0.00  0.00    -0.094 A 
ATOM      9  C9  DEN d   1       0.192  -0.899   0.583  0.00  0.00    -0.072 A 
ENDROOT
TORSDOF 0
ENDMDL
