MODEL 1
REMARK minimizedAffinity -4.43483305
REMARK minimizedRMSD -1
REMARK  0 active torsions:
REMARK  status: ('A' for Active; 'I' for Inactive)
ROOT
ATOM      1  C1  DEN d   1       1.400  -1.044  -1.647  0.00  0.00     0.130 A 
ATOM      2  C2  DEN d   1       0.797   0.270  -1.854  0.00  0.00    -0.031 A 
ATOM      3  C3  DEN d   1      -0.383   0.374  -0.973  0.00  0.00     0.027 A 
ATOM      4  C4  DEN d   1      -1.328  -1.361   0.685  0.00  0.00     0.027 A 
ATOM      5  C5  DEN d   1      -1.164  -2.628   1.199  0.00  0.00    -0.003 A 
ATOM      6  C6  DEN d   1      -0.161  -3.462   0.779  0.00  0.00     0.001 A 
ATOM      7  C7  DEN d   1       0.743  -3.021  -0.151  0.00  0.00     0.017 A 
ATOM      8  C8  DEN d   1       0.579  -1.747  -0.679  0.00  0.00    -0.094 A 
ATOM      9  C9  DEN d   1      -0.433  -0.915  -0.232  0.00  0.00    -0.072 A 
ENDROOT
TORSDOF 0
ENDMDL
