MODEL 1
REMARK minimizedAffinity -6.54725981
REMARK minimizedRMSD -1
REMARK  0 active torsions:
REMARK  status: ('A' for Active; 'I' for Inactive)
ROOT
ATOM      1  C1  DEN d   1      -0.063  -0.423  -0.599  0.00  0.00     0.130 A 
ATOM      2  C2  DEN d   1      -0.525  -1.596   0.137  0.00  0.00    -0.031 A 
ATOM      3  C3  DEN d   1      -0.395  -1.311   1.580  0.00  0.00     0.027 A 
ATOM      4  C4  DEN d   1       0.469   0.824   2.741  0.00  0.00     0.027 A 
ATOM      5  C5  DEN d   1       0.984   2.084   2.533  0.00  0.00    -0.003 A 
ATOM      6  C6  DEN d   1       1.216   2.580   1.278  0.00  0.00     0.001 A 
ATOM      7  C7  DEN d   1       0.890   1.829   0.180  0.00  0.00     0.017 A 
ATOM      8  C8  DEN d   1       0.377   0.554   0.381  0.00  0.00    -0.094 A 
ATOM      9  C9  DEN d   1       0.139   0.075   1.658  0.00  0.00    -0.072 A 
ENDROOT
TORSDOF 0
ENDMDL
