MODEL 1
REMARK minimizedAffinity -4.01853323
REMARK minimizedRMSD -1
REMARK  0 active torsions:
REMARK  status: ('A' for Active; 'I' for Inactive)
ROOT
ATOM      1  C1  DEN d   1       0.484   0.426  -0.636  0.00  0.00     0.130 A 
ATOM      2  C2  DEN d   1       0.335   0.994   0.701  0.00  0.00    -0.031 A 
ATOM      3  C3  DEN d   1      -0.272  -0.035   1.568  0.00  0.00     0.027 A 
ATOM      4  C4  DEN d   1      -0.988  -2.441   0.976  0.00  0.00     0.027 A 
ATOM      5  C5  DEN d   1      -1.069  -3.371  -0.038  0.00  0.00    -0.003 A 
ATOM      6  C6  DEN d   1      -0.673  -3.091  -1.319  0.00  0.00     0.001 A 
ATOM      7  C7  DEN d   1      -0.135  -1.865  -1.610  0.00  0.00     0.017 A 
ATOM      8  C8  DEN d   1      -0.057  -0.920  -0.596  0.00  0.00    -0.094 A 
ATOM      9  C9  DEN d   1      -0.451  -1.226   0.696  0.00  0.00    -0.072 A 
ENDROOT
TORSDOF 0
ENDMDL
