MODEL 1
REMARK minimizedAffinity -1.7021066
REMARK minimizedRMSD -1
REMARK  0 active torsions:
REMARK  status: ('A' for Active; 'I' for Inactive)
ROOT
ATOM      1  C1  DEN d   1       0.348  -1.010  -2.402  0.00  0.00     0.130 A 
ATOM      2  C2  DEN d   1      -0.159  -2.247  -2.992  0.00  0.00    -0.031 A 
ATOM      3  C3  DEN d   1      -0.920  -2.969  -1.953  0.00  0.00     0.027 A 
ATOM      4  C4  DEN d   1      -1.366  -2.293   0.496  0.00  0.00     0.027 A 
ATOM      5  C5  DEN d   1      -1.130  -1.335   1.457  0.00  0.00    -0.003 A 
ATOM      6  C6  DEN d   1      -0.363  -0.227   1.211  0.00  0.00     0.001 A 
ATOM      7  C7  DEN d   1       0.159  -0.027  -0.040  0.00  0.00     0.017 A 
ATOM      8  C8  DEN d   1      -0.069  -0.993  -1.012  0.00  0.00    -0.094 A 
ATOM      9  C9  DEN d   1      -0.857  -2.100  -0.747  0.00  0.00    -0.072 A 
ENDROOT
TORSDOF 0
ENDMDL
