MODEL 1
REMARK minimizedAffinity -4.78366518
REMARK minimizedRMSD -1
REMARK  0 active torsions:
REMARK  status: ('A' for Active; 'I' for Inactive)
ROOT
ATOM      1  C1  DEN d   1      -0.070  -0.133   0.506  0.00  0.00     0.130 A 
ATOM      2  C2  DEN d   1      -0.645  -0.603   1.764  0.00  0.00    -0.031 A 
ATOM      3  C3  DEN d   1      -1.190  -1.957   1.539  0.00  0.00     0.027 A 
ATOM      4  C4  DEN d   1      -1.195  -3.367  -0.620  0.00  0.00     0.027 A 
ATOM      5  C5  DEN d   1      -0.832  -3.386  -1.949  0.00  0.00    -0.003 A 
ATOM      6  C6  DEN d   1      -0.225  -2.319  -2.556  0.00  0.00     0.001 A 
ATOM      7  C7  DEN d   1       0.078  -1.203  -1.822  0.00  0.00     0.017 A 
ATOM      8  C8  DEN d   1      -0.292  -1.173  -0.484  0.00  0.00    -0.094 A 
ATOM      9  C9  DEN d   1      -0.893  -2.267   0.115  0.00  0.00    -0.072 A 
ENDROOT
TORSDOF 0
ENDMDL
