MODEL 1
REMARK minimizedAffinity -1.46371436
REMARK minimizedRMSD -1
REMARK  0 active torsions:
REMARK  status: ('A' for Active; 'I' for Inactive)
ROOT
ATOM      1  C1  DEN d   1       0.372  -0.150  -0.481  0.00  0.00     0.130 A 
ATOM      2  C2  DEN d   1      -0.703  -0.597   0.400  0.00  0.00    -0.031 A 
ATOM      3  C3  DEN d   1      -1.021   0.507   1.328  0.00  0.00     0.027 A 
ATOM      4  C4  DEN d   1       0.038   2.854   1.481  0.00  0.00     0.027 A 
ATOM      5  C5  DEN d   1       0.996   3.690   0.951  0.00  0.00    -0.003 A 
ATOM      6  C6  DEN d   1       1.828   3.296  -0.063  0.00  0.00     0.001 A 
ATOM      7  C7  DEN d   1       1.689   2.048  -0.609  0.00  0.00     0.017 A 
ATOM      8  C8  DEN d   1       0.731   1.196  -0.075  0.00  0.00    -0.094 A 
ATOM      9  C9  DEN d   1      -0.109   1.617   0.942  0.00  0.00    -0.072 A 
ENDROOT
TORSDOF 0
ENDMDL
