MODEL 1
REMARK minimizedAffinity -3.52945733
REMARK minimizedRMSD -1
REMARK  0 active torsions:
REMARK  status: ('A' for Active; 'I' for Inactive)
ROOT
ATOM      1  C1  DEN d   1       1.163   2.683  -0.505  0.00  0.00     0.130 A 
ATOM      2  C2  DEN d   1       1.858   3.539   0.452  0.00  0.00    -0.031 A 
ATOM      3  C3  DEN d   1       1.802   2.884   1.774  0.00  0.00     0.027 A 
ATOM      4  C4  DEN d   1       0.718   0.638   2.428  0.00  0.00     0.027 A 
ATOM      5  C5  DEN d   1       0.001  -0.441   1.960  0.00  0.00    -0.003 A 
ATOM      6  C6  DEN d   1      -0.406  -0.537   0.656  0.00  0.00     0.001 A 
ATOM      7  C7  DEN d   1      -0.058   0.442  -0.237  0.00  0.00     0.017 A 
ATOM      8  C8  DEN d   1       0.659   1.536   0.229  0.00  0.00    -0.094 A 
ATOM      9  C9  DEN d   1       1.070   1.609   1.549  0.00  0.00    -0.072 A 
ENDROOT
TORSDOF 0
ENDMDL
