MODEL 1
REMARK minimizedAffinity 5.38395977
REMARK minimizedRMSD -1
REMARK  1 active torsions:
REMARK  status: ('A' for Active; 'I' for Inactive)
REMARK    1  A    between atoms: C1_2  and  C2_3 
ROOT
ATOM      1  C2  UNL d   1       3.238  -0.759  -0.672  0.00  0.00    -0.077 A 
ATOM      2  C3  UNL d   1       3.247  -1.230  -1.993  0.00  0.00     0.002 A 
ATOM      3  C4  UNL d   1       2.555  -2.394  -2.332  0.00  0.00     0.002 A 
ATOM      4  C5  UNL d   1       1.846  -3.094  -1.358  0.00  0.00    -0.004 A 
ATOM      5  C6  UNL d   1       1.832  -2.635  -0.042  0.00  0.00     0.002 A 
ATOM      6  C7  UNL d   1       2.525  -1.472   0.300  0.00  0.00     0.002 A 
ENDROOT
BRANCH   1   7
ATOM      7  C1  UNL d   1       3.944   0.523  -0.314  0.00  0.00     0.055 C 
ATOM      8  C   UNL d   1       5.353   0.255   0.195  0.00  0.00     0.019 C 
ENDBRANCH   1   7
TORSDOF 1
ENDMDL
