MODEL 1
REMARK minimizedAffinity 9.53244495
REMARK minimizedRMSD -1
REMARK  1 active torsions:
REMARK  status: ('A' for Active; 'I' for Inactive)
REMARK    1  A    between atoms: C1_2  and  C2_3 
ROOT
ATOM      1  C2  UNL d   1      -5.362   1.658  -2.984  0.00  0.00    -0.077 A 
ATOM      2  C3  UNL d   1      -5.996   1.167  -1.834  0.00  0.00     0.002 A 
ATOM      3  C4  UNL d   1      -5.384   0.185  -1.053  0.00  0.00     0.002 A 
ATOM      4  C5  UNL d   1      -4.132  -0.312  -1.412  0.00  0.00    -0.004 A 
ATOM      5  C6  UNL d   1      -3.494   0.167  -2.555  0.00  0.00     0.002 A 
ATOM      6  C7  UNL d   1      -4.106   1.148  -3.337  0.00  0.00     0.002 A 
ENDROOT
BRANCH   1   7
ATOM      7  C1  UNL d   1      -5.999   2.752  -3.799  0.00  0.00     0.055 C 
ATOM      8  C   UNL d   1      -5.628   4.128  -3.265  0.00  0.00     0.019 C 
ENDBRANCH   1   7
TORSDOF 1
ENDMDL
