MODEL 1
REMARK minimizedAffinity 7.11577988
REMARK minimizedRMSD -1
REMARK  1 active torsions:
REMARK  status: ('A' for Active; 'I' for Inactive)
REMARK    1  A    between atoms: C1_2  and  C2_3 
ROOT
ATOM      1  C2  UNL d   1       0.167   1.393   3.203  0.00  0.00    -0.077 A 
ATOM      2  C3  UNL d   1      -0.741   0.938   2.237  0.00  0.00     0.002 A 
ATOM      3  C4  UNL d   1      -1.542   1.844   1.538  0.00  0.00     0.002 A 
ATOM      4  C5  UNL d   1      -1.439   3.209   1.794  0.00  0.00    -0.004 A 
ATOM      5  C6  UNL d   1      -0.540   3.672   2.755  0.00  0.00     0.002 A 
ATOM      6  C7  UNL d   1       0.260   2.768   3.455  0.00  0.00     0.002 A 
ENDROOT
BRANCH   1   7
ATOM      7  C1  UNL d   1       1.066   0.422   3.922  0.00  0.00     0.055 C 
ATOM      8  C   UNL d   1       2.017   1.144   4.866  0.00  0.00     0.019 C 
ENDBRANCH   1   7
TORSDOF 1
ENDMDL
