MODEL 1
REMARK minimizedAffinity 6.85599804
REMARK minimizedRMSD -1
REMARK  1 active torsions:
REMARK  status: ('A' for Active; 'I' for Inactive)
REMARK    1  A    between atoms: C1_2  and  C2_3 
ROOT
ATOM      1  C2  UNL d   1       3.277  -0.488  -0.774  0.00  0.00    -0.077 A 
ATOM      2  C3  UNL d   1       3.697  -0.939  -2.034  0.00  0.00     0.002 A 
ATOM      3  C4  UNL d   1       3.317  -2.201  -2.495  0.00  0.00     0.002 A 
ATOM      4  C5  UNL d   1       2.512  -3.020  -1.706  0.00  0.00    -0.004 A 
ATOM      5  C6  UNL d   1       2.091  -2.581  -0.452  0.00  0.00     0.002 A 
ATOM      6  C7  UNL d   1       2.470  -1.321   0.012  0.00  0.00     0.002 A 
ENDROOT
BRANCH   1   7
ATOM      7  C1  UNL d   1       3.645   0.892  -0.296  0.00  0.00     0.055 C 
ATOM      8  C   UNL d   1       5.054   1.270  -0.728  0.00  0.00     0.019 C 
ENDBRANCH   1   7
TORSDOF 1
ENDMDL
