MODEL 1
REMARK minimizedAffinity 3.43074465
REMARK minimizedRMSD -1
REMARK  1 active torsions:
REMARK  status: ('A' for Active; 'I' for Inactive)
REMARK    1  A    between atoms: C1_2  and  C2_3 
ROOT
ATOM      1  C2  UNL d   1       1.865  -1.793  -0.678  0.00  0.00    -0.077 A 
ATOM      2  C3  UNL d   1       3.261  -1.684  -0.615  0.00  0.00     0.002 A 
ATOM      3  C4  UNL d   1       3.874  -0.430  -0.655  0.00  0.00     0.002 A 
ATOM      4  C5  UNL d   1       3.099   0.724  -0.754  0.00  0.00    -0.004 A 
ATOM      5  C6  UNL d   1       1.709   0.625  -0.820  0.00  0.00     0.002 A 
ATOM      6  C7  UNL d   1       1.095  -0.627  -0.781  0.00  0.00     0.002 A 
ENDROOT
BRANCH   1   7
ATOM      7  C1  UNL d   1       1.200  -3.141  -0.586  0.00  0.00     0.055 C 
ATOM      8  C   UNL d   1      -0.086  -3.181  -1.399  0.00  0.00     0.019 C 
ENDBRANCH   1   7
TORSDOF 1
ENDMDL
