MODEL 1
REMARK minimizedAffinity 18.8407097
REMARK minimizedRMSD -1
REMARK  0 active torsions:
REMARK  status: ('A' for Active; 'I' for Inactive)
ROOT
ATOM      1  C1  DEN d   1      -3.515   1.489   0.384  0.00  0.00     0.130 A 
ATOM      2  C2  DEN d   1      -4.456   0.372   0.358  0.00  0.00    -0.031 A 
ATOM      3  C3  DEN d   1      -3.903  -0.710   1.197  0.00  0.00     0.027 A 
ATOM      4  C4  DEN d   1      -1.697  -0.762   2.532  0.00  0.00     0.027 A 
ATOM      5  C5  DEN d   1      -0.562  -0.051   2.852  0.00  0.00    -0.003 A 
ATOM      6  C6  DEN d   1      -0.317   1.199   2.349  0.00  0.00     0.001 A 
ATOM      7  C7  DEN d   1      -1.242   1.796   1.534  0.00  0.00     0.017 A 
ATOM      8  C8  DEN d   1      -2.386   1.082   1.201  0.00  0.00    -0.094 A 
ATOM      9  C9  DEN d   1      -2.621  -0.176   1.729  0.00  0.00    -0.072 A 
ENDROOT
TORSDOF 0
ENDMDL
