MODEL 1
REMARK minimizedAffinity 16.8691273
REMARK minimizedRMSD -1
REMARK  0 active torsions:
REMARK  status: ('A' for Active; 'I' for Inactive)
ROOT
ATOM      1  C1  DEN d   1      -5.413  -2.242   0.983  0.00  0.00     0.130 A 
ATOM      2  C2  DEN d   1      -4.757  -1.459  -0.062  0.00  0.00    -0.031 A 
ATOM      3  C3  DEN d   1      -4.440  -2.367  -1.182  0.00  0.00     0.027 A 
ATOM      4  C4  DEN d   1      -4.902  -4.895  -1.402  0.00  0.00     0.027 A 
ATOM      5  C5  DEN d   1      -5.427  -6.000  -0.768  0.00  0.00    -0.003 A 
ATOM      6  C6  DEN d   1      -5.949  -5.937   0.497  0.00  0.00     0.001 A 
ATOM      7  C7  DEN d   1      -5.998  -4.734   1.151  0.00  0.00     0.017 A 
ATOM      8  C8  DEN d   1      -5.464  -3.618   0.522  0.00  0.00    -0.094 A 
ATOM      9  C9  DEN d   1      -4.953  -3.699  -0.762  0.00  0.00    -0.072 A 
ENDROOT
TORSDOF 0
ENDMDL
