MODEL 1
REMARK minimizedAffinity 10.8075571
REMARK minimizedRMSD -1
REMARK  0 active torsions:
REMARK  status: ('A' for Active; 'I' for Inactive)
ROOT
ATOM      1  C1  DEN d   1       3.385   2.315  -5.978  0.00  0.00     0.130 A 
ATOM      2  C2  DEN d   1       3.501   3.672  -5.451  0.00  0.00    -0.031 A 
ATOM      3  C3  DEN d   1       3.152   3.635  -4.017  0.00  0.00     0.027 A 
ATOM      4  C4  DEN d   1       2.453   1.620  -2.567  0.00  0.00     0.027 A 
ATOM      5  C5  DEN d   1       2.203   0.266  -2.574  0.00  0.00    -0.003 A 
ATOM      6  C6  DEN d   1       2.294  -0.488  -3.714  0.00  0.00     0.001 A 
ATOM      7  C7  DEN d   1       2.690   0.099  -4.886  0.00  0.00     0.017 A 
ATOM      8  C8  DEN d   1       2.938   1.466  -4.889  0.00  0.00    -0.094 A 
ATOM      9  C9  DEN d   1       2.851   2.208  -3.723  0.00  0.00    -0.072 A 
ENDROOT
TORSDOF 0
ENDMDL
