MODEL 1
REMARK minimizedAffinity 11.0165262
REMARK minimizedRMSD -1
REMARK  0 active torsions:
REMARK  status: ('A' for Active; 'I' for Inactive)
ROOT
ATOM      1  C1  DEN d   1      -1.102   3.276   2.324  0.00  0.00     0.130 A 
ATOM      2  C2  DEN d   1       0.263   2.982   2.751  0.00  0.00    -0.031 A 
ATOM      3  C3  DEN d   1       0.483   1.529   2.606  0.00  0.00     0.027 A 
ATOM      4  C4  DEN d   1      -1.146  -0.283   1.760  0.00  0.00     0.027 A 
ATOM      5  C5  DEN d   1      -2.421  -0.517   1.294  0.00  0.00    -0.003 A 
ATOM      6  C6  DEN d   1      -3.349   0.483   1.172  0.00  0.00     0.001 A 
ATOM      7  C7  DEN d   1      -3.001   1.773   1.477  0.00  0.00     0.017 A 
ATOM      8  C8  DEN d   1      -1.720   2.015   1.954  0.00  0.00    -0.094 A 
ATOM      9  C9  DEN d   1      -0.792   0.993   2.059  0.00  0.00    -0.072 A 
ENDROOT
TORSDOF 0
ENDMDL
