MODEL 1
REMARK minimizedAffinity -3.78510809
REMARK minimizedRMSD -1
REMARK  0 active torsions:
REMARK  status: ('A' for Active; 'I' for Inactive)
ROOT
ATOM      1  C1  DEN d   1       1.357   0.735  -0.761  0.00  0.00     0.130 A 
ATOM      2  C2  DEN d   1       2.209   0.976   0.401  0.00  0.00    -0.031 A 
ATOM      3  C3  DEN d   1       1.522   0.434   1.590  0.00  0.00     0.027 A 
ATOM      4  C4  DEN d   1      -0.763  -0.752   1.744  0.00  0.00     0.027 A 
ATOM      5  C5  DEN d   1      -1.859  -1.176   1.025  0.00  0.00    -0.003 A 
ATOM      6  C6  DEN d   1      -1.974  -0.964  -0.323  0.00  0.00     0.001 A 
ATOM      7  C7  DEN d   1      -0.955  -0.350  -1.003  0.00  0.00     0.017 A 
ATOM      8  C8  DEN d   1       0.150   0.086  -0.283  0.00  0.00    -0.094 A 
ATOM      9  C9  DEN d   1       0.253  -0.149   1.077  0.00  0.00    -0.072 A 
ENDROOT
TORSDOF 0
ENDMDL
