MODEL 1
REMARK minimizedAffinity -5.40869665
REMARK minimizedRMSD -1
REMARK  0 active torsions:
REMARK  status: ('A' for Active; 'I' for Inactive)
ROOT
ATOM      1  C1  DEN d   1      -1.558  -0.343  -0.794  0.00  0.00     0.130 A 
ATOM      2  C2  DEN d   1      -0.747  -0.041  -1.970  0.00  0.00    -0.031 A 
ATOM      3  C3  DEN d   1       0.586   0.391  -1.507  0.00  0.00     0.027 A 
ATOM      4  C4  DEN d   1       1.471   0.616   0.905  0.00  0.00     0.027 A 
ATOM      5  C5  DEN d   1       1.147   0.483   2.237  0.00  0.00    -0.003 A 
ATOM      6  C6  DEN d   1      -0.103   0.102   2.650  0.00  0.00     0.001 A 
ATOM      7  C7  DEN d   1      -1.060  -0.205   1.719  0.00  0.00     0.017 A 
ATOM      8  C8  DEN d   1      -0.742  -0.066   0.375  0.00  0.00    -0.094 A 
ATOM      9  C9  DEN d   1       0.530   0.310  -0.022  0.00  0.00    -0.072 A 
ENDROOT
TORSDOF 0
ENDMDL
