MODEL 1
REMARK minimizedAffinity 3.802212
REMARK minimizedRMSD -1
REMARK  0 active torsions:
REMARK  status: ('A' for Active; 'I' for Inactive)
ROOT
ATOM      1  C1  DEN d   1      -0.356  -0.984  -0.932  0.00  0.00     0.130 A 
ATOM      2  C2  DEN d   1      -0.177   0.289  -0.239  0.00  0.00    -0.031 A 
ATOM      3  C3  DEN d   1       0.962   0.993  -0.864  0.00  0.00     0.027 A 
ATOM      4  C4  DEN d   1       2.453   0.241  -2.830  0.00  0.00     0.027 A 
ATOM      5  C5  DEN d   1       2.693  -0.770  -3.734  0.00  0.00    -0.003 A 
ATOM      6  C6  DEN d   1       1.962  -1.928  -3.745  0.00  0.00     0.001 A 
ATOM      7  C7  DEN d   1       0.925  -2.085  -2.864  0.00  0.00     0.017 A 
ATOM      8  C8  DEN d   1       0.681  -1.073  -1.944  0.00  0.00    -0.094 A 
ATOM      9  C9  DEN d   1       1.424   0.095  -1.957  0.00  0.00    -0.072 A 
ENDROOT
TORSDOF 0
ENDMDL
