MODEL 1
REMARK minimizedAffinity -6.71049356
REMARK minimizedRMSD -1
REMARK  0 active torsions:
REMARK  status: ('A' for Active; 'I' for Inactive)
ROOT
ATOM      1  C1  DEN d   1      -1.759  -0.860  -0.607  0.00  0.00     0.130 A 
ATOM      2  C2  DEN d   1      -1.154  -0.356  -1.837  0.00  0.00    -0.031 A 
ATOM      3  C3  DEN d   1       0.157   0.230  -1.494  0.00  0.00     0.027 A 
ATOM      4  C4  DEN d   1       1.306   0.402   0.809  0.00  0.00     0.027 A 
ATOM      5  C5  DEN d   1       1.176   0.125   2.151  0.00  0.00    -0.003 A 
ATOM      6  C6  DEN d   1       0.053  -0.465   2.670  0.00  0.00     0.001 A 
ATOM      7  C7  DEN d   1      -0.966  -0.838   1.833  0.00  0.00     0.017 A 
ATOM      8  C8  DEN d   1      -0.845  -0.555   0.479  0.00  0.00    -0.094 A 
ATOM      9  C9  DEN d   1       0.303   0.031  -0.027  0.00  0.00    -0.072 A 
ENDROOT
TORSDOF 0
ENDMDL
