MODEL 1
REMARK minimizedAffinity 2.6570518
REMARK minimizedRMSD -1
REMARK  0 active torsions:
REMARK  status: ('A' for Active; 'I' for Inactive)
ROOT
ATOM      1  C   UNL d   1      -3.559   1.040  -0.396  0.00  0.00     0.078 C 
ATOM      2  C1  UNL d   1      -2.579   0.938   0.734  0.00  0.00    -0.077 A 
ATOM      3  C2  UNL d   1      -2.664   1.791   1.842  0.00  0.00    -0.001 A 
ATOM      4  C3  UNL d   1      -1.739   1.691   2.882  0.00  0.00     0.003 A 
ATOM      5  C4  UNL d   1      -0.722   0.741   2.825  0.00  0.00    -0.005 A 
ATOM      6  C5  UNL d   1      -0.627  -0.110   1.726  0.00  0.00     0.003 A 
ATOM      7  C6  UNL d   1      -1.552  -0.012   0.685  0.00  0.00    -0.001 A 
ENDROOT
TORSDOF 0
ENDMDL
