MODEL 1
REMARK minimizedAffinity 5.21508694
REMARK minimizedRMSD -1
REMARK  0 active torsions:
REMARK  status: ('A' for Active; 'I' for Inactive)
ROOT
ATOM      1  C   UNL d   1      -0.853  -1.782  -0.123  0.00  0.00     0.078 C 
ATOM      2  C1  UNL d   1      -1.311  -0.666   0.767  0.00  0.00    -0.077 A 
ATOM      3  C2  UNL d   1      -2.084   0.388   0.264  0.00  0.00    -0.001 A 
ATOM      4  C3  UNL d   1      -2.495   1.425   1.102  0.00  0.00     0.003 A 
ATOM      5  C4  UNL d   1      -2.138   1.420   2.449  0.00  0.00    -0.005 A 
ATOM      6  C5  UNL d   1      -1.367   0.377   2.959  0.00  0.00     0.003 A 
ATOM      7  C6  UNL d   1      -0.955  -0.661   2.122  0.00  0.00    -0.001 A 
ENDROOT
TORSDOF 0
ENDMDL
