MODEL 1
REMARK minimizedAffinity 1.81434357
REMARK minimizedRMSD -1
REMARK  0 active torsions:
REMARK  status: ('A' for Active; 'I' for Inactive)
ROOT
ATOM      1  C   UNL d   1      -1.291  -4.382  -4.824  0.00  0.00     0.078 C 
ATOM      2  C1  UNL d   1      -0.928  -2.939  -5.014  0.00  0.00    -0.077 A 
ATOM      3  C2  UNL d   1       0.140  -2.568  -5.840  0.00  0.00    -0.001 A 
ATOM      4  C3  UNL d   1       0.474  -1.222  -5.999  0.00  0.00     0.003 A 
ATOM      5  C4  UNL d   1      -0.255  -0.237  -5.336  0.00  0.00    -0.005 A 
ATOM      6  C5  UNL d   1      -1.318  -0.597  -4.510  0.00  0.00     0.003 A 
ATOM      7  C6  UNL d   1      -1.653  -1.943  -4.349  0.00  0.00    -0.001 A 
ENDROOT
TORSDOF 0
ENDMDL
