MODEL 1
REMARK minimizedAffinity -0.591857076
REMARK minimizedRMSD -1
REMARK  0 active torsions:
REMARK  status: ('A' for Active; 'I' for Inactive)
ROOT
ATOM      1  C   UNL d   1      -5.438   2.122  -1.498  0.00  0.00     0.078 C 
ATOM      2  C1  UNL d   1      -5.639   3.476  -0.888  0.00  0.00    -0.077 A 
ATOM      3  C2  UNL d   1      -5.634   4.632  -1.679  0.00  0.00    -0.001 A 
ATOM      4  C3  UNL d   1      -5.813   5.887  -1.097  0.00  0.00     0.003 A 
ATOM      5  C4  UNL d   1      -5.996   6.000   0.280  0.00  0.00    -0.005 A 
ATOM      6  C5  UNL d   1      -6.000   4.856   1.076  0.00  0.00     0.003 A 
ATOM      7  C6  UNL d   1      -5.821   3.600   0.495  0.00  0.00    -0.001 A 
ENDROOT
TORSDOF 0
ENDMDL
