MODEL 1
REMARK minimizedAffinity 2.24965
REMARK minimizedRMSD -1
REMARK  0 active torsions:
REMARK  status: ('A' for Active; 'I' for Inactive)
ROOT
ATOM      1  C   UNL d   1      -0.139   0.878   2.986  0.00  0.00     0.078 C 
ATOM      2  C1  UNL d   1       1.074   0.338   2.288  0.00  0.00    -0.077 A 
ATOM      3  C2  UNL d   1       1.111   0.221   0.893  0.00  0.00    -0.001 A 
ATOM      4  C3  UNL d   1       2.243  -0.293   0.258  0.00  0.00     0.003 A 
ATOM      5  C4  UNL d   1       3.345  -0.694   1.009  0.00  0.00    -0.005 A 
ATOM      6  C5  UNL d   1       3.317  -0.584   2.398  0.00  0.00     0.003 A 
ATOM      7  C6  UNL d   1       2.186  -0.071   3.035  0.00  0.00    -0.001 A 
ENDROOT
TORSDOF 0
ENDMDL
