MODEL 1
REMARK minimizedAffinity 4.34577703
REMARK minimizedRMSD -1
REMARK  0 active torsions:
REMARK  status: ('A' for Active; 'I' for Inactive)
ROOT
ATOM      1  C   UNL d   1      -1.423   0.416   2.504  0.00  0.00     0.078 C 
ATOM      2  C1  UNL d   1      -0.047   0.012   2.066  0.00  0.00    -0.077 A 
ATOM      3  C2  UNL d   1       1.032   0.042   2.957  0.00  0.00    -0.001 A 
ATOM      4  C3  UNL d   1       2.309  -0.328   2.533  0.00  0.00     0.003 A 
ATOM      5  C4  UNL d   1       2.519  -0.730   1.215  0.00  0.00    -0.005 A 
ATOM      6  C5  UNL d   1       1.452  -0.760   0.320  0.00  0.00     0.003 A 
ATOM      7  C6  UNL d   1       0.174  -0.391   0.743  0.00  0.00    -0.001 A 
ENDROOT
TORSDOF 0
ENDMDL
