MODEL 1
REMARK minimizedAffinity 7.71806335
REMARK minimizedRMSD -1
REMARK  0 active torsions:
REMARK  status: ('A' for Active; 'I' for Inactive)
ROOT
ATOM      1  C   UNL d   1      -4.072   1.457  -0.209  0.00  0.00     0.078 C 
ATOM      2  C1  UNL d   1      -3.019   0.970   0.742  0.00  0.00    -0.077 A 
ATOM      3  C2  UNL d   1      -2.474   1.820   1.711  0.00  0.00    -0.001 A 
ATOM      4  C3  UNL d   1      -1.488   1.355   2.583  0.00  0.00     0.003 A 
ATOM      5  C4  UNL d   1      -1.038   0.040   2.494  0.00  0.00    -0.005 A 
ATOM      6  C5  UNL d   1      -1.573  -0.813   1.531  0.00  0.00     0.003 A 
ATOM      7  C6  UNL d   1      -2.559  -0.351   0.658  0.00  0.00    -0.001 A 
ENDROOT
TORSDOF 0
ENDMDL
