MODEL 1
REMARK minimizedAffinity 1.2683835
REMARK minimizedRMSD -1
REMARK  0 active torsions:
REMARK  status: ('A' for Active; 'I' for Inactive)
ROOT
ATOM      1  C   UNL d   1      -0.586   0.326   2.969  0.00  0.00     0.078 C 
ATOM      2  C1  UNL d   1      -0.059  -0.404   1.770  0.00  0.00    -0.077 A 
ATOM      3  C2  UNL d   1      -0.930  -0.962   0.825  0.00  0.00    -0.001 A 
ATOM      4  C3  UNL d   1      -0.426  -1.648  -0.281  0.00  0.00     0.003 A 
ATOM      5  C4  UNL d   1       0.950  -1.784  -0.453  0.00  0.00    -0.005 A 
ATOM      6  C5  UNL d   1       1.824  -1.234   0.483  0.00  0.00     0.003 A 
ATOM      7  C6  UNL d   1       1.322  -0.547   1.590  0.00  0.00    -0.001 A 
ENDROOT
TORSDOF 0
ENDMDL
