MODEL 1
REMARK minimizedAffinity 9.03331184
REMARK minimizedRMSD -1
REMARK  0 active torsions:
REMARK  status: ('A' for Active; 'I' for Inactive)
ROOT
ATOM      1  C   UNL d   1      -3.835  -2.911  -5.256  0.00  0.00     0.078 C 
ATOM      2  C1  UNL d   1      -2.810  -2.909  -4.161  0.00  0.00    -0.077 A 
ATOM      3  C2  UNL d   1      -2.244  -1.713  -3.705  0.00  0.00    -0.001 A 
ATOM      4  C3  UNL d   1      -1.284  -1.728  -2.692  0.00  0.00     0.003 A 
ATOM      5  C4  UNL d   1      -0.880  -2.936  -2.128  0.00  0.00    -0.005 A 
ATOM      6  C5  UNL d   1      -1.437  -4.132  -2.577  0.00  0.00     0.003 A 
ATOM      7  C6  UNL d   1      -2.397  -4.119  -3.589  0.00  0.00    -0.001 A 
ENDROOT
TORSDOF 0
ENDMDL
