MODEL 1
REMARK minimizedAffinity 6.47347069
REMARK minimizedRMSD -1
REMARK  0 active torsions:
REMARK  status: ('A' for Active; 'I' for Inactive)
ROOT
ATOM      1  C   UNL d   1       5.958   2.463  -2.403  0.00  0.00     0.078 C 
ATOM      2  C1  UNL d   1       4.983   1.675  -1.580  0.00  0.00    -0.077 A 
ATOM      3  C2  UNL d   1       5.019   1.720  -0.181  0.00  0.00    -0.001 A 
ATOM      4  C3  UNL d   1       4.111   0.974   0.573  0.00  0.00     0.003 A 
ATOM      5  C4  UNL d   1       3.163   0.176  -0.064  0.00  0.00    -0.005 A 
ATOM      6  C5  UNL d   1       3.121   0.123  -1.455  0.00  0.00     0.003 A 
ATOM      7  C6  UNL d   1       4.028   0.868  -2.211  0.00  0.00    -0.001 A 
ENDROOT
TORSDOF 0
ENDMDL
