MODEL 1
REMARK minimizedAffinity 12.8271732
REMARK minimizedRMSD -1
REMARK  0 active torsions:
REMARK  status: ('A' for Active; 'I' for Inactive)
ROOT
ATOM      1  C   UNL d   1      -1.931  -0.544  -0.547  0.00  0.00     0.078 C 
ATOM      2  C1  UNL d   1      -3.347  -0.189  -0.202  0.00  0.00    -0.077 A 
ATOM      3  C2  UNL d   1      -3.665   1.062   0.342  0.00  0.00    -0.001 A 
ATOM      4  C3  UNL d   1      -4.985   1.375   0.667  0.00  0.00     0.003 A 
ATOM      5  C4  UNL d   1      -5.999   0.443   0.453  0.00  0.00    -0.005 A 
ATOM      6  C5  UNL d   1      -5.692  -0.805  -0.086  0.00  0.00     0.003 A 
ATOM      7  C6  UNL d   1      -4.372  -1.120  -0.411  0.00  0.00    -0.001 A 
ENDROOT
TORSDOF 0
ENDMDL
