MODEL 1
REMARK minimizedAffinity 5.04316664
REMARK minimizedRMSD -1
REMARK  0 active torsions:
REMARK  status: ('A' for Active; 'I' for Inactive)
ROOT
ATOM      1  C   UNL d   1       2.743   0.587   0.506  0.00  0.00     0.078 C 
ATOM      2  C1  UNL d   1       3.865   1.317  -0.171  0.00  0.00    -0.077 A 
ATOM      3  C2  UNL d   1       3.882   1.484  -1.561  0.00  0.00    -0.001 A 
ATOM      4  C3  UNL d   1       4.937   2.157  -2.178  0.00  0.00     0.003 A 
ATOM      5  C4  UNL d   1       5.984   2.667  -1.413  0.00  0.00    -0.005 A 
ATOM      6  C5  UNL d   1       5.977   2.504  -0.030  0.00  0.00     0.003 A 
ATOM      7  C6  UNL d   1       4.923   1.831   0.589  0.00  0.00    -0.001 A 
ENDROOT
TORSDOF 0
ENDMDL
