MODEL 1
REMARK minimizedAffinity 5.50174284
REMARK minimizedRMSD -1
REMARK  0 active torsions:
REMARK  status: ('A' for Active; 'I' for Inactive)
ROOT
ATOM      1  C   UNL d   1      -0.961  -1.903   2.806  0.00  0.00     0.020 A 
ATOM      2  C1  UNL d   1      -0.034  -2.341   1.861  0.00  0.00     0.020 A 
ATOM      3  C2  UNL d   1       0.799  -1.420   1.221  0.00  0.00     0.034 A 
ATOM      4  C3  UNL d   1       0.707  -0.058   1.526  0.00  0.00     0.017 A 
ATOM      5  C4  UNL d   1      -0.223   0.381   2.475  0.00  0.00     0.017 A 
ATOM      6  C5  UNL d   1      -1.055  -0.545   3.113  0.00  0.00     0.034 A 
ATOM      7 Cl   UNL d   1      -0.395   2.047   2.904  0.00  0.00    -0.070 Cl
ATOM      8 Cl1  UNL d   1       1.769   1.024   0.697  0.00  0.00    -0.070 Cl
ENDROOT
TORSDOF 0
ENDMDL
