MODEL 1
REMARK minimizedAffinity 13.761611
REMARK minimizedRMSD -1
REMARK  0 active torsions:
REMARK  status: ('A' for Active; 'I' for Inactive)
ROOT
ATOM      1  C   UNL d   1       4.841  -1.389  -5.273  0.00  0.00     0.020 A 
ATOM      2  C1  UNL d   1       5.676  -0.823  -4.311  0.00  0.00     0.020 A 
ATOM      3  C2  UNL d   1       5.136  -0.328  -3.122  0.00  0.00     0.034 A 
ATOM      4  C3  UNL d   1       3.757  -0.399  -2.892  0.00  0.00     0.017 A 
ATOM      5  C4  UNL d   1       2.920  -0.968  -3.858  0.00  0.00     0.017 A 
ATOM      6  C5  UNL d   1       3.465  -1.462  -5.047  0.00  0.00     0.034 A 
ATOM      7 Cl   UNL d   1       1.209  -1.091  -3.645  0.00  0.00    -0.070 Cl
ATOM      8 Cl1  UNL d   1       3.158   0.231  -1.398  0.00  0.00    -0.070 Cl
ENDROOT
TORSDOF 0
ENDMDL
