MODEL 1
REMARK minimizedAffinity 10.5557947
REMARK minimizedRMSD -1
REMARK  0 active torsions:
REMARK  status: ('A' for Active; 'I' for Inactive)
ROOT
ATOM      1  C   UNL d   1      -1.760  -0.769   0.567  0.00  0.00     0.020 A 
ATOM      2  C1  UNL d   1      -2.311  -1.036  -0.686  0.00  0.00     0.020 A 
ATOM      3  C2  UNL d   1      -1.481  -1.155  -1.803  0.00  0.00     0.034 A 
ATOM      4  C3  UNL d   1      -0.096  -1.007  -1.670  0.00  0.00     0.017 A 
ATOM      5  C4  UNL d   1       0.457  -0.739  -0.412  0.00  0.00     0.017 A 
ATOM      6  C5  UNL d   1      -0.379  -0.621   0.703  0.00  0.00     0.034 A 
ATOM      7 Cl   UNL d   1       2.157  -0.545  -0.169  0.00  0.00    -0.070 Cl
ATOM      8 Cl1  UNL d   1       0.870  -1.167  -3.093  0.00  0.00    -0.070 Cl
ENDROOT
TORSDOF 0
ENDMDL
