MODEL 1
REMARK minimizedAffinity 6.37745237
REMARK minimizedRMSD -1
REMARK  0 active torsions:
REMARK  status: ('A' for Active; 'I' for Inactive)
ROOT
ATOM      1  C   UNL d   1       0.547  -0.886   1.367  0.00  0.00     0.020 A 
ATOM      2  C1  UNL d   1       1.875  -1.140   1.707  0.00  0.00     0.020 A 
ATOM      3  C2  UNL d   1       2.250  -1.213   3.051  0.00  0.00     0.034 A 
ATOM      4  C3  UNL d   1       1.296  -1.031   4.059  0.00  0.00     0.017 A 
ATOM      5  C4  UNL d   1      -0.037  -0.776   3.716  0.00  0.00     0.017 A 
ATOM      6  C5  UNL d   1      -0.407  -0.704   2.369  0.00  0.00     0.034 A 
ATOM      7 Cl   UNL d   1      -1.270  -0.541   4.904  0.00  0.00    -0.070 Cl
ATOM      8 Cl1  UNL d   1       1.830  -1.135   5.699  0.00  0.00    -0.070 Cl
ENDROOT
TORSDOF 0
ENDMDL
