MODEL 1
REMARK minimizedAffinity 6.81845808
REMARK minimizedRMSD -1
REMARK  0 active torsions:
REMARK  status: ('A' for Active; 'I' for Inactive)
ROOT
ATOM      1  C   UNL d   1       5.646   5.996   4.460  0.00  0.00     0.020 A 
ATOM      2  C1  UNL d   1       4.780   5.964   5.552  0.00  0.00     0.020 A 
ATOM      3  C2  UNL d   1       4.263   4.746   5.998  0.00  0.00     0.034 A 
ATOM      4  C3  UNL d   1       4.613   3.554   5.353  0.00  0.00     0.017 A 
ATOM      5  C4  UNL d   1       5.483   3.587   4.257  0.00  0.00     0.017 A 
ATOM      6  C5  UNL d   1       5.997   4.809   3.814  0.00  0.00     0.034 A 
ATOM      7 Cl   UNL d   1       5.960   2.158   3.409  0.00  0.00    -0.070 Cl
ATOM      8 Cl1  UNL d   1       3.937   2.084   5.959  0.00  0.00    -0.070 Cl
ENDROOT
TORSDOF 0
ENDMDL
