MODEL 1
REMARK minimizedAffinity 12.5082321
REMARK minimizedRMSD -1
REMARK  0 active torsions:
REMARK  status: ('A' for Active; 'I' for Inactive)
ROOT
ATOM      1  C   UNL d   1       3.752   3.001  -0.256  0.00  0.00     0.020 A 
ATOM      2  C1  UNL d   1       4.994   3.439  -0.713  0.00  0.00     0.020 A 
ATOM      3  C2  UNL d   1       5.669   2.716  -1.700  0.00  0.00     0.034 A 
ATOM      4  C3  UNL d   1       5.103   1.552  -2.232  0.00  0.00     0.017 A 
ATOM      5  C4  UNL d   1       3.856   1.114  -1.772  0.00  0.00     0.017 A 
ATOM      6  C5  UNL d   1       3.184   1.841  -0.785  0.00  0.00     0.034 A 
ATOM      7 Cl   UNL d   1       3.093  -0.313  -2.381  0.00  0.00    -0.070 Cl
ATOM      8 Cl1  UNL d   1       5.994   0.709  -3.449  0.00  0.00    -0.070 Cl
ENDROOT
TORSDOF 0
ENDMDL
