MODEL 1
REMARK minimizedAffinity 7.66077709
REMARK minimizedRMSD -1
REMARK  0 active torsions:
REMARK  status: ('A' for Active; 'I' for Inactive)
ROOT
ATOM      1  C   UNL d   1       4.896   5.987   5.990  0.00  0.00     0.020 A 
ATOM      2  C1  UNL d   1       5.948   5.087   5.823  0.00  0.00     0.020 A 
ATOM      3  C2  UNL d   1       5.803   3.995   4.965  0.00  0.00     0.034 A 
ATOM      4  C3  UNL d   1       4.603   3.800   4.271  0.00  0.00     0.017 A 
ATOM      5  C4  UNL d   1       3.548   4.704   4.439  0.00  0.00     0.017 A 
ATOM      6  C5  UNL d   1       3.699   5.796   5.300  0.00  0.00     0.034 A 
ATOM      7 Cl   UNL d   1       2.038   4.529   3.617  0.00  0.00    -0.070 Cl
ATOM      8 Cl1  UNL d   1       4.494   2.428   3.226  0.00  0.00    -0.070 Cl
ENDROOT
TORSDOF 0
ENDMDL
