MODEL 1
REMARK minimizedAffinity 6.42970705
REMARK minimizedRMSD -1
REMARK  0 active torsions:
REMARK  status: ('A' for Active; 'I' for Inactive)
ROOT
ATOM      1  C   UNL d   1      -3.510  -0.325  -1.177  0.00  0.00     0.020 A 
ATOM      2  C1  UNL d   1      -2.707  -1.385  -0.756  0.00  0.00     0.020 A 
ATOM      3  C2  UNL d   1      -1.369  -1.446  -1.151  0.00  0.00     0.034 A 
ATOM      4  C3  UNL d   1      -0.830  -0.446  -1.969  0.00  0.00     0.017 A 
ATOM      5  C4  UNL d   1      -1.637   0.617  -2.391  0.00  0.00     0.017 A 
ATOM      6  C5  UNL d   1      -2.976   0.673  -1.993  0.00  0.00     0.034 A 
ATOM      7 Cl   UNL d   1      -1.043   1.887  -3.400  0.00  0.00    -0.070 Cl
ATOM      8 Cl1  UNL d   1       0.833  -0.585  -2.418  0.00  0.00    -0.070 Cl
ENDROOT
TORSDOF 0
ENDMDL
