MODEL 1
REMARK minimizedAffinity 16.8360252
REMARK minimizedRMSD -1
REMARK  0 active torsions:
REMARK  status: ('A' for Active; 'I' for Inactive)
ROOT
ATOM      1  C   UNL d   1       5.871   5.236   5.460  0.00  0.00     0.020 A 
ATOM      2  C1  UNL d   1       4.836   5.999   5.999  0.00  0.00     0.020 A 
ATOM      3  C2  UNL d   1       3.535   5.855   5.511  0.00  0.00     0.034 A 
ATOM      4  C3  UNL d   1       3.267   4.947   4.481  0.00  0.00     0.017 A 
ATOM      5  C4  UNL d   1       4.306   4.181   3.941  0.00  0.00     0.017 A 
ATOM      6  C5  UNL d   1       5.607   4.329   4.433  0.00  0.00     0.034 A 
ATOM      7 Cl   UNL d   1       4.053   3.040   2.668  0.00  0.00    -0.070 Cl
ATOM      8 Cl1  UNL d   1       1.635   4.820   3.926  0.00  0.00    -0.070 Cl
ENDROOT
TORSDOF 0
ENDMDL
