MODEL 1
REMARK minimizedAffinity -0.294777274
REMARK minimizedRMSD -1
REMARK  0 active torsions:
REMARK  status: ('A' for Active; 'I' for Inactive)
ROOT
ATOM      1  C   UNL d   1       5.431   5.759   4.470  0.00  0.00     0.020 A 
ATOM      2  C1  UNL d   1       5.985   4.480   4.494  0.00  0.00     0.020 A 
ATOM      3  C2  UNL d   1       5.235   3.403   4.970  0.00  0.00     0.034 A 
ATOM      4  C3  UNL d   1       3.926   3.603   5.424  0.00  0.00     0.017 A 
ATOM      5  C4  UNL d   1       3.370   4.887   5.399  0.00  0.00     0.017 A 
ATOM      6  C5  UNL d   1       4.126   5.962   4.922  0.00  0.00     0.034 A 
ATOM      7 Cl   UNL d   1       1.762   5.212   5.943  0.00  0.00    -0.070 Cl
ATOM      8 Cl1  UNL d   1       3.056   2.225   5.999  0.00  0.00    -0.070 Cl
ENDROOT
TORSDOF 0
ENDMDL
