MODEL 1
REMARK minimizedAffinity -4.3445735
REMARK minimizedRMSD -1
REMARK  0 active torsions:
REMARK  status: ('A' for Active; 'I' for Inactive)
ROOT
ATOM      1  C   UNL d   1       0.078  -1.529   1.564  0.00  0.00     0.020 A 
ATOM      2  C1  UNL d   1       0.980  -0.787   0.802  0.00  0.00     0.020 A 
ATOM      3  C2  UNL d   1       0.514   0.032  -0.229  0.00  0.00     0.034 A 
ATOM      4  C3  UNL d   1      -0.857   0.111  -0.501  0.00  0.00     0.017 A 
ATOM      5  C4  UNL d   1      -1.761  -0.635   0.264  0.00  0.00     0.017 A 
ATOM      6  C5  UNL d   1      -1.289  -1.453   1.295  0.00  0.00     0.034 A 
ATOM      7 Cl   UNL d   1      -3.466  -0.590  -0.012  0.00  0.00    -0.070 Cl
ATOM      8 Cl1  UNL d   1      -1.362   1.144  -1.791  0.00  0.00    -0.070 Cl
ENDROOT
TORSDOF 0
ENDMDL
