MODEL 1
REMARK minimizedAffinity -2.82180691
REMARK minimizedRMSD -1
REMARK  0 active torsions:
REMARK  status: ('A' for Active; 'I' for Inactive)
ROOT
ATOM      1  C   UNL d   1       1.694  -0.686   0.601  0.00  0.00     0.020 A 
ATOM      2  C1  UNL d   1       0.682  -1.304   1.335  0.00  0.00     0.020 A 
ATOM      3  C2  UNL d   1      -0.618  -1.352   0.828  0.00  0.00     0.034 A 
ATOM      4  C3  UNL d   1      -0.910  -0.781  -0.417  0.00  0.00     0.017 A 
ATOM      5  C4  UNL d   1       0.107  -0.162  -1.153  0.00  0.00     0.017 A 
ATOM      6  C5  UNL d   1       1.407  -0.117  -0.640  0.00  0.00     0.034 A 
ATOM      7 Cl   UNL d   1      -0.176   0.564  -2.696  0.00  0.00    -0.070 Cl
ATOM      8 Cl1  UNL d   1      -2.539  -0.878  -0.983  0.00  0.00    -0.070 Cl
ENDROOT
TORSDOF 0
ENDMDL
