MODEL 1
REMARK minimizedAffinity -2.93019438
REMARK minimizedRMSD -1
REMARK  0 active torsions:
REMARK  status: ('A' for Active; 'I' for Inactive)
ROOT
ATOM      1  C   UNL d   1      -3.130  -2.234   0.892  0.00  0.00     0.020 A 
ATOM      2  C1  UNL d   1      -2.222  -1.399   1.542  0.00  0.00     0.020 A 
ATOM      3  C2  UNL d   1      -1.371  -0.579   0.797  0.00  0.00     0.034 A 
ATOM      4  C3  UNL d   1      -1.427  -0.593  -0.601  0.00  0.00     0.017 A 
ATOM      5  C4  UNL d   1      -2.339  -1.431  -1.252  0.00  0.00     0.017 A 
ATOM      6  C5  UNL d   1      -3.189  -2.250  -0.502  0.00  0.00     0.034 A 
ATOM      7 Cl   UNL d   1      -2.467  -1.502  -2.975  0.00  0.00    -0.070 Cl
ATOM      8 Cl1  UNL d   1      -0.346   0.447  -1.459  0.00  0.00    -0.070 Cl
ENDROOT
TORSDOF 0
ENDMDL
