MODEL 1
REMARK minimizedAffinity -1.80877113
REMARK minimizedRMSD -1
REMARK  0 active torsions:
REMARK  status: ('A' for Active; 'I' for Inactive)
ROOT
ATOM      1  C   UNL d   1      -1.883  -0.399   0.598  0.00  0.00     0.020 A 
ATOM      2  C1  UNL d   1      -2.609  -0.463  -0.590  0.00  0.00     0.020 A 
ATOM      3  C2  UNL d   1      -1.997  -0.132  -1.801  0.00  0.00     0.034 A 
ATOM      4  C3  UNL d   1      -0.655   0.266  -1.825  0.00  0.00     0.017 A 
ATOM      5  C4  UNL d   1       0.073   0.330  -0.631  0.00  0.00     0.017 A 
ATOM      6  C5  UNL d   1      -0.545  -0.003   0.578  0.00  0.00     0.034 A 
ATOM      7 Cl   UNL d   1       1.732   0.811  -0.582  0.00  0.00    -0.070 Cl
ATOM      8 Cl1  UNL d   1       0.038   0.661  -3.358  0.00  0.00    -0.070 Cl
ENDROOT
TORSDOF 0
ENDMDL
