MODEL 1
REMARK minimizedAffinity 1.69525766
REMARK minimizedRMSD -1
REMARK  0 active torsions:
REMARK  status: ('A' for Active; 'I' for Inactive)
ROOT
ATOM      1  C   UNL d   1      -1.603   0.573  -2.327  0.00  0.00     0.020 A 
ATOM      2  C1  UNL d   1      -0.371   1.032  -1.863  0.00  0.00     0.020 A 
ATOM      3  C2  UNL d   1       0.194   0.474  -0.714  0.00  0.00     0.034 A 
ATOM      4  C3  UNL d   1      -0.472  -0.546  -0.026  0.00  0.00     0.017 A 
ATOM      5  C4  UNL d   1      -1.708  -1.007  -0.493  0.00  0.00     0.017 A 
ATOM      6  C5  UNL d   1      -2.270  -0.445  -1.643  0.00  0.00     0.034 A 
ATOM      7 Cl   UNL d   1      -2.589  -2.263   0.303  0.00  0.00    -0.070 Cl
ATOM      8 Cl1  UNL d   1       0.287  -1.191   1.387  0.00  0.00    -0.070 Cl
ENDROOT
TORSDOF 0
ENDMDL
