MODEL 1
REMARK minimizedAffinity -1.01893044
REMARK minimizedRMSD -1
REMARK  0 active torsions:
REMARK  status: ('A' for Active; 'I' for Inactive)
ROOT
ATOM      1  C   UNL d   1       0.076   0.005  -1.787  0.00  0.00     0.020 A 
ATOM      2  C1  UNL d   1       1.046  -0.050  -0.787  0.00  0.00     0.020 A 
ATOM      3  C2  UNL d   1       0.687  -0.400   0.516  0.00  0.00     0.034 A 
ATOM      4  C3  UNL d   1      -0.647  -0.697   0.823  0.00  0.00     0.017 A 
ATOM      5  C4  UNL d   1      -1.620  -0.641  -0.182  0.00  0.00     0.017 A 
ATOM      6  C5  UNL d   1      -1.254  -0.290  -1.485  0.00  0.00     0.034 A 
ATOM      7 Cl   UNL d   1      -3.285  -0.993   0.120  0.00  0.00    -0.070 Cl
ATOM      8 Cl1  UNL d   1      -1.020  -1.123   2.455  0.00  0.00    -0.070 Cl
ENDROOT
TORSDOF 0
ENDMDL
