MODEL 1
REMARK minimizedAffinity -3.03564811
REMARK minimizedRMSD -1
REMARK  0 active torsions:
REMARK  status: ('A' for Active; 'I' for Inactive)
ROOT
ATOM      1  C   UNL d   1       0.093   0.547  -1.471  0.00  0.00     0.020 A 
ATOM      2  C1  UNL d   1       1.089   0.321  -0.522  0.00  0.00     0.020 A 
ATOM      3  C2  UNL d   1       0.835  -0.507   0.573  0.00  0.00     0.034 A 
ATOM      4  C3  UNL d   1      -0.418  -1.113   0.722  0.00  0.00     0.017 A 
ATOM      5  C4  UNL d   1      -1.417  -0.886  -0.231  0.00  0.00     0.017 A 
ATOM      6  C5  UNL d   1      -1.158  -0.055  -1.326  0.00  0.00     0.034 A 
ATOM      7 Cl   UNL d   1      -2.988  -1.598  -0.115  0.00  0.00    -0.070 Cl
ATOM      8 Cl1  UNL d   1      -0.662  -2.126   2.100  0.00  0.00    -0.070 Cl
ENDROOT
TORSDOF 0
ENDMDL
