MODEL 1
REMARK minimizedAffinity -1.00381887
REMARK minimizedRMSD -1
REMARK  0 active torsions:
REMARK  status: ('A' for Active; 'I' for Inactive)
ROOT
ATOM      1  C   UNL d   1      -2.144  -1.491   1.533  0.00  0.00     0.020 A 
ATOM      2  C1  UNL d   1      -1.034  -0.663   1.699  0.00  0.00     0.020 A 
ATOM      3  C2  UNL d   1      -0.348  -0.183   0.582  0.00  0.00     0.034 A 
ATOM      4  C3  UNL d   1      -0.771  -0.529  -0.707  0.00  0.00     0.017 A 
ATOM      5  C4  UNL d   1      -1.886  -1.359  -0.872  0.00  0.00     0.017 A 
ATOM      6  C5  UNL d   1      -2.569  -1.837   0.250  0.00  0.00     0.034 A 
ATOM      7 Cl   UNL d   1      -2.468  -1.829  -2.430  0.00  0.00    -0.070 Cl
ATOM      8 Cl1  UNL d   1       0.124   0.102  -2.043  0.00  0.00    -0.070 Cl
ENDROOT
TORSDOF 0
ENDMDL
