MODEL 1
REMARK minimizedAffinity -4.13971853
REMARK minimizedRMSD -1
REMARK  0 active torsions:
REMARK  status: ('A' for Active; 'I' for Inactive)
ROOT
ATOM      1  C   UNL d   1       1.218  -0.023   0.268  0.00  0.00     0.020 A 
ATOM      2  C1  UNL d   1       0.480   0.564  -0.759  0.00  0.00     0.020 A 
ATOM      3  C2  UNL d   1      -0.864   0.225  -0.934  0.00  0.00     0.034 A 
ATOM      4  C3  UNL d   1      -1.473  -0.702  -0.081  0.00  0.00     0.017 A 
ATOM      5  C4  UNL d   1      -0.731  -1.290   0.949  0.00  0.00     0.017 A 
ATOM      6  C5  UNL d   1       0.614  -0.948   1.120  0.00  0.00     0.034 A 
ATOM      7 Cl   UNL d   1      -1.414  -2.442   2.042  0.00  0.00    -0.070 Cl
ATOM      8 Cl1  UNL d   1      -3.138  -1.073  -0.356  0.00  0.00    -0.070 Cl
ENDROOT
TORSDOF 0
ENDMDL
