MODEL 1
REMARK minimizedAffinity -1.67156601
REMARK minimizedRMSD -1
REMARK  0 active torsions:
REMARK  status: ('A' for Active; 'I' for Inactive)
ROOT
ATOM      1  C   UNL d   1       1.670   2.363  -0.223  0.00  0.00     0.020 A 
ATOM      2  C1  UNL d   1       0.970   2.768   0.913  0.00  0.00     0.020 A 
ATOM      3  C2  UNL d   1       0.166   1.856   1.600  0.00  0.00     0.034 A 
ATOM      4  C3  UNL d   1       0.060   0.534   1.152  0.00  0.00     0.017 A 
ATOM      5  C4  UNL d   1       0.763   0.129   0.012  0.00  0.00     0.017 A 
ATOM      6  C5  UNL d   1       1.567   1.046  -0.672  0.00  0.00     0.034 A 
ATOM      7 Cl   UNL d   1       0.682  -1.485  -0.602  0.00  0.00    -0.070 Cl
ATOM      8 Cl1  UNL d   1      -0.952  -0.540   2.050  0.00  0.00    -0.070 Cl
ENDROOT
TORSDOF 0
ENDMDL
