MODEL 1
REMARK minimizedAffinity -2.33288932
REMARK minimizedRMSD -1
REMARK  0 active torsions:
REMARK  status: ('A' for Active; 'I' for Inactive)
ROOT
ATOM      1  C   UNL d   1       1.246   2.789   0.903  0.00  0.00     0.020 A 
ATOM      2  C1  UNL d   1       1.064   2.513   2.257  0.00  0.00     0.020 A 
ATOM      3  C2  UNL d   1       0.326   1.393   2.648  0.00  0.00     0.034 A 
ATOM      4  C3  UNL d   1      -0.232   0.546   1.683  0.00  0.00     0.017 A 
ATOM      5  C4  UNL d   1      -0.048   0.825   0.324  0.00  0.00     0.017 A 
ATOM      6  C5  UNL d   1       0.692   1.947  -0.062  0.00  0.00     0.034 A 
ATOM      7 Cl   UNL d   1      -0.706  -0.174  -0.924  0.00  0.00    -0.070 Cl
ATOM      8 Cl1  UNL d   1      -1.133  -0.820   2.238  0.00  0.00    -0.070 Cl
ENDROOT
TORSDOF 0
ENDMDL
