MODEL 1
REMARK minimizedAffinity -4.80682087
REMARK minimizedRMSD -1
REMARK  0 active torsions:
REMARK  status: ('A' for Active; 'I' for Inactive)
ROOT
ATOM      1  C   UNL d   1       1.419   2.830   1.724  0.00  0.00     0.020 A 
ATOM      2  C1  UNL d   1       0.098   2.420   1.895  0.00  0.00     0.020 A 
ATOM      3  C2  UNL d   1      -0.350   1.240   1.297  0.00  0.00     0.034 A 
ATOM      4  C3  UNL d   1       0.524   0.467   0.524  0.00  0.00     0.017 A 
ATOM      5  C4  UNL d   1       1.851   0.880   0.353  0.00  0.00     0.017 A 
ATOM      6  C5  UNL d   1       2.293   2.062   0.954  0.00  0.00     0.034 A 
ATOM      7 Cl   UNL d   1       2.988  -0.021  -0.586  0.00  0.00    -0.070 Cl
ATOM      8 Cl1  UNL d   1      -0.097  -0.981  -0.186  0.00  0.00    -0.070 Cl
ENDROOT
TORSDOF 0
ENDMDL
