MODEL 1
REMARK minimizedAffinity -2.42272282
REMARK minimizedRMSD -1
REMARK  0 active torsions:
REMARK  status: ('A' for Active; 'I' for Inactive)
ROOT
ATOM      1  C   UNL d   1       1.467   2.426   1.588  0.00  0.00     0.020 A 
ATOM      2  C1  UNL d   1       1.616   2.516   0.205  0.00  0.00     0.020 A 
ATOM      3  C2  UNL d   1       0.973   1.596  -0.628  0.00  0.00     0.034 A 
ATOM      4  C3  UNL d   1       0.179   0.584  -0.077  0.00  0.00     0.017 A 
ATOM      5  C4  UNL d   1       0.031   0.494   1.312  0.00  0.00     0.017 A 
ATOM      6  C5  UNL d   1       0.677   1.417   2.140  0.00  0.00     0.034 A 
ATOM      7 Cl   UNL d   1      -0.932  -0.728   2.064  0.00  0.00    -0.070 Cl
ATOM      8 Cl1  UNL d   1      -0.586  -0.518  -1.166  0.00  0.00    -0.070 Cl
ENDROOT
TORSDOF 0
ENDMDL
