MODEL 1
REMARK minimizedAffinity -4.69522762
REMARK minimizedRMSD -1
REMARK  0 active torsions:
REMARK  status: ('A' for Active; 'I' for Inactive)
ROOT
ATOM      1  C   UNL d   1      -0.547   1.818   1.960  0.00  0.00     0.020 A 
ATOM      2  C1  UNL d   1       0.429   2.751   1.614  0.00  0.00     0.020 A 
ATOM      3  C2  UNL d   1       1.374   2.443   0.633  0.00  0.00     0.034 A 
ATOM      4  C3  UNL d   1       1.345   1.198  -0.005  0.00  0.00     0.017 A 
ATOM      5  C4  UNL d   1       0.364   0.261   0.342  0.00  0.00     0.017 A 
ATOM      6  C5  UNL d   1      -0.579   0.575   1.325  0.00  0.00     0.034 A 
ATOM      7 Cl   UNL d   1       0.265  -1.296  -0.401  0.00  0.00    -0.070 Cl
ATOM      8 Cl1  UNL d   1       2.544   0.884  -1.209  0.00  0.00    -0.070 Cl
ENDROOT
TORSDOF 0
ENDMDL
