MODEL 1
REMARK minimizedAffinity -1.19453514
REMARK minimizedRMSD -1
REMARK  0 active torsions:
REMARK  status: ('A' for Active; 'I' for Inactive)
ROOT
ATOM      1  C   UNL d   1       1.582   2.535   0.491  0.00  0.00     0.020 A 
ATOM      2  C1  UNL d   1       2.109   1.543  -0.334  0.00  0.00     0.020 A 
ATOM      3  C2  UNL d   1       1.557   0.260  -0.324  0.00  0.00     0.034 A 
ATOM      4  C3  UNL d   1       0.475  -0.034   0.513  0.00  0.00     0.017 A 
ATOM      5  C4  UNL d   1      -0.054   0.963   1.341  0.00  0.00     0.017 A 
ATOM      6  C5  UNL d   1       0.503   2.246   1.327  0.00  0.00     0.034 A 
ATOM      7 Cl   UNL d   1      -1.389   0.676   2.401  0.00  0.00    -0.070 Cl
ATOM      8 Cl1  UNL d   1      -0.158  -1.641   0.473  0.00  0.00    -0.070 Cl
ENDROOT
TORSDOF 0
ENDMDL
