MODEL 1
REMARK minimizedAffinity -1.33045769
REMARK minimizedRMSD -1
REMARK  0 active torsions:
REMARK  status: ('A' for Active; 'I' for Inactive)
ROOT
ATOM      1  C   UNL d   1       0.992  -1.526  -0.461  0.00  0.00     0.020 A 
ATOM      2  C1  UNL d   1      -0.002  -0.910   0.300  0.00  0.00     0.020 A 
ATOM      3  C2  UNL d   1       0.056   0.463   0.544  0.00  0.00     0.034 A 
ATOM      4  C3  UNL d   1       1.110   1.226   0.026  0.00  0.00     0.017 A 
ATOM      5  C4  UNL d   1       2.106   0.607  -0.737  0.00  0.00     0.017 A 
ATOM      6  C5  UNL d   1       2.043  -0.769  -0.978  0.00  0.00     0.034 A 
ATOM      7 Cl   UNL d   1       3.437   1.482  -1.409  0.00  0.00    -0.070 Cl
ATOM      8 Cl1  UNL d   1       1.118   2.920   0.367  0.00  0.00    -0.070 Cl
ENDROOT
TORSDOF 0
ENDMDL
