MODEL 1
REMARK minimizedAffinity -1.95811856
REMARK minimizedRMSD -1
REMARK  0 active torsions:
REMARK  status: ('A' for Active; 'I' for Inactive)
ROOT
ATOM      1  C   UNL d   1      -0.727   1.610   1.627  0.00  0.00     0.020 A 
ATOM      2  C1  UNL d   1       0.624   1.933   1.746  0.00  0.00     0.020 A 
ATOM      3  C2  UNL d   1       1.571   1.277   0.957  0.00  0.00     0.034 A 
ATOM      4  C3  UNL d   1       1.169   0.295   0.044  0.00  0.00     0.017 A 
ATOM      5  C4  UNL d   1      -0.188  -0.029  -0.075  0.00  0.00     0.017 A 
ATOM      6  C5  UNL d   1      -1.132   0.631   0.718  0.00  0.00     0.034 A 
ATOM      7 Cl   UNL d   1      -0.760  -1.229  -1.178  0.00  0.00    -0.070 Cl
ATOM      8 Cl1  UNL d   1       2.394  -0.474  -0.900  0.00  0.00    -0.070 Cl
ENDROOT
TORSDOF 0
ENDMDL
