MODEL 1
REMARK minimizedAffinity -2.81314445
REMARK minimizedRMSD -1
REMARK  0 active torsions:
REMARK  status: ('A' for Active; 'I' for Inactive)
ROOT
ATOM      1  C   UNL d   1      -0.286   1.659   0.921  0.00  0.00     0.020 A 
ATOM      2  C1  UNL d   1       1.021   1.324   1.273  0.00  0.00     0.020 A 
ATOM      3  C2  UNL d   1       1.594   0.147   0.789  0.00  0.00     0.034 A 
ATOM      4  C3  UNL d   1       0.861  -0.701  -0.048  0.00  0.00     0.017 A 
ATOM      5  C4  UNL d   1      -0.451  -0.365  -0.401  0.00  0.00     0.017 A 
ATOM      6  C5  UNL d   1      -1.020   0.816   0.086  0.00  0.00     0.034 A 
ATOM      7 Cl   UNL d   1      -1.419  -1.361  -1.430  0.00  0.00    -0.070 Cl
ATOM      8 Cl1  UNL d   1       1.633  -2.142  -0.609  0.00  0.00    -0.070 Cl
ENDROOT
TORSDOF 0
ENDMDL
