MODEL 1
REMARK minimizedAffinity -4.13132906
REMARK minimizedRMSD -1
REMARK  0 active torsions:
REMARK  status: ('A' for Active; 'I' for Inactive)
ROOT
ATOM      1  C   UNL d   1       0.385  -0.930   0.403  0.00  0.00     0.020 A 
ATOM      2  C1  UNL d   1      -0.255  -0.170   1.381  0.00  0.00     0.020 A 
ATOM      3  C2  UNL d   1       0.127   1.157   1.595  0.00  0.00     0.034 A 
ATOM      4  C3  UNL d   1       1.151   1.727   0.830  0.00  0.00     0.017 A 
ATOM      5  C4  UNL d   1       1.792   0.963  -0.151  0.00  0.00     0.017 A 
ATOM      6  C5  UNL d   1       1.406  -0.365  -0.362  0.00  0.00     0.034 A 
ATOM      7 Cl   UNL d   1       3.064   1.597  -1.135  0.00  0.00    -0.070 Cl
ATOM      8 Cl1  UNL d   1       1.571   3.372   1.148  0.00  0.00    -0.070 Cl
ENDROOT
TORSDOF 0
ENDMDL
