MODEL 1
REMARK minimizedAffinity -2.64635038
REMARK minimizedRMSD -1
REMARK  0 active torsions:
REMARK  status: ('A' for Active; 'I' for Inactive)
ROOT
ATOM      1  C   UNL d   1      -0.956  -0.974   0.924  0.00  0.00     0.020 A 
ATOM      2  C1  UNL d   1      -0.160  -1.786   0.116  0.00  0.00     0.020 A 
ATOM      3  C2  UNL d   1       1.015  -1.279  -0.442  0.00  0.00     0.034 A 
ATOM      4  C3  UNL d   1       1.398   0.044  -0.193  0.00  0.00     0.017 A 
ATOM      5  C4  UNL d   1       0.598   0.859   0.617  0.00  0.00     0.017 A 
ATOM      6  C5  UNL d   1      -0.577   0.345   1.173  0.00  0.00     0.034 A 
ATOM      7 Cl   UNL d   1       1.005   2.501   0.969  0.00  0.00    -0.070 Cl
ATOM      8 Cl1  UNL d   1       2.864   0.606  -0.916  0.00  0.00    -0.070 Cl
ENDROOT
TORSDOF 0
ENDMDL
