MODEL 1
REMARK minimizedAffinity -3.43685699
REMARK minimizedRMSD -1
REMARK  0 active torsions:
REMARK  status: ('A' for Active; 'I' for Inactive)
ROOT
ATOM      1  C   UNL d   1      -0.965   0.616   2.012  0.00  0.00     0.020 A 
ATOM      2  C1  UNL d   1      -0.602  -0.676   1.634  0.00  0.00     0.020 A 
ATOM      3  C2  UNL d   1       0.541  -0.882   0.858  0.00  0.00     0.034 A 
ATOM      4  C3  UNL d   1       1.324   0.207   0.456  0.00  0.00     0.017 A 
ATOM      5  C4  UNL d   1       0.959   1.503   0.836  0.00  0.00     0.017 A 
ATOM      6  C5  UNL d   1      -0.186   1.703   1.614  0.00  0.00     0.034 A 
ATOM      7 Cl   UNL d   1       1.875   2.896   0.379  0.00  0.00    -0.070 Cl
ATOM      8 Cl1  UNL d   1       2.723  -0.121  -0.503  0.00  0.00    -0.070 Cl
ENDROOT
TORSDOF 0
ENDMDL
