MODEL 1
REMARK minimizedAffinity -5.47733021
REMARK minimizedRMSD -1
REMARK  3 active torsions:
REMARK  status: ('A' for Active; 'I' for Inactive)
REMARK    1  A    between atoms: C3'_2  and  C2'_3 
REMARK    2  A    between atoms: C2'_3  and  C1'_4 
REMARK    3  A    between atoms: C1'_4  and  C1_5 
ROOT
ATOM      1  C1  N4B d   1       1.439   0.449  -1.039  0.00  0.00    -0.075 A 
ATOM      2  C2  N4B d   1       2.052  -0.741  -1.490  0.00  0.00     0.002 A 
ATOM      3  C3  N4B d   1       2.386  -0.883  -2.814  0.00  0.00     0.002 A 
ATOM      4  C4  N4B d   1       2.101   0.140  -3.706  0.00  0.00    -0.004 A 
ATOM      5  C5  N4B d   1       1.532   1.296  -3.259  0.00  0.00     0.002 A 
ATOM      6  C6  N4B d   1       1.194   1.454  -1.930  0.00  0.00     0.002 A 
ENDROOT
BRANCH   1   7
ATOM      7  C1' N4B d   1       0.978   0.616   0.383  0.00  0.00     0.057 C 
BRANCH   7   8
ATOM      8  C2' N4B d   1      -0.193  -0.328   0.643  0.00  0.00     0.009 C 
BRANCH   8   9
ATOM      9  C3' N4B d   1      -1.507   0.422   0.781  0.00  0.00     0.004 C 
ATOM     10  C4' N4B d   1      -1.696   1.017   2.145  0.00  0.00     0.003 C 
ENDBRANCH   8   9
ENDBRANCH   7   8
ENDBRANCH   1   7
TORSDOF 3
ENDMDL
