MODEL 1
REMARK minimizedAffinity -3.45654559
REMARK minimizedRMSD -1
REMARK  3 active torsions:
REMARK  status: ('A' for Active; 'I' for Inactive)
REMARK    1  A    between atoms: C3'_2  and  C2'_3 
REMARK    2  A    between atoms: C2'_3  and  C1'_4 
REMARK    3  A    between atoms: C1'_4  and  C1_5 
ROOT
ATOM      1  C1  N4B d   1       0.947  -0.292   0.351  0.00  0.00    -0.075 A 
ATOM      2  C2  N4B d   1       2.305   0.097   0.363  0.00  0.00     0.002 A 
ATOM      3  C3  N4B d   1       3.136  -0.281  -0.663  0.00  0.00     0.002 A 
ATOM      4  C4  N4B d   1       2.640  -1.060  -1.697  0.00  0.00    -0.004 A 
ATOM      5  C5  N4B d   1       1.322  -1.410  -1.714  0.00  0.00     0.002 A 
ATOM      6  C6  N4B d   1       0.473  -1.034  -0.692  0.00  0.00     0.002 A 
ENDROOT
BRANCH   1   7
ATOM      7  C1' N4B d   1       0.020   0.024   1.492  0.00  0.00     0.057 C 
BRANCH   7   8
ATOM      8  C2' N4B d   1      -1.372   0.317   0.940  0.00  0.00     0.009 C 
BRANCH   8   9
ATOM      9  C3' N4B d   1      -2.347   0.710   2.037  0.00  0.00     0.004 C 
ATOM     10  C4' N4B d   1      -1.712   1.553   3.103  0.00  0.00     0.003 C 
ENDBRANCH   8   9
ENDBRANCH   7   8
ENDBRANCH   1   7
TORSDOF 3
ENDMDL
