MODEL 1
REMARK minimizedAffinity -2.9998436
REMARK minimizedRMSD -1
REMARK  3 active torsions:
REMARK  status: ('A' for Active; 'I' for Inactive)
REMARK    1  A    between atoms: C3'_2  and  C2'_3 
REMARK    2  A    between atoms: C2'_3  and  C1'_4 
REMARK    3  A    between atoms: C1'_4  and  C1_5 
ROOT
ATOM      1  C1  N4B d   1      -1.519   0.725   1.359  0.00  0.00    -0.075 A 
ATOM      2  C2  N4B d   1      -0.935   1.862   1.961  0.00  0.00     0.002 A 
ATOM      3  C3  N4B d   1      -1.257   2.196   3.253  0.00  0.00     0.002 A 
ATOM      4  C4  N4B d   1      -2.171   1.424   3.954  0.00  0.00    -0.004 A 
ATOM      5  C5  N4B d   1      -2.711   0.313   3.374  0.00  0.00     0.002 A 
ATOM      6  C6  N4B d   1      -2.394  -0.037   2.078  0.00  0.00     0.002 A 
ENDROOT
BRANCH   1   7
ATOM      7  C1' N4B d   1      -1.263   0.369  -0.080  0.00  0.00     0.057 C 
BRANCH   7   8
ATOM      8  C2' N4B d   1       0.239   0.407  -0.346  0.00  0.00     0.009 C 
BRANCH   8   9
ATOM      9  C3' N4B d   1       0.802  -0.977  -0.618  0.00  0.00     0.004 C 
ATOM     10  C4' N4B d   1       0.123  -2.049   0.181  0.00  0.00     0.003 C 
ENDBRANCH   8   9
ENDBRANCH   7   8
ENDBRANCH   1   7
TORSDOF 3
ENDMDL
