MODEL 1
REMARK minimizedAffinity -6.2733593
REMARK minimizedRMSD -1
REMARK  3 active torsions:
REMARK  status: ('A' for Active; 'I' for Inactive)
REMARK    1  A    between atoms: C3'_2  and  C2'_3 
REMARK    2  A    between atoms: C2'_3  and  C1'_4 
REMARK    3  A    between atoms: C1'_4  and  C1_5 
ROOT
ATOM      1  C1  N4B d   1       1.053   0.069  -0.763  0.00  0.00    -0.075 A 
ATOM      2  C2  N4B d   1       2.168  -0.742  -1.069  0.00  0.00     0.002 A 
ATOM      3  C3  N4B d   1       3.116  -0.299  -1.958  0.00  0.00     0.002 A 
ATOM      4  C4  N4B d   1       2.961   0.938  -2.566  0.00  0.00    -0.004 A 
ATOM      5  C5  N4B d   1       1.894   1.726  -2.247  0.00  0.00     0.002 A 
ATOM      6  C6  N4B d   1       0.936   1.295  -1.351  0.00  0.00     0.002 A 
ENDROOT
BRANCH   1   7
ATOM      7  C1' N4B d   1      -0.053  -0.408   0.138  0.00  0.00     0.057 C 
BRANCH   7   8
ATOM      8  C2' N4B d   1      -1.099   0.695   0.275  0.00  0.00     0.009 C 
BRANCH   8   9
ATOM      9  C3' N4B d   1      -1.921   0.543   1.543  0.00  0.00     0.004 C 
ATOM     10  C4' N4B d   1      -1.854   1.753   2.426  0.00  0.00     0.003 C 
ENDBRANCH   8   9
ENDBRANCH   7   8
ENDBRANCH   1   7
TORSDOF 3
ENDMDL
