MODEL 1
REMARK minimizedAffinity -4.96727085
REMARK minimizedRMSD -1
REMARK  3 active torsions:
REMARK  status: ('A' for Active; 'I' for Inactive)
REMARK    1  A    between atoms: C3'_2  and  C2'_3 
REMARK    2  A    between atoms: C2'_3  and  C1'_4 
REMARK    3  A    between atoms: C1'_4  and  C1_5 
ROOT
ATOM      1  C1  N4B d   1       0.009  -0.056  -0.279  0.00  0.00    -0.075 A 
ATOM      2  C2  N4B d   1       0.788  -1.232  -0.348  0.00  0.00     0.002 A 
ATOM      3  C3  N4B d   1       1.820  -1.320  -1.250  0.00  0.00     0.002 A 
ATOM      4  C4  N4B d   1       2.079  -0.256  -2.102  0.00  0.00    -0.004 A 
ATOM      5  C5  N4B d   1       1.338   0.885  -2.011  0.00  0.00     0.002 A 
ATOM      6  C6  N4B d   1       0.300   0.989  -1.107  0.00  0.00     0.002 A 
ENDROOT
BRANCH   1   7
ATOM      7  C1' N4B d   1      -1.184   0.053   0.631  0.00  0.00     0.057 C 
BRANCH   7   8
ATOM      8  C2' N4B d   1      -1.096   1.358   1.417  0.00  0.00     0.009 C 
BRANCH   8   9
ATOM      9  C3' N4B d   1      -1.821   1.270   2.749  0.00  0.00     0.004 C 
ATOM     10  C4' N4B d   1      -2.622   0.010   2.891  0.00  0.00     0.003 C 
ENDBRANCH   8   9
ENDBRANCH   7   8
ENDBRANCH   1   7
TORSDOF 3
ENDMDL
