MODEL 1
REMARK minimizedAffinity -4.94271326
REMARK minimizedRMSD -1
REMARK  3 active torsions:
REMARK  status: ('A' for Active; 'I' for Inactive)
REMARK    1  A    between atoms: C3'_2  and  C2'_3 
REMARK    2  A    between atoms: C2'_3  and  C1'_4 
REMARK    3  A    between atoms: C1'_4  and  C1_5 
ROOT
ATOM      1  C1  N4B d   1       0.195   0.452  -0.877  0.00  0.00    -0.075 A 
ATOM      2  C2  N4B d   1       0.944   1.410  -1.595  0.00  0.00     0.002 A 
ATOM      3  C3  N4B d   1       2.153   1.063  -2.146  0.00  0.00     0.002 A 
ATOM      4  C4  N4B d   1       2.640  -0.224  -1.976  0.00  0.00    -0.004 A 
ATOM      5  C5  N4B d   1       1.898  -1.151  -1.303  0.00  0.00     0.002 A 
ATOM      6  C6  N4B d   1       0.679  -0.817  -0.748  0.00  0.00     0.002 A 
ENDROOT
BRANCH   1   7
ATOM      7  C1' N4B d   1      -1.092   0.808  -0.184  0.00  0.00     0.057 C 
BRANCH   7   8
ATOM      8  C2' N4B d   1      -1.160   0.076   1.153  0.00  0.00     0.009 C 
BRANCH   8   9
ATOM      9  C3' N4B d   1      -2.313   0.567   2.012  0.00  0.00     0.004 C 
ATOM     10  C4' N4B d   1      -1.865   1.456   3.133  0.00  0.00     0.003 C 
ENDBRANCH   8   9
ENDBRANCH   7   8
ENDBRANCH   1   7
TORSDOF 3
ENDMDL
