MODEL 1
REMARK minimizedAffinity -5.72291136
REMARK minimizedRMSD -1
REMARK  3 active torsions:
REMARK  status: ('A' for Active; 'I' for Inactive)
REMARK    1  A    between atoms: C3'_2  and  C2'_3 
REMARK    2  A    between atoms: C2'_3  and  C1'_4 
REMARK    3  A    between atoms: C1'_4  and  C1_5 
ROOT
ATOM      1  C1  N4B d   1      -1.346   0.282   1.146  0.00  0.00    -0.075 A 
ATOM      2  C2  N4B d   1      -2.747   0.280   1.320  0.00  0.00     0.002 A 
ATOM      3  C3  N4B d   1      -3.309   0.950   2.378  0.00  0.00     0.002 A 
ATOM      4  C4  N4B d   1      -2.492   1.612   3.283  0.00  0.00    -0.004 A 
ATOM      5  C5  N4B d   1      -1.141   1.630   3.094  0.00  0.00     0.002 A 
ATOM      6  C6  N4B d   1      -0.563   0.964   2.032  0.00  0.00     0.002 A 
ENDROOT
BRANCH   1   7
ATOM      7  C1' N4B d   1      -0.679  -0.508   0.053  0.00  0.00     0.057 C 
BRANCH   7   8
ATOM      8  C2' N4B d   1       0.749  -0.002  -0.131  0.00  0.00     0.009 C 
BRANCH   8   9
ATOM      9  C3' N4B d   1       1.612  -1.000  -0.883  0.00  0.00     0.004 C 
ATOM     10  C4' N4B d   1       3.016  -0.515  -1.089  0.00  0.00     0.003 C 
ENDBRANCH   8   9
ENDBRANCH   7   8
ENDBRANCH   1   7
TORSDOF 3
ENDMDL
