MODEL 1
REMARK minimizedAffinity -3.58447766
REMARK minimizedRMSD -1
REMARK  3 active torsions:
REMARK  status: ('A' for Active; 'I' for Inactive)
REMARK    1  A    between atoms: C3'_2  and  C2'_3 
REMARK    2  A    between atoms: C2'_3  and  C1'_4 
REMARK    3  A    between atoms: C1'_4  and  C1_5 
ROOT
ATOM      1  C1  N4B d   1      -0.322   0.025   0.059  0.00  0.00    -0.075 A 
ATOM      2  C2  N4B d   1      -0.501  -1.261   0.612  0.00  0.00     0.002 A 
ATOM      3  C3  N4B d   1       0.411  -2.254   0.351  0.00  0.00     0.002 A 
ATOM      4  C4  N4B d   1       1.495  -1.990  -0.473  0.00  0.00    -0.004 A 
ATOM      5  C5  N4B d   1       1.675  -0.738  -0.983  0.00  0.00     0.002 A 
ATOM      6  C6  N4B d   1       0.768   0.271  -0.725  0.00  0.00     0.002 A 
ENDROOT
BRANCH   1   7
ATOM      7  C1' N4B d   1      -1.337   1.119   0.246  0.00  0.00     0.057 C 
BRANCH   7   8
ATOM      8  C2' N4B d   1      -2.093   0.883   1.550  0.00  0.00     0.009 C 
BRANCH   8   9
ATOM      9  C3' N4B d   1      -1.532   1.715   2.690  0.00  0.00     0.004 C 
ATOM     10  C4' N4B d   1      -1.818   1.122   4.038  0.00  0.00     0.003 C 
ENDBRANCH   8   9
ENDBRANCH   7   8
ENDBRANCH   1   7
TORSDOF 3
ENDMDL
