MODEL 1
REMARK minimizedAffinity -5.55364323
REMARK minimizedRMSD -1
REMARK  1 active torsions:
REMARK  status: ('A' for Active; 'I' for Inactive)
REMARK    1  A    between atoms: C1_2  and  C2_3 
ROOT
ATOM      1  C2  UNL d   1      -0.756   0.160  -0.359  0.00  0.00    -0.081 A 
ATOM      2  C3  UNL d   1      -0.069   1.362  -0.145  0.00  0.00     0.006 A 
ATOM      3  C4  UNL d   1       1.247   1.352   0.321  0.00  0.00     0.002 A 
ATOM      4  C5  UNL d   1       1.902   0.142   0.573  0.00  0.00    -0.080 A 
ATOM      5  C6  UNL d   1       3.326   0.117   1.045  0.00  0.00     0.076 C 
ATOM      6  C7  UNL d   1       1.211  -1.058   0.376  0.00  0.00     0.002 A 
ATOM      7  C8  UNL d   1      -0.106  -1.049  -0.090  0.00  0.00     0.006 A 
ENDROOT
BRANCH   1   8
ATOM      8  C1  UNL d   1      -2.154   0.166  -0.923  0.00  0.00     0.054 C 
ATOM      9  C   UNL d   1      -2.222  -0.595  -2.239  0.00  0.00     0.018 C 
ENDBRANCH   1   8
TORSDOF 1
ENDMDL
