MODEL 1
REMARK minimizedAffinity -4.03257084
REMARK minimizedRMSD -1
REMARK  1 active torsions:
REMARK  status: ('A' for Active; 'I' for Inactive)
REMARK    1  A    between atoms: C1_2  and  C2_3 
ROOT
ATOM      1  C2  UNL d   1      -1.487  -0.337  -0.822  0.00  0.00    -0.081 A 
ATOM      2  C3  UNL d   1      -0.693   0.797  -1.029  0.00  0.00     0.006 A 
ATOM      3  C4  UNL d   1       0.443   1.019  -0.247  0.00  0.00     0.002 A 
ATOM      4  C5  UNL d   1       0.807   0.107   0.750  0.00  0.00    -0.080 A 
ATOM      5  C6  UNL d   1       2.041   0.317   1.576  0.00  0.00     0.076 C 
ATOM      6  C7  UNL d   1       0.004  -1.017   0.968  0.00  0.00     0.002 A 
ATOM      7  C8  UNL d   1      -1.132  -1.239   0.186  0.00  0.00     0.006 A 
ENDROOT
BRANCH   1   8
ATOM      8  C1  UNL d   1      -2.676  -0.612  -1.707  0.00  0.00     0.054 C 
ATOM      9  C   UNL d   1      -2.862   0.489  -2.742  0.00  0.00     0.018 C 
ENDBRANCH   1   8
TORSDOF 1
ENDMDL
