MODEL 1
REMARK minimizedAffinity -5.20548582
REMARK minimizedRMSD -1
REMARK  1 active torsions:
REMARK  status: ('A' for Active; 'I' for Inactive)
REMARK    1  A    between atoms: C1_2  and  C2_3 
ROOT
ATOM      1  C2  UNL d   1      -0.404  -0.696  -0.112  0.00  0.00    -0.081 A 
ATOM      2  C3  UNL d   1       0.103   0.532   0.330  0.00  0.00     0.006 A 
ATOM      3  C4  UNL d   1       1.444   0.652   0.703  0.00  0.00     0.002 A 
ATOM      4  C5  UNL d   1       2.301  -0.451   0.634  0.00  0.00    -0.080 A 
ATOM      5  C6  UNL d   1       3.750  -0.328   1.003  0.00  0.00     0.076 C 
ATOM      6  C7  UNL d   1       1.791  -1.682   0.209  0.00  0.00     0.002 A 
ATOM      7  C8  UNL d   1       0.450  -1.803  -0.164  0.00  0.00     0.006 A 
ENDROOT
BRANCH   1   8
ATOM      8  C1  UNL d   1      -1.833  -0.813  -0.576  0.00  0.00     0.054 C 
ATOM      9  C   UNL d   1      -1.959  -0.503  -2.061  0.00  0.00     0.018 C 
ENDBRANCH   1   8
TORSDOF 1
ENDMDL
