MODEL 1
REMARK minimizedAffinity 1.07897091
REMARK minimizedRMSD -1
REMARK  0 active torsions:
REMARK  status: ('A' for Active; 'I' for Inactive)
ROOT
ATOM      1  C   UNL d   1       2.485   0.831  -0.679  0.00  0.00     0.077 C 
ATOM      2  C1  UNL d   1       1.223   0.181  -0.196  0.00  0.00    -0.074 A 
ATOM      3  C2  UNL d   1       0.547  -0.753  -0.987  0.00  0.00    -0.005 A 
ATOM      4  C3  UNL d   1      -0.621  -1.356  -0.521  0.00  0.00     0.006 A 
ATOM      5  C4  UNL d   1      -1.124  -1.032   0.740  0.00  0.00    -0.005 A 
ATOM      6  C5  UNL d   1      -0.461  -0.101   1.546  0.00  0.00    -0.074 A 
ATOM      7  C6  UNL d   1      -0.982   0.251   2.907  0.00  0.00     0.077 C 
ATOM      8  C7  UNL d   1       0.716   0.496   1.073  0.00  0.00    -0.001 A 
ENDROOT
TORSDOF 0
ENDMDL
