MODEL 1
REMARK minimizedAffinity -1.54062057
REMARK minimizedRMSD -1
REMARK  0 active torsions:
REMARK  status: ('A' for Active; 'I' for Inactive)
ROOT
ATOM      1  C   UNL d   1      -2.964  -1.547   4.150  0.00  0.00     0.077 C 
ATOM      2  C1  UNL d   1      -2.289  -0.480   3.341  0.00  0.00    -0.074 A 
ATOM      3  C2  UNL d   1      -1.930   0.742   3.920  0.00  0.00    -0.005 A 
ATOM      4  C3  UNL d   1      -1.295   1.722   3.158  0.00  0.00     0.006 A 
ATOM      5  C4  UNL d   1      -1.012   1.491   1.811  0.00  0.00    -0.005 A 
ATOM      6  C5  UNL d   1      -1.363   0.275   1.215  0.00  0.00    -0.074 A 
ATOM      7  C6  UNL d   1      -1.057   0.006  -0.229  0.00  0.00     0.077 C 
ATOM      8  C7  UNL d   1      -1.995  -0.707   1.990  0.00  0.00    -0.001 A 
ENDROOT
TORSDOF 0
ENDMDL
