MODEL 1
REMARK minimizedAffinity -4.76990891
REMARK minimizedRMSD -1
REMARK  0 active torsions:
REMARK  status: ('A' for Active; 'I' for Inactive)
ROOT
ATOM      1  C   UNL d   1       3.884  -0.380  -0.763  0.00  0.00     0.077 C 
ATOM      2  C1  UNL d   1       2.391  -0.437  -0.630  0.00  0.00    -0.074 A 
ATOM      3  C2  UNL d   1       1.757  -1.580  -0.132  0.00  0.00    -0.005 A 
ATOM      4  C3  UNL d   1       0.368  -1.614  -0.005  0.00  0.00     0.006 A 
ATOM      5  C4  UNL d   1      -0.399  -0.509  -0.375  0.00  0.00    -0.005 A 
ATOM      6  C5  UNL d   1       0.218   0.643  -0.874  0.00  0.00    -0.074 A 
ATOM      7  C6  UNL d   1      -0.591   1.843  -1.267  0.00  0.00     0.077 C 
ATOM      8  C7  UNL d   1       1.614   0.672  -0.992  0.00  0.00    -0.001 A 
ENDROOT
TORSDOF 0
ENDMDL
