MODEL 1
REMARK minimizedAffinity -4.75887156
REMARK minimizedRMSD -1
REMARK  0 active torsions:
REMARK  status: ('A' for Active; 'I' for Inactive)
ROOT
ATOM      1  C   UNL d   1       3.247   0.297  -1.588  0.00  0.00     0.077 C 
ATOM      2  C1  UNL d   1       2.100  -0.371  -0.890  0.00  0.00    -0.074 A 
ATOM      3  C2  UNL d   1       2.106  -1.750  -0.655  0.00  0.00    -0.005 A 
ATOM      4  C3  UNL d   1       1.036  -2.356   0.004  0.00  0.00     0.006 A 
ATOM      5  C4  UNL d   1      -0.049  -1.591   0.432  0.00  0.00    -0.005 A 
ATOM      6  C5  UNL d   1      -0.073  -0.211   0.206  0.00  0.00    -0.074 A 
ATOM      7  C6  UNL d   1      -1.227   0.628   0.669  0.00  0.00     0.077 C 
ATOM      8  C7  UNL d   1       1.009   0.392  -0.450  0.00  0.00    -0.001 A 
ENDROOT
TORSDOF 0
ENDMDL
