MODEL 1
REMARK minimizedAffinity -2.39040661
REMARK minimizedRMSD -1
REMARK  0 active torsions:
REMARK  status: ('A' for Active; 'I' for Inactive)
ROOT
ATOM      1  C   UNL d   1      -0.941   0.443   0.492  0.00  0.00     0.077 C 
ATOM      2  C1  UNL d   1       0.366   0.015  -0.106  0.00  0.00    -0.074 A 
ATOM      3  C2  UNL d   1       1.440   0.906  -0.201  0.00  0.00    -0.005 A 
ATOM      4  C3  UNL d   1       2.652   0.490  -0.751  0.00  0.00     0.006 A 
ATOM      5  C4  UNL d   1       2.803  -0.818  -1.211  0.00  0.00    -0.005 A 
ATOM      6  C5  UNL d   1       1.741  -1.724  -1.124  0.00  0.00    -0.074 A 
ATOM      7  C6  UNL d   1       1.890  -3.137  -1.604  0.00  0.00     0.077 C 
ATOM      8  C7  UNL d   1       0.528  -1.301  -0.563  0.00  0.00    -0.001 A 
ENDROOT
TORSDOF 0
ENDMDL
