MODEL 1
REMARK minimizedAffinity -3.60031676
REMARK minimizedRMSD -1
REMARK  0 active torsions:
REMARK  status: ('A' for Active; 'I' for Inactive)
ROOT
ATOM      1  C   UNL d   1       0.204   3.322  -1.204  0.00  0.00     0.077 C 
ATOM      2  C1  UNL d   1       0.429   1.880  -0.858  0.00  0.00    -0.074 A 
ATOM      3  C2  UNL d   1      -0.592   1.109  -0.292  0.00  0.00    -0.005 A 
ATOM      4  C3  UNL d   1      -0.370  -0.233   0.015  0.00  0.00     0.006 A 
ATOM      5  C4  UNL d   1       0.871  -0.817  -0.240  0.00  0.00    -0.005 A 
ATOM      6  C5  UNL d   1       1.903  -0.062  -0.807  0.00  0.00    -0.074 A 
ATOM      7  C6  UNL d   1       3.240  -0.677  -1.096  0.00  0.00     0.077 C 
ATOM      8  C7  UNL d   1       1.670   1.284  -1.119  0.00  0.00    -0.001 A 
ENDROOT
TORSDOF 0
ENDMDL
