MODEL 1
REMARK minimizedAffinity -4.9275279
REMARK minimizedRMSD -1
REMARK  0 active torsions:
REMARK  status: ('A' for Active; 'I' for Inactive)
ROOT
ATOM      1  C   UNL d   1       3.333  -1.090  -1.487  0.00  0.00     0.077 C 
ATOM      2  C1  UNL d   1       2.034  -0.398  -1.201  0.00  0.00    -0.074 A 
ATOM      3  C2  UNL d   1       1.092  -0.966  -0.337  0.00  0.00    -0.005 A 
ATOM      4  C3  UNL d   1      -0.108  -0.307  -0.073  0.00  0.00     0.006 A 
ATOM      5  C4  UNL d   1      -0.378   0.926  -0.669  0.00  0.00    -0.005 A 
ATOM      6  C5  UNL d   1       0.552   1.510  -1.535  0.00  0.00    -0.074 A 
ATOM      7  C6  UNL d   1       0.281   2.838  -2.176  0.00  0.00     0.077 C 
ATOM      8  C7  UNL d   1       1.758   0.844  -1.790  0.00  0.00    -0.001 A 
ENDROOT
TORSDOF 0
ENDMDL
