MODEL 1
REMARK minimizedAffinity -5.97877264
REMARK minimizedRMSD -1
REMARK  0 active torsions:
REMARK  status: ('A' for Active; 'I' for Inactive)
ROOT
ATOM      1  C   UNL d   1      -3.421  -2.025   3.751  0.00  0.00     0.077 C 
ATOM      2  C1  UNL d   1      -2.749  -0.794   3.220  0.00  0.00    -0.074 A 
ATOM      3  C2  UNL d   1      -2.625   0.354   4.009  0.00  0.00    -0.005 A 
ATOM      4  C3  UNL d   1      -1.989   1.488   3.506  0.00  0.00     0.006 A 
ATOM      5  C4  UNL d   1      -1.470   1.486   2.210  0.00  0.00    -0.005 A 
ATOM      6  C5  UNL d   1      -1.583   0.347   1.407  0.00  0.00    -0.074 A 
ATOM      7  C6  UNL d   1      -1.023   0.325   0.016  0.00  0.00     0.077 C 
ATOM      8  C7  UNL d   1      -2.218  -0.791   1.923  0.00  0.00    -0.001 A 
ENDROOT
TORSDOF 0
ENDMDL
