MODEL 1
REMARK minimizedAffinity -1.95627761
REMARK minimizedRMSD -1
REMARK  0 active torsions:
REMARK  status: ('A' for Active; 'I' for Inactive)
ROOT
ATOM      1  C   UNL d   1       3.859  -0.531  -1.203  0.00  0.00     0.077 C 
ATOM      2  C1  UNL d   1       2.438  -0.665  -0.745  0.00  0.00    -0.074 A 
ATOM      3  C2  UNL d   1       1.599   0.451  -0.667  0.00  0.00    -0.005 A 
ATOM      4  C3  UNL d   1       0.276   0.310  -0.249  0.00  0.00     0.006 A 
ATOM      5  C4  UNL d   1      -0.221  -0.947   0.097  0.00  0.00    -0.005 A 
ATOM      6  C5  UNL d   1       0.603  -2.076   0.025  0.00  0.00    -0.074 A 
ATOM      7  C6  UNL d   1       0.082  -3.436   0.384  0.00  0.00     0.077 C 
ATOM      8  C7  UNL d   1       1.929  -1.926  -0.403  0.00  0.00    -0.001 A 
ENDROOT
TORSDOF 0
ENDMDL
