MODEL 1
REMARK minimizedAffinity -4.63626766
REMARK minimizedRMSD -1
REMARK  0 active torsions:
REMARK  status: ('A' for Active; 'I' for Inactive)
ROOT
ATOM      1  C   UNL d   1      -0.956   0.097   0.593  0.00  0.00     0.077 C 
ATOM      2  C1  UNL d   1       0.326  -0.353  -0.042  0.00  0.00    -0.074 A 
ATOM      3  C2  UNL d   1       1.561  -0.069   0.551  0.00  0.00    -0.005 A 
ATOM      4  C3  UNL d   1       2.744  -0.503  -0.046  0.00  0.00     0.006 A 
ATOM      5  C4  UNL d   1       2.706  -1.223  -1.241  0.00  0.00    -0.005 A 
ATOM      6  C5  UNL d   1       1.481  -1.518  -1.848  0.00  0.00    -0.074 A 
ATOM      7  C6  UNL d   1       1.421  -2.300  -3.126  0.00  0.00     0.077 C 
ATOM      8  C7  UNL d   1       0.295  -1.085  -1.238  0.00  0.00    -0.001 A 
ENDROOT
TORSDOF 0
ENDMDL
