MODEL 1
REMARK minimizedAffinity -5.16355467
REMARK minimizedRMSD -1
REMARK  0 active torsions:
REMARK  status: ('A' for Active; 'I' for Inactive)
ROOT
ATOM      1  C   UNL d   1      -0.975  -0.045   0.706  0.00  0.00     0.077 C 
ATOM      2  C1  UNL d   1      -0.022   0.456  -0.338  0.00  0.00    -0.074 A 
ATOM      3  C2  UNL d   1      -0.239   1.678  -0.983  0.00  0.00    -0.005 A 
ATOM      4  C3  UNL d   1       0.662   2.135  -1.945  0.00  0.00     0.006 A 
ATOM      5  C4  UNL d   1       1.788   1.377  -2.270  0.00  0.00    -0.005 A 
ATOM      6  C5  UNL d   1       2.022   0.153  -1.635  0.00  0.00    -0.074 A 
ATOM      7  C6  UNL d   1       3.231  -0.670  -1.966  0.00  0.00     0.077 C 
ATOM      8  C7  UNL d   1       1.115  -0.296  -0.665  0.00  0.00    -0.001 A 
ENDROOT
TORSDOF 0
ENDMDL
