MODEL 1
REMARK minimizedAffinity -5.60081339
REMARK minimizedRMSD -1
REMARK  0 active torsions:
REMARK  status: ('A' for Active; 'I' for Inactive)
ROOT
ATOM      1  C   UNL d   1       2.672   1.204  -2.461  0.00  0.00     0.077 C 
ATOM      2  C1  UNL d   1       1.929   0.227  -1.599  0.00  0.00    -0.074 A 
ATOM      3  C2  UNL d   1       2.395  -1.081  -1.431  0.00  0.00    -0.005 A 
ATOM      4  C3  UNL d   1       1.699  -1.976  -0.618  0.00  0.00     0.006 A 
ATOM      5  C4  UNL d   1       0.533  -1.573   0.033  0.00  0.00    -0.005 A 
ATOM      6  C5  UNL d   1       0.052  -0.269  -0.123  0.00  0.00    -0.074 A 
ATOM      7  C6  UNL d   1      -1.194   0.183   0.578  0.00  0.00     0.077 C 
ATOM      8  C7  UNL d   1       0.761   0.626  -0.935  0.00  0.00    -0.001 A 
ENDROOT
TORSDOF 0
ENDMDL
