MODEL 1
REMARK minimizedAffinity -5.92690229
REMARK minimizedRMSD -1
REMARK  0 active torsions:
REMARK  status: ('A' for Active; 'I' for Inactive)
ROOT
ATOM      1  C   UNL d   1      -1.095   0.438   1.255  0.00  0.00     0.077 C 
ATOM      2  C1  UNL d   1      -0.230  -0.281   0.263  0.00  0.00    -0.074 A 
ATOM      3  C2  UNL d   1      -0.398  -1.649   0.021  0.00  0.00    -0.005 A 
ATOM      4  C3  UNL d   1       0.407  -2.302  -0.911  0.00  0.00     0.006 A 
ATOM      5  C4  UNL d   1       1.388  -1.597  -1.609  0.00  0.00    -0.005 A 
ATOM      6  C5  UNL d   1       1.570  -0.229  -1.381  0.00  0.00    -0.074 A 
ATOM      7  C6  UNL d   1       2.613   0.546  -2.130  0.00  0.00     0.077 C 
ATOM      8  C7  UNL d   1       0.752   0.422  -0.448  0.00  0.00    -0.001 A 
ENDROOT
TORSDOF 0
ENDMDL
