MODEL 1
REMARK minimizedAffinity -4.73170424
REMARK minimizedRMSD -1
REMARK  0 active torsions:
REMARK  status: ('A' for Active; 'I' for Inactive)
ROOT
ATOM      1  C   UNL d   1       3.719  -0.403  -0.908  0.00  0.00     0.077 C 
ATOM      2  C1  UNL d   1       2.237  -0.487  -0.689  0.00  0.00    -0.074 A 
ATOM      3  C2  UNL d   1       1.502   0.639  -0.305  0.00  0.00    -0.005 A 
ATOM      4  C3  UNL d   1       0.124   0.548  -0.114  0.00  0.00     0.006 A 
ATOM      5  C4  UNL d   1      -0.533  -0.669  -0.304  0.00  0.00    -0.005 A 
ATOM      6  C5  UNL d   1       0.185  -1.805  -0.689  0.00  0.00    -0.074 A 
ATOM      7  C6  UNL d   1      -0.506  -3.118  -0.908  0.00  0.00     0.077 C 
ATOM      8  C7  UNL d   1       1.569  -1.704  -0.886  0.00  0.00    -0.001 A 
ENDROOT
TORSDOF 0
ENDMDL
