MODEL 1
REMARK minimizedAffinity 3.00177908
REMARK minimizedRMSD -1
REMARK  0 active torsions:
REMARK  status: ('A' for Active; 'I' for Inactive)
ROOT
ATOM      1  C   UNL d   1      -1.716  -1.207  -0.028  0.00  0.00     0.124 A 
ATOM      2  C1  UNL d   1      -1.679  -0.102  -0.866  0.00  0.00     0.062 A 
ATOM      3  C2  UNL d   1      -0.565   0.733  -0.876  0.00  0.00     0.162 A 
ATOM      4  C3  UNL d   1       0.522   0.464  -0.044  0.00  0.00    -0.034 A 
ATOM      5  C4  UNL d   1       0.477  -0.649   0.797  0.00  0.00     0.162 A 
ATOM      6  C5  UNL d   1      -0.639  -1.480   0.802  0.00  0.00     0.062 A 
ATOM      7  F   UNL d   1      -0.673  -2.548   1.613  0.00  0.00    -0.097 F 
ATOM      8  F1  UNL d   1       1.505  -0.937   1.609  0.00  0.00    -0.096 F 
ATOM      9  I   UNL d   1       2.190   1.709  -0.055  0.00  0.00    -0.060 I 
ATOM     10  F2  UNL d   1      -0.557   1.794  -1.696  0.00  0.00    -0.096 F 
ATOM     11  F3  UNL d   1      -2.720   0.165  -1.669  0.00  0.00    -0.097 F 
ATOM     12  F4  UNL d   1      -2.790  -2.008  -0.021  0.00  0.00    -0.092 F 
ENDROOT
TORSDOF 0
ENDMDL
