MODEL 1
REMARK minimizedAffinity 1.14179945
REMARK minimizedRMSD -1
REMARK  0 active torsions:
REMARK  status: ('A' for Active; 'I' for Inactive)
ROOT
ATOM      1  C   UNL d   1      -1.399  -2.243   0.081  0.00  0.00     0.124 A 
ATOM      2  C1  UNL d   1      -1.430  -1.242  -0.880  0.00  0.00     0.062 A 
ATOM      3  C2  UNL d   1      -0.456  -0.248  -0.887  0.00  0.00     0.162 A 
ATOM      4  C3  UNL d   1       0.559  -0.251   0.070  0.00  0.00    -0.034 A 
ATOM      5  C4  UNL d   1       0.582  -1.260   1.034  0.00  0.00     0.162 A 
ATOM      6  C5  UNL d   1      -0.394  -2.251   1.037  0.00  0.00     0.062 A 
ATOM      7  F   UNL d   1      -0.362  -3.217   1.967  0.00  0.00    -0.097 F 
ATOM      8  F1  UNL d   1       1.544  -1.292   1.969  0.00  0.00    -0.096 F 
ATOM      9  I   UNL d   1       2.017   1.234   0.063  0.00  0.00    -0.060 I 
ATOM     10  F2  UNL d   1      -0.510   0.706  -1.827  0.00  0.00    -0.096 F 
ATOM     11  F3  UNL d   1      -2.402  -1.232  -1.804  0.00  0.00    -0.097 F 
ATOM     12  F4  UNL d   1      -2.339  -3.198   0.086  0.00  0.00    -0.092 F 
ENDROOT
TORSDOF 0
ENDMDL
