MODEL 1
REMARK minimizedAffinity 2.7800014
REMARK minimizedRMSD -1
REMARK  0 active torsions:
REMARK  status: ('A' for Active; 'I' for Inactive)
ROOT
ATOM      1  C   UNL d   1      -1.787  -1.362  -0.310  0.00  0.00     0.124 A 
ATOM      2  C1  UNL d   1      -0.878  -1.449   0.735  0.00  0.00     0.062 A 
ATOM      3  C2  UNL d   1       0.249  -0.632   0.752  0.00  0.00     0.162 A 
ATOM      4  C3  UNL d   1       0.473   0.280  -0.280  0.00  0.00    -0.034 A 
ATOM      5  C4  UNL d   1      -0.446   0.360  -1.328  0.00  0.00     0.162 A 
ATOM      6  C5  UNL d   1      -1.570  -0.458  -1.340  0.00  0.00     0.062 A 
ATOM      7  F   UNL d   1      -2.448  -0.373  -2.350  0.00  0.00    -0.097 F 
ATOM      8  F1  UNL d   1      -0.261   1.226  -2.336  0.00  0.00    -0.096 F 
ATOM      9  I   UNL d   1       2.156   1.503  -0.258  0.00  0.00    -0.060 I 
ATOM     10  F2  UNL d   1       1.111  -0.737   1.775  0.00  0.00    -0.096 F 
ATOM     11  F3  UNL d   1      -1.084  -2.322   1.732  0.00  0.00    -0.097 F 
ATOM     12  F4  UNL d   1      -2.870  -2.150  -0.324  0.00  0.00    -0.092 F 
ENDROOT
TORSDOF 0
ENDMDL
