MODEL 1
REMARK minimizedAffinity 1.18376005
REMARK minimizedRMSD -1
REMARK  0 active torsions:
REMARK  status: ('A' for Active; 'I' for Inactive)
ROOT
ATOM      1  C   UNL d   1      -1.024  -1.339   0.090  0.00  0.00     0.124 A 
ATOM      2  C1  UNL d   1      -0.673  -0.769  -1.126  0.00  0.00     0.062 A 
ATOM      3  C2  UNL d   1       0.336   0.187  -1.187  0.00  0.00     0.162 A 
ATOM      4  C3  UNL d   1       1.003   0.581  -0.027  0.00  0.00    -0.034 A 
ATOM      5  C4  UNL d   1       0.645   0.004   1.193  0.00  0.00     0.162 A 
ATOM      6  C5  UNL d   1      -0.365  -0.952   1.248  0.00  0.00     0.062 A 
ATOM      7  F   UNL d   1      -0.702  -1.501   2.424  0.00  0.00    -0.097 F 
ATOM      8  F1  UNL d   1       1.266   0.359   2.328  0.00  0.00    -0.096 F 
ATOM      9  I   UNL d   1       2.513   2.011  -0.112  0.00  0.00    -0.060 I 
ATOM     10  F2  UNL d   1       0.654   0.721  -2.376  0.00  0.00    -0.096 F 
ATOM     11  F3  UNL d   1      -1.309  -1.141  -2.247  0.00  0.00    -0.097 F 
ATOM     12  F4  UNL d   1      -1.996  -2.258   0.145  0.00  0.00    -0.092 F 
ENDROOT
TORSDOF 0
ENDMDL
