MODEL 1
REMARK minimizedAffinity 4.45199347
REMARK minimizedRMSD -1
REMARK  0 active torsions:
REMARK  status: ('A' for Active; 'I' for Inactive)
ROOT
ATOM      1  C   UNL d   1      -1.783  -1.191  -0.157  0.00  0.00     0.124 A 
ATOM      2  C1  UNL d   1      -0.675  -1.560   0.593  0.00  0.00     0.062 A 
ATOM      3  C2  UNL d   1       0.425  -0.711   0.680  0.00  0.00     0.162 A 
ATOM      4  C3  UNL d   1       0.422   0.516   0.017  0.00  0.00    -0.034 A 
ATOM      5  C4  UNL d   1      -0.696   0.879  -0.737  0.00  0.00     0.162 A 
ATOM      6  C5  UNL d   1      -1.792   0.028  -0.821  0.00  0.00     0.062 A 
ATOM      7  F   UNL d   1      -2.862   0.386  -1.546  0.00  0.00    -0.097 F 
ATOM      8  F1  UNL d   1      -0.732   2.052  -1.387  0.00  0.00    -0.096 F 
ATOM      9  I   UNL d   1       2.065   1.787   0.145  0.00  0.00    -0.060 I 
ATOM     10  F2  UNL d   1       1.482  -1.093   1.412  0.00  0.00    -0.096 F 
ATOM     11  F3  UNL d   1      -0.663  -2.737   1.234  0.00  0.00    -0.097 F 
ATOM     12  F4  UNL d   1      -2.840  -2.010  -0.240  0.00  0.00    -0.092 F 
ENDROOT
TORSDOF 0
ENDMDL
