MODEL 1
REMARK minimizedAffinity 0.507732332
REMARK minimizedRMSD -1
REMARK  0 active torsions:
REMARK  status: ('A' for Active; 'I' for Inactive)
ROOT
ATOM      1  C   UNL d   1       3.227   3.374   0.381  0.00  0.00     0.124 A 
ATOM      2  C1  UNL d   1       2.209   3.337   1.323  0.00  0.00     0.062 A 
ATOM      3  C2  UNL d   1       1.438   2.188   1.475  0.00  0.00     0.162 A 
ATOM      4  C3  UNL d   1       1.684   1.065   0.685  0.00  0.00    -0.034 A 
ATOM      5  C4  UNL d   1       2.710   1.110  -0.261  0.00  0.00     0.162 A 
ATOM      6  C5  UNL d   1       3.477   2.261  -0.410  0.00  0.00     0.062 A 
ATOM      7  F   UNL d   1       4.461   2.295  -1.320  0.00  0.00    -0.097 F 
ATOM      8  F1  UNL d   1       2.973   0.049  -1.037  0.00  0.00    -0.096 F 
ATOM      9  I   UNL d   1       0.534  -0.655   0.910  0.00  0.00    -0.060 I 
ATOM     10  F2  UNL d   1       0.460   2.180   2.393  0.00  0.00    -0.096 F 
ATOM     11  F3  UNL d   1       1.965   4.411   2.087  0.00  0.00    -0.097 F 
ATOM     12  F4  UNL d   1       3.967   4.481   0.235  0.00  0.00    -0.092 F 
ENDROOT
TORSDOF 0
ENDMDL
