MODEL 1
REMARK minimizedAffinity -1.3200736
REMARK minimizedRMSD -1
REMARK  0 active torsions:
REMARK  status: ('A' for Active; 'I' for Inactive)
ROOT
ATOM      1  C   UNL d   1      -0.813  -1.660   0.754  0.00  0.00     0.124 A 
ATOM      2  C1  UNL d   1       0.411  -1.050   0.519  0.00  0.00     0.062 A 
ATOM      3  C2  UNL d   1       0.628  -0.348  -0.663  0.00  0.00     0.162 A 
ATOM      4  C3  UNL d   1      -0.383  -0.251  -1.619  0.00  0.00    -0.034 A 
ATOM      5  C4  UNL d   1      -1.611  -0.868  -1.376  0.00  0.00     0.162 A 
ATOM      6  C5  UNL d   1      -1.823  -1.569  -0.193  0.00  0.00     0.062 A 
ATOM      7  F   UNL d   1      -3.007  -2.158   0.032  0.00  0.00    -0.097 F 
ATOM      8  F1  UNL d   1      -2.605  -0.794  -2.274  0.00  0.00    -0.096 F 
ATOM      9  I   UNL d   1      -0.063   0.798  -3.388  0.00  0.00    -0.060 I 
ATOM     10  F2  UNL d   1       1.821   0.231  -0.863  0.00  0.00    -0.096 F 
ATOM     11  F3  UNL d   1       1.389  -1.138   1.433  0.00  0.00    -0.097 F 
ATOM     12  F4  UNL d   1      -1.019  -2.336   1.892  0.00  0.00    -0.092 F 
ENDROOT
TORSDOF 0
ENDMDL
