MODEL 1
REMARK minimizedAffinity 0.96825546
REMARK minimizedRMSD -1
REMARK  0 active torsions:
REMARK  status: ('A' for Active; 'I' for Inactive)
ROOT
ATOM      1  C   UNL d   1      -1.314  -1.447  -0.251  0.00  0.00     0.124 A 
ATOM      2  C1  UNL d   1      -1.123  -0.464  -1.213  0.00  0.00     0.062 A 
ATOM      3  C2  UNL d   1       0.015   0.336  -1.179  0.00  0.00     0.162 A 
ATOM      4  C3  UNL d   1       0.973   0.156  -0.180  0.00  0.00    -0.034 A 
ATOM      5  C4  UNL d   1       0.773  -0.834   0.783  0.00  0.00     0.162 A 
ATOM      6  C5  UNL d   1      -0.366  -1.631   0.745  0.00  0.00     0.062 A 
ATOM      7  F   UNL d   1      -0.549  -2.580   1.675  0.00  0.00    -0.097 F 
ATOM      8  F1  UNL d   1       1.674  -1.034   1.757  0.00  0.00    -0.096 F 
ATOM      9  I   UNL d   1       2.676   1.350  -0.126  0.00  0.00    -0.060 I 
ATOM     10  F2  UNL d   1       0.174   1.278  -2.120  0.00  0.00    -0.096 F 
ATOM     11  F3  UNL d   1      -2.038  -0.283  -2.176  0.00  0.00    -0.097 F 
ATOM     12  F4  UNL d   1      -2.411  -2.215  -0.286  0.00  0.00    -0.092 F 
ENDROOT
TORSDOF 0
ENDMDL
