MODEL 1
REMARK minimizedAffinity 2.27728724
REMARK minimizedRMSD -1
REMARK  0 active torsions:
REMARK  status: ('A' for Active; 'I' for Inactive)
ROOT
ATOM      1  C   UNL d   1      -1.429  -1.285  -0.270  0.00  0.00     0.124 A 
ATOM      2  C1  UNL d   1      -1.325  -0.264  -1.204  0.00  0.00     0.062 A 
ATOM      3  C2  UNL d   1      -0.229   0.595  -1.183  0.00  0.00     0.162 A 
ATOM      4  C3  UNL d   1       0.772   0.436  -0.225  0.00  0.00    -0.034 A 
ATOM      5  C4  UNL d   1       0.659  -0.593   0.712  0.00  0.00     0.162 A 
ATOM      6  C5  UNL d   1      -0.438  -1.448   0.687  0.00  0.00     0.062 A 
ATOM      7  F   UNL d   1      -0.537  -2.434   1.591  0.00  0.00    -0.097 F 
ATOM      8  F1  UNL d   1       1.603  -0.774   1.648  0.00  0.00    -0.096 F 
ATOM      9  I   UNL d   1       2.411   1.717  -0.190  0.00  0.00    -0.060 I 
ATOM     10  F2  UNL d   1      -0.154   1.573  -2.098  0.00  0.00    -0.096 F 
ATOM     11  F3  UNL d   1      -2.282  -0.103  -2.129  0.00  0.00    -0.097 F 
ATOM     12  F4  UNL d   1      -2.485  -2.108  -0.291  0.00  0.00    -0.092 F 
ENDROOT
TORSDOF 0
ENDMDL
