MODEL 1
REMARK minimizedAffinity 5.44522381
REMARK minimizedRMSD -1
REMARK  0 active torsions:
REMARK  status: ('A' for Active; 'I' for Inactive)
ROOT
ATOM      1  C   UNL d   1      -2.011  -1.615  -1.643  0.00  0.00     0.124 A 
ATOM      2  C1  UNL d   1      -1.011  -0.663  -1.498  0.00  0.00     0.062 A 
ATOM      3  C2  UNL d   1      -0.149  -0.714  -0.407  0.00  0.00     0.162 A 
ATOM      4  C3  UNL d   1      -0.282  -1.721   0.549  0.00  0.00    -0.034 A 
ATOM      5  C4  UNL d   1      -1.290  -2.674   0.398  0.00  0.00     0.162 A 
ATOM      6  C5  UNL d   1      -2.149  -2.619  -0.695  0.00  0.00     0.062 A 
ATOM      7  F   UNL d   1      -3.115  -3.540  -0.833  0.00  0.00    -0.097 F 
ATOM      8  F1  UNL d   1      -1.446  -3.656   1.298  0.00  0.00    -0.096 F 
ATOM      9  I   UNL d   1       1.005  -1.800   2.183  0.00  0.00    -0.060 I 
ATOM     10  F2  UNL d   1       0.808   0.219  -0.293  0.00  0.00    -0.096 F 
ATOM     11  F3  UNL d   1      -0.875   0.308  -2.412  0.00  0.00    -0.097 F 
ATOM     12  F4  UNL d   1      -2.839  -1.564  -2.693  0.00  0.00    -0.092 F 
ENDROOT
TORSDOF 0
ENDMDL
