MODEL 1
REMARK minimizedAffinity 8.70929241
REMARK minimizedRMSD -1
REMARK  0 active torsions:
REMARK  status: ('A' for Active; 'I' for Inactive)
ROOT
ATOM      1  C   UNL d   1      -0.877   0.983  -0.344  0.00  0.00     0.124 A 
ATOM      2  C1  UNL d   1      -0.002   0.551  -1.331  0.00  0.00     0.062 A 
ATOM      3  C2  UNL d   1      -0.435  -0.343  -2.307  0.00  0.00     0.162 A 
ATOM      4  C3  UNL d   1      -1.749  -0.811  -2.300  0.00  0.00    -0.034 A 
ATOM      5  C4  UNL d   1      -2.622  -0.373  -1.302  0.00  0.00     0.162 A 
ATOM      6  C5  UNL d   1      -2.185   0.521  -0.330  0.00  0.00     0.062 A 
ATOM      7  F   UNL d   1      -3.031   0.937   0.624  0.00  0.00    -0.097 F 
ATOM      8  F1  UNL d   1      -3.892  -0.803  -1.266  0.00  0.00    -0.096 F 
ATOM      9  I   UNL d   1      -2.399  -2.148  -3.756  0.00  0.00    -0.060 I 
ATOM     10  F2  UNL d   1       0.431  -0.744  -3.249  0.00  0.00    -0.096 F 
ATOM     11  F3  UNL d   1       1.263   0.995  -1.346  0.00  0.00    -0.097 F 
ATOM     12  F4  UNL d   1      -0.458   1.842   0.594  0.00  0.00    -0.092 F 
ENDROOT
TORSDOF 0
ENDMDL
