MODEL 1
REMARK minimizedAffinity -4.50932837
REMARK minimizedRMSD -1
REMARK  0 active torsions:
REMARK  status: ('A' for Active; 'I' for Inactive)
ROOT
ATOM      1  C   UNL d   1      -1.873  -2.179  -0.138  0.00  0.00     0.124 A 
ATOM      2  C1  UNL d   1      -1.022  -2.388   0.939  0.00  0.00     0.062 A 
ATOM      3  C2  UNL d   1       0.097  -1.578   1.115  0.00  0.00     0.162 A 
ATOM      4  C3  UNL d   1       0.370  -0.551   0.212  0.00  0.00    -0.034 A 
ATOM      5  C4  UNL d   1      -0.489  -0.347  -0.868  0.00  0.00     0.162 A 
ATOM      6  C5  UNL d   1      -1.606  -1.159  -1.040  0.00  0.00     0.062 A 
ATOM      7  F   UNL d   1      -2.427  -0.955  -2.081  0.00  0.00    -0.097 F 
ATOM      8  F1  UNL d   1      -0.256   0.633  -1.755  0.00  0.00    -0.096 F 
ATOM      9  I   UNL d   1       2.041   0.662   0.472  0.00  0.00    -0.060 I 
ATOM     10  F2  UNL d   1       0.901  -1.804   2.164  0.00  0.00    -0.096 F 
ATOM     11  F3  UNL d   1      -1.277  -3.374   1.811  0.00  0.00    -0.097 F 
ATOM     12  F4  UNL d   1      -2.947  -2.960  -0.306  0.00  0.00    -0.092 F 
ENDROOT
TORSDOF 0
ENDMDL
