MODEL 1
REMARK minimizedAffinity -0.612386227
REMARK minimizedRMSD -1
REMARK  0 active torsions:
REMARK  status: ('A' for Active; 'I' for Inactive)
ROOT
ATOM      1  C   UNL d   1      -1.848  -1.505  -0.540  0.00  0.00     0.124 A 
ATOM      2  C1  UNL d   1      -0.862  -1.791   0.394  0.00  0.00     0.062 A 
ATOM      3  C2  UNL d   1       0.200  -0.912   0.581  0.00  0.00     0.162 A 
ATOM      4  C3  UNL d   1       0.282   0.263  -0.167  0.00  0.00    -0.034 A 
ATOM      5  C4  UNL d   1      -0.713   0.543  -1.105  0.00  0.00     0.162 A 
ATOM      6  C5  UNL d   1      -1.773  -0.339  -1.289  0.00  0.00     0.062 A 
ATOM      7  F   UNL d   1      -2.725  -0.061  -2.191  0.00  0.00    -0.097 F 
ATOM      8  F1  UNL d   1      -0.666   1.664  -1.841  0.00  0.00    -0.096 F 
ATOM      9  I   UNL d   1       1.869   1.581   0.111  0.00  0.00    -0.060 I 
ATOM     10  F2  UNL d   1       1.139  -1.213   1.490  0.00  0.00    -0.096 F 
ATOM     11  F3  UNL d   1      -0.932  -2.918   1.117  0.00  0.00    -0.097 F 
ATOM     12  F4  UNL d   1      -2.869  -2.354  -0.719  0.00  0.00    -0.092 F 
ENDROOT
TORSDOF 0
ENDMDL
