MODEL 1
REMARK minimizedAffinity 8.38851452
REMARK minimizedRMSD -1
REMARK  0 active torsions:
REMARK  status: ('A' for Active; 'I' for Inactive)
ROOT
ATOM      1  C   UNL d   1      -1.430  -1.139  -0.305  0.00  0.00     0.124 A 
ATOM      2  C1  UNL d   1      -0.440  -1.260   0.660  0.00  0.00     0.062 A 
ATOM      3  C2  UNL d   1       0.653  -0.398   0.654  0.00  0.00     0.162 A 
ATOM      4  C3  UNL d   1       0.761   0.595  -0.320  0.00  0.00    -0.034 A 
ATOM      5  C4  UNL d   1      -0.238   0.710  -1.288  0.00  0.00     0.162 A 
ATOM      6  C5  UNL d   1      -1.328  -0.155  -1.278  0.00  0.00     0.062 A 
ATOM      7  F   UNL d   1      -2.284  -0.036  -2.212  0.00  0.00    -0.097 F 
ATOM      8  F1  UNL d   1      -0.166   1.653  -2.239  0.00  0.00    -0.096 F 
ATOM      9  I   UNL d   1       2.393   1.886  -0.332  0.00  0.00    -0.060 I 
ATOM     10  F2  UNL d   1       1.594  -0.538   1.599  0.00  0.00    -0.096 F 
ATOM     11  F3  UNL d   1      -0.535  -2.211   1.600  0.00  0.00    -0.097 F 
ATOM     12  F4  UNL d   1      -2.479  -1.971  -0.298  0.00  0.00    -0.092 F 
ENDROOT
TORSDOF 0
ENDMDL
