MODEL 1
REMARK minimizedAffinity 3.2716763
REMARK minimizedRMSD -1
REMARK  0 active torsions:
REMARK  status: ('A' for Active; 'I' for Inactive)
ROOT
ATOM      1  C   UNL d   1       2.685   1.554   1.221  0.00  0.00     0.124 A 
ATOM      2  C1  UNL d   1       2.591   1.224  -0.124  0.00  0.00     0.062 A 
ATOM      3  C2  UNL d   1       1.471   0.550  -0.602  0.00  0.00     0.162 A 
ATOM      4  C3  UNL d   1       0.435   0.202   0.265  0.00  0.00    -0.034 A 
ATOM      5  C4  UNL d   1       0.537   0.537   1.616  0.00  0.00     0.162 A 
ATOM      6  C5  UNL d   1       1.658   1.210   2.090  0.00  0.00     0.062 A 
ATOM      7  F   UNL d   1       1.748   1.528   3.389  0.00  0.00    -0.097 F 
ATOM      8  F1  UNL d   1      -0.441   0.217   2.477  0.00  0.00    -0.096 F 
ATOM      9  I   UNL d   1      -1.242  -0.805  -0.447  0.00  0.00    -0.060 I 
ATOM     10  F2  UNL d   1       1.406   0.244  -1.907  0.00  0.00    -0.096 F 
ATOM     11  F3  UNL d   1       3.581   1.554  -0.964  0.00  0.00    -0.097 F 
ATOM     12  F4  UNL d   1       3.764   2.201   1.680  0.00  0.00    -0.092 F 
ENDROOT
TORSDOF 0
ENDMDL
