MODEL 1
REMARK minimizedAffinity -4.0568676
REMARK minimizedRMSD -1
REMARK  0 active torsions:
REMARK  status: ('A' for Active; 'I' for Inactive)
ROOT
ATOM      1  C   UNL d   1      -1.292   0.623   0.219  0.00  0.00     0.172 C 
ATOM      2  N   UNL d   1      -0.498   0.554   1.423  0.00  0.00    -0.070 N 
ATOM      3  C1  UNL d   1      -0.962   0.742   2.698  0.00  0.00    -0.004 A 
ATOM      4  C2  UNL d   1       0.102   0.592   3.561  0.00  0.00    -0.047 A 
ATOM      5  C3  UNL d   1       1.245   0.306   2.778  0.00  0.00    -0.047 A 
ATOM      6  C4  UNL d   1       0.846   0.288   1.458  0.00  0.00    -0.004 A 
ENDROOT
TORSDOF 0
ENDMDL
