MODEL 1
REMARK minimizedAffinity -2.61826277
REMARK minimizedRMSD -1
REMARK  0 active torsions:
REMARK  status: ('A' for Active; 'I' for Inactive)
ROOT
ATOM      1  C   UNL d   1       0.661  -0.723  -0.903  0.00  0.00     0.172 C 
ATOM      2  N   UNL d   1       0.083   0.004   0.202  0.00  0.00    -0.070 N 
ATOM      3  C1  UNL d   1       0.781   0.711   1.145  0.00  0.00    -0.004 A 
ATOM      4  C2  UNL d   1      -0.130   1.258   2.023  0.00  0.00    -0.047 A 
ATOM      5  C3  UNL d   1      -1.420   0.865   1.593  0.00  0.00    -0.047 A 
ATOM      6  C4  UNL d   1      -1.259   0.090   0.464  0.00  0.00    -0.004 A 
ENDROOT
TORSDOF 0
ENDMDL
