MODEL 1
REMARK minimizedAffinity -0.342892528
REMARK minimizedRMSD -1
REMARK  0 active torsions:
REMARK  status: ('A' for Active; 'I' for Inactive)
ROOT
ATOM      1  C   UNL d   1      -1.795   0.170   2.562  0.00  0.00     0.172 C 
ATOM      2  N   UNL d   1      -1.118   0.081   1.290  0.00  0.00    -0.070 N 
ATOM      3  C1  UNL d   1       0.211  -0.195   1.111  0.00  0.00    -0.004 A 
ATOM      4  C2  UNL d   1       0.464  -0.190  -0.244  0.00  0.00    -0.047 A 
ATOM      5  C3  UNL d   1      -0.755   0.100  -0.902  0.00  0.00    -0.047 A 
ATOM      6  C4  UNL d   1      -1.718   0.263   0.072  0.00  0.00    -0.004 A 
ENDROOT
TORSDOF 0
ENDMDL
