MODEL 1
REMARK minimizedAffinity -2.63469768
REMARK minimizedRMSD -1
REMARK  0 active torsions:
REMARK  status: ('A' for Active; 'I' for Inactive)
ROOT
ATOM      1  C   UNL d   1       0.591  -1.120  -1.398  0.00  0.00     0.172 C 
ATOM      2  N   UNL d   1      -0.045  -0.403  -0.318  0.00  0.00    -0.070 N 
ATOM      3  C1  UNL d   1      -1.378  -0.444  -0.008  0.00  0.00    -0.004 A 
ATOM      4  C2  UNL d   1      -1.583   0.373   1.083  0.00  0.00    -0.047 A 
ATOM      5  C3  UNL d   1      -0.330   0.924   1.440  0.00  0.00    -0.047 A 
ATOM      6  C4  UNL d   1       0.605   0.427   0.557  0.00  0.00    -0.004 A 
ENDROOT
TORSDOF 0
ENDMDL
