MODEL 1
REMARK minimizedAffinity 0.0536706038
REMARK minimizedRMSD -1
REMARK  3 active torsions:
REMARK  status: ('A' for Active; 'I' for Inactive)
REMARK    1  A    between atoms: C3'_2  and  C2'_3 
REMARK    2  A    between atoms: C2'_3  and  C1'_4 
REMARK    3  A    between atoms: C1'_4  and  C1_5 
ROOT
ATOM      1  C1  N4B d   1      -0.374   2.841  -0.527  0.00  0.00    -0.075 A 
ATOM      2  C2  N4B d   1      -0.726   1.731   0.273  0.00  0.00     0.002 A 
ATOM      3  C3  N4B d   1      -0.749   1.851   1.641  0.00  0.00     0.002 A 
ATOM      4  C4  N4B d   1      -0.408   3.060   2.230  0.00  0.00    -0.004 A 
ATOM      5  C5  N4B d   1      -0.094   4.134   1.449  0.00  0.00     0.002 A 
ATOM      6  C6  N4B d   1      -0.071   4.029   0.073  0.00  0.00     0.002 A 
ENDROOT
BRANCH   1   7
ATOM      7  C1' N4B d   1      -0.251   2.734  -2.022  0.00  0.00     0.057 C 
BRANCH   7   8
ATOM      8  C2' N4B d   1      -1.641   2.561  -2.628  0.00  0.00     0.009 C 
BRANCH   8   9
ATOM      9  C3' N4B d   1      -2.224   1.190  -2.329  0.00  0.00     0.004 C 
ATOM     10  C4' N4B d   1      -3.614   1.021  -2.865  0.00  0.00     0.003 C 
ENDBRANCH   8   9
ENDBRANCH   7   8
ENDBRANCH   1   7
TORSDOF 3
ENDMDL
