MODEL 1
REMARK minimizedAffinity 2.0381403
REMARK minimizedRMSD -1
REMARK  3 active torsions:
REMARK  status: ('A' for Active; 'I' for Inactive)
REMARK    1  A    between atoms: C3'_2  and  C2'_3 
REMARK    2  A    between atoms: C2'_3  and  C1'_4 
REMARK    3  A    between atoms: C1'_4  and  C1_5 
ROOT
ATOM      1  C1  N4B d   1      -0.128   3.094   0.249  0.00  0.00    -0.075 A 
ATOM      2  C2  N4B d   1       0.401   3.737   1.390  0.00  0.00     0.002 A 
ATOM      3  C3  N4B d   1       0.220   3.186   2.635  0.00  0.00     0.002 A 
ATOM      4  C4  N4B d   1      -0.499   2.007   2.765  0.00  0.00    -0.004 A 
ATOM      5  C5  N4B d   1      -0.984   1.379   1.656  0.00  0.00     0.002 A 
ATOM      6  C6  N4B d   1      -0.807   1.919   0.398  0.00  0.00     0.002 A 
ENDROOT
BRANCH   1   7
ATOM      7  C1' N4B d   1      -0.029   3.702  -1.123  0.00  0.00     0.057 C 
BRANCH   7   8
ATOM      8  C2' N4B d   1      -0.392   2.649  -2.165  0.00  0.00     0.009 C 
BRANCH   8   9
ATOM      9  C3' N4B d   1      -1.561   3.085  -3.031  0.00  0.00     0.004 C 
ATOM     10  C4' N4B d   1      -2.682   2.089  -3.038  0.00  0.00     0.003 C 
ENDBRANCH   8   9
ENDBRANCH   7   8
ENDBRANCH   1   7
TORSDOF 3
ENDMDL
