MODEL 1
REMARK minimizedAffinity 3.80844593
REMARK minimizedRMSD -1
REMARK  3 active torsions:
REMARK  status: ('A' for Active; 'I' for Inactive)
REMARK    1  A    between atoms: C3'_2  and  C2'_3 
REMARK    2  A    between atoms: C2'_3  and  C1'_4 
REMARK    3  A    between atoms: C1'_4  and  C1_5 
ROOT
ATOM      1  C1  N4B d   1      -1.314   0.506   2.905  0.00  0.00    -0.075 A 
ATOM      2  C2  N4B d   1      -2.449  -0.164   3.414  0.00  0.00     0.002 A 
ATOM      3  C3  N4B d   1      -2.310  -1.392   4.012  0.00  0.00     0.002 A 
ATOM      4  C4  N4B d   1      -1.055  -1.976   4.096  0.00  0.00    -0.004 A 
ATOM      5  C5  N4B d   1       0.039  -1.312   3.625  0.00  0.00     0.002 A 
ATOM      6  C6  N4B d   1      -0.085  -0.075   3.025  0.00  0.00     0.002 A 
ENDROOT
BRANCH   1   7
ATOM      7  C1' N4B d   1      -1.428   1.811   2.166  0.00  0.00     0.057 C 
BRANCH   7   8
ATOM      8  C2' N4B d   1      -0.204   1.989   1.273  0.00  0.00     0.009 C 
BRANCH   8   9
ATOM      9  C3' N4B d   1      -0.109   3.398   0.712  0.00  0.00     0.004 C 
ATOM     10  C4' N4B d   1       0.146   3.418  -0.766  0.00  0.00     0.003 C 
ENDBRANCH   8   9
ENDBRANCH   7   8
ENDBRANCH   1   7
TORSDOF 3
ENDMDL
