MODEL 1
REMARK minimizedAffinity 9.11859322
REMARK minimizedRMSD -1
REMARK  3 active torsions:
REMARK  status: ('A' for Active; 'I' for Inactive)
REMARK    1  A    between atoms: C3'_2  and  C2'_3 
REMARK    2  A    between atoms: C2'_3  and  C1'_4 
REMARK    3  A    between atoms: C1'_4  and  C1_5 
ROOT
ATOM      1  C1  N4B d   1      -0.918   4.798  -0.184  0.00  0.00    -0.075 A 
ATOM      2  C2  N4B d   1      -1.419   4.532  -1.477  0.00  0.00     0.002 A 
ATOM      3  C3  N4B d   1      -0.822   3.576  -2.262  0.00  0.00     0.002 A 
ATOM      4  C4  N4B d   1       0.284   2.890  -1.784  0.00  0.00    -0.004 A 
ATOM      5  C5  N4B d   1       0.747   3.135  -0.524  0.00  0.00     0.002 A 
ATOM      6  C6  N4B d   1       0.154   4.090   0.277  0.00  0.00     0.002 A 
ENDROOT
BRANCH   1   7
ATOM      7  C1' N4B d   1      -1.484   5.893   0.678  0.00  0.00     0.057 C 
BRANCH   7   8
ATOM      8  C2' N4B d   1      -2.991   5.979   0.452  0.00  0.00     0.009 C 
BRANCH   8   9
ATOM      9  C3' N4B d   1      -3.761   5.998   1.762  0.00  0.00     0.004 C 
ATOM     10  C4' N4B d   1      -5.247   5.999   1.561  0.00  0.00     0.003 C 
ENDBRANCH   8   9
ENDBRANCH   7   8
ENDBRANCH   1   7
TORSDOF 3
ENDMDL
