MODEL 1
REMARK minimizedAffinity 7.05895853
REMARK minimizedRMSD -1
REMARK  3 active torsions:
REMARK  status: ('A' for Active; 'I' for Inactive)
REMARK    1  A    between atoms: C3'_2  and  C2'_3 
REMARK    2  A    between atoms: C2'_3  and  C1'_4 
REMARK    3  A    between atoms: C1'_4  and  C1_5 
ROOT
ATOM      1  C1  N4B d   1      -2.507  -2.390   4.856  0.00  0.00    -0.075 A 
ATOM      2  C2  N4B d   1      -2.521  -1.114   4.252  0.00  0.00     0.002 A 
ATOM      3  C3  N4B d   1      -1.467  -0.714   3.467  0.00  0.00     0.002 A 
ATOM      4  C4  N4B d   1      -0.385  -1.563   3.287  0.00  0.00    -0.004 A 
ATOM      5  C5  N4B d   1      -0.391  -2.804   3.853  0.00  0.00     0.002 A 
ATOM      6  C6  N4B d   1      -1.445  -3.221   4.642  0.00  0.00     0.002 A 
ENDROOT
BRANCH   1   7
ATOM      7  C1' N4B d   1      -3.596  -2.837   5.793  0.00  0.00     0.057 C 
BRANCH   7   8
ATOM      8  C2' N4B d   1      -4.284  -4.068   5.209  0.00  0.00     0.009 C 
BRANCH   8   9
ATOM      9  C3' N4B d   1      -5.523  -4.454   5.999  0.00  0.00     0.004 C 
ATOM     10  C4' N4B d   1      -5.827  -5.920   5.921  0.00  0.00     0.003 C 
ENDBRANCH   8   9
ENDBRANCH   7   8
ENDBRANCH   1   7
TORSDOF 3
ENDMDL
