MODEL 1
REMARK minimizedAffinity 7.97829151
REMARK minimizedRMSD -1
REMARK  3 active torsions:
REMARK  status: ('A' for Active; 'I' for Inactive)
REMARK    1  A    between atoms: C3'_2  and  C2'_3 
REMARK    2  A    between atoms: C2'_3  and  C1'_4 
REMARK    3  A    between atoms: C1'_4  and  C1_5 
ROOT
ATOM      1  C1  N4B d   1      -0.834   4.913  -0.503  0.00  0.00    -0.075 A 
ATOM      2  C2  N4B d   1       0.102   3.975  -0.016  0.00  0.00     0.002 A 
ATOM      3  C3  N4B d   1       0.592   2.998  -0.847  0.00  0.00     0.002 A 
ATOM      4  C4  N4B d   1       0.147   2.928  -2.159  0.00  0.00    -0.004 A 
ATOM      5  C5  N4B d   1      -0.738   3.853  -2.629  0.00  0.00     0.002 A 
ATOM      6  C6  N4B d   1      -1.235   4.843  -1.806  0.00  0.00     0.002 A 
ENDROOT
BRANCH   1   7
ATOM      7  C1' N4B d   1      -1.462   5.947   0.391  0.00  0.00     0.057 C 
BRANCH   7   8
ATOM      8  C2' N4B d   1      -2.963   5.997   0.121  0.00  0.00     0.009 C 
BRANCH   8   9
ATOM      9  C3' N4B d   1      -3.772   6.000   1.407  0.00  0.00     0.004 C 
ATOM     10  C4' N4B d   1      -5.235   5.765   1.174  0.00  0.00     0.003 C 
ENDBRANCH   8   9
ENDBRANCH   7   8
ENDBRANCH   1   7
TORSDOF 3
ENDMDL
