MODEL 1
REMARK minimizedAffinity 2.65977049
REMARK minimizedRMSD -1
REMARK  3 active torsions:
REMARK  status: ('A' for Active; 'I' for Inactive)
REMARK    1  A    between atoms: C3'_2  and  C2'_3 
REMARK    2  A    between atoms: C2'_3  and  C1'_4 
REMARK    3  A    between atoms: C1'_4  and  C1_5 
ROOT
ATOM      1  C1  N4B d   1      -0.433   2.257  -0.019  0.00  0.00    -0.075 A 
ATOM      2  C2  N4B d   1       0.217   3.388   0.521  0.00  0.00     0.002 A 
ATOM      3  C3  N4B d   1       0.564   4.436  -0.296  0.00  0.00     0.002 A 
ATOM      4  C4  N4B d   1       0.288   4.368  -1.653  0.00  0.00    -0.004 A 
ATOM      5  C5  N4B d   1      -0.364   3.283  -2.163  0.00  0.00     0.002 A 
ATOM      6  C6  N4B d   1      -0.721   2.224  -1.353  0.00  0.00     0.002 A 
ENDROOT
BRANCH   1   7
ATOM      7  C1' N4B d   1      -0.754   1.049   0.819  0.00  0.00     0.057 C 
BRANCH   7   8
ATOM      8  C2' N4B d   1      -0.956   1.485   2.268  0.00  0.00     0.009 C 
BRANCH   8   9
ATOM      9  C3' N4B d   1      -2.353   1.164   2.768  0.00  0.00     0.004 C 
ATOM     10  C4' N4B d   1      -2.381  -0.011   3.699  0.00  0.00     0.003 C 
ENDBRANCH   8   9
ENDBRANCH   7   8
ENDBRANCH   1   7
TORSDOF 3
ENDMDL
