MODEL 1
REMARK minimizedAffinity 15.4536552
REMARK minimizedRMSD -1
REMARK  3 active torsions:
REMARK  status: ('A' for Active; 'I' for Inactive)
REMARK    1  A    between atoms: C3'_2  and  C2'_3 
REMARK    2  A    between atoms: C2'_3  and  C1'_4 
REMARK    3  A    between atoms: C1'_4  and  C1_5 
ROOT
ATOM      1  C1  N4B d   1       0.155   2.992  -0.530  0.00  0.00    -0.075 A 
ATOM      2  C2  N4B d   1       0.509   3.978   0.416  0.00  0.00     0.002 A 
ATOM      3  C3  N4B d   1       0.964   5.203  -0.006  0.00  0.00     0.002 A 
ATOM      4  C4  N4B d   1       1.091   5.457  -1.364  0.00  0.00    -0.004 A 
ATOM      5  C5  N4B d   1       0.723   4.507  -2.272  0.00  0.00     0.002 A 
ATOM      6  C6  N4B d   1       0.261   3.273  -1.862  0.00  0.00     0.002 A 
ENDROOT
BRANCH   1   7
ATOM      7  C1' N4B d   1      -0.266   1.608  -0.116  0.00  0.00     0.057 C 
BRANCH   7   8
ATOM      8  C2' N4B d   1      -0.434   1.569   1.400  0.00  0.00     0.009 C 
BRANCH   8   9
ATOM      9  C3' N4B d   1       0.465   0.527   2.045  0.00  0.00     0.004 C 
ATOM     10  C4' N4B d   1       0.724   0.802   3.496  0.00  0.00     0.003 C 
ENDBRANCH   8   9
ENDBRANCH   7   8
ENDBRANCH   1   7
TORSDOF 3
ENDMDL
