MODEL 1
REMARK minimizedAffinity 0.201882839
REMARK minimizedRMSD -1
REMARK  3 active torsions:
REMARK  status: ('A' for Active; 'I' for Inactive)
REMARK    1  A    between atoms: C3'_2  and  C2'_3 
REMARK    2  A    between atoms: C2'_3  and  C1'_4 
REMARK    3  A    between atoms: C1'_4  and  C1_5 
ROOT
ATOM      1  C1  N4B d   1      -3.229  -3.323   5.895  0.00  0.00    -0.075 A 
ATOM      2  C2  N4B d   1      -4.109  -4.423   5.998  0.00  0.00     0.002 A 
ATOM      3  C3  N4B d   1      -5.467  -4.219   5.979  0.00  0.00     0.002 A 
ATOM      4  C4  N4B d   1      -5.966  -2.929   5.877  0.00  0.00    -0.004 A 
ATOM      5  C5  N4B d   1      -5.109  -1.875   5.752  0.00  0.00     0.002 A 
ATOM      6  C6  N4B d   1      -3.742  -2.065   5.766  0.00  0.00     0.002 A 
ENDROOT
BRANCH   1   7
ATOM      7  C1' N4B d   1      -1.737  -3.488   5.997  0.00  0.00     0.057 C 
BRANCH   7   8
ATOM      8  C2' N4B d   1      -1.170  -3.789   4.613  0.00  0.00     0.009 C 
BRANCH   8   9
ATOM      9  C3' N4B d   1      -0.896  -5.270   4.421  0.00  0.00     0.004 C 
ATOM     10  C4' N4B d   1      -0.601  -5.978   5.710  0.00  0.00     0.003 C 
ENDBRANCH   8   9
ENDBRANCH   7   8
ENDBRANCH   1   7
TORSDOF 3
ENDMDL
