MODEL 1
REMARK minimizedAffinity 11.414299
REMARK minimizedRMSD -1
REMARK  1 active torsions:
REMARK  status: ('A' for Active; 'I' for Inactive)
REMARK    1  A    between atoms: N_2  and  C1_3 
ROOT
ATOM      1  C1  UNL d   1      -3.606  -0.964   4.190  0.00  0.00     0.143 A 
ATOM      2  C2  UNL d   1      -3.794   0.065   3.262  0.00  0.00    -0.057 A 
ATOM      3  C3  UNL d   1      -3.715   1.410   3.643  0.00  0.00     0.033 A 
ATOM      4  C4  UNL d   1      -3.474   1.750   4.970  0.00  0.00    -0.042 A 
ATOM      5  C5  UNL d   1      -3.309   0.744   5.915  0.00  0.00     0.033 A 
ATOM      6  C6  UNL d   1      -3.382  -0.597   5.527  0.00  0.00    -0.057 A 
ENDROOT
BRANCH   1   7
ATOM      7  N   UNL d   1      -3.769  -2.320   3.893  0.00  0.00    -0.732 N 
ATOM      8  C   UNL d   1      -3.497  -3.331   4.892  0.00  0.00     0.284 C 
ATOM      9  H3  UNL d   1      -4.603  -2.497   3.338  0.00  0.00     0.395 HD
ENDBRANCH   1   7
TORSDOF 1
ENDMDL
