MODEL 1
REMARK minimizedAffinity 8.90948486
REMARK minimizedRMSD -1
REMARK  1 active torsions:
REMARK  status: ('A' for Active; 'I' for Inactive)
REMARK    1  A    between atoms: N_2  and  C1_3 
ROOT
ATOM      1  C1  UNL d   1      -3.852   0.989   3.876  0.00  0.00     0.143 A 
ATOM      2  C2  UNL d   1      -4.780   2.024   3.720  0.00  0.00    -0.057 A 
ATOM      3  C3  UNL d   1      -4.889   3.051   4.665  0.00  0.00     0.033 A 
ATOM      4  C4  UNL d   1      -4.088   3.046   5.803  0.00  0.00    -0.042 A 
ATOM      5  C5  UNL d   1      -3.176   2.014   5.992  0.00  0.00     0.033 A 
ATOM      6  C6  UNL d   1      -3.067   0.994   5.041  0.00  0.00    -0.057 A 
ENDROOT
BRANCH   1   7
ATOM      7  N   UNL d   1      -3.764  -0.112   3.022  0.00  0.00    -0.732 N 
ATOM      8  C   UNL d   1      -3.803  -1.459   3.550  0.00  0.00     0.284 C 
ATOM      9  H3  UNL d   1      -4.300   0.015   2.167  0.00  0.00     0.395 HD
ENDBRANCH   1   7
TORSDOF 1
ENDMDL
