MODEL 1
REMARK minimizedAffinity 8.78895092
REMARK minimizedRMSD -1
REMARK  1 active torsions:
REMARK  status: ('A' for Active; 'I' for Inactive)
REMARK    1  A    between atoms: N_2  and  C1_3 
ROOT
ATOM      1  C1  UNL d   1      -4.470  -1.260   2.876  0.00  0.00     0.143 A 
ATOM      2  C2  UNL d   1      -4.246  -2.088   3.981  0.00  0.00    -0.057 A 
ATOM      3  C3  UNL d   1      -3.742  -1.575   5.182  0.00  0.00     0.033 A 
ATOM      4  C4  UNL d   1      -3.424  -0.225   5.290  0.00  0.00    -0.042 A 
ATOM      5  C5  UNL d   1      -3.616   0.612   4.196  0.00  0.00     0.033 A 
ATOM      6  C6  UNL d   1      -4.126   0.095   3.002  0.00  0.00    -0.057 A 
ENDROOT
BRANCH   1   7
ATOM      7  N   UNL d   1      -4.877  -1.727   1.624  0.00  0.00    -0.732 N 
ATOM      8  C   UNL d   1      -5.999  -2.633   1.503  0.00  0.00     0.284 C 
ATOM      9  H3  UNL d   1      -4.850  -1.001   0.911  0.00  0.00     0.395 HD
ENDBRANCH   1   7
TORSDOF 1
ENDMDL
