MODEL 1
REMARK minimizedAffinity 12.8289948
REMARK minimizedRMSD -1
REMARK  1 active torsions:
REMARK  status: ('A' for Active; 'I' for Inactive)
REMARK    1  A    between atoms: N_2  and  C1_3 
ROOT
ATOM      1  C1  UNL d   1       1.212  -2.282  -2.165  0.00  0.00     0.143 A 
ATOM      2  C2  UNL d   1       1.840  -2.712  -0.991  0.00  0.00    -0.057 A 
ATOM      3  C3  UNL d   1       2.619  -1.839  -0.222  0.00  0.00     0.033 A 
ATOM      4  C4  UNL d   1       2.808  -0.523  -0.631  0.00  0.00    -0.042 A 
ATOM      5  C5  UNL d   1       2.215  -0.080  -1.808  0.00  0.00     0.033 A 
ATOM      6  C6  UNL d   1       1.432  -0.955  -2.568  0.00  0.00    -0.057 A 
ENDROOT
BRANCH   1   7
ATOM      7  N   UNL d   1       0.506  -3.127  -3.024  0.00  0.00    -0.732 N 
ATOM      8  C   UNL d   1      -0.865  -2.835  -3.384  0.00  0.00     0.284 C 
ATOM      9  H3  UNL d   1       1.077  -3.460  -3.798  0.00  0.00     0.395 HD
ENDBRANCH   1   7
TORSDOF 1
ENDMDL
