MODEL 1
REMARK minimizedAffinity 4.40033674
REMARK minimizedRMSD -1
REMARK  1 active torsions:
REMARK  status: ('A' for Active; 'I' for Inactive)
REMARK    1  A    between atoms: N_2  and  C1_3 
ROOT
ATOM      1  C1  UNL d   1       2.370  -1.645  -1.608  0.00  0.00     0.143 A 
ATOM      2  C2  UNL d   1       2.478  -2.531  -0.531  0.00  0.00    -0.057 A 
ATOM      3  C3  UNL d   1       2.076  -3.867  -0.647  0.00  0.00     0.033 A 
ATOM      4  C4  UNL d   1       1.531  -4.335  -1.838  0.00  0.00    -0.042 A 
ATOM      5  C5  UNL d   1       1.391  -3.466  -2.914  0.00  0.00     0.033 A 
ATOM      6  C6  UNL d   1       1.800  -2.134  -2.794  0.00  0.00    -0.057 A 
ENDROOT
BRANCH   1   7
ATOM      7  N   UNL d   1       2.660  -0.281  -1.525  0.00  0.00    -0.732 N 
ATOM      8  C   UNL d   1       3.258   0.275  -0.330  0.00  0.00     0.284 C 
ATOM      9  H3  UNL d   1       3.044   0.088  -2.392  0.00  0.00     0.395 HD
ENDBRANCH   1   7
TORSDOF 1
ENDMDL
