MODEL 1
REMARK minimizedAffinity 16.0203934
REMARK minimizedRMSD -1
REMARK  1 active torsions:
REMARK  status: ('A' for Active; 'I' for Inactive)
REMARK    1  A    between atoms: N_2  and  C1_3 
ROOT
ATOM      1  C1  UNL d   1      -3.632   0.191   3.612  0.00  0.00     0.143 A 
ATOM      2  C2  UNL d   1      -4.104  -0.959   2.969  0.00  0.00    -0.057 A 
ATOM      3  C3  UNL d   1      -4.353  -2.138   3.682  0.00  0.00     0.033 A 
ATOM      4  C4  UNL d   1      -4.105  -2.198   5.049  0.00  0.00    -0.042 A 
ATOM      5  C5  UNL d   1      -3.612  -1.075   5.704  0.00  0.00     0.033 A 
ATOM      6  C6  UNL d   1      -3.372   0.102   4.989  0.00  0.00    -0.057 A 
ENDROOT
BRANCH   1   7
ATOM      7  N   UNL d   1      -3.272   1.363   2.943  0.00  0.00    -0.732 N 
ATOM      8  C   UNL d   1      -1.888   1.627   2.610  0.00  0.00     0.284 C 
ATOM      9  H3  UNL d   1      -3.931   1.609   2.208  0.00  0.00     0.395 HD
ENDBRANCH   1   7
TORSDOF 1
ENDMDL
