MODEL 1
REMARK minimizedAffinity 12.0355921
REMARK minimizedRMSD -1
REMARK  1 active torsions:
REMARK  status: ('A' for Active; 'I' for Inactive)
REMARK    1  A    between atoms: N_2  and  C1_3 
ROOT
ATOM      1  C1  UNL d   1      -2.531   3.628  -4.854  0.00  0.00     0.143 A 
ATOM      2  C2  UNL d   1      -3.810   3.658  -5.421  0.00  0.00    -0.057 A 
ATOM      3  C3  UNL d   1      -4.322   4.828  -5.997  0.00  0.00     0.033 A 
ATOM      4  C4  UNL d   1      -3.573   5.999  -5.989  0.00  0.00    -0.042 A 
ATOM      5  C5  UNL d   1      -2.309   5.999  -5.409  0.00  0.00     0.033 A 
ATOM      6  C6  UNL d   1      -1.801   4.827  -4.842  0.00  0.00    -0.057 A 
ENDROOT
BRANCH   1   7
ATOM      7  N   UNL d   1      -2.005   2.524  -4.179  0.00  0.00    -0.732 N 
ATOM      8  C   UNL d   1      -0.807   1.870  -4.658  0.00  0.00     0.284 C 
ATOM      9  H3  UNL d   1      -2.044   2.632  -3.168  0.00  0.00     0.395 HD
ENDBRANCH   1   7
TORSDOF 1
ENDMDL
