MODEL 1
REMARK minimizedAffinity 17.5380421
REMARK minimizedRMSD -1
REMARK  1 active torsions:
REMARK  status: ('A' for Active; 'I' for Inactive)
REMARK    1  A    between atoms: N_2  and  C1_3 
ROOT
ATOM      1  C1  UNL d   1      -1.955   0.730   2.328  0.00  0.00     0.143 A 
ATOM      2  C2  UNL d   1      -1.613   2.014   2.765  0.00  0.00    -0.057 A 
ATOM      3  C3  UNL d   1      -0.284   2.357   3.040  0.00  0.00     0.033 A 
ATOM      4  C4  UNL d   1       0.726   1.410   2.911  0.00  0.00    -0.042 A 
ATOM      5  C5  UNL d   1       0.406   0.120   2.502  0.00  0.00     0.033 A 
ATOM      6  C6  UNL d   1      -0.922  -0.214   2.222  0.00  0.00    -0.057 A 
ENDROOT
BRANCH   1   7
ATOM      7  N   UNL d   1      -3.270   0.300   2.132  0.00  0.00    -0.732 N 
ATOM      8  C   UNL d   1      -3.862  -0.685   3.012  0.00  0.00     0.284 C 
ATOM      9  H3  UNL d   1      -3.895   1.062   1.881  0.00  0.00     0.395 HD
ENDBRANCH   1   7
TORSDOF 1
ENDMDL
