MODEL 1
REMARK minimizedAffinity 17.0196095
REMARK minimizedRMSD -1
REMARK  1 active torsions:
REMARK  status: ('A' for Active; 'I' for Inactive)
REMARK    1  A    between atoms: N_2  and  C1_3 
ROOT
ATOM      1  C1  UNL d   1      -4.132  -0.706   3.242  0.00  0.00     0.143 A 
ATOM      2  C2  UNL d   1      -3.547  -1.184   4.419  0.00  0.00    -0.057 A 
ATOM      3  C3  UNL d   1      -3.979  -2.376   5.013  0.00  0.00     0.033 A 
ATOM      4  C4  UNL d   1      -5.028  -3.098   4.455  0.00  0.00    -0.042 A 
ATOM      5  C5  UNL d   1      -5.642  -2.629   3.299  0.00  0.00     0.033 A 
ATOM      6  C6  UNL d   1      -5.201  -1.442   2.706  0.00  0.00    -0.057 A 
ENDROOT
BRANCH   1   7
ATOM      7  N   UNL d   1      -3.814   0.522   2.657  0.00  0.00    -0.732 N 
ATOM      8  C   UNL d   1      -2.450   0.829   2.284  0.00  0.00     0.284 C 
ATOM      9  H3  UNL d   1      -4.508   0.819   1.975  0.00  0.00     0.395 HD
ENDBRANCH   1   7
TORSDOF 1
ENDMDL
