MODEL 1
REMARK minimizedAffinity 14.3216972
REMARK minimizedRMSD -1
REMARK  1 active torsions:
REMARK  status: ('A' for Active; 'I' for Inactive)
REMARK    1  A    between atoms: N_2  and  C1_3 
ROOT
ATOM      1  C1  UNL d   1      -1.297   1.079   2.241  0.00  0.00     0.143 A 
ATOM      2  C2  UNL d   1      -0.797   2.327   2.630  0.00  0.00    -0.057 A 
ATOM      3  C3  UNL d   1       0.574   2.607   2.581  0.00  0.00     0.033 A 
ATOM      4  C4  UNL d   1       1.475   1.631   2.168  0.00  0.00    -0.042 A 
ATOM      5  C5  UNL d   1       1.003   0.375   1.801  0.00  0.00     0.033 A 
ATOM      6  C6  UNL d   1      -0.368   0.104   1.846  0.00  0.00    -0.057 A 
ENDROOT
BRANCH   1   7
ATOM      7  N   UNL d   1      -2.638   0.707   2.361  0.00  0.00    -0.732 N 
ATOM      8  C   UNL d   1      -3.062  -0.195   3.410  0.00  0.00     0.284 C 
ATOM      9  H3  UNL d   1      -3.273   1.486   2.201  0.00  0.00     0.395 HD
ENDBRANCH   1   7
TORSDOF 1
ENDMDL
