MODEL 1
REMARK minimizedAffinity 6.84351826
REMARK minimizedRMSD -1
REMARK  0 active torsions:
REMARK  status: ('A' for Active; 'I' for Inactive)
ROOT
ATOM      1  C   UNL d   1       4.824   0.429   1.254  0.00  0.00     0.020 A 
ATOM      2  C1  UNL d   1       4.075   1.291   0.454  0.00  0.00     0.020 A 
ATOM      3  C2  UNL d   1       2.768   1.622   0.819  0.00  0.00     0.034 A 
ATOM      4  C3  UNL d   1       2.207   1.092   1.986  0.00  0.00     0.017 A 
ATOM      5  C4  UNL d   1       2.960   0.228   2.788  0.00  0.00     0.017 A 
ATOM      6  C5  UNL d   1       4.268  -0.101   2.419  0.00  0.00     0.034 A 
ATOM      7 Cl   UNL d   1       2.336  -0.466   4.243  0.00  0.00    -0.070 Cl
ATOM      8 Cl1  UNL d   1       0.586   1.546   2.376  0.00  0.00    -0.070 Cl
ENDROOT
TORSDOF 0
ENDMDL
