MODEL 1
REMARK minimizedAffinity 10.9744301
REMARK minimizedRMSD -1
REMARK  0 active torsions:
REMARK  status: ('A' for Active; 'I' for Inactive)
ROOT
ATOM      1  C   UNL d   1       0.613   1.881   2.591  0.00  0.00     0.020 A 
ATOM      2  C1  UNL d   1       0.843   0.699   1.887  0.00  0.00     0.020 A 
ATOM      3  C2  UNL d   1       1.983   0.571   1.091  0.00  0.00     0.034 A 
ATOM      4  C3  UNL d   1       2.897   1.627   0.995  0.00  0.00     0.017 A 
ATOM      5  C4  UNL d   1       2.665   2.812   1.701  0.00  0.00     0.017 A 
ATOM      6  C5  UNL d   1       1.522   2.935   2.498  0.00  0.00     0.034 A 
ATOM      7 Cl   UNL d   1       3.748   4.158   1.633  0.00  0.00    -0.070 Cl
ATOM      8 Cl1  UNL d   1       4.285   1.399  -0.008  0.00  0.00    -0.070 Cl
ENDROOT
TORSDOF 0
ENDMDL
