MODEL 1
REMARK minimizedAffinity 11.8389902
REMARK minimizedRMSD -1
REMARK  0 active torsions:
REMARK  status: ('A' for Active; 'I' for Inactive)
ROOT
ATOM      1  C   UNL d   1      -5.606   5.999   5.126  0.00  0.00     0.020 A 
ATOM      2  C1  UNL d   1      -4.864   5.048   5.824  0.00  0.00     0.020 A 
ATOM      3  C2  UNL d   1      -4.458   3.873   5.186  0.00  0.00     0.034 A 
ATOM      4  C3  UNL d   1      -4.795   3.647   3.847  0.00  0.00     0.017 A 
ATOM      5  C4  UNL d   1      -5.541   4.603   3.147  0.00  0.00     0.017 A 
ATOM      6  C5  UNL d   1      -5.944   5.777   3.791  0.00  0.00     0.034 A 
ATOM      7 Cl   UNL d   1      -5.994   4.395   1.492  0.00  0.00    -0.070 Cl
ATOM      8 Cl1  UNL d   1      -4.260   2.173   3.121  0.00  0.00    -0.070 Cl
ENDROOT
TORSDOF 0
ENDMDL
