MODEL 1
REMARK minimizedAffinity 2.72111917
REMARK minimizedRMSD -1
REMARK  0 active torsions:
REMARK  status: ('A' for Active; 'I' for Inactive)
ROOT
ATOM      1  C   UNL d   1       3.692   0.758   1.274  0.00  0.00     0.020 A 
ATOM      2  C1  UNL d   1       2.355   0.391   1.119  0.00  0.00     0.020 A 
ATOM      3  C2  UNL d   1       1.364   1.372   1.064  0.00  0.00     0.034 A 
ATOM      4  C3  UNL d   1       1.706   2.726   1.164  0.00  0.00     0.017 A 
ATOM      5  C4  UNL d   1       3.048   3.093   1.319  0.00  0.00     0.017 A 
ATOM      6  C5  UNL d   1       4.037   2.106   1.373  0.00  0.00     0.034 A 
ATOM      7 Cl   UNL d   1       3.548   4.743   1.449  0.00  0.00    -0.070 Cl
ATOM      8 Cl1  UNL d   1       0.428   3.886   1.088  0.00  0.00    -0.070 Cl
ENDROOT
TORSDOF 0
ENDMDL
