MODEL 1
REMARK minimizedAffinity 21.1365299
REMARK minimizedRMSD -1
REMARK  0 active torsions:
REMARK  status: ('A' for Active; 'I' for Inactive)
ROOT
ATOM      1  C   UNL d   1       0.063   1.025   4.004  0.00  0.00     0.020 A 
ATOM      2  C1  UNL d   1      -0.266  -0.327   3.914  0.00  0.00     0.020 A 
ATOM      3  C2  UNL d   1      -1.546  -0.708   3.505  0.00  0.00     0.034 A 
ATOM      4  C3  UNL d   1      -2.501   0.263   3.185  0.00  0.00     0.017 A 
ATOM      5  C4  UNL d   1      -2.170   1.620   3.276  0.00  0.00     0.017 A 
ATOM      6  C5  UNL d   1      -0.886   1.996   3.686  0.00  0.00     0.034 A 
ATOM      7 Cl   UNL d   1      -3.295   2.876   2.898  0.00  0.00    -0.070 Cl
ATOM      8 Cl1  UNL d   1      -4.064  -0.280   2.687  0.00  0.00    -0.070 Cl
ENDROOT
TORSDOF 0
ENDMDL
