MODEL 1
REMARK minimizedAffinity 15.9632053
REMARK minimizedRMSD -1
REMARK  0 active torsions:
REMARK  status: ('A' for Active; 'I' for Inactive)
ROOT
ATOM      1  C   UNL d   1       1.240   0.024   1.108  0.00  0.00     0.020 A 
ATOM      2  C1  UNL d   1       1.091   1.312   0.593  0.00  0.00     0.020 A 
ATOM      3  C2  UNL d   1       2.207   2.136   0.439  0.00  0.00     0.034 A 
ATOM      4  C3  UNL d   1       3.478   1.674   0.799  0.00  0.00     0.017 A 
ATOM      5  C4  UNL d   1       3.628   0.382   1.315  0.00  0.00     0.017 A 
ATOM      6  C5  UNL d   1       2.506  -0.439   1.467  0.00  0.00     0.034 A 
ATOM      7 Cl   UNL d   1       5.164  -0.258   1.781  0.00  0.00    -0.070 Cl
ATOM      8 Cl1  UNL d   1       4.815   2.747   0.580  0.00  0.00    -0.070 Cl
ENDROOT
TORSDOF 0
ENDMDL
