MODEL 1
REMARK minimizedAffinity 4.92833376
REMARK minimizedRMSD -1
REMARK  0 active torsions:
REMARK  status: ('A' for Active; 'I' for Inactive)
ROOT
ATOM      1  C   UNL d   1       5.177   4.784  -4.183  0.00  0.00     0.020 A 
ATOM      2  C1  UNL d   1       5.125   5.630  -5.291  0.00  0.00     0.020 A 
ATOM      3  C2  UNL d   1       3.891   5.993  -5.835  0.00  0.00     0.034 A 
ATOM      4  C3  UNL d   1       2.704   5.510  -5.273  0.00  0.00     0.017 A 
ATOM      5  C4  UNL d   1       2.757   4.661  -4.161  0.00  0.00     0.017 A 
ATOM      6  C5  UNL d   1       3.995   4.301  -3.620  0.00  0.00     0.034 A 
ATOM      7 Cl   UNL d   1       1.335   4.025  -3.412  0.00  0.00    -0.070 Cl
ATOM      8 Cl1  UNL d   1       1.214   6.000  -5.998  0.00  0.00    -0.070 Cl
ENDROOT
TORSDOF 0
ENDMDL
