MODEL 1
REMARK minimizedAffinity 7.55206776
REMARK minimizedRMSD -1
REMARK  0 active torsions:
REMARK  status: ('A' for Active; 'I' for Inactive)
ROOT
ATOM      1  C   UNL d   1       4.195   4.968   1.623  0.00  0.00     0.020 A 
ATOM      2  C1  UNL d   1       3.294   5.999   1.887  0.00  0.00     0.020 A 
ATOM      3  C2  UNL d   1       1.927   5.727   1.968  0.00  0.00     0.034 A 
ATOM      4  C3  UNL d   1       1.456   4.422   1.786  0.00  0.00     0.017 A 
ATOM      5  C4  UNL d   1       2.361   3.388   1.521  0.00  0.00     0.017 A 
ATOM      6  C5  UNL d   1       3.730   3.666   1.440  0.00  0.00     0.034 A 
ATOM      7 Cl   UNL d   1       1.857   1.752   1.284  0.00  0.00    -0.070 Cl
ATOM      8 Cl1  UNL d   1      -0.248   4.158   1.901  0.00  0.00    -0.070 Cl
ENDROOT
TORSDOF 0
ENDMDL
