MODEL 1
REMARK minimizedAffinity 9.96829033
REMARK minimizedRMSD -1
REMARK  0 active torsions:
REMARK  status: ('A' for Active; 'I' for Inactive)
ROOT
ATOM      1  C   UNL d   1       2.308   0.881   0.630  0.00  0.00     0.020 A 
ATOM      2  C1  UNL d   1       2.174   1.572   1.834  0.00  0.00     0.020 A 
ATOM      3  C2  UNL d   1       1.208   1.177   2.762  0.00  0.00     0.034 A 
ATOM      4  C3  UNL d   1       0.373   0.088   2.488  0.00  0.00     0.017 A 
ATOM      5  C4  UNL d   1       0.508  -0.605   1.280  0.00  0.00     0.017 A 
ATOM      6  C5  UNL d   1       1.477  -0.205   0.354  0.00  0.00     0.034 A 
ATOM      7 Cl   UNL d   1      -0.486  -1.959   0.871  0.00  0.00    -0.070 Cl
ATOM      8 Cl1  UNL d   1      -0.799  -0.346   3.681  0.00  0.00    -0.070 Cl
ENDROOT
TORSDOF 0
ENDMDL
