MODEL 1
REMARK minimizedAffinity -1.35043645
REMARK minimizedRMSD -1
REMARK  0 active torsions:
REMARK  status: ('A' for Active; 'I' for Inactive)
ROOT
ATOM      1  C   UNL d   1       1.812   4.343  -5.082  0.00  0.00     0.020 A 
ATOM      2  C1  UNL d   1       2.031   5.506  -5.818  0.00  0.00     0.020 A 
ATOM      3  C2  UNL d   1       3.328   6.000  -5.975  0.00  0.00     0.034 A 
ATOM      4  C3  UNL d   1       4.411   5.330  -5.395  0.00  0.00     0.017 A 
ATOM      5  C4  UNL d   1       4.191   4.163  -4.655  0.00  0.00     0.017 A 
ATOM      6  C5  UNL d   1       2.890   3.673  -4.501  0.00  0.00     0.034 A 
ATOM      7 Cl   UNL d   1       5.477   3.281  -3.909  0.00  0.00    -0.070 Cl
ATOM      8 Cl1  UNL d   1       5.988   5.997  -5.630  0.00  0.00    -0.070 Cl
ENDROOT
TORSDOF 0
ENDMDL
