MODEL 1
REMARK minimizedAffinity 10.2217588
REMARK minimizedRMSD -1
REMARK  0 active torsions:
REMARK  status: ('A' for Active; 'I' for Inactive)
ROOT
ATOM      1  C   UNL d   1       1.163   1.432   1.895  0.00  0.00     0.020 A 
ATOM      2  C1  UNL d   1       1.277   1.363   0.508  0.00  0.00     0.020 A 
ATOM      3  C2  UNL d   1       2.349   0.681  -0.072  0.00  0.00     0.034 A 
ATOM      4  C3  UNL d   1       3.311   0.066   0.737  0.00  0.00     0.017 A 
ATOM      5  C4  UNL d   1       3.196   0.136   2.130  0.00  0.00     0.017 A 
ATOM      6  C5  UNL d   1       2.121   0.820   2.705  0.00  0.00     0.034 A 
ATOM      7 Cl   UNL d   1       4.345  -0.598   3.192  0.00  0.00    -0.070 Cl
ATOM      8 Cl1  UNL d   1       4.610  -0.761  -0.048  0.00  0.00    -0.070 Cl
ENDROOT
TORSDOF 0
ENDMDL
