MODEL 1
REMARK minimizedAffinity 17.2810974
REMARK minimizedRMSD -1
REMARK  0 active torsions:
REMARK  status: ('A' for Active; 'I' for Inactive)
ROOT
ATOM      1  C   UNL d   1       3.551   0.632   1.497  0.00  0.00     0.020 A 
ATOM      2  C1  UNL d   1       3.319   1.506   0.435  0.00  0.00     0.020 A 
ATOM      3  C2  UNL d   1       2.217   2.362   0.464  0.00  0.00     0.034 A 
ATOM      4  C3  UNL d   1       1.342   2.347   1.556  0.00  0.00     0.017 A 
ATOM      5  C4  UNL d   1       1.575   1.470   2.621  0.00  0.00     0.017 A 
ATOM      6  C5  UNL d   1       2.681   0.614   2.588  0.00  0.00     0.034 A 
ATOM      7 Cl   UNL d   1       0.540   1.393   4.003  0.00  0.00    -0.070 Cl
ATOM      8 Cl1  UNL d   1      -0.002   3.433   1.525  0.00  0.00    -0.070 Cl
ENDROOT
TORSDOF 0
ENDMDL
