MODEL 1
REMARK minimizedAffinity 9.75301075
REMARK minimizedRMSD -1
REMARK  0 active torsions:
REMARK  status: ('A' for Active; 'I' for Inactive)
ROOT
ATOM      1  C   UNL d   1      -2.127  -3.006  -4.094  0.00  0.00     0.020 A 
ATOM      2  C1  UNL d   1      -1.471  -2.164  -3.197  0.00  0.00     0.020 A 
ATOM      3  C2  UNL d   1      -1.815  -2.182  -1.844  0.00  0.00     0.034 A 
ATOM      4  C3  UNL d   1      -2.817  -3.044  -1.383  0.00  0.00     0.017 A 
ATOM      5  C4  UNL d   1      -3.474  -3.889  -2.284  0.00  0.00     0.017 A 
ATOM      6  C5  UNL d   1      -3.126  -3.867  -3.638  0.00  0.00     0.034 A 
ATOM      7 Cl   UNL d   1      -4.721  -4.980  -1.791  0.00  0.00    -0.070 Cl
ATOM      8 Cl1  UNL d   1      -3.190  -3.014   0.304  0.00  0.00    -0.070 Cl
ENDROOT
TORSDOF 0
ENDMDL
