MODEL 1
REMARK minimizedAffinity 4.48324251
REMARK minimizedRMSD -1
REMARK  0 active torsions:
REMARK  status: ('A' for Active; 'I' for Inactive)
ROOT
ATOM      1  C   UNL d   1      -2.790  -2.890  -3.028  0.00  0.00     0.020 A 
ATOM      2  C1  UNL d   1      -2.849  -2.113  -1.872  0.00  0.00     0.020 A 
ATOM      3  C2  UNL d   1      -1.727  -2.000  -1.048  0.00  0.00     0.034 A 
ATOM      4  C3  UNL d   1      -0.541  -2.666  -1.379  0.00  0.00     0.017 A 
ATOM      5  C4  UNL d   1      -0.482  -3.445  -2.540  0.00  0.00     0.017 A 
ATOM      6  C5  UNL d   1      -1.609  -3.555  -3.361  0.00  0.00     0.034 A 
ATOM      7 Cl   UNL d   1       0.946  -4.296  -3.013  0.00  0.00    -0.070 Cl
ATOM      8 Cl1  UNL d   1       0.807  -2.481  -0.314  0.00  0.00    -0.070 Cl
ENDROOT
TORSDOF 0
ENDMDL
