MODEL 1
REMARK minimizedAffinity 15.3561668
REMARK minimizedRMSD -1
REMARK  0 active torsions:
REMARK  status: ('A' for Active; 'I' for Inactive)
ROOT
ATOM      1  C   UNL d   1       5.862  -0.488  -5.067  0.00  0.00     0.020 A 
ATOM      2  C1  UNL d   1       4.840  -0.317  -6.000  0.00  0.00     0.020 A 
ATOM      3  C2  UNL d   1       3.908   0.709  -5.833  0.00  0.00     0.034 A 
ATOM      4  C3  UNL d   1       3.995   1.568  -4.732  0.00  0.00     0.017 A 
ATOM      5  C4  UNL d   1       5.021   1.396  -3.796  0.00  0.00     0.017 A 
ATOM      6  C5  UNL d   1       5.953   0.367  -3.967  0.00  0.00     0.034 A 
ATOM      7 Cl   UNL d   1       5.194   2.416  -2.412  0.00  0.00    -0.070 Cl
ATOM      8 Cl1  UNL d   1       2.808   2.816  -4.589  0.00  0.00    -0.070 Cl
ENDROOT
TORSDOF 0
ENDMDL
