MODEL 1
REMARK minimizedAffinity 11.3853703
REMARK minimizedRMSD -1
REMARK  0 active torsions:
REMARK  status: ('A' for Active; 'I' for Inactive)
ROOT
ATOM      1  C   UNL d   1       1.605   1.922   1.080  0.00  0.00     0.020 A 
ATOM      2  C1  UNL d   1       1.910   0.911   1.991  0.00  0.00     0.020 A 
ATOM      3  C2  UNL d   1       2.994   0.063   1.756  0.00  0.00     0.034 A 
ATOM      4  C3  UNL d   1       3.777   0.224   0.607  0.00  0.00     0.017 A 
ATOM      5  C4  UNL d   1       3.470   1.239  -0.307  0.00  0.00     0.017 A 
ATOM      6  C5  UNL d   1       2.383   2.085  -0.066  0.00  0.00     0.034 A 
ATOM      7 Cl   UNL d   1       4.390   1.499  -1.747  0.00  0.00    -0.070 Cl
ATOM      8 Cl1  UNL d   1       5.103  -0.860   0.380  0.00  0.00    -0.070 Cl
ENDROOT
TORSDOF 0
ENDMDL
