MODEL 1
REMARK minimizedAffinity 10.4701929
REMARK minimizedRMSD -1
REMARK  0 active torsions:
REMARK  status: ('A' for Active; 'I' for Inactive)
ROOT
ATOM      1  C   UNL d   1      -0.469  -1.866  -0.588  0.00  0.00     0.020 A 
ATOM      2  C1  UNL d   1      -1.518  -2.444   0.126  0.00  0.00     0.020 A 
ATOM      3  C2  UNL d   1      -2.642  -2.923  -0.550  0.00  0.00     0.034 A 
ATOM      4  C3  UNL d   1      -2.720  -2.825  -1.944  0.00  0.00     0.017 A 
ATOM      5  C4  UNL d   1      -1.666  -2.245  -2.660  0.00  0.00     0.017 A 
ATOM      6  C5  UNL d   1      -0.543  -1.767  -1.978  0.00  0.00     0.034 A 
ATOM      7 Cl   UNL d   1      -1.690  -2.089  -4.381  0.00  0.00    -0.070 Cl
ATOM      8 Cl1  UNL d   1      -4.139  -3.439  -2.715  0.00  0.00    -0.070 Cl
ENDROOT
TORSDOF 0
ENDMDL
