MODEL 1
REMARK minimizedAffinity 12.6963367
REMARK minimizedRMSD -1
REMARK  0 active torsions:
REMARK  status: ('A' for Active; 'I' for Inactive)
ROOT
ATOM      1  C   UNL d   1      -1.524  -3.085  -5.998  0.00  0.00     0.020 A 
ATOM      2  C1  UNL d   1      -0.504  -2.215  -5.617  0.00  0.00     0.020 A 
ATOM      3  C2  UNL d   1      -0.397  -1.806  -4.286  0.00  0.00     0.034 A 
ATOM      4  C3  UNL d   1      -1.311  -2.267  -3.332  0.00  0.00     0.017 A 
ATOM      5  C4  UNL d   1      -2.335  -3.141  -3.716  0.00  0.00     0.017 A 
ATOM      6  C5  UNL d   1      -2.437  -3.548  -5.050  0.00  0.00     0.034 A 
ATOM      7 Cl   UNL d   1      -3.500  -3.753  -2.595  0.00  0.00    -0.070 Cl
ATOM      8 Cl1  UNL d   1      -1.119  -1.720  -1.704  0.00  0.00    -0.070 Cl
ENDROOT
TORSDOF 0
ENDMDL
