MODEL 1
REMARK minimizedAffinity -0.0138934106
REMARK minimizedRMSD -1
REMARK  1 active torsions:
REMARK  status: ('A' for Active; 'I' for Inactive)
REMARK    1  A    between atoms: C3_4  and  O_7 
ROOT
ATOM      1  C   UNL d   1      -2.131  -5.992  -3.582  0.00  0.00    -0.033 A 
ATOM      2  C1  UNL d   1      -2.231  -5.994  -4.975  0.00  0.00     0.039 A 
ATOM      3  C2  UNL d   1      -1.076  -5.996  -5.759  0.00  0.00    -0.080 A 
ATOM      4  C3  UNL d   1       0.171  -5.997  -5.139  0.00  0.00     0.150 A 
ATOM      5  C4  UNL d   1       0.278  -5.999  -3.753  0.00  0.00    -0.007 A 
ATOM      6  C5  UNL d   1      -0.877  -5.996  -2.971  0.00  0.00     0.039 A 
ENDROOT
BRANCH   4   7
ATOM      7  O   UNL d   1       1.327  -5.993  -5.863  0.00  0.00    -0.526 OA
ATOM      8  H5  UNL d   1       1.098  -5.963  -6.807  0.00  0.00     0.418 HD
ENDBRANCH   4   7
TORSDOF 1
ENDMDL
