MODEL 1
REMARK minimizedAffinity -0.949669898
REMARK minimizedRMSD -1
REMARK  1 active torsions:
REMARK  status: ('A' for Active; 'I' for Inactive)
REMARK    1  A    between atoms: C3_4  and  O_7 
ROOT
ATOM      1  C   UNL d   1       1.321  -5.982  -5.473  0.00  0.00    -0.033 A 
ATOM      2  C1  UNL d   1       1.512  -5.994  -4.090  0.00  0.00     0.039 A 
ATOM      3  C2  UNL d   1       0.411  -5.998  -3.231  0.00  0.00    -0.080 A 
ATOM      4  C3  UNL d   1      -0.874  -5.992  -3.767  0.00  0.00     0.150 A 
ATOM      5  C4  UNL d   1      -1.071  -5.984  -5.144  0.00  0.00    -0.007 A 
ATOM      6  C5  UNL d   1       0.029  -5.979  -6.000  0.00  0.00     0.039 A 
ENDROOT
BRANCH   4   7
ATOM      7  O   UNL d   1      -1.979  -5.991  -2.969  0.00  0.00    -0.526 OA
ATOM      8  H5  UNL d   1      -1.689  -5.968  -2.042  0.00  0.00     0.418 HD
ENDBRANCH   4   7
TORSDOF 1
ENDMDL
