MODEL 1
REMARK minimizedAffinity -1.69270849
REMARK minimizedRMSD -1
REMARK  1 active torsions:
REMARK  status: ('A' for Active; 'I' for Inactive)
REMARK    1  A    between atoms: C3_4  and  O_7 
ROOT
ATOM      1  C   UNL d   1      -2.616  -5.989  -4.664  0.00  0.00    -0.033 A 
ATOM      2  C1  UNL d   1      -1.886  -5.980  -5.853  0.00  0.00     0.039 A 
ATOM      3  C2  UNL d   1      -0.490  -5.976  -5.818  0.00  0.00    -0.080 A 
ATOM      4  C3  UNL d   1       0.162  -5.982  -4.588  0.00  0.00     0.150 A 
ATOM      5  C4  UNL d   1      -0.559  -5.995  -3.399  0.00  0.00    -0.007 A 
ATOM      6  C5  UNL d   1      -1.953  -5.998  -3.436  0.00  0.00     0.039 A 
ENDROOT
BRANCH   4   7
ATOM      7  O   UNL d   1       1.523  -5.974  -4.503  0.00  0.00    -0.526 OA
ATOM      8  H5  UNL d   1       1.887  -5.936  -5.403  0.00  0.00     0.418 HD
ENDBRANCH   4   7
TORSDOF 1
ENDMDL
