MODEL 1
REMARK minimizedAffinity 2.26493621
REMARK minimizedRMSD -1
REMARK  1 active torsions:
REMARK  status: ('A' for Active; 'I' for Inactive)
REMARK    1  A    between atoms: C3_4  and  O_7 
ROOT
ATOM      1  C   UNL d   1       1.764   0.764  -0.118  0.00  0.00    -0.033 A 
ATOM      2  C1  UNL d   1       2.581   0.045   0.756  0.00  0.00     0.039 A 
ATOM      3  C2  UNL d   1       2.143  -1.172   1.282  0.00  0.00    -0.080 A 
ATOM      4  C3  UNL d   1       0.888  -1.658   0.927  0.00  0.00     0.150 A 
ATOM      5  C4  UNL d   1       0.070  -0.948   0.054  0.00  0.00    -0.007 A 
ATOM      6  C5  UNL d   1       0.509   0.267  -0.470  0.00  0.00     0.039 A 
ENDROOT
BRANCH   4   7
ATOM      7  O   UNL d   1       0.415  -2.838   1.419  0.00  0.00    -0.526 OA
ATOM      8  H5  UNL d   1       1.075  -3.203   2.031  0.00  0.00     0.418 HD
ENDBRANCH   4   7
TORSDOF 1
ENDMDL
