MODEL 1
REMARK minimizedAffinity 0.767722726
REMARK minimizedRMSD -1
REMARK  1 active torsions:
REMARK  status: ('A' for Active; 'I' for Inactive)
REMARK    1  A    between atoms: C3_4  and  O_7 
ROOT
ATOM      1  C   UNL d   1       1.628  -5.990  -5.550  0.00  0.00    -0.033 A 
ATOM      2  C1  UNL d   1       1.907  -5.997  -4.182  0.00  0.00     0.039 A 
ATOM      3  C2  UNL d   1       0.862  -5.977  -3.255  0.00  0.00    -0.080 A 
ATOM      4  C3  UNL d   1      -0.453  -5.953  -3.709  0.00  0.00     0.150 A 
ATOM      5  C4  UNL d   1      -0.738  -5.950  -5.070  0.00  0.00    -0.007 A 
ATOM      6  C5  UNL d   1       0.306  -5.968  -5.994  0.00  0.00     0.039 A 
ENDROOT
BRANCH   4   7
ATOM      7  O   UNL d   1      -1.506  -5.929  -2.842  0.00  0.00    -0.526 OA
ATOM      8  H5  UNL d   1      -1.157  -5.904  -1.935  0.00  0.00     0.418 HD
ENDBRANCH   4   7
TORSDOF 1
ENDMDL
