MODEL 1
REMARK minimizedAffinity 1.01008224
REMARK minimizedRMSD -1
REMARK  1 active torsions:
REMARK  status: ('A' for Active; 'I' for Inactive)
REMARK    1  A    between atoms: C3_4  and  O_7 
ROOT
ATOM      1  C   UNL d   1       4.046   3.899  -0.208  0.00  0.00    -0.033 A 
ATOM      2  C1  UNL d   1       5.328   4.113  -0.717  0.00  0.00     0.039 A 
ATOM      3  C2  UNL d   1       5.999   3.084  -1.380  0.00  0.00    -0.080 A 
ATOM      4  C3  UNL d   1       5.378   1.847  -1.528  0.00  0.00     0.150 A 
ATOM      5  C4  UNL d   1       4.099   1.627  -1.026  0.00  0.00    -0.007 A 
ATOM      6  C5  UNL d   1       3.431   2.656  -0.364  0.00  0.00     0.039 A 
ENDROOT
BRANCH   4   7
ATOM      7  O   UNL d   1       5.995   0.810  -2.163  0.00  0.00    -0.526 OA
ATOM      8  H5  UNL d   1       6.883   1.099  -2.431  0.00  0.00     0.418 HD
ENDBRANCH   4   7
TORSDOF 1
ENDMDL
