MODEL 1
REMARK minimizedAffinity -0.514319301
REMARK minimizedRMSD -1
REMARK  1 active torsions:
REMARK  status: ('A' for Active; 'I' for Inactive)
REMARK    1  A    between atoms: C3_4  and  O_7 
ROOT
ATOM      1  C   UNL d   1       0.147  -5.895  -6.000  0.00  0.00    -0.033 A 
ATOM      2  C1  UNL d   1       0.959  -5.879  -4.864  0.00  0.00     0.039 A 
ATOM      3  C2  UNL d   1       0.384  -5.914  -3.592  0.00  0.00    -0.080 A 
ATOM      4  C3  UNL d   1      -1.001  -5.968  -3.470  0.00  0.00     0.150 A 
ATOM      5  C4  UNL d   1      -1.816  -5.988  -4.597  0.00  0.00    -0.007 A 
ATOM      6  C5  UNL d   1      -1.240  -5.951  -5.867  0.00  0.00     0.039 A 
ENDROOT
BRANCH   4   7
ATOM      7  O   UNL d   1      -1.608  -5.999  -2.250  0.00  0.00    -0.526 OA
ATOM      8  H5  UNL d   1      -0.922  -5.951  -1.563  0.00  0.00     0.418 HD
ENDBRANCH   4   7
TORSDOF 1
ENDMDL
