MODEL 1
REMARK minimizedAffinity -0.517435789
REMARK minimizedRMSD -1
REMARK  1 active torsions:
REMARK  status: ('A' for Active; 'I' for Inactive)
REMARK    1  A    between atoms: C3_4  and  O_7 
ROOT
ATOM      1  C   UNL d   1      -5.598  -5.882   3.606  0.00  0.00    -0.033 A 
ATOM      2  C1  UNL d   1      -5.499  -4.622   3.012  0.00  0.00     0.039 A 
ATOM      3  C2  UNL d   1      -5.630  -3.470   3.790  0.00  0.00    -0.080 A 
ATOM      4  C3  UNL d   1      -5.858  -3.591   5.158  0.00  0.00     0.150 A 
ATOM      5  C4  UNL d   1      -5.953  -4.843   5.757  0.00  0.00    -0.007 A 
ATOM      6  C5  UNL d   1      -5.824  -5.993   4.978  0.00  0.00     0.039 A 
ENDROOT
BRANCH   4   7
ATOM      7  O   UNL d   1      -5.997  -2.496   5.957  0.00  0.00    -0.526 OA
ATOM      8  H5  UNL d   1      -5.936  -1.700   5.402  0.00  0.00     0.418 HD
ENDBRANCH   4   7
TORSDOF 1
ENDMDL
