MODEL 1
REMARK minimizedAffinity -2.50207829
REMARK minimizedRMSD -1
REMARK  1 active torsions:
REMARK  status: ('A' for Active; 'I' for Inactive)
REMARK    1  A    between atoms: C3_4  and  O_7 
ROOT
ATOM      1  C   UNL d   1       0.600  -5.672  -5.993  0.00  0.00    -0.033 A 
ATOM      2  C1  UNL d   1       1.270  -5.920  -4.793  0.00  0.00     0.039 A 
ATOM      3  C2  UNL d   1       0.555  -5.999  -3.596  0.00  0.00    -0.080 A 
ATOM      4  C3  UNL d   1      -0.826  -5.830  -3.613  0.00  0.00     0.150 A 
ATOM      5  C4  UNL d   1      -1.500  -5.586  -4.805  0.00  0.00    -0.007 A 
ATOM      6  C5  UNL d   1      -0.785  -5.506  -5.999  0.00  0.00     0.039 A 
ENDROOT
BRANCH   4   7
ATOM      7  O   UNL d   1      -1.566  -5.893  -2.469  0.00  0.00    -0.526 OA
ATOM      8  H5  UNL d   1      -0.963  -6.039  -1.721  0.00  0.00     0.418 HD
ENDBRANCH   4   7
TORSDOF 1
ENDMDL
