MODEL 1
REMARK minimizedAffinity 2.38397884
REMARK minimizedRMSD -1
REMARK  1 active torsions:
REMARK  status: ('A' for Active; 'I' for Inactive)
REMARK    1  A    between atoms: C3_4  and  O_7 
ROOT
ATOM      1  C   UNL d   1       2.289   0.137   0.769  0.00  0.00    -0.033 A 
ATOM      2  C1  UNL d   1       3.222   0.176   1.806  0.00  0.00     0.039 A 
ATOM      3  C2  UNL d   1       2.964  -0.491   3.005  0.00  0.00    -0.080 A 
ATOM      4  C3  UNL d   1       1.770  -1.193   3.153  0.00  0.00     0.150 A 
ATOM      5  C4  UNL d   1       0.838  -1.239   2.122  0.00  0.00    -0.007 A 
ATOM      6  C5  UNL d   1       1.097  -0.571   0.926  0.00  0.00     0.039 A 
ENDROOT
BRANCH   4   7
ATOM      7  O   UNL d   1       1.472  -1.856   4.307  0.00  0.00    -0.526 OA
ATOM      8  H5  UNL d   1       2.195  -1.712   4.940  0.00  0.00     0.418 HD
ENDBRANCH   4   7
TORSDOF 1
ENDMDL
