MODEL 1
REMARK minimizedAffinity -3.11904049
REMARK minimizedRMSD -1
REMARK  1 active torsions:
REMARK  status: ('A' for Active; 'I' for Inactive)
REMARK    1  A    between atoms: C3_4  and  O_7 
ROOT
ATOM      1  C   UNL d   1      -0.075  -5.988  -4.317  0.00  0.00    -0.033 A 
ATOM      2  C1  UNL d   1      -0.590  -5.993  -3.019  0.00  0.00     0.039 A 
ATOM      3  C2  UNL d   1      -1.971  -5.998  -2.815  0.00  0.00    -0.080 A 
ATOM      4  C3  UNL d   1      -2.825  -5.999  -3.914  0.00  0.00     0.150 A 
ATOM      5  C4  UNL d   1      -2.319  -5.998  -5.210  0.00  0.00    -0.007 A 
ATOM      6  C5  UNL d   1      -0.940  -5.992  -5.412  0.00  0.00     0.039 A 
ENDROOT
BRANCH   4   7
ATOM      7  O   UNL d   1      -4.180  -5.999  -3.764  0.00  0.00    -0.526 OA
ATOM      8  H5  UNL d   1      -4.385  -5.971  -2.814  0.00  0.00     0.418 HD
ENDBRANCH   4   7
TORSDOF 1
ENDMDL
