MODEL 1
REMARK minimizedAffinity -1.54534376
REMARK minimizedRMSD -1
REMARK  1 active torsions:
REMARK  status: ('A' for Active; 'I' for Inactive)
REMARK    1  A    between atoms: C3_4  and  O_7 
ROOT
ATOM      1  C   UNL d   1      -1.856  -5.629  -2.557  0.00  0.00    -0.033 A 
ATOM      2  C1  UNL d   1      -0.512  -6.000  -2.483  0.00  0.00     0.039 A 
ATOM      3  C2  UNL d   1       0.279  -5.997  -3.634  0.00  0.00    -0.080 A 
ATOM      4  C3  UNL d   1      -0.284  -5.620  -4.850  0.00  0.00     0.150 A 
ATOM      5  C4  UNL d   1      -1.621  -5.245  -4.930  0.00  0.00    -0.007 A 
ATOM      6  C5  UNL d   1      -2.410  -5.250  -3.780  0.00  0.00     0.039 A 
ENDROOT
BRANCH   4   7
ATOM      7  O   UNL d   1       0.447  -5.606  -6.000  0.00  0.00    -0.526 OA
ATOM      8  H5  UNL d   1       1.346  -5.916  -5.797  0.00  0.00     0.418 HD
ENDBRANCH   4   7
TORSDOF 1
ENDMDL
