MODEL 1
REMARK minimizedAffinity -2.65953398
REMARK minimizedRMSD -1
REMARK  1 active torsions:
REMARK  status: ('A' for Active; 'I' for Inactive)
REMARK    1  A    between atoms: C3_4  and  O_7 
ROOT
ATOM      1  C   UNL d   1      -2.317  -6.000  -2.943  0.00  0.00    -0.033 A 
ATOM      2  C1  UNL d   1      -2.659  -5.999  -4.297  0.00  0.00     0.039 A 
ATOM      3  C2  UNL d   1      -1.659  -5.993  -5.272  0.00  0.00    -0.080 A 
ATOM      4  C3  UNL d   1      -0.323  -5.991  -4.880  0.00  0.00     0.150 A 
ATOM      5  C4  UNL d   1       0.025  -5.996  -3.533  0.00  0.00    -0.007 A 
ATOM      6  C5  UNL d   1      -0.975  -6.000  -2.562  0.00  0.00     0.039 A 
ENDROOT
BRANCH   4   7
ATOM      7  O   UNL d   1       0.688  -5.981  -5.795  0.00  0.00    -0.526 OA
ATOM      8  H5  UNL d   1       0.298  -5.949  -6.684  0.00  0.00     0.418 HD
ENDBRANCH   4   7
TORSDOF 1
ENDMDL
