MODEL 1
REMARK minimizedAffinity -1.09941876
REMARK minimizedRMSD -1
REMARK  1 active torsions:
REMARK  status: ('A' for Active; 'I' for Inactive)
REMARK    1  A    between atoms: C3_4  and  O_7 
ROOT
ATOM      1  C   UNL d   1      -4.479   1.367  -2.237  0.00  0.00    -0.033 A 
ATOM      2  C1  UNL d   1      -3.836   1.648  -1.031  0.00  0.00     0.039 A 
ATOM      3  C2  UNL d   1      -4.143   0.911   0.115  0.00  0.00    -0.080 A 
ATOM      4  C3  UNL d   1      -5.092  -0.104   0.040  0.00  0.00     0.150 A 
ATOM      5  C4  UNL d   1      -5.734  -0.393  -1.160  0.00  0.00    -0.007 A 
ATOM      6  C5  UNL d   1      -5.427   0.345  -2.303  0.00  0.00     0.039 A 
ENDROOT
BRANCH   4   7
ATOM      7  O   UNL d   1      -5.429  -0.848   1.132  0.00  0.00    -0.526 OA
ATOM      8  H5  UNL d   1      -4.927  -0.517   1.895  0.00  0.00     0.418 HD
ENDBRANCH   4   7
TORSDOF 1
ENDMDL
