MODEL 1
REMARK minimizedAffinity -2.00065875
REMARK minimizedRMSD -1
REMARK  1 active torsions:
REMARK  status: ('A' for Active; 'I' for Inactive)
REMARK    1  A    between atoms: C3_4  and  O_7 
ROOT
ATOM      1  C   UNL d   1       1.251  -5.829  -4.764  0.00  0.00    -0.033 A 
ATOM      2  C1  UNL d   1       0.566  -5.777  -5.980  0.00  0.00     0.039 A 
ATOM      3  C2  UNL d   1      -0.829  -5.832  -6.000  0.00  0.00    -0.080 A 
ATOM      4  C3  UNL d   1      -1.526  -5.938  -4.800  0.00  0.00     0.150 A 
ATOM      5  C4  UNL d   1      -0.850  -5.986  -3.585  0.00  0.00    -0.007 A 
ATOM      6  C5  UNL d   1       0.543  -5.932  -3.567  0.00  0.00     0.039 A 
ENDROOT
BRANCH   4   7
ATOM      7  O   UNL d   1      -2.887  -5.999  -4.769  0.00  0.00    -0.526 OA
ATOM      8  H5  UNL d   1      -3.217  -5.984  -5.684  0.00  0.00     0.418 HD
ENDBRANCH   4   7
TORSDOF 1
ENDMDL
