MODEL 1
REMARK minimizedAffinity -2.71710563
REMARK minimizedRMSD -1
REMARK  1 active torsions:
REMARK  status: ('A' for Active; 'I' for Inactive)
REMARK    1  A    between atoms: C3_4  and  O_7 
ROOT
ATOM      1  C   UNL d   1      -1.871  -6.000  -3.874  0.00  0.00    -0.033 A 
ATOM      2  C1  UNL d   1      -1.899  -6.000  -5.270  0.00  0.00     0.039 A 
ATOM      3  C2  UNL d   1      -0.709  -5.908  -5.995  0.00  0.00    -0.080 A 
ATOM      4  C3  UNL d   1       0.501  -5.819  -5.313  0.00  0.00     0.150 A 
ATOM      5  C4  UNL d   1       0.537  -5.823  -3.922  0.00  0.00    -0.007 A 
ATOM      6  C5  UNL d   1      -0.652  -5.913  -3.200  0.00  0.00     0.039 A 
ENDROOT
BRANCH   4   7
ATOM      7  O   UNL d   1       1.688  -5.724  -5.976  0.00  0.00    -0.526 OA
ATOM      8  H5  UNL d   1       1.506  -5.704  -6.931  0.00  0.00     0.418 HD
ENDBRANCH   4   7
TORSDOF 1
ENDMDL
