MODEL 1
REMARK minimizedAffinity 8.7885294
REMARK minimizedRMSD -1
REMARK  1 active torsions:
REMARK  status: ('A' for Active; 'I' for Inactive)
REMARK    1  A    between atoms: C1_2  and  C2_3 
ROOT
ATOM      1  C2  UNL d   1       1.705  -0.467  -0.047  0.00  0.00    -0.081 A 
ATOM      2  C3  UNL d   1       0.900  -0.224  -1.168  0.00  0.00     0.006 A 
ATOM      3  C4  UNL d   1      -0.480  -0.059  -1.026  0.00  0.00     0.002 A 
ATOM      4  C5  UNL d   1      -1.077  -0.125   0.237  0.00  0.00    -0.080 A 
ATOM      5  C6  UNL d   1      -2.553   0.081   0.406  0.00  0.00     0.076 C 
ATOM      6  C7  UNL d   1      -0.276  -0.384   1.354  0.00  0.00     0.002 A 
ATOM      7  C8  UNL d   1       1.104  -0.551   1.213  0.00  0.00     0.006 A 
ENDROOT
BRANCH   1   8
ATOM      8  C1  UNL d   1       3.201  -0.581  -0.189  0.00  0.00     0.054 C 
ATOM      9  C   UNL d   1       3.831   0.766  -0.511  0.00  0.00     0.018 C 
ENDBRANCH   1   8
TORSDOF 1
ENDMDL
