MODEL 1
REMARK minimizedAffinity -2.33401728
REMARK minimizedRMSD -1
REMARK  1 active torsions:
REMARK  status: ('A' for Active; 'I' for Inactive)
REMARK    1  A    between atoms: C1_2  and  C2_3 
ROOT
ATOM      1  C2  UNL d   1      -2.917   2.811  -3.096  0.00  0.00    -0.081 A 
ATOM      2  C3  UNL d   1      -2.825   1.462  -2.731  0.00  0.00     0.006 A 
ATOM      3  C4  UNL d   1      -1.579   0.843  -2.615  0.00  0.00     0.002 A 
ATOM      4  C5  UNL d   1      -0.403   1.563  -2.854  0.00  0.00    -0.080 A 
ATOM      5  C6  UNL d   1       0.942   0.919  -2.704  0.00  0.00     0.076 C 
ATOM      6  C7  UNL d   1      -0.495   2.906  -3.236  0.00  0.00     0.002 A 
ATOM      7  C8  UNL d   1      -1.742   3.525  -3.353  0.00  0.00     0.006 A 
ENDROOT
BRANCH   1   8
ATOM      8  C1  UNL d   1      -4.257   3.498  -3.159  0.00  0.00     0.054 C 
ATOM      9  C   UNL d   1      -5.372   2.511  -3.471  0.00  0.00     0.018 C 
ENDBRANCH   1   8
TORSDOF 1
ENDMDL
