MODEL 1
REMARK minimizedAffinity 7.97199059
REMARK minimizedRMSD -1
REMARK  1 active torsions:
REMARK  status: ('A' for Active; 'I' for Inactive)
REMARK    1  A    between atoms: C1_2  and  C2_3 
ROOT
ATOM      1  C2  UNL d   1      -0.555  -0.134   0.850  0.00  0.00    -0.081 A 
ATOM      2  C3  UNL d   1       0.081  -0.261   2.092  0.00  0.00     0.006 A 
ATOM      3  C4  UNL d   1       1.346  -0.845   2.183  0.00  0.00     0.002 A 
ATOM      4  C5  UNL d   1       2.000  -1.305   1.035  0.00  0.00    -0.080 A 
ATOM      5  C6  UNL d   1       3.372  -1.906   1.116  0.00  0.00     0.076 C 
ATOM      6  C7  UNL d   1       1.358  -1.195  -0.203  0.00  0.00     0.002 A 
ATOM      7  C8  UNL d   1       0.092  -0.611  -0.295  0.00  0.00     0.006 A 
ENDROOT
BRANCH   1   8
ATOM      8  C1  UNL d   1      -1.892   0.553   0.740  0.00  0.00     0.054 C 
ATOM      9  C   UNL d   1      -1.908   1.860   1.521  0.00  0.00     0.018 C 
ENDBRANCH   1   8
TORSDOF 1
ENDMDL
