MODEL 1
REMARK minimizedAffinity 0.0548433885
REMARK minimizedRMSD -1
REMARK  1 active torsions:
REMARK  status: ('A' for Active; 'I' for Inactive)
REMARK    1  A    between atoms: C1_2  and  C2_3 
ROOT
ATOM      1  C2  UNL d   1       0.507  -0.847   0.587  0.00  0.00    -0.081 A 
ATOM      2  C3  UNL d   1       0.125  -0.937   1.931  0.00  0.00     0.006 A 
ATOM      3  C4  UNL d   1      -1.210  -0.755   2.301  0.00  0.00     0.002 A 
ATOM      4  C5  UNL d   1      -2.185  -0.488   1.334  0.00  0.00    -0.080 A 
ATOM      5  C6  UNL d   1      -3.626  -0.320   1.715  0.00  0.00     0.076 C 
ATOM      6  C7  UNL d   1      -1.800  -0.381  -0.007  0.00  0.00     0.002 A 
ATOM      7  C8  UNL d   1      -0.466  -0.562  -0.378  0.00  0.00     0.006 A 
ENDROOT
BRANCH   1   8
ATOM      8  C1  UNL d   1       1.934  -1.108   0.177  0.00  0.00     0.054 C 
ATOM      9  C   UNL d   1       2.417  -2.460   0.680  0.00  0.00     0.018 C 
ENDBRANCH   1   8
TORSDOF 1
ENDMDL
