MODEL 1
REMARK minimizedAffinity 10.0688181
REMARK minimizedRMSD -1
REMARK  1 active torsions:
REMARK  status: ('A' for Active; 'I' for Inactive)
REMARK    1  A    between atoms: C1_2  and  C2_3 
ROOT
ATOM      1  C2  UNL d   1       1.524  -0.342   0.068  0.00  0.00    -0.081 A 
ATOM      2  C3  UNL d   1       0.729  -0.885  -0.948  0.00  0.00     0.006 A 
ATOM      3  C4  UNL d   1      -0.640  -1.082  -0.748  0.00  0.00     0.002 A 
ATOM      4  C5  UNL d   1      -1.237  -0.732   0.468  0.00  0.00    -0.080 A 
ATOM      5  C6  UNL d   1      -2.710  -0.910   0.685  0.00  0.00     0.076 C 
ATOM      6  C7  UNL d   1      -0.439  -0.206   1.490  0.00  0.00     0.002 A 
ATOM      7  C8  UNL d   1       0.929  -0.009   1.290  0.00  0.00     0.006 A 
ENDROOT
BRANCH   1   8
ATOM      8  C1  UNL d   1       2.987  -0.068  -0.167  0.00  0.00     0.054 C 
ATOM      9  C   UNL d   1       3.185   1.033  -1.200  0.00  0.00     0.018 C 
ENDBRANCH   1   8
TORSDOF 1
ENDMDL
