MODEL 1
REMARK minimizedAffinity 5.1735096
REMARK minimizedRMSD -1
REMARK  1 active torsions:
REMARK  status: ('A' for Active; 'I' for Inactive)
REMARK    1  A    between atoms: C1_2  and  C2_3 
ROOT
ATOM      1  C2  UNL d   1       2.186  -2.146   0.316  0.00  0.00    -0.081 A 
ATOM      2  C3  UNL d   1       1.767  -1.298  -0.716  0.00  0.00     0.006 A 
ATOM      3  C4  UNL d   1       0.538  -0.639  -0.637  0.00  0.00     0.002 A 
ATOM      4  C5  UNL d   1      -0.289  -0.811   0.479  0.00  0.00    -0.080 A 
ATOM      5  C6  UNL d   1      -1.597  -0.086   0.591  0.00  0.00     0.076 C 
ATOM      6  C7  UNL d   1       0.122  -1.671   1.503  0.00  0.00     0.002 A 
ATOM      7  C8  UNL d   1       1.351  -2.331   1.424  0.00  0.00     0.006 A 
ENDROOT
BRANCH   1   8
ATOM      8  C1  UNL d   1       3.540  -2.807   0.263  0.00  0.00     0.054 C 
ATOM      9  C   UNL d   1       3.417  -4.323   0.308  0.00  0.00     0.018 C 
ENDBRANCH   1   8
TORSDOF 1
ENDMDL
