MODEL 1
REMARK minimizedAffinity 6.12173462
REMARK minimizedRMSD -1
REMARK  1 active torsions:
REMARK  status: ('A' for Active; 'I' for Inactive)
REMARK    1  A    between atoms: C1_2  and  C2_3 
ROOT
ATOM      1  C2  UNL d   1       0.000  -0.939   0.387  0.00  0.00    -0.081 A 
ATOM      2  C3  UNL d   1      -0.306  -1.014   1.751  0.00  0.00     0.006 A 
ATOM      3  C4  UNL d   1      -1.608  -0.776   2.198  0.00  0.00     0.002 A 
ATOM      4  C5  UNL d   1      -2.626  -0.468   1.289  0.00  0.00    -0.080 A 
ATOM      5  C6  UNL d   1      -4.034  -0.241   1.753  0.00  0.00     0.076 C 
ATOM      6  C7  UNL d   1      -2.316  -0.377  -0.072  0.00  0.00     0.002 A 
ATOM      7  C8  UNL d   1      -1.015  -0.613  -0.520  0.00  0.00     0.006 A 
ENDROOT
BRANCH   1   8
ATOM      8  C1  UNL d   1       1.389  -1.258  -0.105  0.00  0.00     0.054 C 
ATOM      9  C   UNL d   1       1.692  -0.539  -1.412  0.00  0.00     0.018 C 
ENDBRANCH   1   8
TORSDOF 1
ENDMDL
