MODEL 1
REMARK minimizedAffinity 0.63086915
REMARK minimizedRMSD -1
REMARK  1 active torsions:
REMARK  status: ('A' for Active; 'I' for Inactive)
REMARK    1  A    between atoms: C1_2  and  C2_3 
ROOT
ATOM      1  C2  UNL d   1      -1.856  -0.623   1.451  0.00  0.00    -0.081 A 
ATOM      2  C3  UNL d   1      -0.958  -1.291   2.293  0.00  0.00     0.006 A 
ATOM      3  C4  UNL d   1      -1.424  -2.189   3.256  0.00  0.00     0.002 A 
ATOM      4  C5  UNL d   1      -2.794  -2.439   3.389  0.00  0.00    -0.080 A 
ATOM      5  C6  UNL d   1      -3.305  -3.423   4.399  0.00  0.00     0.076 C 
ATOM      6  C7  UNL d   1      -3.692  -1.759   2.561  0.00  0.00     0.002 A 
ATOM      7  C8  UNL d   1      -3.227  -0.860   1.598  0.00  0.00     0.006 A 
ENDROOT
BRANCH   1   8
ATOM      8  C1  UNL d   1      -1.352   0.296   0.368  0.00  0.00     0.054 C 
ATOM      9  C   UNL d   1      -0.167  -0.312  -0.367  0.00  0.00     0.018 C 
ENDBRANCH   1   8
TORSDOF 1
ENDMDL
