MODEL 1
REMARK minimizedAffinity 5.9784832
REMARK minimizedRMSD -1
REMARK  3 active torsions:
REMARK  status: ('A' for Active; 'I' for Inactive)
REMARK    1  A    between atoms: C3'_2  and  C2'_3 
REMARK    2  A    between atoms: C2'_3  and  C1'_4 
REMARK    3  A    between atoms: C1'_4  and  C1_5 
ROOT
ATOM      1  C1  N4B d   1      -3.404   3.682  -5.927  0.00  0.00    -0.075 A 
ATOM      2  C2  N4B d   1      -3.089   5.058  -5.927  0.00  0.00     0.002 A 
ATOM      3  C3  N4B d   1      -4.096   5.993  -5.949  0.00  0.00     0.002 A 
ATOM      4  C4  N4B d   1      -5.418   5.576  -5.990  0.00  0.00    -0.004 A 
ATOM      5  C5  N4B d   1      -5.714   4.245  -5.964  0.00  0.00     0.002 A 
ATOM      6  C6  N4B d   1      -4.713   3.294  -5.938  0.00  0.00     0.002 A 
ENDROOT
BRANCH   1   7
ATOM      7  C1' N4B d   1      -2.338   2.623  -5.991  0.00  0.00     0.057 C 
BRANCH   7   8
ATOM      8  C2' N4B d   1      -1.414   2.770  -4.785  0.00  0.00     0.009 C 
BRANCH   8   9
ATOM      9  C3' N4B d   1      -2.104   3.461  -3.622  0.00  0.00     0.004 C 
ATOM     10  C4' N4B d   1      -1.338   3.342  -2.338  0.00  0.00     0.003 C 
ENDBRANCH   8   9
ENDBRANCH   7   8
ENDBRANCH   1   7
TORSDOF 3
ENDMDL
