MODEL 1
REMARK minimizedAffinity 0.509515762
REMARK minimizedRMSD -1
REMARK  3 active torsions:
REMARK  status: ('A' for Active; 'I' for Inactive)
REMARK    1  A    between atoms: C3'_2  and  C2'_3 
REMARK    2  A    between atoms: C2'_3  and  C1'_4 
REMARK    3  A    between atoms: C1'_4  and  C1_5 
ROOT
ATOM      1  C1  N4B d   1      -3.369   5.091  -5.878  0.00  0.00    -0.075 A 
ATOM      2  C2  N4B d   1      -3.668   3.715  -5.982  0.00  0.00     0.002 A 
ATOM      3  C3  N4B d   1      -4.975   3.294  -5.961  0.00  0.00     0.002 A 
ATOM      4  C4  N4B d   1      -5.994   4.224  -5.818  0.00  0.00    -0.004 A 
ATOM      5  C5  N4B d   1      -5.697   5.553  -5.744  0.00  0.00     0.002 A 
ATOM      6  C6  N4B d   1      -4.389   5.992  -5.767  0.00  0.00     0.002 A 
ENDROOT
BRANCH   1   7
ATOM      7  C1' N4B d   1      -1.952   5.593  -5.810  0.00  0.00     0.057 C 
BRANCH   7   8
ATOM      8  C2' N4B d   1      -1.529   5.699  -4.348  0.00  0.00     0.009 C 
BRANCH   8   9
ATOM      9  C3' N4B d   1      -1.747   4.397  -3.596  0.00  0.00     0.004 C 
ATOM     10  C4' N4B d   1      -1.115   3.221  -4.278  0.00  0.00     0.003 C 
ENDBRANCH   8   9
ENDBRANCH   7   8
ENDBRANCH   1   7
TORSDOF 3
ENDMDL
