MODEL 1
REMARK minimizedAffinity 7.32249355
REMARK minimizedRMSD -1
REMARK  3 active torsions:
REMARK  status: ('A' for Active; 'I' for Inactive)
REMARK    1  A    between atoms: C3'_2  and  C2'_3 
REMARK    2  A    between atoms: C2'_3  and  C1'_4 
REMARK    3  A    between atoms: C1'_4  and  C1_5 
ROOT
ATOM      1  C1  N4B d   1       2.357   1.148  -4.697  0.00  0.00    -0.075 A 
ATOM      2  C2  N4B d   1       2.379  -0.224  -4.365  0.00  0.00     0.002 A 
ATOM      3  C3  N4B d   1       2.988  -0.641  -3.207  0.00  0.00     0.002 A 
ATOM      4  C4  N4B d   1       3.596   0.290  -2.378  0.00  0.00    -0.004 A 
ATOM      5  C5  N4B d   1       3.548   1.617  -2.692  0.00  0.00     0.002 A 
ATOM      6  C6  N4B d   1       2.936   2.050  -3.851  0.00  0.00     0.002 A 
ENDROOT
BRANCH   1   7
ATOM      7  C1' N4B d   1       1.779   1.642  -5.994  0.00  0.00     0.057 C 
BRANCH   7   8
ATOM      8  C2' N4B d   1       0.272   1.400  -5.995  0.00  0.00     0.009 C 
BRANCH   8   9
ATOM      9  C3' N4B d   1      -0.513   2.700  -5.996  0.00  0.00     0.004 C 
ATOM     10  C4' N4B d   1      -1.997   2.483  -5.989  0.00  0.00     0.003 C 
ENDBRANCH   8   9
ENDBRANCH   7   8
ENDBRANCH   1   7
TORSDOF 3
ENDMDL
