MODEL 1
REMARK minimizedAffinity 3.71475244
REMARK minimizedRMSD -1
REMARK  3 active torsions:
REMARK  status: ('A' for Active; 'I' for Inactive)
REMARK    1  A    between atoms: C3'_2  and  C2'_3 
REMARK    2  A    between atoms: C2'_3  and  C1'_4 
REMARK    3  A    between atoms: C1'_4  and  C1_5 
ROOT
ATOM      1  C1  N4B d   1      -0.659   1.965   0.965  0.00  0.00    -0.075 A 
ATOM      2  C2  N4B d   1       0.101   0.851   0.545  0.00  0.00     0.002 A 
ATOM      3  C3  N4B d   1      -0.529  -0.323   0.213  0.00  0.00     0.002 A 
ATOM      4  C4  N4B d   1      -1.910  -0.413   0.312  0.00  0.00    -0.004 A 
ATOM      5  C5  N4B d   1      -2.638   0.675   0.694  0.00  0.00     0.002 A 
ATOM      6  C6  N4B d   1      -2.019   1.863   1.026  0.00  0.00     0.002 A 
ENDROOT
BRANCH   1   7
ATOM      7  C1' N4B d   1      -0.009   3.243   1.420  0.00  0.00     0.057 C 
BRANCH   7   8
ATOM      8  C2' N4B d   1       0.980   2.932   2.539  0.00  0.00     0.009 C 
BRANCH   8   9
ATOM      9  C3' N4B d   1       0.466   3.387   3.894  0.00  0.00     0.004 C 
ATOM     10  C4' N4B d   1      -1.023   3.564   3.922  0.00  0.00     0.003 C 
ENDBRANCH   8   9
ENDBRANCH   7   8
ENDBRANCH   1   7
TORSDOF 3
ENDMDL
