MODEL 1
REMARK minimizedAffinity 4.90096474
REMARK minimizedRMSD -1
REMARK  3 active torsions:
REMARK  status: ('A' for Active; 'I' for Inactive)
REMARK    1  A    between atoms: C3'_2  and  C2'_3 
REMARK    2  A    between atoms: C2'_3  and  C1'_4 
REMARK    3  A    between atoms: C1'_4  and  C1_5 
ROOT
ATOM      1  C1  N4B d   1       1.280   2.568   1.825  0.00  0.00    -0.075 A 
ATOM      2  C2  N4B d   1       1.316   1.419   1.005  0.00  0.00     0.002 A 
ATOM      3  C3  N4B d   1       0.167   0.969   0.402  0.00  0.00     0.002 A 
ATOM      4  C4  N4B d   1      -1.028   1.638   0.620  0.00  0.00    -0.004 A 
ATOM      5  C5  N4B d   1      -1.049   2.762   1.393  0.00  0.00     0.002 A 
ATOM      6  C6  N4B d   1       0.099   3.228   2.001  0.00  0.00     0.002 A 
ENDROOT
BRANCH   1   7
ATOM      7  C1' N4B d   1       2.494   3.047   2.574  0.00  0.00     0.057 C 
BRANCH   7   8
ATOM      8  C2' N4B d   1       3.750   2.569   1.851  0.00  0.00     0.009 C 
BRANCH   8   9
ATOM      9  C3' N4B d   1       4.688   3.717   1.521  0.00  0.00     0.004 C 
ATOM     10  C4' N4B d   1       5.976   3.653   2.285  0.00  0.00     0.003 C 
ENDBRANCH   8   9
ENDBRANCH   7   8
ENDBRANCH   1   7
TORSDOF 3
ENDMDL
