MODEL 1
REMARK minimizedAffinity 0.391658425
REMARK minimizedRMSD -1
REMARK  3 active torsions:
REMARK  status: ('A' for Active; 'I' for Inactive)
REMARK    1  A    between atoms: C3'_2  and  C2'_3 
REMARK    2  A    between atoms: C2'_3  and  C1'_4 
REMARK    3  A    between atoms: C1'_4  and  C1_5 
ROOT
ATOM      1  C1  N4B d   1       1.102   1.851   0.820  0.00  0.00    -0.075 A 
ATOM      2  C2  N4B d   1       0.740   0.537   0.449  0.00  0.00     0.002 A 
ATOM      3  C3  N4B d   1      -0.581   0.218   0.254  0.00  0.00     0.002 A 
ATOM      4  C4  N4B d   1      -1.556   1.187   0.442  0.00  0.00    -0.004 A 
ATOM      5  C5  N4B d   1      -1.196   2.460   0.775  0.00  0.00     0.002 A 
ATOM      6  C6  N4B d   1       0.129   2.796   0.970  0.00  0.00     0.002 A 
ENDROOT
BRANCH   1   7
ATOM      7  C1' N4B d   1       2.526   2.226   1.127  0.00  0.00     0.057 C 
BRANCH   7   8
ATOM      8  C2' N4B d   1       2.547   3.177   2.320  0.00  0.00     0.009 C 
BRANCH   8   9
ATOM      9  C3' N4B d   1       3.916   3.803   2.523  0.00  0.00     0.004 C 
ATOM     10  C4' N4B d   1       4.762   3.765   1.286  0.00  0.00     0.003 C 
ENDBRANCH   8   9
ENDBRANCH   7   8
ENDBRANCH   1   7
TORSDOF 3
ENDMDL
