MODEL 1
REMARK minimizedAffinity 6.44173431
REMARK minimizedRMSD -1
REMARK  3 active torsions:
REMARK  status: ('A' for Active; 'I' for Inactive)
REMARK    1  A    between atoms: C3'_2  and  C2'_3 
REMARK    2  A    between atoms: C2'_3  and  C1'_4 
REMARK    3  A    between atoms: C1'_4  and  C1_5 
ROOT
ATOM      1  C1  N4B d   1       0.334   2.875   1.566  0.00  0.00    -0.075 A 
ATOM      2  C2  N4B d   1       0.790   1.682   0.963  0.00  0.00     0.002 A 
ATOM      3  C3  N4B d   1      -0.114   0.751   0.513  0.00  0.00     0.002 A 
ATOM      4  C4  N4B d   1      -1.472   0.981   0.672  0.00  0.00    -0.004 A 
ATOM      5  C5  N4B d   1      -1.905   2.147   1.233  0.00  0.00     0.002 A 
ATOM      6  C6  N4B d   1      -1.008   3.094   1.686  0.00  0.00     0.002 A 
ENDROOT
BRANCH   1   7
ATOM      7  C1' N4B d   1       1.285   3.883   2.151  0.00  0.00     0.057 C 
BRANCH   7   8
ATOM      8  C2' N4B d   1       2.128   3.210   3.229  0.00  0.00     0.009 C 
BRANCH   8   9
ATOM      9  C3' N4B d   1       3.524   3.804   3.313  0.00  0.00     0.004 C 
ATOM     10  C4' N4B d   1       4.404   3.381   2.174  0.00  0.00     0.003 C 
ENDBRANCH   8   9
ENDBRANCH   7   8
ENDBRANCH   1   7
TORSDOF 3
ENDMDL
