MODEL 1
REMARK minimizedAffinity 4.7055521
REMARK minimizedRMSD -1
REMARK  3 active torsions:
REMARK  status: ('A' for Active; 'I' for Inactive)
REMARK    1  A    between atoms: C3'_2  and  C2'_3 
REMARK    2  A    between atoms: C2'_3  and  C1'_4 
REMARK    3  A    between atoms: C1'_4  and  C1_5 
ROOT
ATOM      1  C1  N4B d   1       1.398   3.393   3.250  0.00  0.00    -0.075 A 
ATOM      2  C2  N4B d   1       0.488   3.671   4.293  0.00  0.00     0.002 A 
ATOM      3  C3  N4B d   1      -0.859   3.484   4.098  0.00  0.00     0.002 A 
ATOM      4  C4  N4B d   1      -1.318   3.040   2.866  0.00  0.00    -0.004 A 
ATOM      5  C5  N4B d   1      -0.430   2.750   1.872  0.00  0.00     0.002 A 
ATOM      6  C6  N4B d   1       0.927   2.929   2.056  0.00  0.00     0.002 A 
ENDROOT
BRANCH   1   7
ATOM      7  C1' N4B d   1       2.871   3.664   3.389  0.00  0.00     0.057 C 
BRANCH   7   8
ATOM      8  C2' N4B d   1       3.631   2.849   2.346  0.00  0.00     0.009 C 
BRANCH   8   9
ATOM      9  C3' N4B d   1       4.925   3.525   1.929  0.00  0.00     0.004 C 
ATOM     10  C4' N4B d   1       5.992   3.435   2.980  0.00  0.00     0.003 C 
ENDBRANCH   8   9
ENDBRANCH   7   8
ENDBRANCH   1   7
TORSDOF 3
ENDMDL
