MODEL 1
REMARK minimizedAffinity 3.63266993
REMARK minimizedRMSD -1
REMARK  3 active torsions:
REMARK  status: ('A' for Active; 'I' for Inactive)
REMARK    1  A    between atoms: C3'_2  and  C2'_3 
REMARK    2  A    between atoms: C2'_3  and  C1'_4 
REMARK    3  A    between atoms: C1'_4  and  C1_5 
ROOT
ATOM      1  C1  N4B d   1      -0.650   2.930   1.894  0.00  0.00    -0.075 A 
ATOM      2  C2  N4B d   1       0.758   2.869   1.814  0.00  0.00     0.002 A 
ATOM      3  C3  N4B d   1       1.518   3.040   2.945  0.00  0.00     0.002 A 
ATOM      4  C4  N4B d   1       0.896   3.291   4.158  0.00  0.00    -0.004 A 
ATOM      5  C5  N4B d   1      -0.466   3.322   4.232  0.00  0.00     0.002 A 
ATOM      6  C6  N4B d   1      -1.243   3.148   3.104  0.00  0.00     0.002 A 
ENDROOT
BRANCH   1   7
ATOM      7  C1' N4B d   1      -1.520   2.835   0.670  0.00  0.00     0.057 C 
BRANCH   7   8
ATOM      8  C2' N4B d   1      -2.872   2.246   1.062  0.00  0.00     0.009 C 
BRANCH   8   9
ATOM      9  C3' N4B d   1      -3.057   0.838   0.522  0.00  0.00     0.004 C 
ATOM     10  C4' N4B d   1      -2.153  -0.160   1.182  0.00  0.00     0.003 C 
ENDBRANCH   8   9
ENDBRANCH   7   8
ENDBRANCH   1   7
TORSDOF 3
ENDMDL
