MODEL 1
REMARK minimizedAffinity -1.77444565
REMARK minimizedRMSD -1
REMARK  0 active torsions:
REMARK  status: ('A' for Active; 'I' for Inactive)
ROOT
ATOM      1  C   UNL d   1       1.954   0.767  -0.363  0.00  0.00     0.172 C 
ATOM      2  N   UNL d   1       0.851  -0.038   0.106  0.00  0.00    -0.070 N 
ATOM      3  C1  UNL d   1      -0.466   0.144  -0.222  0.00  0.00    -0.004 A 
ATOM      4  C2  UNL d   1      -1.200  -0.825   0.426  0.00  0.00    -0.047 A 
ATOM      5  C3  UNL d   1      -0.293  -1.617   1.170  0.00  0.00    -0.047 A 
ATOM      6  C4  UNL d   1       0.970  -1.107   0.953  0.00  0.00    -0.004 A 
ENDROOT
TORSDOF 0
ENDMDL
