MODEL 1
REMARK minimizedAffinity -2.97082567
REMARK minimizedRMSD -1
REMARK  0 active torsions:
REMARK  status: ('A' for Active; 'I' for Inactive)
ROOT
ATOM      1  C   UNL d   1      -2.409  -0.535   0.219  0.00  0.00     0.172 C 
ATOM      2  N   UNL d   1      -0.993  -0.642   0.482  0.00  0.00    -0.070 N 
ATOM      3  C1  UNL d   1      -0.415  -1.456   1.420  0.00  0.00    -0.004 A 
ATOM      4  C2  UNL d   1       0.949  -1.267   1.359  0.00  0.00    -0.047 A 
ATOM      5  C3  UNL d   1       1.199  -0.307   0.351  0.00  0.00    -0.047 A 
ATOM      6  C4  UNL d   1      -0.021   0.063  -0.176  0.00  0.00    -0.004 A 
ENDROOT
TORSDOF 0
ENDMDL
