MODEL 1
REMARK minimizedAffinity -3.6561172
REMARK minimizedRMSD -1
REMARK  0 active torsions:
REMARK  status: ('A' for Active; 'I' for Inactive)
ROOT
ATOM      1  C   UNL d   1       1.477  -0.138  -0.299  0.00  0.00     0.172 C 
ATOM      2  N   UNL d   1       0.160  -0.356   0.252  0.00  0.00    -0.070 N 
ATOM      3  C1  UNL d   1      -0.133  -1.142   1.335  0.00  0.00    -0.004 A 
ATOM      4  C2  UNL d   1      -1.494  -1.088   1.541  0.00  0.00    -0.047 A 
ATOM      5  C3  UNL d   1      -2.039  -0.240   0.547  0.00  0.00    -0.047 A 
ATOM      6  C4  UNL d   1      -0.993   0.199  -0.237  0.00  0.00    -0.004 A 
ENDROOT
TORSDOF 0
ENDMDL
