MODEL 1
REMARK minimizedAffinity -3.16916752
REMARK minimizedRMSD -1
REMARK  0 active torsions:
REMARK  status: ('A' for Active; 'I' for Inactive)
ROOT
ATOM      1  C   UNL d   1       1.162   0.275   0.522  0.00  0.00     0.172 C 
ATOM      2  N   UNL d   1       1.947   1.195   1.311  0.00  0.00    -0.070 N 
ATOM      3  C1  UNL d   1       2.081   2.537   1.073  0.00  0.00    -0.004 A 
ATOM      4  C2  UNL d   1       2.908   3.057   2.046  0.00  0.00    -0.047 A 
ATOM      5  C3  UNL d   1       3.285   1.990   2.896  0.00  0.00    -0.047 A 
ATOM      6  C4  UNL d   1       2.676   0.849   2.418  0.00  0.00    -0.004 A 
ENDROOT
TORSDOF 0
ENDMDL
