MODEL 1
REMARK minimizedAffinity -3.24169493
REMARK minimizedRMSD -1
REMARK  0 active torsions:
REMARK  status: ('A' for Active; 'I' for Inactive)
ROOT
ATOM      1  C   UNL d   1       1.623   0.176   0.754  0.00  0.00     0.172 C 
ATOM      2  N   UNL d   1       2.307   1.447   0.798  0.00  0.00    -0.070 N 
ATOM      3  C1  UNL d   1       2.292   2.326   1.848  0.00  0.00    -0.004 A 
ATOM      4  C2  UNL d   1       3.063   3.414   1.499  0.00  0.00    -0.047 A 
ATOM      5  C3  UNL d   1       3.557   3.181   0.194  0.00  0.00    -0.047 A 
ATOM      6  C4  UNL d   1       3.074   1.957  -0.217  0.00  0.00    -0.004 A 
ENDROOT
TORSDOF 0
ENDMDL
