MODEL 1
REMARK minimizedAffinity -2.156919
REMARK minimizedRMSD -1
REMARK  0 active torsions:
REMARK  status: ('A' for Active; 'I' for Inactive)
ROOT
ATOM      1  C   UNL d   1       0.340  -0.228   0.783  0.00  0.00     0.172 C 
ATOM      2  N   UNL d   1      -0.948  -0.473   0.177  0.00  0.00    -0.070 N 
ATOM      3  C1  UNL d   1      -1.183  -0.627  -1.164  0.00  0.00    -0.004 A 
ATOM      4  C2  UNL d   1      -2.534  -0.843  -1.333  0.00  0.00    -0.047 A 
ATOM      5  C3  UNL d   1      -3.131  -0.817  -0.050  0.00  0.00    -0.047 A 
ATOM      6  C4  UNL d   1      -2.126  -0.586   0.866  0.00  0.00    -0.004 A 
ENDROOT
TORSDOF 0
ENDMDL
