MODEL 1
REMARK minimizedAffinity -3.80520964
REMARK minimizedRMSD -1
REMARK  0 active torsions:
REMARK  status: ('A' for Active; 'I' for Inactive)
ROOT
ATOM      1  C   UNL d   1       0.531   0.248   0.350  0.00  0.00     0.172 C 
ATOM      2  N   UNL d   1      -0.850  -0.140   0.181  0.00  0.00    -0.070 N 
ATOM      3  C1  UNL d   1      -1.456  -0.433  -1.011  0.00  0.00    -0.004 A 
ATOM      4  C2  UNL d   1      -2.770  -0.756  -0.748  0.00  0.00    -0.047 A 
ATOM      5  C3  UNL d   1      -2.960  -0.651   0.651  0.00  0.00    -0.047 A 
ATOM      6  C4  UNL d   1      -1.755  -0.268   1.201  0.00  0.00    -0.004 A 
ENDROOT
TORSDOF 0
ENDMDL
