MODEL 1
REMARK minimizedAffinity -3.29406548
REMARK minimizedRMSD -1
REMARK  0 active torsions:
REMARK  status: ('A' for Active; 'I' for Inactive)
ROOT
ATOM      1  C   UNL d   1       2.857  -0.244  -1.483  0.00  0.00     0.172 C 
ATOM      2  N   UNL d   1       1.627  -0.386  -0.740  0.00  0.00    -0.070 N 
ATOM      3  C1  UNL d   1       1.526  -0.750   0.576  0.00  0.00    -0.004 A 
ATOM      4  C2  UNL d   1       0.189  -0.770   0.908  0.00  0.00    -0.047 A 
ATOM      5  C3  UNL d   1      -0.540  -0.408  -0.250  0.00  0.00    -0.047 A 
ATOM      6  C4  UNL d   1       0.375  -0.175  -1.255  0.00  0.00    -0.004 A 
ENDROOT
TORSDOF 0
ENDMDL
