MODEL 1
REMARK minimizedAffinity -1.46041334
REMARK minimizedRMSD -1
REMARK  0 active torsions:
REMARK  status: ('A' for Active; 'I' for Inactive)
ROOT
ATOM      1  C   UNL d   1       4.244   4.444  -0.597  0.00  0.00     0.172 C 
ATOM      2  N   UNL d   1       3.630   3.663   0.451  0.00  0.00    -0.070 N 
ATOM      3  C1  UNL d   1       3.180   4.150   1.649  0.00  0.00    -0.004 A 
ATOM      4  C2  UNL d   1       2.664   3.093   2.367  0.00  0.00    -0.047 A 
ATOM      5  C3  UNL d   1       2.810   1.930   1.573  0.00  0.00    -0.047 A 
ATOM      6  C4  UNL d   1       3.411   2.312   0.393  0.00  0.00    -0.004 A 
ENDROOT
TORSDOF 0
ENDMDL
