MODEL 1
REMARK minimizedAffinity 0.995396018
REMARK minimizedRMSD -1
REMARK  0 active torsions:
REMARK  status: ('A' for Active; 'I' for Inactive)
ROOT
ATOM      1  C   UNL d   1       0.900   0.735  -0.064  0.00  0.00     0.172 C 
ATOM      2  N   UNL d   1       0.214  -0.302   0.670  0.00  0.00    -0.070 N 
ATOM      3  C1  UNL d   1       0.780  -1.459   1.134  0.00  0.00    -0.004 A 
ATOM      4  C2  UNL d   1      -0.201  -2.180   1.780  0.00  0.00    -0.047 A 
ATOM      5  C3  UNL d   1      -1.399  -1.430   1.701  0.00  0.00    -0.047 A 
ATOM      6  C4  UNL d   1      -1.113  -0.272   1.009  0.00  0.00    -0.004 A 
ENDROOT
TORSDOF 0
ENDMDL
