MODEL 1
REMARK minimizedAffinity -0.824755669
REMARK minimizedRMSD -1
REMARK  0 active torsions:
REMARK  status: ('A' for Active; 'I' for Inactive)
ROOT
ATOM      1  C   UNL d   1       2.036   0.855   0.796  0.00  0.00     0.172 C 
ATOM      2  N   UNL d   1       0.933  -0.008   1.147  0.00  0.00    -0.070 N 
ATOM      3  C1  UNL d   1       1.033  -1.199   1.816  0.00  0.00    -0.004 A 
ATOM      4  C2  UNL d   1      -0.239  -1.712   1.956  0.00  0.00    -0.047 A 
ATOM      5  C3  UNL d   1      -1.133  -0.798   1.350  0.00  0.00    -0.047 A 
ATOM      6  C4  UNL d   1      -0.381   0.248   0.858  0.00  0.00    -0.004 A 
ENDROOT
TORSDOF 0
ENDMDL
