MODEL 1
REMARK minimizedAffinity -3.49765038
REMARK minimizedRMSD -1
REMARK  0 active torsions:
REMARK  status: ('A' for Active; 'I' for Inactive)
ROOT
ATOM      1  C   UNL d   1       0.381  -0.140   0.298  0.00  0.00     0.172 C 
ATOM      2  N   UNL d   1      -1.013  -0.321  -0.030  0.00  0.00    -0.070 N 
ATOM      3  C1  UNL d   1      -1.573  -0.139  -1.266  0.00  0.00    -0.004 A 
ATOM      4  C2  UNL d   1      -2.921  -0.411  -1.163  0.00  0.00    -0.047 A 
ATOM      5  C3  UNL d   1      -3.179  -0.768   0.181  0.00  0.00    -0.047 A 
ATOM      6  C4  UNL d   1      -1.981  -0.704   0.861  0.00  0.00    -0.004 A 
ENDROOT
TORSDOF 0
ENDMDL
