MODEL 1
REMARK minimizedAffinity -2.26558638
REMARK minimizedRMSD -1
REMARK  0 active torsions:
REMARK  status: ('A' for Active; 'I' for Inactive)
ROOT
ATOM      1  C   UNL d   1       1.164   0.309  -0.004  0.00  0.00     0.172 C 
ATOM      2  N   UNL d   1      -0.086  -0.075  -0.617  0.00  0.00    -0.070 N 
ATOM      3  C1  UNL d   1      -1.174  -0.583   0.041  0.00  0.00    -0.004 A 
ATOM      4  C2  UNL d   1      -2.159  -0.819  -0.894  0.00  0.00    -0.047 A 
ATOM      5  C3  UNL d   1      -1.645  -0.441  -2.157  0.00  0.00    -0.047 A 
ATOM      6  C4  UNL d   1      -0.359   0.016  -1.956  0.00  0.00    -0.004 A 
ENDROOT
TORSDOF 0
ENDMDL
