MODEL 1
REMARK minimizedAffinity -0.252788574
REMARK minimizedRMSD -1
REMARK  0 active torsions:
REMARK  status: ('A' for Active; 'I' for Inactive)
ROOT
ATOM      1  C   UNL d   1       1.372   0.188   0.003  0.00  0.00     0.172 C 
ATOM      2  N   UNL d   1       1.742  -0.150  -1.351  0.00  0.00    -0.070 N 
ATOM      3  C1  UNL d   1       0.889  -0.207  -2.421  0.00  0.00    -0.004 A 
ATOM      4  C2  UNL d   1       1.626  -0.562  -3.530  0.00  0.00    -0.047 A 
ATOM      5  C3  UNL d   1       2.968  -0.725  -3.112  0.00  0.00    -0.047 A 
ATOM      6  C4  UNL d   1       3.012  -0.464  -1.759  0.00  0.00    -0.004 A 
ENDROOT
TORSDOF 0
ENDMDL
