MODEL 1
REMARK minimizedAffinity -3.1202352
REMARK minimizedRMSD -1
REMARK  0 active torsions:
REMARK  status: ('A' for Active; 'I' for Inactive)
ROOT
ATOM      1  C   UNL d   1       1.519  -0.288  -1.941  0.00  0.00     0.172 C 
ATOM      2  N   UNL d   1       0.432  -0.485  -1.011  0.00  0.00    -0.070 N 
ATOM      3  C1  UNL d   1       0.564  -0.736   0.328  0.00  0.00    -0.004 A 
ATOM      4  C2  UNL d   1      -0.701  -0.861   0.860  0.00  0.00    -0.047 A 
ATOM      5  C3  UNL d   1      -1.625  -0.680  -0.197  0.00  0.00    -0.047 A 
ATOM      6  C4  UNL d   1      -0.896  -0.449  -1.344  0.00  0.00    -0.004 A 
ENDROOT
TORSDOF 0
ENDMDL
