MODEL 1
REMARK minimizedAffinity -3.80356359
REMARK minimizedRMSD -1
REMARK  0 active torsions:
REMARK  status: ('A' for Active; 'I' for Inactive)
ROOT
ATOM      1  C   UNL d   1       0.478   0.426   0.030  0.00  0.00     0.172 C 
ATOM      2  N   UNL d   1      -0.764  -0.288  -0.150  0.00  0.00    -0.070 N 
ATOM      3  C1  UNL d   1      -1.414  -0.471  -1.341  0.00  0.00    -0.004 A 
ATOM      4  C2  UNL d   1      -2.556  -1.201  -1.091  0.00  0.00    -0.047 A 
ATOM      5  C3  UNL d   1      -2.594  -1.465   0.299  0.00  0.00    -0.047 A 
ATOM      6  C4  UNL d   1      -1.472  -0.888   0.857  0.00  0.00    -0.004 A 
ENDROOT
TORSDOF 0
ENDMDL
