MODEL 1
REMARK minimizedAffinity -1.62849998
REMARK minimizedRMSD -1
REMARK  0 active torsions:
REMARK  status: ('A' for Active; 'I' for Inactive)
ROOT
ATOM      1  C   UNL d   1       4.085   4.193  -0.777  0.00  0.00     0.172 C 
ATOM      2  N   UNL d   1       3.474   3.662   0.419  0.00  0.00    -0.070 N 
ATOM      3  C1  UNL d   1       3.594   2.376   0.873  0.00  0.00    -0.004 A 
ATOM      4  C2  UNL d   1       2.865   2.270   2.038  0.00  0.00    -0.047 A 
ATOM      5  C3  UNL d   1       2.287   3.536   2.292  0.00  0.00    -0.047 A 
ATOM      6  C4  UNL d   1       2.680   4.379   1.274  0.00  0.00    -0.004 A 
ENDROOT
TORSDOF 0
ENDMDL
