MODEL 1
REMARK minimizedAffinity -3.70416641
REMARK minimizedRMSD -1
REMARK  0 active torsions:
REMARK  status: ('A' for Active; 'I' for Inactive)
ROOT
ATOM      1  C   UNL d   1      -2.297   1.878   1.200  0.00  0.00     0.172 C 
ATOM      2  N   UNL d   1      -1.254   0.985   0.753  0.00  0.00    -0.070 N 
ATOM      3  C1  UNL d   1      -0.731  -0.056   1.472  0.00  0.00    -0.004 A 
ATOM      4  C2  UNL d   1       0.238  -0.659   0.698  0.00  0.00    -0.047 A 
ATOM      5  C3  UNL d   1       0.300   0.045  -0.527  0.00  0.00    -0.047 A 
ATOM      6  C4  UNL d   1      -0.634   1.058  -0.467  0.00  0.00    -0.004 A 
ENDROOT
TORSDOF 0
ENDMDL
