MODEL 1
REMARK minimizedAffinity -3.59279013
REMARK minimizedRMSD -1
REMARK  0 active torsions:
REMARK  status: ('A' for Active; 'I' for Inactive)
ROOT
ATOM      1  C   UNL d   1       0.697  -0.277  -0.694  0.00  0.00     0.172 C 
ATOM      2  N   UNL d   1      -0.336   0.351   0.095  0.00  0.00    -0.070 N 
ATOM      3  C1  UNL d   1      -0.621   0.072   1.405  0.00  0.00    -0.004 A 
ATOM      4  C2  UNL d   1      -1.668   0.881   1.791  0.00  0.00    -0.047 A 
ATOM      5  C3  UNL d   1      -2.024   1.674   0.674  0.00  0.00    -0.047 A 
ATOM      6  C4  UNL d   1      -1.184   1.325  -0.362  0.00  0.00    -0.004 A 
ENDROOT
TORSDOF 0
ENDMDL
