MODEL 1
REMARK minimizedAffinity -3.26932836
REMARK minimizedRMSD -1
REMARK  0 active torsions:
REMARK  status: ('A' for Active; 'I' for Inactive)
ROOT
ATOM      1  C   UNL d   1       0.418  -0.245  -0.893  0.00  0.00     0.172 C 
ATOM      2  N   UNL d   1      -0.499   0.514  -0.075  0.00  0.00    -0.070 N 
ATOM      3  C1  UNL d   1      -0.389   0.709   1.276  0.00  0.00    -0.004 A 
ATOM      4  C2  UNL d   1      -1.456   1.483   1.679  0.00  0.00    -0.047 A 
ATOM      5  C3  UNL d   1      -2.235   1.761   0.530  0.00  0.00    -0.047 A 
ATOM      6  C4  UNL d   1      -1.620   1.149  -0.541  0.00  0.00    -0.004 A 
ENDROOT
TORSDOF 0
ENDMDL
