MODEL 1
REMARK minimizedAffinity -3.64050841
REMARK minimizedRMSD -1
REMARK  0 active torsions:
REMARK  status: ('A' for Active; 'I' for Inactive)
ROOT
ATOM      1  C   UNL d   1       0.702  -0.012  -0.563  0.00  0.00     0.172 C 
ATOM      2  N   UNL d   1      -0.404   0.593   0.142  0.00  0.00    -0.070 N 
ATOM      3  C1  UNL d   1      -1.576   1.016  -0.425  0.00  0.00    -0.004 A 
ATOM      4  C2  UNL d   1      -2.368   1.531   0.579  0.00  0.00    -0.047 A 
ATOM      5  C3  UNL d   1      -1.647   1.414   1.790  0.00  0.00    -0.047 A 
ATOM      6  C4  UNL d   1      -0.434   0.830   1.491  0.00  0.00    -0.004 A 
ENDROOT
TORSDOF 0
ENDMDL
