MODEL 1
REMARK minimizedAffinity -4.01034355
REMARK minimizedRMSD -1
REMARK  0 active torsions:
REMARK  status: ('A' for Active; 'I' for Inactive)
ROOT
ATOM      1  C   UNL d   1       0.385  -0.773  -0.483  0.00  0.00     0.172 C 
ATOM      2  N   UNL d   1      -0.451   0.104   0.303  0.00  0.00    -0.070 N 
ATOM      3  C1  UNL d   1      -1.091   1.223  -0.160  0.00  0.00    -0.004 A 
ATOM      4  C2  UNL d   1      -1.783   1.779   0.894  0.00  0.00    -0.047 A 
ATOM      5  C3  UNL d   1      -1.550   0.967   2.030  0.00  0.00    -0.047 A 
ATOM      6  C4  UNL d   1      -0.723  -0.062   1.635  0.00  0.00    -0.004 A 
ENDROOT
TORSDOF 0
ENDMDL
