MODEL 1
REMARK minimizedAffinity -2.13629746
REMARK minimizedRMSD -1
REMARK  0 active torsions:
REMARK  status: ('A' for Active; 'I' for Inactive)
ROOT
ATOM      1  C   UNL d   1      -2.256   1.440   1.498  0.00  0.00     0.172 C 
ATOM      2  N   UNL d   1      -1.167   0.778   0.818  0.00  0.00    -0.070 N 
ATOM      3  C1  UNL d   1      -0.366  -0.195   1.353  0.00  0.00    -0.004 A 
ATOM      4  C2  UNL d   1       0.547  -0.567   0.390  0.00  0.00    -0.047 A 
ATOM      5  C3  UNL d   1       0.286   0.211  -0.763  0.00  0.00    -0.047 A 
ATOM      6  C4  UNL d   1      -0.780   1.035  -0.470  0.00  0.00    -0.004 A 
ENDROOT
TORSDOF 0
ENDMDL
