MODEL 1
REMARK minimizedAffinity -3.96723247
REMARK minimizedRMSD -1
REMARK  0 active torsions:
REMARK  status: ('A' for Active; 'I' for Inactive)
ROOT
ATOM      1  C   UNL d   1      -1.803  -0.544   2.087  0.00  0.00     0.172 C 
ATOM      2  N   UNL d   1      -1.342   0.472   1.170  0.00  0.00    -0.070 N 
ATOM      3  C1  UNL d   1      -0.442   0.283   0.156  0.00  0.00    -0.004 A 
ATOM      4  C2  UNL d   1      -0.269   1.491  -0.485  0.00  0.00    -0.047 A 
ATOM      5  C3  UNL d   1      -1.093   2.439   0.167  0.00  0.00    -0.047 A 
ATOM      6  C4  UNL d   1      -1.746   1.781   1.188  0.00  0.00    -0.004 A 
ENDROOT
TORSDOF 0
ENDMDL
