MODEL 1
REMARK minimizedAffinity -4.05127287
REMARK minimizedRMSD -1
REMARK  0 active torsions:
REMARK  status: ('A' for Active; 'I' for Inactive)
ROOT
ATOM      1  C   UNL d   1       0.716  -0.799  -0.374  0.00  0.00     0.172 C 
ATOM      2  N   UNL d   1      -0.210  -0.073   0.462  0.00  0.00    -0.070 N 
ATOM      3  C1  UNL d   1      -1.006   0.966   0.058  0.00  0.00    -0.004 A 
ATOM      4  C2  UNL d   1      -1.740   1.384   1.147  0.00  0.00    -0.047 A 
ATOM      5  C3  UNL d   1      -1.372   0.569   2.244  0.00  0.00    -0.047 A 
ATOM      6  C4  UNL d   1      -0.424  -0.324   1.792  0.00  0.00    -0.004 A 
ENDROOT
TORSDOF 0
ENDMDL
