MODEL 1
REMARK minimizedAffinity -3.76643062
REMARK minimizedRMSD -1
REMARK  0 active torsions:
REMARK  status: ('A' for Active; 'I' for Inactive)
ROOT
ATOM      1  C   UNL d   1      -0.091  -0.753  -0.698  0.00  0.00     0.172 C 
ATOM      2  N   UNL d   1      -0.756   0.253   0.097  0.00  0.00    -0.070 N 
ATOM      3  C1  UNL d   1      -1.719   1.117  -0.351  0.00  0.00    -0.004 A 
ATOM      4  C2  UNL d   1      -2.097   1.913   0.709  0.00  0.00    -0.047 A 
ATOM      5  C3  UNL d   1      -1.334   1.514   1.832  0.00  0.00    -0.047 A 
ATOM      6  C4  UNL d   1      -0.512   0.485   1.425  0.00  0.00    -0.004 A 
ENDROOT
TORSDOF 0
ENDMDL
