MODEL 1
REMARK minimizedAffinity -3.59253764
REMARK minimizedRMSD -1
REMARK  0 active torsions:
REMARK  status: ('A' for Active; 'I' for Inactive)
ROOT
ATOM      1  C   UNL d   1       0.851   0.355  -0.986  0.00  0.00     0.172 C 
ATOM      2  N   UNL d   1      -0.149   0.652   0.013  0.00  0.00    -0.070 N 
ATOM      3  C1  UNL d   1      -0.449  -0.128   1.098  0.00  0.00    -0.004 A 
ATOM      4  C2  UNL d   1      -1.453   0.500   1.804  0.00  0.00    -0.047 A 
ATOM      5  C3  UNL d   1      -1.768   1.697   1.119  0.00  0.00    -0.047 A 
ATOM      6  C4  UNL d   1      -0.946   1.766   0.014  0.00  0.00    -0.004 A 
ENDROOT
TORSDOF 0
ENDMDL
