MODEL 1
REMARK minimizedAffinity -2.53427172
REMARK minimizedRMSD -1
REMARK  0 active torsions:
REMARK  status: ('A' for Active; 'I' for Inactive)
ROOT
ATOM      1  C   UNL d   1      -0.495   2.271  -1.435  0.00  0.00     0.172 C 
ATOM      2  N   UNL d   1      -0.269   1.042  -0.712  0.00  0.00    -0.070 N 
ATOM      3  C1  UNL d   1       0.581   0.037  -1.091  0.00  0.00    -0.004 A 
ATOM      4  C2  UNL d   1       0.512  -0.956  -0.138  0.00  0.00    -0.047 A 
ATOM      5  C3  UNL d   1      -0.413  -0.534   0.847  0.00  0.00    -0.047 A 
ATOM      6  C4  UNL d   1      -0.881   0.706   0.467  0.00  0.00    -0.004 A 
ENDROOT
TORSDOF 0
ENDMDL
