MODEL 1
REMARK minimizedAffinity -4.13703585
REMARK minimizedRMSD -1
REMARK  0 active torsions:
REMARK  status: ('A' for Active; 'I' for Inactive)
ROOT
ATOM      1  C   UNL d   1       0.599  -0.731  -0.478  0.00  0.00     0.172 C 
ATOM      2  N   UNL d   1      -0.277   0.109   0.305  0.00  0.00    -0.070 N 
ATOM      3  C1  UNL d   1      -0.759   1.333  -0.075  0.00  0.00    -0.004 A 
ATOM      4  C2  UNL d   1      -1.555   1.808   0.944  0.00  0.00    -0.047 A 
ATOM      5  C3  UNL d   1      -1.551   0.836   1.973  0.00  0.00    -0.047 A 
ATOM      6  C4  UNL d   1      -0.752  -0.205   1.551  0.00  0.00    -0.004 A 
ENDROOT
TORSDOF 0
ENDMDL
