MODEL 1
REMARK minimizedAffinity -3.54795933
REMARK minimizedRMSD -1
REMARK  0 active torsions:
REMARK  status: ('A' for Active; 'I' for Inactive)
ROOT
ATOM      1  C   UNL d   1       0.255  -0.679  -0.501  0.00  0.00     0.172 C 
ATOM      2  N   UNL d   1      -0.496   0.137   0.425  0.00  0.00    -0.070 N 
ATOM      3  C1  UNL d   1      -1.252   1.229   0.095  0.00  0.00    -0.004 A 
ATOM      4  C2  UNL d   1      -1.805   1.726   1.256  0.00  0.00    -0.047 A 
ATOM      5  C3  UNL d   1      -1.365   0.904   2.320  0.00  0.00    -0.047 A 
ATOM      6  C4  UNL d   1      -0.556  -0.072   1.778  0.00  0.00    -0.004 A 
ENDROOT
TORSDOF 0
ENDMDL
