MODEL 1
REMARK minimizedAffinity -3.47193575
REMARK minimizedRMSD -1
REMARK  0 active torsions:
REMARK  status: ('A' for Active; 'I' for Inactive)
ROOT
ATOM      1  C   UNL d   1      -0.261  -0.895  -0.629  0.00  0.00     0.172 C 
ATOM      2  N   UNL d   1      -0.823   0.060   0.297  0.00  0.00    -0.070 N 
ATOM      3  C1  UNL d   1      -0.589   0.098   1.646  0.00  0.00    -0.004 A 
ATOM      4  C2  UNL d   1      -1.306   1.153   2.169  0.00  0.00    -0.047 A 
ATOM      5  C3  UNL d   1      -1.994   1.770   1.097  0.00  0.00    -0.047 A 
ATOM      6  C4  UNL d   1      -1.677   1.074  -0.050  0.00  0.00    -0.004 A 
ENDROOT
TORSDOF 0
ENDMDL
