MODEL 1
REMARK minimizedAffinity -2.92293286
REMARK minimizedRMSD -1
REMARK  0 active torsions:
REMARK  status: ('A' for Active; 'I' for Inactive)
ROOT
ATOM      1  C   UNL d   1       0.267  -0.466  -0.567  0.00  0.00     0.172 C 
ATOM      2  N   UNL d   1      -0.352   0.232   0.535  0.00  0.00    -0.070 N 
ATOM      3  C1  UNL d   1      -1.105  -0.344   1.523  0.00  0.00    -0.004 A 
ATOM      4  C2  UNL d   1      -1.511   0.656   2.381  0.00  0.00    -0.047 A 
ATOM      5  C3  UNL d   1      -0.984   1.874   1.892  0.00  0.00    -0.047 A 
ATOM      6  C4  UNL d   1      -0.270   1.583   0.748  0.00  0.00    -0.004 A 
ENDROOT
TORSDOF 0
ENDMDL
