MODEL 1
REMARK minimizedAffinity -3.14618587
REMARK minimizedRMSD -1
REMARK  0 active torsions:
REMARK  status: ('A' for Active; 'I' for Inactive)
ROOT
ATOM      1  C   UNL d   1      -1.972   1.605   1.093  0.00  0.00     0.172 C 
ATOM      2  N   UNL d   1      -0.864   0.910   0.483  0.00  0.00    -0.070 N 
ATOM      3  C1  UNL d   1      -0.241  -0.200   0.989  0.00  0.00    -0.004 A 
ATOM      4  C2  UNL d   1       0.762  -0.557   0.114  0.00  0.00    -0.047 A 
ATOM      5  C3  UNL d   1       0.742   0.371  -0.955  0.00  0.00    -0.047 A 
ATOM      6  C4  UNL d   1      -0.274   1.268  -0.701  0.00  0.00    -0.004 A 
ENDROOT
TORSDOF 0
ENDMDL
