MODEL 1
REMARK minimizedAffinity 3.78564143
REMARK minimizedRMSD -1
REMARK  0 active torsions:
REMARK  status: ('A' for Active; 'I' for Inactive)
ROOT
ATOM      1  C1  BNZ d   1       2.640  -4.703   1.653  0.00  0.00     0.000 A 
ATOM      2  C2  BNZ d   1       1.636  -3.995   1.047  0.00  0.00     0.000 A 
ATOM      3  C3  BNZ d   1       1.316  -2.735   1.469  0.00  0.00     0.000 A 
ATOM      4  C4  BNZ d   1       1.971  -2.200   2.519  0.00  0.00     0.000 A 
ATOM      5  C5  BNZ d   1       2.979  -2.905   3.147  0.00  0.00     0.000 A 
ATOM      6  C6  BNZ d   1       3.325  -4.158   2.695  0.00  0.00     0.000 A 
ENDROOT
TORSDOF 0
ENDMDL
