MODEL 1
REMARK minimizedAffinity 3.25461578
REMARK minimizedRMSD -1
REMARK  0 active torsions:
REMARK  status: ('A' for Active; 'I' for Inactive)
ROOT
ATOM      1  C1  BNZ d   1       2.310  -4.978   0.961  0.00  0.00     0.000 A 
ATOM      2  C2  BNZ d   1       1.142  -4.280   0.806  0.00  0.00     0.000 A 
ATOM      3  C3  BNZ d   1       1.012  -3.013   1.301  0.00  0.00     0.000 A 
ATOM      4  C4  BNZ d   1       2.034  -2.461   1.986  0.00  0.00     0.000 A 
ATOM      5  C5  BNZ d   1       3.215  -3.155   2.159  0.00  0.00     0.000 A 
ATOM      6  C6  BNZ d   1       3.356  -4.415   1.625  0.00  0.00     0.000 A 
ENDROOT
TORSDOF 0
ENDMDL
