MODEL 1
REMARK minimizedAffinity 1.13625216
REMARK minimizedRMSD -1
REMARK  0 active torsions:
REMARK  status: ('A' for Active; 'I' for Inactive)
ROOT
ATOM      1  C1  BNZ d   1       5.047   1.802  -4.511  0.00  0.00     0.000 A 
ATOM      2  C2  BNZ d   1       5.974   1.135  -3.756  0.00  0.00     0.000 A 
ATOM      3  C3  BNZ d   1       5.999  -0.232  -3.725  0.00  0.00     0.000 A 
ATOM      4  C4  BNZ d   1       5.074  -0.928  -4.416  0.00  0.00     0.000 A 
ATOM      5  C5  BNZ d   1       4.127  -0.269  -5.175  0.00  0.00     0.000 A 
ATOM      6  C6  BNZ d   1       4.129   1.105  -5.235  0.00  0.00     0.000 A 
ENDROOT
TORSDOF 0
ENDMDL
