MODEL 1
REMARK minimizedAffinity 3.34182143
REMARK minimizedRMSD -1
REMARK  0 active torsions:
REMARK  status: ('A' for Active; 'I' for Inactive)
ROOT
ATOM      1  C1  BNZ d   1       4.041  -3.749   1.497  0.00  0.00     0.000 A 
ATOM      2  C2  BNZ d   1       3.458  -2.613   1.992  0.00  0.00     0.000 A 
ATOM      3  C3  BNZ d   1       2.098  -2.495   2.055  0.00  0.00     0.000 A 
ATOM      4  C4  BNZ d   1       1.323  -3.494   1.586  0.00  0.00     0.000 A 
ATOM      5  C5  BNZ d   1       1.896  -4.642   1.075  0.00  0.00     0.000 A 
ATOM      6  C6  BNZ d   1       3.265  -4.774   1.049  0.00  0.00     0.000 A 
ENDROOT
TORSDOF 0
ENDMDL
