MODEL 1
REMARK minimizedAffinity 4.45612907
REMARK minimizedRMSD -1
REMARK  0 active torsions:
REMARK  status: ('A' for Active; 'I' for Inactive)
ROOT
ATOM      1  C1  BNZ d   1      -0.276   4.885  -3.350  0.00  0.00     0.000 A 
ATOM      2  C2  BNZ d   1       0.039   3.648  -2.854  0.00  0.00     0.000 A 
ATOM      3  C3  BNZ d   1      -0.942   2.764  -2.501  0.00  0.00     0.000 A 
ATOM      4  C4  BNZ d   1      -2.235   3.133  -2.606  0.00  0.00     0.000 A 
ATOM      5  C5  BNZ d   1      -2.569   4.380  -3.095  0.00  0.00     0.000 A 
ATOM      6  C6  BNZ d   1      -1.580   5.252  -3.486  0.00  0.00     0.000 A 
ENDROOT
TORSDOF 0
ENDMDL
