MODEL 1
REMARK minimizedAffinity -0.786941946
REMARK minimizedRMSD -1
REMARK  0 active torsions:
REMARK  status: ('A' for Active; 'I' for Inactive)
ROOT
ATOM      1  C1  BNZ d   1       5.956   1.239  -3.320  0.00  0.00     0.000 A 
ATOM      2  C2  BNZ d   1       6.000  -0.129  -3.291  0.00  0.00     0.000 A 
ATOM      3  C3  BNZ d   1       5.890  -0.858  -4.442  0.00  0.00     0.000 A 
ATOM      4  C4  BNZ d   1       5.697  -0.220  -5.614  0.00  0.00     0.000 A 
ATOM      5  C5  BNZ d   1       5.641   1.159  -5.659  0.00  0.00     0.000 A 
ATOM      6  C6  BNZ d   1       5.791   1.890  -4.504  0.00  0.00     0.000 A 
ENDROOT
TORSDOF 0
ENDMDL
