MODEL 1
REMARK minimizedAffinity 0.852090359
REMARK minimizedRMSD -1
REMARK  0 active torsions:
REMARK  status: ('A' for Active; 'I' for Inactive)
ROOT
ATOM      1  C1  BNZ d   1       2.604  -2.616   0.464  0.00  0.00     0.000 A 
ATOM      2  C2  BNZ d   1       1.757  -1.750   1.103  0.00  0.00     0.000 A 
ATOM      3  C3  BNZ d   1       0.846  -2.207   2.015  0.00  0.00     0.000 A 
ATOM      4  C4  BNZ d   1       0.757  -3.531   2.256  0.00  0.00     0.000 A 
ATOM      5  C5  BNZ d   1       1.598  -4.417   1.613  0.00  0.00     0.000 A 
ATOM      6  C6  BNZ d   1       2.540  -3.949   0.725  0.00  0.00     0.000 A 
ENDROOT
TORSDOF 0
ENDMDL
