MODEL 1
REMARK minimizedAffinity 2.61482358
REMARK minimizedRMSD -1
REMARK  0 active torsions:
REMARK  status: ('A' for Active; 'I' for Inactive)
ROOT
ATOM      1  C1  BNZ d   1       6.000   1.107  -4.324  0.00  0.00     0.000 A 
ATOM      2  C2  BNZ d   1       5.987   0.244  -5.387  0.00  0.00     0.000 A 
ATOM      3  C3  BNZ d   1       5.956  -1.109  -5.190  0.00  0.00     0.000 A 
ATOM      4  C4  BNZ d   1       5.978  -1.596  -3.933  0.00  0.00     0.000 A 
ATOM      5  C5  BNZ d   1       6.000  -0.739  -2.851  0.00  0.00     0.000 A 
ATOM      6  C6  BNZ d   1       5.992   0.622  -3.052  0.00  0.00     0.000 A 
ENDROOT
TORSDOF 0
ENDMDL
