MODEL 1
REMARK minimizedAffinity 4.27960443
REMARK minimizedRMSD -1
REMARK  0 active torsions:
REMARK  status: ('A' for Active; 'I' for Inactive)
ROOT
ATOM      1  C1  BNZ d   1       2.160   1.504  -1.086  0.00  0.00     0.000 A 
ATOM      2  C2  BNZ d   1       1.330   2.508  -1.508  0.00  0.00     0.000 A 
ATOM      3  C3  BNZ d   1       0.540   2.345  -2.612  0.00  0.00     0.000 A 
ATOM      4  C4  BNZ d   1       0.611   1.195  -3.314  0.00  0.00     0.000 A 
ATOM      5  C5  BNZ d   1       1.451   0.178  -2.906  0.00  0.00     0.000 A 
ATOM      6  C6  BNZ d   1       2.215   0.331  -1.772  0.00  0.00     0.000 A 
ENDROOT
TORSDOF 0
ENDMDL
