MODEL 1
REMARK minimizedAffinity 2.36133957
REMARK minimizedRMSD -1
REMARK  0 active torsions:
REMARK  status: ('A' for Active; 'I' for Inactive)
ROOT
ATOM      1  C1  BNZ d   1      -4.547   3.777  -3.176  0.00  0.00     0.000 A 
ATOM      2  C2  BNZ d   1      -5.547   4.528  -3.733  0.00  0.00     0.000 A 
ATOM      3  C3  BNZ d   1      -5.710   4.580  -5.089  0.00  0.00     0.000 A 
ATOM      4  C4  BNZ d   1      -4.850   3.914  -5.887  0.00  0.00     0.000 A 
ATOM      5  C5  BNZ d   1      -3.831   3.160  -5.340  0.00  0.00     0.000 A 
ATOM      6  C6  BNZ d   1      -3.694   3.079  -3.973  0.00  0.00     0.000 A 
ENDROOT
TORSDOF 0
ENDMDL
