MODEL 1
REMARK minimizedAffinity 3.78765821
REMARK minimizedRMSD -1
REMARK  0 active torsions:
REMARK  status: ('A' for Active; 'I' for Inactive)
ROOT
ATOM      1  C   UNL d   1       1.483  -1.125   3.760  0.00  0.00     0.077 C 
ATOM      2  C1  UNL d   1       0.493  -1.032   2.637  0.00  0.00    -0.074 A 
ATOM      3  C2  UNL d   1       0.481  -1.980   1.608  0.00  0.00    -0.005 A 
ATOM      4  C3  UNL d   1      -0.452  -1.885   0.576  0.00  0.00     0.006 A 
ATOM      5  C4  UNL d   1      -1.381  -0.845   0.562  0.00  0.00    -0.005 A 
ATOM      6  C5  UNL d   1      -1.386   0.111   1.583  0.00  0.00    -0.074 A 
ATOM      7  C6  UNL d   1      -2.385   1.230   1.588  0.00  0.00     0.077 C 
ATOM      8  C7  UNL d   1      -0.450   0.006   2.620  0.00  0.00    -0.001 A 
ENDROOT
TORSDOF 0
ENDMDL
