MODEL 1
REMARK minimizedAffinity 0.34335652
REMARK minimizedRMSD -1
REMARK  0 active torsions:
REMARK  status: ('A' for Active; 'I' for Inactive)
ROOT
ATOM      1  C   UNL d   1      -0.975  -2.020  -1.170  0.00  0.00     0.077 C 
ATOM      2  C1  UNL d   1      -0.745  -1.852  -2.643  0.00  0.00    -0.074 A 
ATOM      3  C2  UNL d   1      -0.233  -2.900  -3.414  0.00  0.00    -0.005 A 
ATOM      4  C3  UNL d   1      -0.033  -2.732  -4.785  0.00  0.00     0.006 A 
ATOM      5  C4  UNL d   1      -0.342  -1.517  -5.396  0.00  0.00    -0.005 A 
ATOM      6  C5  UNL d   1      -0.856  -0.458  -4.641  0.00  0.00    -0.074 A 
ATOM      7  C6  UNL d   1      -1.202   0.852  -5.284  0.00  0.00     0.077 C 
ATOM      8  C7  UNL d   1      -1.060  -0.636  -3.266  0.00  0.00    -0.001 A 
ENDROOT
TORSDOF 0
ENDMDL
