MODEL 1
REMARK minimizedAffinity 4.98130894
REMARK minimizedRMSD -1
REMARK  0 active torsions:
REMARK  status: ('A' for Active; 'I' for Inactive)
ROOT
ATOM      1  C   UNL d   1      -3.326   1.908   0.597  0.00  0.00     0.077 C 
ATOM      2  C1  UNL d   1      -2.578   0.615   0.729  0.00  0.00    -0.074 A 
ATOM      3  C2  UNL d   1      -2.684  -0.380  -0.247  0.00  0.00    -0.005 A 
ATOM      4  C3  UNL d   1      -1.974  -1.574  -0.115  0.00  0.00     0.006 A 
ATOM      5  C4  UNL d   1      -1.152  -1.783   0.992  0.00  0.00    -0.005 A 
ATOM      6  C5  UNL d   1      -1.032  -0.799   1.978  0.00  0.00    -0.074 A 
ATOM      7  C6  UNL d   1      -0.145  -1.004   3.170  0.00  0.00     0.077 C 
ATOM      8  C7  UNL d   1      -1.743   0.400   1.835  0.00  0.00    -0.001 A 
ENDROOT
TORSDOF 0
ENDMDL
