MODEL 1
REMARK minimizedAffinity 0.135647595
REMARK minimizedRMSD -1
REMARK  0 active torsions:
REMARK  status: ('A' for Active; 'I' for Inactive)
ROOT
ATOM      1  C   UNL d   1      -1.583   0.863  -6.000  0.00  0.00     0.077 C 
ATOM      2  C1  UNL d   1      -1.028  -0.331  -5.281  0.00  0.00    -0.074 A 
ATOM      3  C2  UNL d   1      -0.447  -1.389  -5.987  0.00  0.00    -0.005 A 
ATOM      4  C3  UNL d   1       0.074  -2.488  -5.305  0.00  0.00     0.006 A 
ATOM      5  C4  UNL d   1       0.018  -2.541  -3.911  0.00  0.00    -0.005 A 
ATOM      6  C5  UNL d   1      -0.559  -1.492  -3.188  0.00  0.00    -0.074 A 
ATOM      7  C6  UNL d   1      -0.617  -1.528  -1.690  0.00  0.00     0.077 C 
ATOM      8  C7  UNL d   1      -1.073  -0.387  -3.881  0.00  0.00    -0.001 A 
ENDROOT
TORSDOF 0
ENDMDL
