MODEL 1
REMARK minimizedAffinity -0.50375706
REMARK minimizedRMSD -1
REMARK  0 active torsions:
REMARK  status: ('A' for Active; 'I' for Inactive)
ROOT
ATOM      1  C   UNL d   1      -1.217   0.185   3.349  0.00  0.00     0.077 C 
ATOM      2  C1  UNL d   1      -1.812   0.011   1.983  0.00  0.00    -0.074 A 
ATOM      3  C2  UNL d   1      -1.244  -0.872   1.059  0.00  0.00    -0.005 A 
ATOM      4  C3  UNL d   1      -1.814  -1.030  -0.204  0.00  0.00     0.006 A 
ATOM      5  C4  UNL d   1      -2.956  -0.309  -0.555  0.00  0.00    -0.005 A 
ATOM      6  C5  UNL d   1      -3.538   0.577   0.356  0.00  0.00    -0.074 A 
ATOM      7  C6  UNL d   1      -4.771   1.353  -0.001  0.00  0.00     0.077 C 
ATOM      8  C7  UNL d   1      -2.964   0.726   1.626  0.00  0.00    -0.001 A 
ENDROOT
TORSDOF 0
ENDMDL
