MODEL 1
REMARK minimizedAffinity -4.00243998
REMARK minimizedRMSD -1
REMARK  0 active torsions:
REMARK  status: ('A' for Active; 'I' for Inactive)
ROOT
ATOM      1  C   UNL d   1       2.911  -0.015  -5.853  0.00  0.00     0.077 C 
ATOM      2  C1  UNL d   1       1.554  -0.102  -5.220  0.00  0.00    -0.074 A 
ATOM      3  C2  UNL d   1       0.481   0.645  -5.717  0.00  0.00    -0.005 A 
ATOM      4  C3  UNL d   1      -0.778   0.547  -5.124  0.00  0.00     0.006 A 
ATOM      5  C4  UNL d   1      -0.977  -0.297  -4.032  0.00  0.00    -0.005 A 
ATOM      6  C5  UNL d   1       0.084  -1.053  -3.522  0.00  0.00    -0.074 A 
ATOM      7  C6  UNL d   1      -0.114  -1.973  -2.354  0.00  0.00     0.077 C 
ATOM      8  C7  UNL d   1       1.344  -0.954  -4.127  0.00  0.00    -0.001 A 
ENDROOT
TORSDOF 0
ENDMDL
