MODEL 1
REMARK minimizedAffinity 1.03806221
REMARK minimizedRMSD -1
REMARK  0 active torsions:
REMARK  status: ('A' for Active; 'I' for Inactive)
ROOT
ATOM      1  C   UNL d   1       1.403  -1.534   3.426  0.00  0.00     0.077 C 
ATOM      2  C1  UNL d   1      -0.075  -1.520   3.681  0.00  0.00    -0.074 A 
ATOM      3  C2  UNL d   1      -0.674  -2.492   4.488  0.00  0.00    -0.005 A 
ATOM      4  C3  UNL d   1      -2.049  -2.460   4.725  0.00  0.00     0.006 A 
ATOM      5  C4  UNL d   1      -2.836  -1.457   4.158  0.00  0.00    -0.005 A 
ATOM      6  C5  UNL d   1      -2.254  -0.476   3.349  0.00  0.00    -0.074 A 
ATOM      7  C6  UNL d   1      -3.084   0.614   2.740  0.00  0.00     0.077 C 
ATOM      8  C7  UNL d   1      -0.871  -0.511   3.122  0.00  0.00    -0.001 A 
ENDROOT
TORSDOF 0
ENDMDL
