MODEL 1
REMARK minimizedAffinity 4.84303284
REMARK minimizedRMSD -1
REMARK  0 active torsions:
REMARK  status: ('A' for Active; 'I' for Inactive)
ROOT
ATOM      1  C   UNL d   1      -4.736  -0.004  -5.306  0.00  0.00     0.077 C 
ATOM      2  C1  UNL d   1      -3.243   0.123  -5.232  0.00  0.00    -0.074 A 
ATOM      3  C2  UNL d   1      -2.564   1.074  -6.000  0.00  0.00    -0.005 A 
ATOM      4  C3  UNL d   1      -1.176   1.187  -5.913  0.00  0.00     0.006 A 
ATOM      5  C4  UNL d   1      -0.455   0.351  -5.059  0.00  0.00    -0.005 A 
ATOM      6  C5  UNL d   1      -1.117  -0.605  -4.283  0.00  0.00    -0.074 A 
ATOM      7  C6  UNL d   1      -0.358  -1.504  -3.353  0.00  0.00     0.077 C 
ATOM      8  C7  UNL d   1      -2.512  -0.708  -4.371  0.00  0.00    -0.001 A 
ENDROOT
TORSDOF 0
ENDMDL
