MODEL 1
REMARK minimizedAffinity 0.149486914
REMARK minimizedRMSD -1
REMARK  0 active torsions:
REMARK  status: ('A' for Active; 'I' for Inactive)
ROOT
ATOM      1  C   UNL d   1      -0.376   1.558  -6.000  0.00  0.00     0.077 C 
ATOM      2  C1  UNL d   1      -1.339   0.434  -5.759  0.00  0.00    -0.074 A 
ATOM      3  C2  UNL d   1      -0.922  -0.899  -5.837  0.00  0.00    -0.005 A 
ATOM      4  C3  UNL d   1      -1.827  -1.934  -5.602  0.00  0.00     0.006 A 
ATOM      5  C4  UNL d   1      -3.156  -1.647  -5.286  0.00  0.00    -0.005 A 
ATOM      6  C5  UNL d   1      -3.591  -0.320  -5.202  0.00  0.00    -0.074 A 
ATOM      7  C6  UNL d   1      -5.013   0.006  -4.854  0.00  0.00     0.077 C 
ATOM      8  C7  UNL d   1      -2.674   0.714  -5.434  0.00  0.00    -0.001 A 
ENDROOT
TORSDOF 0
ENDMDL
