MODEL 1
REMARK minimizedAffinity 1.93533945
REMARK minimizedRMSD -1
REMARK  0 active torsions:
REMARK  status: ('A' for Active; 'I' for Inactive)
ROOT
ATOM      1  C   UNL d   1      -0.830  -1.856  -1.565  0.00  0.00     0.077 C 
ATOM      2  C1  UNL d   1      -0.668  -1.834  -3.056  0.00  0.00    -0.074 A 
ATOM      3  C2  UNL d   1      -0.864  -2.991  -3.817  0.00  0.00    -0.005 A 
ATOM      4  C3  UNL d   1      -0.719  -2.953  -5.204  0.00  0.00     0.006 A 
ATOM      5  C4  UNL d   1      -0.375  -1.761  -5.842  0.00  0.00    -0.005 A 
ATOM      6  C5  UNL d   1      -0.176  -0.594  -5.097  0.00  0.00    -0.074 A 
ATOM      7  C6  UNL d   1       0.184   0.698  -5.769  0.00  0.00     0.077 C 
ATOM      8  C7  UNL d   1      -0.331  -0.638  -3.705  0.00  0.00    -0.001 A 
ENDROOT
TORSDOF 0
ENDMDL
