MODEL 1
REMARK minimizedAffinity 8.18425179
REMARK minimizedRMSD -1
REMARK  0 active torsions:
REMARK  status: ('A' for Active; 'I' for Inactive)
ROOT
ATOM      1  C   UNL d   1      -1.324   1.131  -6.000  0.00  0.00     0.077 C 
ATOM      2  C1  UNL d   1      -0.787  -0.052  -5.250  0.00  0.00    -0.074 A 
ATOM      3  C2  UNL d   1      -0.149  -1.100  -5.922  0.00  0.00    -0.005 A 
ATOM      4  C3  UNL d   1       0.354  -2.189  -5.211  0.00  0.00     0.006 A 
ATOM      5  C4  UNL d   1       0.225  -2.241  -3.822  0.00  0.00    -0.005 A 
ATOM      6  C5  UNL d   1      -0.409  -1.202  -3.133  0.00  0.00    -0.074 A 
ATOM      7  C6  UNL d   1      -0.547  -1.238  -1.640  0.00  0.00     0.077 C 
ATOM      8  C7  UNL d   1      -0.905  -0.108  -3.854  0.00  0.00    -0.001 A 
ENDROOT
TORSDOF 0
ENDMDL
