MODEL 1
REMARK minimizedAffinity 21.0970325
REMARK minimizedRMSD -1
REMARK  0 active torsions:
REMARK  status: ('A' for Active; 'I' for Inactive)
ROOT
ATOM      1  C   UNL d   1       3.224  -3.652   0.468  0.00  0.00     0.124 A 
ATOM      2  C1  UNL d   1       2.295  -4.636   0.777  0.00  0.00     0.062 A 
ATOM      3  C2  UNL d   1       1.030  -4.283   1.239  0.00  0.00     0.162 A 
ATOM      4  C3  UNL d   1       0.687  -2.940   1.395  0.00  0.00    -0.034 A 
ATOM      5  C4  UNL d   1       1.628  -1.957   1.083  0.00  0.00     0.162 A 
ATOM      6  C5  UNL d   1       2.890  -2.314   0.622  0.00  0.00     0.062 A 
ATOM      7  F   UNL d   1       3.787  -1.363   0.324  0.00  0.00    -0.097 F 
ATOM      8  F1  UNL d   1       1.331  -0.656   1.222  0.00  0.00    -0.096 F 
ATOM      9  I   UNL d   1      -1.203  -2.409   2.086  0.00  0.00    -0.060 I 
ATOM     10  F2  UNL d   1       0.152  -5.255   1.530  0.00  0.00    -0.096 F 
ATOM     11  F3  UNL d   1       2.616  -5.929   0.630  0.00  0.00    -0.097 F 
ATOM     12  F4  UNL d   1       4.441  -3.994   0.024  0.00  0.00    -0.092 F 
ENDROOT
TORSDOF 0
ENDMDL
