MODEL 1
REMARK minimizedAffinity 16.2268105
REMARK minimizedRMSD -1
REMARK  0 active torsions:
REMARK  status: ('A' for Active; 'I' for Inactive)
ROOT
ATOM      1  C   UNL d   1       2.325  -3.776   0.592  0.00  0.00     0.124 A 
ATOM      2  C1  UNL d   1       2.482  -2.409   0.414  0.00  0.00     0.062 A 
ATOM      3  C2  UNL d   1       1.650  -1.516   1.083  0.00  0.00     0.162 A 
ATOM      4  C3  UNL d   1       0.653  -1.988   1.938  0.00  0.00    -0.034 A 
ATOM      5  C4  UNL d   1       0.501  -3.365   2.110  0.00  0.00     0.162 A 
ATOM      6  C5  UNL d   1       1.335  -4.253   1.439  0.00  0.00     0.062 A 
ATOM      7  F   UNL d   1       1.182  -5.574   1.612  0.00  0.00    -0.097 F 
ATOM      8  F1  UNL d   1      -0.447  -3.853   2.925  0.00  0.00    -0.096 F 
ATOM      9  I   UNL d   1      -0.593  -0.656   2.940  0.00  0.00    -0.060 I 
ATOM     10  F2  UNL d   1       1.824  -0.200   0.893  0.00  0.00    -0.096 F 
ATOM     11  F3  UNL d   1       3.437  -1.946  -0.405  0.00  0.00    -0.097 F 
ATOM     12  F4  UNL d   1       3.126  -4.633  -0.054  0.00  0.00    -0.092 F 
ENDROOT
TORSDOF 0
ENDMDL
