MODEL 1
REMARK minimizedAffinity 8.50842953
REMARK minimizedRMSD -1
REMARK  0 active torsions:
REMARK  status: ('A' for Active; 'I' for Inactive)
ROOT
ATOM      1  C   UNL d   1       1.889  -4.163   0.997  0.00  0.00     0.124 A 
ATOM      2  C1  UNL d   1       2.250  -2.824   1.048  0.00  0.00     0.062 A 
ATOM      3  C2  UNL d   1       1.386  -1.887   1.609  0.00  0.00     0.162 A 
ATOM      4  C3  UNL d   1       0.153  -2.287   2.125  0.00  0.00    -0.034 A 
ATOM      5  C4  UNL d   1      -0.203  -3.636   2.069  0.00  0.00     0.162 A 
ATOM      6  C5  UNL d   1       0.664  -4.568   1.507  0.00  0.00     0.062 A 
ATOM      7  F   UNL d   1       0.314  -5.861   1.458  0.00  0.00    -0.097 F 
ATOM      8  F1  UNL d   1      -1.381  -4.054   2.555  0.00  0.00    -0.096 F 
ATOM      9  I   UNL d   1      -1.141  -0.890   2.964  0.00  0.00    -0.060 I 
ATOM     10  F2  UNL d   1       1.760  -0.600   1.646  0.00  0.00    -0.096 F 
ATOM     11  F3  UNL d   1       3.433  -2.430   0.556  0.00  0.00    -0.097 F 
ATOM     12  F4  UNL d   1       2.722  -5.062   0.456  0.00  0.00    -0.092 F 
ENDROOT
TORSDOF 0
ENDMDL
