MODEL 1
REMARK minimizedAffinity 8.12903214
REMARK minimizedRMSD -1
REMARK  0 active torsions:
REMARK  status: ('A' for Active; 'I' for Inactive)
ROOT
ATOM      1  C   UNL d   1      -0.550  -1.447   3.011  0.00  0.00     0.124 A 
ATOM      2  C1  UNL d   1       0.754  -1.778   2.670  0.00  0.00     0.062 A 
ATOM      3  C2  UNL d   1       1.115  -1.913   1.333  0.00  0.00     0.162 A 
ATOM      4  C3  UNL d   1       0.171  -1.716   0.325  0.00  0.00    -0.034 A 
ATOM      5  C4  UNL d   1      -1.139  -1.383   0.676  0.00  0.00     0.162 A 
ATOM      6  C5  UNL d   1      -1.495  -1.249   2.014  0.00  0.00     0.062 A 
ATOM      7  F   UNL d   1      -2.755  -0.929   2.342  0.00  0.00    -0.097 F 
ATOM      8  F1  UNL d   1      -2.072  -1.186  -0.267  0.00  0.00    -0.096 F 
ATOM      9  I   UNL d   1       0.706  -1.917  -1.676  0.00  0.00    -0.060 I 
ATOM     10  F2  UNL d   1       2.382  -2.235   1.032  0.00  0.00    -0.096 F 
ATOM     11  F3  UNL d   1       1.669  -1.970   3.631  0.00  0.00    -0.097 F 
ATOM     12  F4  UNL d   1      -0.895  -1.318   4.299  0.00  0.00    -0.092 F 
ENDROOT
TORSDOF 0
ENDMDL
