MODEL 1
REMARK minimizedAffinity 12.3147907
REMARK minimizedRMSD -1
REMARK  0 active torsions:
REMARK  status: ('A' for Active; 'I' for Inactive)
ROOT
ATOM      1  C   UNL d   1       1.139  -2.058   1.697  0.00  0.00     0.124 A 
ATOM      2  C1  UNL d   1       0.357  -1.674   2.777  0.00  0.00     0.062 A 
ATOM      3  C2  UNL d   1       0.419  -0.369   3.257  0.00  0.00     0.162 A 
ATOM      4  C3  UNL d   1       1.266   0.562   2.657  0.00  0.00    -0.034 A 
ATOM      5  C4  UNL d   1       2.051   0.168   1.572  0.00  0.00     0.162 A 
ATOM      6  C5  UNL d   1       1.985  -1.137   1.096  0.00  0.00     0.062 A 
ATOM      7  F   UNL d   1       2.742  -1.507   0.052  0.00  0.00    -0.097 F 
ATOM      8  F1  UNL d   1       2.877   1.038   0.972  0.00  0.00    -0.096 F 
ATOM      9  I   UNL d   1       1.362   2.514   3.373  0.00  0.00    -0.060 I 
ATOM     10  F2  UNL d   1      -0.349  -0.025   4.302  0.00  0.00    -0.096 F 
ATOM     11  F3  UNL d   1      -0.461  -2.562   3.360  0.00  0.00    -0.097 F 
ATOM     12  F4  UNL d   1       1.078  -3.314   1.237  0.00  0.00    -0.092 F 
ENDROOT
TORSDOF 0
ENDMDL
