MODEL 1
REMARK minimizedAffinity 4.32607317
REMARK minimizedRMSD -1
REMARK  0 active torsions:
REMARK  status: ('A' for Active; 'I' for Inactive)
ROOT
ATOM      1  C   UNL d   1       5.985  -0.703  -3.681  0.00  0.00     0.124 A 
ATOM      2  C1  UNL d   1       5.984   0.661  -3.936  0.00  0.00     0.062 A 
ATOM      3  C2  UNL d   1       5.988   1.570  -2.882  0.00  0.00     0.162 A 
ATOM      4  C3  UNL d   1       5.994   1.118  -1.563  0.00  0.00    -0.034 A 
ATOM      5  C4  UNL d   1       5.993  -0.255  -1.314  0.00  0.00     0.162 A 
ATOM      6  C5  UNL d   1       5.989  -1.160  -2.370  0.00  0.00     0.062 A 
ATOM      7  F   UNL d   1       5.990  -2.478  -2.121  0.00  0.00    -0.097 F 
ATOM      8  F1  UNL d   1       5.999  -0.724  -0.057  0.00  0.00    -0.096 F 
ATOM      9  I   UNL d   1       6.000   2.475   0.016  0.00  0.00    -0.060 I 
ATOM     10  F2  UNL d   1       5.988   2.883  -3.158  0.00  0.00    -0.096 F 
ATOM     11  F3  UNL d   1       5.979   1.105  -5.201  0.00  0.00    -0.097 F 
ATOM     12  F4  UNL d   1       5.980  -1.576  -4.696  0.00  0.00    -0.092 F 
ENDROOT
TORSDOF 0
ENDMDL
