MODEL 1
REMARK minimizedAffinity 15.9794178
REMARK minimizedRMSD -1
REMARK  0 active torsions:
REMARK  status: ('A' for Active; 'I' for Inactive)
ROOT
ATOM      1  C   UNL d   1      -2.810  -0.026   1.846  0.00  0.00     0.124 A 
ATOM      2  C1  UNL d   1      -2.526  -0.632   0.630  0.00  0.00     0.062 A 
ATOM      3  C2  UNL d   1      -1.292  -1.243   0.423  0.00  0.00     0.162 A 
ATOM      4  C3  UNL d   1      -0.333  -1.251   1.436  0.00  0.00    -0.034 A 
ATOM      5  C4  UNL d   1      -0.625  -0.639   2.656  0.00  0.00     0.162 A 
ATOM      6  C5  UNL d   1      -1.860  -0.030   2.857  0.00  0.00     0.062 A 
ATOM      7  F   UNL d   1      -2.132   0.555   4.033  0.00  0.00    -0.097 F 
ATOM      8  F1  UNL d   1       0.274  -0.629   3.651  0.00  0.00    -0.096 F 
ATOM      9  I   UNL d   1       1.513  -2.163   1.131  0.00  0.00    -0.060 I 
ATOM     10  F2  UNL d   1      -1.045  -1.821  -0.761  0.00  0.00    -0.096 F 
ATOM     11  F3  UNL d   1      -3.442  -0.629  -0.349  0.00  0.00    -0.097 F 
ATOM     12  F4  UNL d   1      -3.997   0.562   2.042  0.00  0.00    -0.092 F 
ENDROOT
TORSDOF 0
ENDMDL
