MODEL 1
REMARK minimizedAffinity 20.8503246
REMARK minimizedRMSD -1
REMARK  0 active torsions:
REMARK  status: ('A' for Active; 'I' for Inactive)
ROOT
ATOM      1  C   UNL d   1      -2.768   2.374  -2.600  0.00  0.00     0.124 A 
ATOM      2  C1  UNL d   1      -1.459   2.791  -2.402  0.00  0.00     0.062 A 
ATOM      3  C2  UNL d   1      -0.492   1.884  -1.976  0.00  0.00     0.162 A 
ATOM      4  C3  UNL d   1      -0.831   0.551  -1.746  0.00  0.00    -0.034 A 
ATOM      5  C4  UNL d   1      -2.150   0.139  -1.946  0.00  0.00     0.162 A 
ATOM      6  C5  UNL d   1      -3.112   1.049  -2.372  0.00  0.00     0.062 A 
ATOM      7  F   UNL d   1      -4.376   0.644  -2.563  0.00  0.00    -0.097 F 
ATOM      8  F1  UNL d   1      -2.509  -1.136  -1.735  0.00  0.00    -0.096 F 
ATOM      9  I   UNL d   1       0.612  -0.808  -1.109  0.00  0.00    -0.060 I 
ATOM     10  F2  UNL d   1       0.765   2.315  -1.793  0.00  0.00    -0.096 F 
ATOM     11  F3  UNL d   1      -1.124   4.070  -2.621  0.00  0.00    -0.097 F 
ATOM     12  F4  UNL d   1      -3.696   3.248  -3.009  0.00  0.00    -0.092 F 
ENDROOT
TORSDOF 0
ENDMDL
