MODEL 1
REMARK minimizedAffinity 9.02291012
REMARK minimizedRMSD -1
REMARK  0 active torsions:
REMARK  status: ('A' for Active; 'I' for Inactive)
ROOT
ATOM      1  C   UNL d   1       2.246  -3.710   0.396  0.00  0.00     0.124 A 
ATOM      2  C1  UNL d   1       2.534  -2.353   0.448  0.00  0.00     0.062 A 
ATOM      3  C2  UNL d   1       1.706  -1.488   1.158  0.00  0.00     0.162 A 
ATOM      4  C3  UNL d   1       0.582  -1.978   1.823  0.00  0.00    -0.034 A 
ATOM      5  C4  UNL d   1       0.298  -3.343   1.765  0.00  0.00     0.162 A 
ATOM      6  C5  UNL d   1       1.128  -4.204   1.054  0.00  0.00     0.062 A 
ATOM      7  F   UNL d   1       0.848  -5.514   1.005  0.00  0.00    -0.097 F 
ATOM      8  F1  UNL d   1      -0.775  -3.847   2.394  0.00  0.00    -0.096 F 
ATOM      9  I   UNL d   1      -0.658  -0.688   2.886  0.00  0.00    -0.060 I 
ATOM     10  F2  UNL d   1       2.009  -0.182   1.191  0.00  0.00    -0.096 F 
ATOM     11  F3  UNL d   1       3.612  -1.874  -0.189  0.00  0.00    -0.097 F 
ATOM     12  F4  UNL d   1       3.043  -4.540  -0.289  0.00  0.00    -0.092 F 
ENDROOT
TORSDOF 0
ENDMDL
