MODEL 1
REMARK minimizedAffinity 11.2614803
REMARK minimizedRMSD -1
REMARK  0 active torsions:
REMARK  status: ('A' for Active; 'I' for Inactive)
ROOT
ATOM      1  C   UNL d   1       2.995  -4.711   1.297  0.00  0.00     0.124 A 
ATOM      2  C1  UNL d   1       2.034  -3.710   1.331  0.00  0.00     0.062 A 
ATOM      3  C2  UNL d   1       2.404  -2.378   1.170  0.00  0.00     0.162 A 
ATOM      4  C3  UNL d   1       3.742  -2.039   0.972  0.00  0.00    -0.034 A 
ATOM      5  C4  UNL d   1       4.704  -3.050   0.940  0.00  0.00     0.162 A 
ATOM      6  C5  UNL d   1       4.329  -4.380   1.101  0.00  0.00     0.062 A 
ATOM      7  F   UNL d   1       5.259  -5.346   1.068  0.00  0.00    -0.097 F 
ATOM      8  F1  UNL d   1       5.999  -2.759   0.752  0.00  0.00    -0.096 F 
ATOM      9  I   UNL d   1       4.300  -0.048   0.731  0.00  0.00    -0.060 I 
ATOM     10  F2  UNL d   1       1.454  -1.432   1.208  0.00  0.00    -0.096 F 
ATOM     11  F3  UNL d   1       0.745  -4.027   1.521  0.00  0.00    -0.097 F 
ATOM     12  F4  UNL d   1       2.637  -5.992   1.453  0.00  0.00    -0.092 F 
ENDROOT
TORSDOF 0
ENDMDL
