MODEL 1
REMARK minimizedAffinity -4.37212944
REMARK minimizedRMSD -1
REMARK  2 active torsions:
REMARK  status: ('A' for Active; 'I' for Inactive)
REMARK    1  A    between atoms: C2'_3  and  C1'_4 
REMARK    2  A    between atoms: C1'_4  and  C1_5 
ROOT
ATOM      1  C1  I4B d   1       0.025  -0.075   0.069  0.00  0.00    -0.075 A 
ATOM      2  C2  I4B d   1      -0.980  -0.026   1.002  0.00  0.00     0.003 A 
ATOM      3  C3  I4B d   1      -0.695  -0.259   2.370  0.00  0.00     0.002 A 
ATOM      4  C4  I4B d   1       0.591  -0.585   2.750  0.00  0.00    -0.004 A 
ATOM      5  C5  I4B d   1       1.613  -0.611   1.806  0.00  0.00     0.002 A 
ATOM      6  C6  I4B d   1       1.331  -0.343   0.458  0.00  0.00     0.003 A 
ENDROOT
BRANCH   1   7
ATOM      7  C1' I4B d   1      -0.317   0.143  -1.371  0.00  0.00     0.060 C 
BRANCH   7   8
ATOM      8  C2' I4B d   1      -0.540   1.627  -1.578  0.00  0.00    -0.013 C 
ATOM      9  C4' I4B d   1       0.670   2.280  -2.191  0.00  0.00     0.013 C 
ATOM     10  C3' I4B d   1      -1.748   1.796  -2.451  0.00  0.00     0.013 C 
ENDBRANCH   7   8
ENDBRANCH   1   7
TORSDOF 2
ENDMDL
