MODEL 1
REMARK minimizedAffinity -5.83763885
REMARK minimizedRMSD -1
REMARK  2 active torsions:
REMARK  status: ('A' for Active; 'I' for Inactive)
REMARK    1  A    between atoms: C2'_3  and  C1'_4 
REMARK    2  A    between atoms: C1'_4  and  C1_5 
ROOT
ATOM      1  C1  I4B d   1       0.068   0.024  -0.291  0.00  0.00    -0.075 A 
ATOM      2  C2  I4B d   1       1.314  -0.224   0.228  0.00  0.00     0.003 A 
ATOM      3  C3  I4B d   1       1.479  -0.429   1.619  0.00  0.00     0.002 A 
ATOM      4  C4  I4B d   1       0.386  -0.328   2.456  0.00  0.00    -0.004 A 
ATOM      5  C5  I4B d   1      -0.880  -0.099   1.925  0.00  0.00     0.002 A 
ATOM      6  C6  I4B d   1      -1.043   0.066   0.542  0.00  0.00     0.003 A 
ENDROOT
BRANCH   1   7
ATOM      7  C1' I4B d   1      -0.066   0.269  -1.760  0.00  0.00     0.060 C 
BRANCH   7   8
ATOM      8  C2' I4B d   1      -0.249   1.758  -1.971  0.00  0.00    -0.013 C 
ATOM      9  C4' I4B d   1       0.925   2.354  -2.702  0.00  0.00     0.013 C 
ATOM     10  C3' I4B d   1      -1.524   1.964  -2.734  0.00  0.00     0.013 C 
ENDBRANCH   7   8
ENDBRANCH   1   7
TORSDOF 2
ENDMDL
