MODEL 1
REMARK minimizedAffinity -1.55853868
REMARK minimizedRMSD -1
REMARK  2 active torsions:
REMARK  status: ('A' for Active; 'I' for Inactive)
REMARK    1  A    between atoms: C2'_3  and  C1'_4 
REMARK    2  A    between atoms: C1'_4  and  C1_5 
ROOT
ATOM      1  C1  I4B d   1      -0.342   0.074  -0.213  0.00  0.00    -0.075 A 
ATOM      2  C2  I4B d   1       0.732  -0.544   0.378  0.00  0.00     0.003 A 
ATOM      3  C3  I4B d   1       0.756  -0.747   1.779  0.00  0.00     0.002 A 
ATOM      4  C4  I4B d   1      -0.286  -0.275   2.552  0.00  0.00    -0.004 A 
ATOM      5  C5  I4B d   1      -1.384   0.330   1.949  0.00  0.00     0.002 A 
ATOM      6  C6  I4B d   1      -1.419   0.495   0.557  0.00  0.00     0.003 A 
ENDROOT
BRANCH   1   7
ATOM      7  C1' I4B d   1      -0.319   0.302  -1.691  0.00  0.00     0.060 C 
BRANCH   7   8
ATOM      8  C2' I4B d   1      -0.425   1.794  -1.934  0.00  0.00    -0.013 C 
ATOM      9  C4' I4B d   1       0.798   2.319  -2.640  0.00  0.00     0.013 C 
ATOM     10  C3' I4B d   1      -1.664   2.045  -2.740  0.00  0.00     0.013 C 
ENDBRANCH   7   8
ENDBRANCH   1   7
TORSDOF 2
ENDMDL
