MODEL 1
REMARK minimizedAffinity -5.59092331
REMARK minimizedRMSD -1
REMARK  2 active torsions:
REMARK  status: ('A' for Active; 'I' for Inactive)
REMARK    1  A    between atoms: C2'_3  and  C1'_4 
REMARK    2  A    between atoms: C1'_4  and  C1_5 
ROOT
ATOM      1  C1  I4B d   1      -0.261   0.430  -0.569  0.00  0.00    -0.075 A 
ATOM      2  C2  I4B d   1       1.036   0.077  -0.294  0.00  0.00     0.003 A 
ATOM      3  C3  I4B d   1       1.400  -0.343   1.008  0.00  0.00     0.002 A 
ATOM      4  C4  I4B d   1       0.453  -0.346   2.011  0.00  0.00    -0.004 A 
ATOM      5  C5  I4B d   1      -0.867  -0.009   1.726  0.00  0.00     0.002 A 
ATOM      6  C6  I4B d   1      -1.230   0.369   0.425  0.00  0.00     0.003 A 
ENDROOT
BRANCH   1   7
ATOM      7  C1' I4B d   1      -0.604   0.901  -1.947  0.00  0.00     0.060 C 
BRANCH   7   8
ATOM      8  C2' I4B d   1       0.041   2.256  -2.151  0.00  0.00    -0.013 C 
ATOM      9  C4' I4B d   1       1.117   2.194  -3.204  0.00  0.00     0.013 C 
ATOM     10  C3' I4B d   1      -1.035   3.228  -2.533  0.00  0.00     0.013 C 
ENDBRANCH   7   8
ENDBRANCH   1   7
TORSDOF 2
ENDMDL
