MODEL 1
REMARK minimizedAffinity 0.33647126
REMARK minimizedRMSD -1
REMARK  2 active torsions:
REMARK  status: ('A' for Active; 'I' for Inactive)
REMARK    1  A    between atoms: C2'_3  and  C1'_4 
REMARK    2  A    between atoms: C1'_4  and  C1_5 
ROOT
ATOM      1  C1  I4B d   1       0.093   0.354   0.853  0.00  0.00    -0.075 A 
ATOM      2  C2  I4B d   1       1.147   0.175   1.714  0.00  0.00     0.003 A 
ATOM      3  C3  I4B d   1       2.373  -0.351   1.241  0.00  0.00     0.002 A 
ATOM      4  C4  I4B d   1       2.485  -0.728  -0.082  0.00  0.00    -0.004 A 
ATOM      5  C5  I4B d   1       1.424  -0.525  -0.959  0.00  0.00     0.002 A 
ATOM      6  C6  I4B d   1       0.224   0.032  -0.492  0.00  0.00     0.003 A 
ENDROOT
BRANCH   1   7
ATOM      7  C1' I4B d   1      -1.198   0.881   1.393  0.00  0.00     0.060 C 
BRANCH   7   8
ATOM      8  C2' I4B d   1      -1.927  -0.266   2.063  0.00  0.00    -0.013 C 
ATOM      9  C4' I4B d   1      -2.892  -0.927   1.115  0.00  0.00     0.013 C 
ATOM     10  C3' I4B d   1      -0.900  -1.241   2.557  0.00  0.00     0.013 C 
ENDBRANCH   7   8
ENDBRANCH   1   7
TORSDOF 2
ENDMDL
