MODEL 1
REMARK minimizedAffinity -4.84912968
REMARK minimizedRMSD -1
REMARK  2 active torsions:
REMARK  status: ('A' for Active; 'I' for Inactive)
REMARK    1  A    between atoms: C2'_3  and  C1'_4 
REMARK    2  A    between atoms: C1'_4  and  C1_5 
ROOT
ATOM      1  C1  I4B d   1      -0.008   0.908  -1.074  0.00  0.00    -0.075 A 
ATOM      2  C2  I4B d   1      -0.172   2.151  -0.515  0.00  0.00     0.003 A 
ATOM      3  C3  I4B d   1      -0.492   3.263  -1.331  0.00  0.00     0.002 A 
ATOM      4  C4  I4B d   1      -0.589   3.097  -2.698  0.00  0.00    -0.004 A 
ATOM      5  C5  I4B d   1      -0.444   1.832  -3.260  0.00  0.00     0.002 A 
ATOM      6  C6  I4B d   1      -0.165   0.728  -2.442  0.00  0.00     0.003 A 
ENDROOT
BRANCH   1   7
ATOM      7  C1' I4B d   1       0.362  -0.238  -0.186  0.00  0.00     0.060 C 
BRANCH   7   8
ATOM      8  C2' I4B d   1      -0.305  -0.022   1.157  0.00  0.00    -0.013 C 
ATOM      9  C4' I4B d   1      -1.749  -0.447   1.123  0.00  0.00     0.013 C 
ATOM     10  C3' I4B d   1       0.464  -0.797   2.185  0.00  0.00     0.013 C 
ENDBRANCH   7   8
ENDBRANCH   1   7
TORSDOF 2
ENDMDL
