MODEL 1
REMARK minimizedAffinity -1.44465375
REMARK minimizedRMSD -1
REMARK  0 active torsions:
REMARK  status: ('A' for Active; 'I' for Inactive)
ROOT
ATOM      1  C   UNL d   1      -0.231  -0.351  -1.745  0.00  0.00     0.077 C 
ATOM      2  C1  UNL d   1       0.287  -0.329  -0.338  0.00  0.00    -0.074 A 
ATOM      3  C2  UNL d   1       1.349  -1.152   0.050  0.00  0.00    -0.005 A 
ATOM      4  C3  UNL d   1       1.826  -1.114   1.361  0.00  0.00     0.006 A 
ATOM      5  C4  UNL d   1       1.247  -0.254   2.294  0.00  0.00    -0.005 A 
ATOM      6  C5  UNL d   1       0.185   0.578   1.924  0.00  0.00    -0.074 A 
ATOM      7  C6  UNL d   1      -0.442   1.515   2.913  0.00  0.00     0.077 C 
ATOM      8  C7  UNL d   1      -0.284   0.539   0.604  0.00  0.00    -0.001 A 
ENDROOT
TORSDOF 0
ENDMDL
