MODEL 1
REMARK minimizedAffinity -2.88568616
REMARK minimizedRMSD -1
REMARK  0 active torsions:
REMARK  status: ('A' for Active; 'I' for Inactive)
ROOT
ATOM      1  C   UNL d   1      -2.416  -0.295   3.003  0.00  0.00     0.077 C 
ATOM      2  C1  UNL d   1      -1.457   0.361   2.054  0.00  0.00    -0.074 A 
ATOM      3  C2  UNL d   1      -0.911   1.616   2.338  0.00  0.00    -0.005 A 
ATOM      4  C3  UNL d   1      -0.013   2.210   1.451  0.00  0.00     0.006 A 
ATOM      5  C4  UNL d   1       0.347   1.555   0.273  0.00  0.00    -0.005 A 
ATOM      6  C5  UNL d   1      -0.188   0.298  -0.028  0.00  0.00    -0.074 A 
ATOM      7  C6  UNL d   1       0.195  -0.424  -1.285  0.00  0.00     0.077 C 
ATOM      8  C7  UNL d   1      -1.085  -0.294   0.872  0.00  0.00    -0.001 A 
ENDROOT
TORSDOF 0
ENDMDL
