MODEL 1
REMARK minimizedAffinity -3.04297304
REMARK minimizedRMSD -1
REMARK  0 active torsions:
REMARK  status: ('A' for Active; 'I' for Inactive)
ROOT
ATOM      1  C   UNL d   1       0.394  -0.443  -2.417  0.00  0.00     0.077 C 
ATOM      2  C1  UNL d   1       0.898  -0.301  -1.011  0.00  0.00    -0.074 A 
ATOM      3  C2  UNL d   1       1.997  -1.041  -0.563  0.00  0.00    -0.005 A 
ATOM      4  C3  UNL d   1       2.460  -0.891   0.744  0.00  0.00     0.006 A 
ATOM      5  C4  UNL d   1       1.829  -0.002   1.615  0.00  0.00    -0.005 A 
ATOM      6  C5  UNL d   1       0.730   0.747   1.185  0.00  0.00    -0.074 A 
ATOM      7  C6  UNL d   1       0.047   1.715   2.105  0.00  0.00     0.077 C 
ATOM      8  C7  UNL d   1       0.275   0.596  -0.132  0.00  0.00    -0.001 A 
ENDROOT
TORSDOF 0
ENDMDL
