MODEL 1
REMARK minimizedAffinity -2.4651587
REMARK minimizedRMSD -1
REMARK  0 active torsions:
REMARK  status: ('A' for Active; 'I' for Inactive)
ROOT
ATOM      1  C   UNL d   1       1.711   1.765  -3.486  0.00  0.00     0.077 C 
ATOM      2  C1  UNL d   1       1.102   0.856  -2.461  0.00  0.00    -0.074 A 
ATOM      3  C2  UNL d   1       0.787  -0.471  -2.773  0.00  0.00    -0.005 A 
ATOM      4  C3  UNL d   1       0.230  -1.308  -1.806  0.00  0.00     0.006 A 
ATOM      5  C4  UNL d   1      -0.016  -0.827  -0.519  0.00  0.00    -0.005 A 
ATOM      6  C5  UNL d   1       0.293   0.496  -0.188  0.00  0.00    -0.074 A 
ATOM      7  C6  UNL d   1       0.044   1.025   1.193  0.00  0.00     0.077 C 
ATOM      8  C7  UNL d   1       0.859   1.328  -1.163  0.00  0.00    -0.001 A 
ENDROOT
TORSDOF 0
ENDMDL
