MODEL 1
REMARK minimizedAffinity 7.74709034
REMARK minimizedRMSD -1
REMARK  1 active torsions:
REMARK  status: ('A' for Active; 'I' for Inactive)
REMARK    1  A    between atoms: N_2  and  C1_3 
ROOT
ATOM      1  C1  UNL d   1       1.777  -0.906  -4.587  0.00  0.00     0.143 A 
ATOM      2  C2  UNL d   1       0.702  -0.071  -4.262  0.00  0.00    -0.057 A 
ATOM      3  C3  UNL d   1      -0.617  -0.441  -4.547  0.00  0.00     0.033 A 
ATOM      4  C4  UNL d   1      -0.885  -1.645  -5.191  0.00  0.00    -0.042 A 
ATOM      5  C5  UNL d   1       0.170  -2.479  -5.547  0.00  0.00     0.033 A 
ATOM      6  C6  UNL d   1       1.485  -2.106  -5.253  0.00  0.00    -0.057 A 
ENDROOT
BRANCH   1   7
ATOM      7  N   UNL d   1       3.117  -0.550  -4.418  0.00  0.00    -0.732 N 
ATOM      8  C   UNL d   1       3.750   0.387  -5.322  0.00  0.00     0.284 C 
ATOM      9  H3  UNL d   1       3.363  -0.415  -3.440  0.00  0.00     0.395 HD
ENDBRANCH   1   7
TORSDOF 1
ENDMDL
