MODEL 1
REMARK minimizedAffinity 3.95031023
REMARK minimizedRMSD -1
REMARK  1 active torsions:
REMARK  status: ('A' for Active; 'I' for Inactive)
REMARK    1  A    between atoms: N_2  and  C1_3 
ROOT
ATOM      1  C1  UNL d   1       1.246  -1.644   3.225  0.00  0.00     0.143 A 
ATOM      2  C2  UNL d   1       0.216  -1.659   2.278  0.00  0.00    -0.057 A 
ATOM      3  C3  UNL d   1      -0.469  -0.488   1.932  0.00  0.00     0.033 A 
ATOM      4  C4  UNL d   1      -0.154   0.718   2.550  0.00  0.00    -0.042 A 
ATOM      5  C5  UNL d   1       0.849   0.752   3.512  0.00  0.00     0.033 A 
ATOM      6  C6  UNL d   1       1.534  -0.420   3.849  0.00  0.00    -0.057 A 
ENDROOT
BRANCH   1   7
ATOM      7  N   UNL d   1       1.897  -2.791   3.684  0.00  0.00    -0.732 N 
ATOM      8  C   UNL d   1       1.474  -3.441   4.906  0.00  0.00     0.284 C 
ATOM      9  H3  UNL d   1       2.129  -3.434   2.930  0.00  0.00     0.395 HD
ENDBRANCH   1   7
TORSDOF 1
ENDMDL
