MODEL 1
REMARK minimizedAffinity 10.0470848
REMARK minimizedRMSD -1
REMARK  1 active torsions:
REMARK  status: ('A' for Active; 'I' for Inactive)
REMARK    1  A    between atoms: N_2  and  C1_3 
ROOT
ATOM      1  C1  UNL d   1       4.127   4.004   1.392  0.00  0.00     0.143 A 
ATOM      2  C2  UNL d   1       4.303   4.948   2.409  0.00  0.00    -0.057 A 
ATOM      3  C3  UNL d   1       5.000   4.630   3.581  0.00  0.00     0.033 A 
ATOM      4  C4  UNL d   1       5.509   3.349   3.769  0.00  0.00    -0.042 A 
ATOM      5  C5  UNL d   1       5.324   2.388   2.782  0.00  0.00     0.033 A 
ATOM      6  C6  UNL d   1       4.633   2.713   1.611  0.00  0.00    -0.057 A 
ENDROOT
BRANCH   1   7
ATOM      7  N   UNL d   1       3.359   4.229   0.246  0.00  0.00    -0.732 N 
ATOM      8  C   UNL d   1       2.031   3.667   0.127  0.00  0.00     0.284 C 
ATOM      9  H3  UNL d   1       3.438   5.186  -0.092  0.00  0.00     0.395 HD
ENDBRANCH   1   7
TORSDOF 1
ENDMDL
