MODEL 1
REMARK minimizedAffinity 9.81618309
REMARK minimizedRMSD -1
REMARK  1 active torsions:
REMARK  status: ('A' for Active; 'I' for Inactive)
REMARK    1  A    between atoms: N_2  and  C1_3 
ROOT
ATOM      1  C1  UNL d   1       0.581  -0.951   2.837  0.00  0.00     0.143 A 
ATOM      2  C2  UNL d   1       1.557  -0.006   3.172  0.00  0.00    -0.057 A 
ATOM      3  C3  UNL d   1       2.618  -0.330   4.027  0.00  0.00     0.033 A 
ATOM      4  C4  UNL d   1       2.705  -1.600   4.587  0.00  0.00    -0.042 A 
ATOM      5  C5  UNL d   1       1.732  -2.547   4.289  0.00  0.00     0.033 A 
ATOM      6  C6  UNL d   1       0.679  -2.220   3.429  0.00  0.00    -0.057 A 
ENDROOT
BRANCH   1   7
ATOM      7  N   UNL d   1      -0.551  -0.662   2.072  0.00  0.00    -0.732 N 
ATOM      8  C   UNL d   1      -1.440   0.417   2.448  0.00  0.00     0.284 C 
ATOM      9  H3  UNL d   1      -0.370  -0.721   1.072  0.00  0.00     0.395 HD
ENDBRANCH   1   7
TORSDOF 1
ENDMDL
