MODEL 1
REMARK minimizedAffinity -2.02530503
REMARK minimizedRMSD -1
REMARK  0 active torsions:
REMARK  status: ('A' for Active; 'I' for Inactive)
ROOT
ATOM      1  C   UNL d   1       2.723  -1.154   1.168  0.00  0.00     0.172 C 
ATOM      2  N   UNL d   1       1.280  -1.094   1.148  0.00  0.00    -0.070 N 
ATOM      3  C1  UNL d   1       0.531  -0.062   0.650  0.00  0.00    -0.004 A 
ATOM      4  C2  UNL d   1      -0.798  -0.387   0.816  0.00  0.00    -0.047 A 
ATOM      5  C3  UNL d   1      -0.849  -1.658   1.437  0.00  0.00    -0.047 A 
ATOM      6  C4  UNL d   1       0.451  -2.072   1.631  0.00  0.00    -0.004 A 
ENDROOT
TORSDOF 0
ENDMDL
