MODEL 1
REMARK minimizedAffinity 1.10811901
REMARK minimizedRMSD -1
REMARK  0 active torsions:
REMARK  status: ('A' for Active; 'I' for Inactive)
ROOT
ATOM      1  C   UNL d   1       6.000  -0.726  -5.995  0.00  0.00     0.172 C 
ATOM      2  N   UNL d   1       5.610   0.545  -5.431  0.00  0.00    -0.070 N 
ATOM      3  C1  UNL d   1       4.930   0.721  -4.255  0.00  0.00    -0.004 A 
ATOM      4  C2  UNL d   1       4.753   2.075  -4.069  0.00  0.00    -0.047 A 
ATOM      5  C3  UNL d   1       5.345   2.735  -5.172  0.00  0.00    -0.047 A 
ATOM      6  C4  UNL d   1       5.868   1.764  -5.999  0.00  0.00    -0.004 A 
ENDROOT
TORSDOF 0
ENDMDL
