MODEL 1
REMARK minimizedAffinity -0.249772057
REMARK minimizedRMSD -1
REMARK  0 active torsions:
REMARK  status: ('A' for Active; 'I' for Inactive)
ROOT
ATOM      1  C   UNL d   1       3.999  -2.215  -5.999  0.00  0.00     0.172 C 
ATOM      2  N   UNL d   1       4.540  -0.876  -5.990  0.00  0.00    -0.070 N 
ATOM      3  C1  UNL d   1       3.808   0.281  -5.998  0.00  0.00    -0.004 A 
ATOM      4  C2  UNL d   1       4.691   1.339  -5.984  0.00  0.00    -0.047 A 
ATOM      5  C3  UNL d   1       5.999   0.799  -5.969  0.00  0.00    -0.047 A 
ATOM      6  C4  UNL d   1       5.876  -0.574  -5.973  0.00  0.00    -0.004 A 
ENDROOT
TORSDOF 0
ENDMDL
