MODEL 1
REMARK minimizedAffinity 7.32276058
REMARK minimizedRMSD -1
REMARK  0 active torsions:
REMARK  status: ('A' for Active; 'I' for Inactive)
ROOT
ATOM      1  C   UNL d   1      -1.493  -2.363  -0.469  0.00  0.00     0.172 C 
ATOM      2  N   UNL d   1      -0.331  -2.826  -1.189  0.00  0.00    -0.070 N 
ATOM      3  C1  UNL d   1       0.535  -3.799  -0.766  0.00  0.00    -0.004 A 
ATOM      4  C2  UNL d   1       1.507  -3.948  -1.732  0.00  0.00    -0.047 A 
ATOM      5  C3  UNL d   1       1.215  -3.032  -2.771  0.00  0.00    -0.047 A 
ATOM      6  C4  UNL d   1       0.072  -2.350  -2.409  0.00  0.00    -0.004 A 
ENDROOT
TORSDOF 0
ENDMDL
