MODEL 1
REMARK minimizedAffinity -3.39899659
REMARK minimizedRMSD -1
REMARK  0 active torsions:
REMARK  status: ('A' for Active; 'I' for Inactive)
ROOT
ATOM      1  C   UNL d   1       0.532  -1.580   1.087  0.00  0.00     0.172 C 
ATOM      2  N   UNL d   1       1.565  -1.204   2.024  0.00  0.00    -0.070 N 
ATOM      3  C1  UNL d   1       1.837  -1.835   3.208  0.00  0.00    -0.004 A 
ATOM      4  C2  UNL d   1       2.889  -1.175   3.806  0.00  0.00    -0.047 A 
ATOM      5  C3  UNL d   1       3.261  -0.110   2.952  0.00  0.00    -0.047 A 
ATOM      6  C4  UNL d   1       2.426  -0.151   1.856  0.00  0.00    -0.004 A 
ENDROOT
TORSDOF 0
ENDMDL
