MODEL 1
REMARK minimizedAffinity 0.365312427
REMARK minimizedRMSD -1
REMARK  0 active torsions:
REMARK  status: ('A' for Active; 'I' for Inactive)
ROOT
ATOM      1  C   UNL d   1       4.465  -1.990  -5.977  0.00  0.00     0.172 C 
ATOM      2  N   UNL d   1       4.860  -0.646  -5.626  0.00  0.00    -0.070 N 
ATOM      3  C1  UNL d   1       4.211   0.500  -5.999  0.00  0.00    -0.004 A 
ATOM      4  C2  UNL d   1       4.899   1.568  -5.464  0.00  0.00    -0.047 A 
ATOM      5  C3  UNL d   1       6.000   1.045  -4.745  0.00  0.00    -0.047 A 
ATOM      6  C4  UNL d   1       5.952  -0.328  -4.861  0.00  0.00    -0.004 A 
ENDROOT
TORSDOF 0
ENDMDL
