MODEL 1
REMARK minimizedAffinity 5.88159704
REMARK minimizedRMSD -1
REMARK  0 active torsions:
REMARK  status: ('A' for Active; 'I' for Inactive)
ROOT
ATOM      1  C   UNL d   1       0.186  -2.272   0.775  0.00  0.00     0.172 C 
ATOM      2  N   UNL d   1      -0.525  -2.720  -0.399  0.00  0.00    -0.070 N 
ATOM      3  C1  UNL d   1      -0.084  -3.664  -1.288  0.00  0.00    -0.004 A 
ATOM      4  C2  UNL d   1      -1.047  -3.807  -2.263  0.00  0.00    -0.047 A 
ATOM      5  C3  UNL d   1      -2.102  -2.917  -1.951  0.00  0.00    -0.047 A 
ATOM      6  C4  UNL d   1      -1.753  -2.257  -0.793  0.00  0.00    -0.004 A 
ENDROOT
TORSDOF 0
ENDMDL
