MODEL 1
REMARK minimizedAffinity -1.34960794
REMARK minimizedRMSD -1
REMARK  0 active torsions:
REMARK  status: ('A' for Active; 'I' for Inactive)
ROOT
ATOM      1  C   UNL d   1       5.973  -0.081  -6.000  0.00  0.00     0.172 C 
ATOM      2  N   UNL d   1       4.972  -1.122  -5.994  0.00  0.00    -0.070 N 
ATOM      3  C1  UNL d   1       3.617  -0.926  -5.983  0.00  0.00    -0.004 A 
ATOM      4  C2  UNL d   1       3.011  -2.164  -5.981  0.00  0.00    -0.047 A 
ATOM      5  C3  UNL d   1       4.038  -3.138  -5.992  0.00  0.00    -0.047 A 
ATOM      6  C4  UNL d   1       5.242  -2.465  -6.000  0.00  0.00    -0.004 A 
ENDROOT
TORSDOF 0
ENDMDL
