MODEL 1
REMARK minimizedAffinity -3.05322051
REMARK minimizedRMSD -1
REMARK  1 active torsions:
REMARK  status: ('A' for Active; 'I' for Inactive)
REMARK    1  A    between atoms: C1_2  and  C2_3 
ROOT
ATOM      1  C2  UNL d   1       0.239  -0.310  -0.931  0.00  0.00    -0.073 A 
ATOM      2  C3  UNL d   1      -1.039  -0.871  -1.031  0.00  0.00    -0.002 A 
ATOM      3  C4  UNL d   1      -2.008  -0.595  -0.065  0.00  0.00     0.004 A 
ATOM      4  C5  UNL d   1      -1.711   0.249   1.005  0.00  0.00    -0.004 A 
ATOM      5  C6  UNL d   1      -0.443   0.828   1.116  0.00  0.00    -0.075 A 
ATOM      6  C7  UNL d   1      -0.107   1.736   2.262  0.00  0.00     0.076 C 
ATOM      7  C8  UNL d   1       0.525   0.544   0.143  0.00  0.00     0.001 A 
ENDROOT
BRANCH   1   8
ATOM      8  C1  UNL d   1       1.286  -0.601  -1.976  0.00  0.00     0.053 C 
ATOM      9  C   UNL d   1       1.268   0.423  -3.100  0.00  0.00     0.018 C 
ENDBRANCH   1   8
TORSDOF 1
ENDMDL
