MODEL 1
REMARK minimizedAffinity -3.57255793
REMARK minimizedRMSD -1
REMARK  1 active torsions:
REMARK  status: ('A' for Active; 'I' for Inactive)
REMARK    1  A    between atoms: C1_2  and  C2_3 
ROOT
ATOM      1  C2  UNL d   1       0.441   0.168  -0.706  0.00  0.00    -0.073 A 
ATOM      2  C3  UNL d   1       1.684  -0.368  -0.353  0.00  0.00    -0.002 A 
ATOM      3  C4  UNL d   1       2.177  -0.210   0.943  0.00  0.00     0.004 A 
ATOM      4  C5  UNL d   1       1.431   0.479   1.899  0.00  0.00    -0.004 A 
ATOM      5  C6  UNL d   1       0.181   1.012   1.568  0.00  0.00    -0.075 A 
ATOM      6  C7  UNL d   1      -0.633   1.758   2.585  0.00  0.00     0.076 C 
ATOM      7  C8  UNL d   1      -0.306   0.852   0.264  0.00  0.00     0.001 A 
ENDROOT
BRANCH   1   8
ATOM      8  C1  UNL d   1      -0.099  -0.005  -2.102  0.00  0.00     0.053 C 
ATOM      9  C   UNL d   1       0.792   0.651  -3.144  0.00  0.00     0.018 C 
ENDBRANCH   1   8
TORSDOF 1
ENDMDL
