MODEL 1
REMARK minimizedAffinity -5.00396204
REMARK minimizedRMSD -1
REMARK  1 active torsions:
REMARK  status: ('A' for Active; 'I' for Inactive)
REMARK    1  A    between atoms: C1_2  and  C2_3 
ROOT
ATOM      1  C2  UNL d   1       0.095  -0.245  -0.253  0.00  0.00    -0.073 A 
ATOM      2  C3  UNL d   1      -1.242  -0.307  -0.664  0.00  0.00    -0.002 A 
ATOM      3  C4  UNL d   1      -2.251   0.229   0.137  0.00  0.00     0.004 A 
ATOM      4  C5  UNL d   1      -1.935   0.837   1.351  0.00  0.00    -0.004 A 
ATOM      5  C6  UNL d   1      -0.604   0.920   1.774  0.00  0.00    -0.075 A 
ATOM      6  C7  UNL d   1      -0.248   1.570   3.078  0.00  0.00     0.076 C 
ATOM      7  C8  UNL d   1       0.404   0.377   0.965  0.00  0.00     0.001 A 
ENDROOT
BRANCH   1   8
ATOM      8  C1  UNL d   1       1.189  -0.816  -1.117  0.00  0.00     0.053 C 
ATOM      9  C   UNL d   1       1.271  -0.121  -2.467  0.00  0.00     0.018 C 
ENDBRANCH   1   8
TORSDOF 1
ENDMDL
