MODEL 1
REMARK minimizedAffinity -4.74637365
REMARK minimizedRMSD -1
REMARK  1 active torsions:
REMARK  status: ('A' for Active; 'I' for Inactive)
REMARK    1  A    between atoms: C1_2  and  C2_3 
ROOT
ATOM      1  C2  UNL d   1       0.400   0.293  -0.498  0.00  0.00    -0.073 A 
ATOM      2  C3  UNL d   1      -0.859  -0.215  -0.841  0.00  0.00    -0.002 A 
ATOM      3  C4  UNL d   1      -1.919  -0.140   0.063  0.00  0.00     0.004 A 
ATOM      4  C5  UNL d   1      -1.735   0.449   1.314  0.00  0.00    -0.004 A 
ATOM      5  C6  UNL d   1      -0.488   0.973   1.670  0.00  0.00    -0.075 A 
ATOM      6  C7  UNL d   1      -0.273   1.607   3.013  0.00  0.00     0.076 C 
ATOM      7  C8  UNL d   1       0.573   0.891   0.758  0.00  0.00     0.001 A 
ENDROOT
BRANCH   1   8
ATOM      8  C1  UNL d   1       1.546   0.219  -1.473  0.00  0.00     0.053 C 
ATOM      9  C   UNL d   1       1.087   0.418  -2.909  0.00  0.00     0.018 C 
ENDBRANCH   1   8
TORSDOF 1
ENDMDL
