MODEL 1
REMARK minimizedAffinity -2.65210414
REMARK minimizedRMSD -1
REMARK  1 active torsions:
REMARK  status: ('A' for Active; 'I' for Inactive)
REMARK    1  A    between atoms: C1_2  and  C2_3 
ROOT
ATOM      1  C2  UNL d   1       0.375  -0.540  -0.323  0.00  0.00    -0.073 A 
ATOM      2  C3  UNL d   1       1.610  -1.060   0.083  0.00  0.00    -0.002 A 
ATOM      3  C4  UNL d   1       1.988  -1.012   1.425  0.00  0.00     0.004 A 
ATOM      4  C5  UNL d   1       1.134  -0.452   2.375  0.00  0.00    -0.004 A 
ATOM      5  C6  UNL d   1      -0.109   0.062   1.991  0.00  0.00    -0.075 A 
ATOM      6  C7  UNL d   1      -1.038   0.670   3.001  0.00  0.00     0.076 C 
ATOM      7  C8  UNL d   1      -0.480   0.013   0.641  0.00  0.00     0.001 A 
ENDROOT
BRANCH   1   8
ATOM      8  C1  UNL d   1      -0.040  -0.595  -1.770  0.00  0.00     0.053 C 
ATOM      9  C   UNL d   1       1.022  -0.013  -2.690  0.00  0.00     0.018 C 
ENDBRANCH   1   8
TORSDOF 1
ENDMDL
