MODEL 1
REMARK minimizedAffinity -5.49658394
REMARK minimizedRMSD -1
REMARK  1 active torsions:
REMARK  status: ('A' for Active; 'I' for Inactive)
REMARK    1  A    between atoms: C1_2  and  C2_3 
ROOT
ATOM      1  C2  UNL d   1       0.302  -0.786  -1.199  0.00  0.00    -0.073 A 
ATOM      2  C3  UNL d   1       1.157  -1.329  -0.234  0.00  0.00    -0.002 A 
ATOM      3  C4  UNL d   1       0.848  -1.221   1.123  0.00  0.00     0.004 A 
ATOM      4  C5  UNL d   1      -0.322  -0.578   1.527  0.00  0.00    -0.004 A 
ATOM      5  C6  UNL d   1      -1.195  -0.039   0.577  0.00  0.00    -0.075 A 
ATOM      6  C7  UNL d   1      -2.456   0.658   0.996  0.00  0.00     0.076 C 
ATOM      7  C8  UNL d   1      -0.876  -0.149  -0.783  0.00  0.00     0.001 A 
ENDROOT
BRANCH   1   8
ATOM      8  C1  UNL d   1       0.628  -0.905  -2.665  0.00  0.00     0.053 C 
ATOM      9  C   UNL d   1       1.345   0.329  -3.191  0.00  0.00     0.018 C 
ENDBRANCH   1   8
TORSDOF 1
ENDMDL
