MODEL 1
REMARK minimizedAffinity -5.10677052
REMARK minimizedRMSD -1
REMARK  1 active torsions:
REMARK  status: ('A' for Active; 'I' for Inactive)
REMARK    1  A    between atoms: C1_2  and  C2_3 
ROOT
ATOM      1  C2  UNL d   1      -0.436   0.598   1.730  0.00  0.00    -0.073 A 
ATOM      2  C3  UNL d   1       0.750   0.026   1.255  0.00  0.00    -0.002 A 
ATOM      3  C4  UNL d   1       0.714  -0.923   0.233  0.00  0.00     0.004 A 
ATOM      4  C5  UNL d   1      -0.505  -1.305  -0.329  0.00  0.00    -0.004 A 
ATOM      5  C6  UNL d   1      -1.699  -0.735   0.125  0.00  0.00    -0.075 A 
ATOM      6  C7  UNL d   1      -3.018  -1.137  -0.467  0.00  0.00     0.076 C 
ATOM      7  C8  UNL d   1      -1.655   0.215   1.154  0.00  0.00     0.001 A 
ENDROOT
BRANCH   1   8
ATOM      8  C1  UNL d   1      -0.401   1.628   2.830  0.00  0.00     0.053 C 
ATOM      9  C   UNL d   1       0.301   1.110   4.075  0.00  0.00     0.018 C 
ENDBRANCH   1   8
TORSDOF 1
ENDMDL
