MODEL 1
REMARK minimizedAffinity -2.8044486
REMARK minimizedRMSD -1
REMARK  2 active torsions:
REMARK  status: ('A' for Active; 'I' for Inactive)
REMARK    1  A    between atoms: C1_2  and  C2_3 
REMARK    2  A    between atoms: C2_3  and  C3_4 
ROOT
ATOM      1  C3  UNL d   1      -2.015  -0.200   0.948  0.00  0.00    -0.075 A 
ATOM      2  C4  UNL d   1      -1.687   0.237  -0.344  0.00  0.00     0.002 A 
ATOM      3  C5  UNL d   1      -1.743   1.593  -0.668  0.00  0.00     0.002 A 
ATOM      4  C6  UNL d   1      -2.135   2.525   0.289  0.00  0.00    -0.004 A 
ATOM      5  C7  UNL d   1      -2.479   2.100   1.571  0.00  0.00     0.002 A 
ATOM      6  C8  UNL d   1      -2.420   0.745   1.899  0.00  0.00     0.002 A 
ENDROOT
BRANCH   1   7
ATOM      7  C2  UNL d   1      -1.929  -1.663   1.313  0.00  0.00     0.056 C 
BRANCH   7   8
ATOM      8  C1  UNL d   1      -1.017  -2.483   0.394  0.00  0.00     0.007 C 
ATOM      9  C   UNL d   1      -0.488  -3.752   1.049  0.00  0.00     0.009 C 
ENDBRANCH   7   8
ENDBRANCH   1   7
TORSDOF 2
ENDMDL
