MODEL 1
REMARK minimizedAffinity -0.360699445
REMARK minimizedRMSD -1
REMARK  2 active torsions:
REMARK  status: ('A' for Active; 'I' for Inactive)
REMARK    1  A    between atoms: C1_2  and  C2_3 
REMARK    2  A    between atoms: C2_3  and  C3_4 
ROOT
ATOM      1  C3  UNL d   1      -2.932   0.665   1.146  0.00  0.00    -0.075 A 
ATOM      2  C4  UNL d   1      -2.942   0.786  -0.251  0.00  0.00     0.002 A 
ATOM      3  C5  UNL d   1      -2.798   2.035  -0.855  0.00  0.00     0.002 A 
ATOM      4  C6  UNL d   1      -2.653   3.178  -0.072  0.00  0.00    -0.004 A 
ATOM      5  C7  UNL d   1      -2.658   3.072   1.317  0.00  0.00     0.002 A 
ATOM      6  C8  UNL d   1      -2.797   1.823   1.924  0.00  0.00     0.002 A 
ENDROOT
BRANCH   1   7
ATOM      7  C2  UNL d   1      -3.057  -0.687   1.806  0.00  0.00     0.056 C 
BRANCH   7   8
ATOM      8  C1  UNL d   1      -3.007  -0.642   3.337  0.00  0.00     0.007 C 
ATOM      9  C   UNL d   1      -1.698  -0.082   3.878  0.00  0.00     0.009 C 
ENDBRANCH   7   8
ENDBRANCH   1   7
TORSDOF 2
ENDMDL
