MODEL 1
REMARK minimizedAffinity -3.86462283
REMARK minimizedRMSD -1
REMARK  2 active torsions:
REMARK  status: ('A' for Active; 'I' for Inactive)
REMARK    1  A    between atoms: C1_2  and  C2_3 
REMARK    2  A    between atoms: C2_3  and  C3_4 
ROOT
ATOM      1  C3  UNL d   1       3.102   1.298  -4.562  0.00  0.00    -0.075 A 
ATOM      2  C4  UNL d   1       3.100   0.516  -3.398  0.00  0.00     0.002 A 
ATOM      3  C5  UNL d   1       1.976   0.478  -2.573  0.00  0.00     0.002 A 
ATOM      4  C6  UNL d   1       0.847   1.229  -2.894  0.00  0.00    -0.004 A 
ATOM      5  C7  UNL d   1       0.844   2.022  -4.039  0.00  0.00     0.002 A 
ATOM      6  C8  UNL d   1       1.966   2.058  -4.869  0.00  0.00     0.002 A 
ENDROOT
BRANCH   1   7
ATOM      7  C2  UNL d   1       4.305   1.319  -5.476  0.00  0.00     0.056 C 
BRANCH   7   8
ATOM      8  C1  UNL d   1       5.484   0.480  -4.974  0.00  0.00     0.007 C 
ATOM      9  C   UNL d   1       5.983  -0.529  -6.000  0.00  0.00     0.009 C 
ENDBRANCH   7   8
ENDBRANCH   1   7
TORSDOF 2
ENDMDL
