MODEL 1
REMARK minimizedAffinity 3.02779508
REMARK minimizedRMSD -1
REMARK  2 active torsions:
REMARK  status: ('A' for Active; 'I' for Inactive)
REMARK    1  A    between atoms: C1_2  and  C2_3 
REMARK    2  A    between atoms: C2_3  and  C3_4 
ROOT
ATOM      1  C3  UNL d   1      -1.585   1.873  -0.560  0.00  0.00    -0.075 A 
ATOM      2  C4  UNL d   1      -2.070   3.120  -0.140  0.00  0.00     0.002 A 
ATOM      3  C5  UNL d   1      -3.345   3.234   0.415  0.00  0.00     0.002 A 
ATOM      4  C6  UNL d   1      -4.153   2.108   0.548  0.00  0.00    -0.004 A 
ATOM      5  C7  UNL d   1      -3.688   0.866   0.119  0.00  0.00     0.002 A 
ATOM      6  C8  UNL d   1      -2.411   0.748  -0.432  0.00  0.00     0.002 A 
ENDROOT
BRANCH   1   7
ATOM      7  C2  UNL d   1      -0.195   1.737  -1.134  0.00  0.00     0.056 C 
BRANCH   7   8
ATOM      8  C1  UNL d   1      -0.005   0.506  -2.025  0.00  0.00     0.007 C 
ATOM      9  C   UNL d   1       0.659   0.825  -3.358  0.00  0.00     0.009 C 
ENDBRANCH   7   8
ENDBRANCH   1   7
TORSDOF 2
ENDMDL
