MODEL 1
REMARK minimizedAffinity -2.91608644
REMARK minimizedRMSD -1
REMARK  2 active torsions:
REMARK  status: ('A' for Active; 'I' for Inactive)
REMARK    1  A    between atoms: C1_2  and  C2_3 
REMARK    2  A    between atoms: C2_3  and  C3_4 
ROOT
ATOM      1  C3  UNL d   1       3.568   1.674  -5.131  0.00  0.00    -0.075 A 
ATOM      2  C4  UNL d   1       4.762   2.406  -5.059  0.00  0.00     0.002 A 
ATOM      3  C5  UNL d   1       5.969   1.836  -5.466  0.00  0.00     0.002 A 
ATOM      4  C6  UNL d   1       5.999   0.526  -5.939  0.00  0.00    -0.004 A 
ATOM      5  C7  UNL d   1       4.822  -0.216  -5.999  0.00  0.00     0.002 A 
ATOM      6  C8  UNL d   1       3.612   0.353  -5.597  0.00  0.00     0.002 A 
ENDROOT
BRANCH   1   7
ATOM      7  C2  UNL d   1       2.255   2.295  -4.720  0.00  0.00     0.056 C 
BRANCH   7   8
ATOM      8  C1  UNL d   1       1.210   1.284  -4.236  0.00  0.00     0.007 C 
ATOM      9  C   UNL d   1       1.053   1.261  -2.722  0.00  0.00     0.009 C 
ENDBRANCH   7   8
ENDBRANCH   1   7
TORSDOF 2
ENDMDL
