MODEL 1
REMARK minimizedAffinity -0.586615264
REMARK minimizedRMSD -1
REMARK  2 active torsions:
REMARK  status: ('A' for Active; 'I' for Inactive)
REMARK    1  A    between atoms: C1_2  and  C2_3 
REMARK    2  A    between atoms: C2_3  and  C3_4 
ROOT
ATOM      1  C3  UNL d   1      -3.333   4.627   1.529  0.00  0.00    -0.075 A 
ATOM      2  C4  UNL d   1      -3.282   3.303   1.988  0.00  0.00     0.002 A 
ATOM      3  C5  UNL d   1      -2.936   2.266   1.121  0.00  0.00     0.002 A 
ATOM      4  C6  UNL d   1      -2.647   2.537  -0.215  0.00  0.00    -0.004 A 
ATOM      5  C7  UNL d   1      -2.711   3.847  -0.685  0.00  0.00     0.002 A 
ATOM      6  C8  UNL d   1      -3.053   4.887   0.181  0.00  0.00     0.002 A 
ENDROOT
BRANCH   1   7
ATOM      7  C2  UNL d   1      -3.678   5.757   2.469  0.00  0.00     0.056 C 
BRANCH   7   8
ATOM      8  C1  UNL d   1      -4.873   5.466   3.382  0.00  0.00     0.007 C 
ATOM      9  C   UNL d   1      -4.677   5.968   4.807  0.00  0.00     0.009 C 
ENDBRANCH   7   8
ENDBRANCH   1   7
TORSDOF 2
ENDMDL
