MODEL 1
REMARK minimizedAffinity 6.71372938
REMARK minimizedRMSD -1
REMARK  2 active torsions:
REMARK  status: ('A' for Active; 'I' for Inactive)
REMARK    1  A    between atoms: C1_2  and  C2_3 
REMARK    2  A    between atoms: C2_3  and  C3_4 
ROOT
ATOM      1  C3  UNL d   1      -3.462  -0.411   3.186  0.00  0.00    -0.075 A 
ATOM      2  C4  UNL d   1      -2.249  -1.112   3.267  0.00  0.00     0.002 A 
ATOM      3  C5  UNL d   1      -2.124  -2.216   4.111  0.00  0.00     0.002 A 
ATOM      4  C6  UNL d   1      -3.203  -2.626   4.890  0.00  0.00    -0.004 A 
ATOM      5  C7  UNL d   1      -4.407  -1.928   4.830  0.00  0.00     0.002 A 
ATOM      6  C8  UNL d   1      -4.537  -0.825   3.983  0.00  0.00     0.002 A 
ENDROOT
BRANCH   1   7
ATOM      7  C2  UNL d   1      -3.612   0.767   2.253  0.00  0.00     0.056 C 
BRANCH   7   8
ATOM      8  C1  UNL d   1      -3.612   0.390   0.768  0.00  0.00     0.007 C 
ATOM      9  C   UNL d   1      -4.951   0.636   0.086  0.00  0.00     0.009 C 
ENDBRANCH   7   8
ENDBRANCH   1   7
TORSDOF 2
ENDMDL
