MODEL 1
REMARK minimizedAffinity -0.0306620952
REMARK minimizedRMSD -1
REMARK  2 active torsions:
REMARK  status: ('A' for Active; 'I' for Inactive)
REMARK    1  A    between atoms: C1_2  and  C2_3 
REMARK    2  A    between atoms: C2_3  and  C3_4 
ROOT
ATOM      1  C3  UNL d   1      -2.911   1.518   1.920  0.00  0.00    -0.075 A 
ATOM      2  C4  UNL d   1      -3.434   0.707   0.902  0.00  0.00     0.002 A 
ATOM      3  C5  UNL d   1      -3.571   1.199  -0.396  0.00  0.00     0.002 A 
ATOM      4  C6  UNL d   1      -3.197   2.509  -0.691  0.00  0.00    -0.004 A 
ATOM      5  C7  UNL d   1      -2.692   3.329   0.316  0.00  0.00     0.002 A 
ATOM      6  C8  UNL d   1      -2.550   2.837   1.615  0.00  0.00     0.002 A 
ENDROOT
BRANCH   1   7
ATOM      7  C2  UNL d   1      -2.733   0.982   3.320  0.00  0.00     0.056 C 
BRANCH   7   8
ATOM      8  C1  UNL d   1      -2.914  -0.535   3.435  0.00  0.00     0.007 C 
ATOM      9  C   UNL d   1      -4.106  -0.934   4.294  0.00  0.00     0.009 C 
ENDBRANCH   7   8
ENDBRANCH   1   7
TORSDOF 2
ENDMDL
