MODEL 1
REMARK minimizedAffinity 8.88407707
REMARK minimizedRMSD -1
REMARK  2 active torsions:
REMARK  status: ('A' for Active; 'I' for Inactive)
REMARK    1  A    between atoms: C1_2  and  C2_3 
REMARK    2  A    between atoms: C2_3  and  C3_4 
ROOT
ATOM      1  C3  UNL d   1      -4.083  -0.754   3.621  0.00  0.00    -0.075 A 
ATOM      2  C4  UNL d   1      -4.000  -0.357   2.279  0.00  0.00     0.002 A 
ATOM      3  C5  UNL d   1      -2.908   0.383   1.825  0.00  0.00     0.002 A 
ATOM      4  C6  UNL d   1      -1.892   0.744   2.708  0.00  0.00    -0.004 A 
ATOM      5  C7  UNL d   1      -1.972   0.369   4.047  0.00  0.00     0.002 A 
ATOM      6  C8  UNL d   1      -3.062  -0.376   4.503  0.00  0.00     0.002 A 
ENDROOT
BRANCH   1   7
ATOM      7  C2  UNL d   1      -5.248  -1.580   4.112  0.00  0.00     0.056 C 
BRANCH   7   8
ATOM      8  C1  UNL d   1      -5.999  -2.321   3.001  0.00  0.00     0.007 C 
ATOM      9  C   UNL d   1      -5.998  -3.834   3.181  0.00  0.00     0.009 C 
ENDBRANCH   7   8
ENDBRANCH   1   7
TORSDOF 2
ENDMDL
