MODEL 1
REMARK minimizedAffinity 0.156644389
REMARK minimizedRMSD -1
REMARK  2 active torsions:
REMARK  status: ('A' for Active; 'I' for Inactive)
REMARK    1  A    between atoms: C1_2  and  C2_3 
REMARK    2  A    between atoms: C2_3  and  C3_4 
ROOT
ATOM      1  C3  UNL d   1       5.230   2.281   2.338  0.00  0.00    -0.075 A 
ATOM      2  C4  UNL d   1       5.242   0.988   1.794  0.00  0.00     0.002 A 
ATOM      3  C5  UNL d   1       5.617  -0.105   2.576  0.00  0.00     0.002 A 
ATOM      4  C6  UNL d   1       5.993   0.081   3.905  0.00  0.00    -0.004 A 
ATOM      5  C7  UNL d   1       6.000   1.363   4.450  0.00  0.00     0.002 A 
ATOM      6  C8  UNL d   1       5.621   2.458   3.671  0.00  0.00     0.002 A 
ENDROOT
BRANCH   1   7
ATOM      7  C2  UNL d   1       4.797   3.465   1.506  0.00  0.00     0.056 C 
BRANCH   7   8
ATOM      8  C1  UNL d   1       3.295   3.761   1.577  0.00  0.00     0.007 C 
ATOM      9  C   UNL d   1       2.619   3.763   0.212  0.00  0.00     0.009 C 
ENDBRANCH   7   8
ENDBRANCH   1   7
TORSDOF 2
ENDMDL
