MODEL 1
REMARK minimizedAffinity 4.07863474
REMARK minimizedRMSD -1
REMARK  2 active torsions:
REMARK  status: ('A' for Active; 'I' for Inactive)
REMARK    1  A    between atoms: C1_2  and  C2_3 
REMARK    2  A    between atoms: C2_3  and  C3_4 
ROOT
ATOM      1  C3  UNL d   1      -3.525   0.184   1.700  0.00  0.00    -0.075 A 
ATOM      2  C4  UNL d   1      -4.408  -0.665   2.383  0.00  0.00     0.002 A 
ATOM      3  C5  UNL d   1      -4.151  -1.042   3.701  0.00  0.00     0.002 A 
ATOM      4  C6  UNL d   1      -3.005  -0.585   4.349  0.00  0.00    -0.004 A 
ATOM      5  C7  UNL d   1      -2.113   0.245   3.674  0.00  0.00     0.002 A 
ATOM      6  C8  UNL d   1      -2.369   0.628   2.356  0.00  0.00     0.002 A 
ENDROOT
BRANCH   1   7
ATOM      7  C2  UNL d   1      -3.812   0.619   0.283  0.00  0.00     0.056 C 
BRANCH   7   8
ATOM      8  C1  UNL d   1      -4.915  -0.190  -0.407  0.00  0.00     0.007 C 
ATOM      9  C   UNL d   1      -5.978   0.680  -1.064  0.00  0.00     0.009 C 
ENDBRANCH   7   8
ENDBRANCH   1   7
TORSDOF 2
ENDMDL
