MODEL 1
REMARK minimizedAffinity -3.05495214
REMARK minimizedRMSD -1
REMARK  2 active torsions:
REMARK  status: ('A' for Active; 'I' for Inactive)
REMARK    1  A    between atoms: C1_2  and  C2_3 
REMARK    2  A    between atoms: C2_3  and  C3_4 
ROOT
ATOM      1  C3  UNL d   1      -2.700   0.823   1.294  0.00  0.00    -0.075 A 
ATOM      2  C4  UNL d   1      -3.074  -0.506   1.044  0.00  0.00     0.002 A 
ATOM      3  C5  UNL d   1      -3.377  -1.367   2.099  0.00  0.00     0.002 A 
ATOM      4  C6  UNL d   1      -3.299  -0.916   3.415  0.00  0.00    -0.004 A 
ATOM      5  C7  UNL d   1      -2.912   0.397   3.676  0.00  0.00     0.002 A 
ATOM      6  C8  UNL d   1      -2.613   1.262   2.622  0.00  0.00     0.002 A 
ENDROOT
BRANCH   1   7
ATOM      7  C2  UNL d   1      -2.400   1.768   0.156  0.00  0.00     0.056 C 
BRANCH   7   8
ATOM      8  C1  UNL d   1      -3.535   2.748  -0.157  0.00  0.00     0.007 C 
ATOM      9  C   UNL d   1      -3.353   4.109   0.501  0.00  0.00     0.009 C 
ENDBRANCH   7   8
ENDBRANCH   1   7
TORSDOF 2
ENDMDL
