MODEL 1
REMARK minimizedAffinity 3.79015541
REMARK minimizedRMSD -1
REMARK  2 active torsions:
REMARK  status: ('A' for Active; 'I' for Inactive)
REMARK    1  A    between atoms: C1_2  and  C2_3 
REMARK    2  A    between atoms: C2_3  and  C3_4 
ROOT
ATOM      1  C3  UNL d   1       4.867   2.319   3.382  0.00  0.00    -0.075 A 
ATOM      2  C4  UNL d   1       4.033   1.488   2.620  0.00  0.00     0.002 A 
ATOM      3  C5  UNL d   1       3.831   0.158   2.987  0.00  0.00     0.002 A 
ATOM      4  C6  UNL d   1       4.466  -0.361   4.114  0.00  0.00    -0.004 A 
ATOM      5  C7  UNL d   1       5.309   0.451   4.869  0.00  0.00     0.002 A 
ATOM      6  C8  UNL d   1       5.510   1.784   4.506  0.00  0.00     0.002 A 
ENDROOT
BRANCH   1   7
ATOM      7  C2  UNL d   1       5.067   3.768   3.006  0.00  0.00     0.056 C 
BRANCH   7   8
ATOM      8  C1  UNL d   1       6.000   4.534   3.949  0.00  0.00     0.007 C 
ATOM      9  C   UNL d   1       5.620   6.000   4.110  0.00  0.00     0.009 C 
ENDBRANCH   7   8
ENDBRANCH   1   7
TORSDOF 2
ENDMDL
