MODEL 1
REMARK minimizedAffinity -3.06056023
REMARK minimizedRMSD -1
REMARK  2 active torsions:
REMARK  status: ('A' for Active; 'I' for Inactive)
REMARK    1  A    between atoms: C1_2  and  C2_3 
REMARK    2  A    between atoms: C2_3  and  C3_4 
ROOT
ATOM      1  C3  UNL d   1      -2.609   0.828   0.690  0.00  0.00    -0.075 A 
ATOM      2  C4  UNL d   1      -2.476  -0.559   0.533  0.00  0.00     0.002 A 
ATOM      3  C5  UNL d   1      -2.365  -1.391   1.648  0.00  0.00     0.002 A 
ATOM      4  C6  UNL d   1      -2.375  -0.847   2.930  0.00  0.00    -0.004 A 
ATOM      5  C7  UNL d   1      -2.490   0.531   3.098  0.00  0.00     0.002 A 
ATOM      6  C8  UNL d   1      -2.606   1.365   1.984  0.00  0.00     0.002 A 
ENDROOT
BRANCH   1   7
ATOM      7  C2  UNL d   1      -2.759   1.731  -0.511  0.00  0.00     0.056 C 
BRANCH   7   8
ATOM      8  C1  UNL d   1      -2.314   3.176  -0.264  0.00  0.00     0.007 C 
ATOM      9  C   UNL d   1      -3.476   4.125  -0.000  0.00  0.00     0.009 C 
ENDBRANCH   7   8
ENDBRANCH   1   7
TORSDOF 2
ENDMDL
