MODEL 1
REMARK minimizedAffinity -2.43169832
REMARK minimizedRMSD -1
REMARK  2 active torsions:
REMARK  status: ('A' for Active; 'I' for Inactive)
REMARK    1  A    between atoms: C1_2  and  C2_3 
REMARK    2  A    between atoms: C2_3  and  C3_4 
ROOT
ATOM      1  C3  UNL d   1      -2.580   1.030   0.814  0.00  0.00    -0.075 A 
ATOM      2  C4  UNL d   1      -2.804  -0.308   0.458  0.00  0.00     0.002 A 
ATOM      3  C5  UNL d   1      -2.910  -1.294   1.440  0.00  0.00     0.002 A 
ATOM      4  C6  UNL d   1      -2.783  -0.957   2.786  0.00  0.00    -0.004 A 
ATOM      5  C7  UNL d   1      -2.544   0.367   3.150  0.00  0.00     0.002 A 
ATOM      6  C8  UNL d   1      -2.442   1.356   2.170  0.00  0.00     0.002 A 
ENDROOT
BRANCH   1   7
ATOM      7  C2  UNL d   1      -2.494   2.106  -0.242  0.00  0.00     0.056 C 
BRANCH   7   8
ATOM      8  C1  UNL d   1      -3.477   3.263  -0.036  0.00  0.00     0.007 C 
ATOM      9  C   UNL d   1      -3.057   4.216   1.075  0.00  0.00     0.009 C 
ENDBRANCH   7   8
ENDBRANCH   1   7
TORSDOF 2
ENDMDL
