MODEL 1
REMARK minimizedAffinity -2.78608775
REMARK minimizedRMSD -1
REMARK  2 active torsions:
REMARK  status: ('A' for Active; 'I' for Inactive)
REMARK    1  A    between atoms: C1_2  and  C2_3 
REMARK    2  A    between atoms: C2_3  and  C3_4 
ROOT
ATOM      1  C3  UNL d   1      -3.681   1.617   3.750  0.00  0.00    -0.075 A 
ATOM      2  C4  UNL d   1      -2.554   1.185   3.037  0.00  0.00     0.002 A 
ATOM      3  C5  UNL d   1      -2.413  -0.157   2.680  0.00  0.00     0.002 A 
ATOM      4  C6  UNL d   1      -3.389  -1.083   3.039  0.00  0.00    -0.004 A 
ATOM      5  C7  UNL d   1      -4.505  -0.668   3.762  0.00  0.00     0.002 A 
ATOM      6  C8  UNL d   1      -4.651   0.674   4.117  0.00  0.00     0.002 A 
ENDROOT
BRANCH   1   7
ATOM      7  C2  UNL d   1      -3.854   3.072   4.114  0.00  0.00     0.056 C 
BRANCH   7   8
ATOM      8  C1  UNL d   1      -3.555   4.042   2.967  0.00  0.00     0.007 C 
ATOM      9  C   UNL d   1      -3.878   5.491   3.305  0.00  0.00     0.009 C 
ENDBRANCH   7   8
ENDBRANCH   1   7
TORSDOF 2
ENDMDL
