MODEL 1
REMARK minimizedAffinity -4.43812847
REMARK minimizedRMSD -1
REMARK  0 active torsions:
REMARK  status: ('A' for Active; 'I' for Inactive)
ROOT
ATOM      1  C1  BNZ d   1       2.381  -1.173   1.285  0.00  0.00     0.000 A 
ATOM      2  C2  BNZ d   1       1.530  -0.604   0.376  0.00  0.00     0.000 A 
ATOM      3  C3  BNZ d   1       0.286  -0.180   0.751  0.00  0.00     0.000 A 
ATOM      4  C4  BNZ d   1      -0.120  -0.361   2.024  0.00  0.00     0.000 A 
ATOM      5  C5  BNZ d   1       0.723  -0.942   2.951  0.00  0.00     0.000 A 
ATOM      6  C6  BNZ d   1       1.989  -1.332   2.579  0.00  0.00     0.000 A 
ENDROOT
TORSDOF 0
ENDMDL
