MODEL 1
REMARK minimizedAffinity -4.72580194
REMARK minimizedRMSD -1
REMARK  0 active torsions:
REMARK  status: ('A' for Active; 'I' for Inactive)
ROOT
ATOM      1  C1  BNZ d   1      -0.859  -0.607   1.530  0.00  0.00     0.000 A 
ATOM      2  C2  BNZ d   1      -0.258  -1.227   2.592  0.00  0.00     0.000 A 
ATOM      3  C3  BNZ d   1       1.105  -1.288   2.688  0.00  0.00     0.000 A 
ATOM      4  C4  BNZ d   1       1.862  -0.765   1.702  0.00  0.00     0.000 A 
ATOM      5  C5  BNZ d   1       1.271  -0.145   0.620  0.00  0.00     0.000 A 
ATOM      6  C6  BNZ d   1      -0.100  -0.052   0.546  0.00  0.00     0.000 A 
ENDROOT
TORSDOF 0
ENDMDL
