MODEL 1
REMARK minimizedAffinity -5.01223087
REMARK minimizedRMSD -1
REMARK  0 active torsions:
REMARK  status: ('A' for Active; 'I' for Inactive)
ROOT
ATOM      1  C1  BNZ d   1       1.050  -1.033   2.859  0.00  0.00     0.000 A 
ATOM      2  C2  BNZ d   1       2.230  -1.715   2.731  0.00  0.00     0.000 A 
ATOM      3  C3  BNZ d   1       2.930  -1.687   1.557  0.00  0.00     0.000 A 
ATOM      4  C4  BNZ d   1       2.430  -1.012   0.503  0.00  0.00     0.000 A 
ATOM      5  C5  BNZ d   1       1.236  -0.327   0.613  0.00  0.00     0.000 A 
ATOM      6  C6  BNZ d   1       0.554  -0.325   1.808  0.00  0.00     0.000 A 
ENDROOT
TORSDOF 0
ENDMDL
