MODEL 1
REMARK minimizedAffinity -4.83812237
REMARK minimizedRMSD -1
REMARK  0 active torsions:
REMARK  status: ('A' for Active; 'I' for Inactive)
ROOT
ATOM      1  C1  BNZ d   1       0.355  -0.460   0.374  0.00  0.00     0.000 A 
ATOM      2  C2  BNZ d   1      -0.057  -0.513   1.679  0.00  0.00     0.000 A 
ATOM      3  C3  BNZ d   1       0.687  -1.166   2.622  0.00  0.00     0.000 A 
ATOM      4  C4  BNZ d   1       1.820  -1.797   2.252  0.00  0.00     0.000 A 
ATOM      5  C5  BNZ d   1       2.244  -1.760   0.938  0.00  0.00     0.000 A 
ATOM      6  C6  BNZ d   1       1.512  -1.070  -0.000  0.00  0.00     0.000 A 
ENDROOT
TORSDOF 0
ENDMDL
