MODEL 1
REMARK minimizedAffinity -4.41512251
REMARK minimizedRMSD -1
REMARK  0 active torsions:
REMARK  status: ('A' for Active; 'I' for Inactive)
ROOT
ATOM      1  C1  BNZ d   1       0.410  -0.076   1.669  0.00  0.00     0.000 A 
ATOM      2  C2  BNZ d   1       0.918  -0.833   2.690  0.00  0.00     0.000 A 
ATOM      3  C3  BNZ d   1       1.832  -1.820   2.443  0.00  0.00     0.000 A 
ATOM      4  C4  BNZ d   1       2.205  -2.074   1.172  0.00  0.00     0.000 A 
ATOM      5  C5  BNZ d   1       1.694  -1.325   0.130  0.00  0.00     0.000 A 
ATOM      6  C6  BNZ d   1       0.805  -0.307   0.387  0.00  0.00     0.000 A 
ENDROOT
TORSDOF 0
ENDMDL
