MODEL 1
REMARK minimizedAffinity -5.47168493
REMARK minimizedRMSD -1
REMARK  0 active torsions:
REMARK  status: ('A' for Active; 'I' for Inactive)
ROOT
ATOM      1  C1  BNZ d   1       0.425  -0.396   0.482  0.00  0.00     0.000 A 
ATOM      2  C2  BNZ d   1       0.130  -0.386   1.819  0.00  0.00     0.000 A 
ATOM      3  C3  BNZ d   1       0.899  -1.083   2.710  0.00  0.00     0.000 A 
ATOM      4  C4  BNZ d   1       1.934  -1.819   2.258  0.00  0.00     0.000 A 
ATOM      5  C5  BNZ d   1       2.239  -1.846   0.912  0.00  0.00     0.000 A 
ATOM      6  C6  BNZ d   1       1.487  -1.112   0.023  0.00  0.00     0.000 A 
ENDROOT
TORSDOF 0
ENDMDL
