MODEL 1
REMARK minimizedAffinity -4.49832773
REMARK minimizedRMSD -1
REMARK  0 active torsions:
REMARK  status: ('A' for Active; 'I' for Inactive)
ROOT
ATOM      1  C1  BNZ d   1       2.017  -1.544   2.681  0.00  0.00     0.000 A 
ATOM      2  C2  BNZ d   1       0.961  -0.676   2.607  0.00  0.00     0.000 A 
ATOM      3  C3  BNZ d   1       0.470  -0.273   1.397  0.00  0.00     0.000 A 
ATOM      4  C4  BNZ d   1       1.059  -0.708   0.264  0.00  0.00     0.000 A 
ATOM      5  C5  BNZ d   1       2.131  -1.577   0.323  0.00  0.00     0.000 A 
ATOM      6  C6  BNZ d   1       2.598  -2.010   1.542  0.00  0.00     0.000 A 
ENDROOT
TORSDOF 0
ENDMDL
