MODEL 1
REMARK minimizedAffinity -3.7445147
REMARK minimizedRMSD -1
REMARK  0 active torsions:
REMARK  status: ('A' for Active; 'I' for Inactive)
ROOT
ATOM      1  C1  BNZ d   1       1.586  -1.833  -0.164  0.00  0.00     0.000 A 
ATOM      2  C2  BNZ d   1       2.203  -2.606   0.782  0.00  0.00     0.000 A 
ATOM      3  C3  BNZ d   1       1.726  -2.661   2.062  0.00  0.00     0.000 A 
ATOM      4  C4  BNZ d   1       0.658  -1.913   2.404  0.00  0.00     0.000 A 
ATOM      5  C5  BNZ d   1       0.030  -1.120   1.464  0.00  0.00     0.000 A 
ATOM      6  C6  BNZ d   1       0.489  -1.097   0.167  0.00  0.00     0.000 A 
ENDROOT
TORSDOF 0
ENDMDL
