MODEL 1
REMARK minimizedAffinity -3.58170676
REMARK minimizedRMSD -1
REMARK  0 active torsions:
REMARK  status: ('A' for Active; 'I' for Inactive)
ROOT
ATOM      1  C1  BNZ d   1       1.563  -1.786   2.199  0.00  0.00     0.000 A 
ATOM      2  C2  BNZ d   1       0.468  -1.005   2.458  0.00  0.00     0.000 A 
ATOM      3  C3  BNZ d   1      -0.115  -0.267   1.465  0.00  0.00     0.000 A 
ATOM      4  C4  BNZ d   1       0.421  -0.281   0.228  0.00  0.00     0.000 A 
ATOM      5  C5  BNZ d   1       1.530  -1.056  -0.046  0.00  0.00     0.000 A 
ATOM      6  C6  BNZ d   1       2.091  -1.827   0.946  0.00  0.00     0.000 A 
ENDROOT
TORSDOF 0
ENDMDL
