MODEL 1
REMARK minimizedAffinity -5.11783648
REMARK minimizedRMSD -1
REMARK  0 active torsions:
REMARK  status: ('A' for Active; 'I' for Inactive)
ROOT
ATOM      1  C1  BNZ d   1       0.755  -0.310   0.384  0.00  0.00     0.000 A 
ATOM      2  C2  BNZ d   1       0.336   0.013   1.647  0.00  0.00     0.000 A 
ATOM      3  C3  BNZ d   1       0.890  -0.588   2.743  0.00  0.00     0.000 A 
ATOM      4  C4  BNZ d   1       1.831  -1.539   2.573  0.00  0.00     0.000 A 
ATOM      5  C5  BNZ d   1       2.256  -1.883   1.305  0.00  0.00     0.000 A 
ATOM      6  C6  BNZ d   1       1.725  -1.248   0.206  0.00  0.00     0.000 A 
ENDROOT
TORSDOF 0
ENDMDL
