MODEL 1
REMARK minimizedAffinity -4.43024588
REMARK minimizedRMSD -1
REMARK  0 active torsions:
REMARK  status: ('A' for Active; 'I' for Inactive)
ROOT
ATOM      1  C1  BNZ d   1      -0.020  -0.166   0.562  0.00  0.00     0.000 A 
ATOM      2  C2  BNZ d   1      -0.570  -0.020   1.807  0.00  0.00     0.000 A 
ATOM      3  C3  BNZ d   1       0.022  -0.581   2.904  0.00  0.00     0.000 A 
ATOM      4  C4  BNZ d   1       1.139  -1.320   2.749  0.00  0.00     0.000 A 
ATOM      5  C5  BNZ d   1       1.700  -1.485   1.498  0.00  0.00     0.000 A 
ATOM      6  C6  BNZ d   1       1.123  -0.886   0.402  0.00  0.00     0.000 A 
ENDROOT
TORSDOF 0
ENDMDL
