MODEL 1
REMARK minimizedAffinity -4.26591873
REMARK minimizedRMSD -1
REMARK  1 active torsions:
REMARK  status: ('A' for Active; 'I' for Inactive)
REMARK    1  A    between atoms: C1_2  and  C2_3 
ROOT
ATOM      1  C2  UNL d   1      -1.024   0.440   1.409  0.00  0.00    -0.077 A 
ATOM      2  C3  UNL d   1      -0.287   1.538   0.943  0.00  0.00     0.002 A 
ATOM      3  C4  UNL d   1       0.676   1.370  -0.055  0.00  0.00     0.002 A 
ATOM      4  C5  UNL d   1       0.906   0.108  -0.598  0.00  0.00    -0.004 A 
ATOM      5  C6  UNL d   1       0.180  -0.990  -0.140  0.00  0.00     0.002 A 
ATOM      6  C7  UNL d   1      -0.781  -0.825   0.858  0.00  0.00     0.002 A 
ENDROOT
BRANCH   1   7
ATOM      7  C1  UNL d   1      -2.096   0.626   2.450  0.00  0.00     0.055 C 
ATOM      8  C   UNL d   1      -3.484   0.444   1.854  0.00  0.00     0.019 C 
ENDBRANCH   1   7
TORSDOF 1
ENDMDL
