MODEL 1
REMARK minimizedAffinity -4.03532934
REMARK minimizedRMSD -1
REMARK  1 active torsions:
REMARK  status: ('A' for Active; 'I' for Inactive)
REMARK    1  A    between atoms: C1_2  and  C2_3 
ROOT
ATOM      1  C2  UNL d   1       1.156  -0.637  -1.656  0.00  0.00    -0.077 A 
ATOM      2  C3  UNL d   1       1.847   0.524  -2.030  0.00  0.00     0.002 A 
ATOM      3  C4  UNL d   1       1.498   1.761  -1.483  0.00  0.00     0.002 A 
ATOM      4  C5  UNL d   1       0.462   1.847  -0.556  0.00  0.00    -0.004 A 
ATOM      5  C6  UNL d   1      -0.233   0.698  -0.179  0.00  0.00     0.002 A 
ATOM      6  C7  UNL d   1       0.114  -0.539  -0.726  0.00  0.00     0.002 A 
ENDROOT
BRANCH   1   7
ATOM      7  C1  UNL d   1       1.563  -1.978  -2.208  0.00  0.00     0.055 C 
ATOM      8  C   UNL d   1       0.854  -3.113  -1.484  0.00  0.00     0.019 C 
ENDBRANCH   1   7
TORSDOF 1
ENDMDL
