MODEL 1
REMARK minimizedAffinity -5.11942148
REMARK minimizedRMSD -1
REMARK  1 active torsions:
REMARK  status: ('A' for Active; 'I' for Inactive)
REMARK    1  A    between atoms: C1_2  and  C2_3 
ROOT
ATOM      1  C2  UNL d   1       0.247  -0.209   0.194  0.00  0.00    -0.077 A 
ATOM      2  C3  UNL d   1       0.345  -1.508  -0.325  0.00  0.00     0.002 A 
ATOM      3  C4  UNL d   1       0.992  -1.736  -1.541  0.00  0.00     0.002 A 
ATOM      4  C5  UNL d   1       1.549  -0.671  -2.246  0.00  0.00    -0.004 A 
ATOM      5  C6  UNL d   1       1.456   0.625  -1.739  0.00  0.00     0.002 A 
ATOM      6  C7  UNL d   1       0.808   0.855  -0.524  0.00  0.00     0.002 A 
ENDROOT
BRANCH   1   7
ATOM      7  C1  UNL d   1      -0.407   0.032   1.529  0.00  0.00     0.055 C 
ATOM      8  C   UNL d   1      -1.910   0.222   1.384  0.00  0.00     0.019 C 
ENDBRANCH   1   7
TORSDOF 1
ENDMDL
