MODEL 1
REMARK minimizedAffinity -3.9228642
REMARK minimizedRMSD -1
REMARK  1 active torsions:
REMARK  status: ('A' for Active; 'I' for Inactive)
REMARK    1  A    between atoms: C1_2  and  C2_3 
ROOT
ATOM      1  C2  UNL d   1       0.658  -0.447  -0.357  0.00  0.00    -0.077 A 
ATOM      2  C3  UNL d   1       1.362   0.077  -1.451  0.00  0.00     0.002 A 
ATOM      3  C4  UNL d   1       1.518  -0.676  -2.616  0.00  0.00     0.002 A 
ATOM      4  C5  UNL d   1       0.970  -1.954  -2.701  0.00  0.00    -0.004 A 
ATOM      5  C6  UNL d   1       0.270  -2.484  -1.617  0.00  0.00     0.002 A 
ATOM      6  C7  UNL d   1       0.114  -1.734  -0.451  0.00  0.00     0.002 A 
ENDROOT
BRANCH   1   7
ATOM      7  C1  UNL d   1       0.447   0.383   0.883  0.00  0.00     0.055 C 
ATOM      8  C   UNL d   1       1.281   1.655   0.847  0.00  0.00     0.019 C 
ENDBRANCH   1   7
TORSDOF 1
ENDMDL
