MODEL 1
REMARK minimizedAffinity -5.54115868
REMARK minimizedRMSD -1
REMARK  1 active torsions:
REMARK  status: ('A' for Active; 'I' for Inactive)
REMARK    1  A    between atoms: C1_2  and  C2_3 
ROOT
ATOM      1  C2  UNL d   1       0.465  -0.330  -0.393  0.00  0.00    -0.077 A 
ATOM      2  C3  UNL d   1       0.595  -1.657  -0.827  0.00  0.00     0.002 A 
ATOM      3  C4  UNL d   1       1.280  -1.950  -2.008  0.00  0.00     0.002 A 
ATOM      4  C5  UNL d   1       1.843  -0.922  -2.761  0.00  0.00    -0.004 A 
ATOM      5  C6  UNL d   1       1.718   0.401  -2.339  0.00  0.00     0.002 A 
ATOM      6  C7  UNL d   1       1.032   0.695  -1.160  0.00  0.00     0.002 A 
ENDROOT
BRANCH   1   7
ATOM      7  C1  UNL d   1      -0.231  -0.017   0.906  0.00  0.00     0.055 C 
ATOM      8  C   UNL d   1      -1.704  -0.395   0.850  0.00  0.00     0.019 C 
ENDBRANCH   1   7
TORSDOF 1
ENDMDL
