MODEL 1
REMARK minimizedAffinity -3.75442386
REMARK minimizedRMSD -1
REMARK  1 active torsions:
REMARK  status: ('A' for Active; 'I' for Inactive)
REMARK    1  A    between atoms: C1_2  and  C2_3 
ROOT
ATOM      1  C2  UNL d   1       0.789  -0.775  -0.335  0.00  0.00    -0.077 A 
ATOM      2  C3  UNL d   1       1.421  -1.833  -1.003  0.00  0.00     0.002 A 
ATOM      3  C4  UNL d   1       2.365  -1.577  -1.999  0.00  0.00     0.002 A 
ATOM      4  C5  UNL d   1       2.688  -0.263  -2.334  0.00  0.00    -0.004 A 
ATOM      5  C6  UNL d   1       2.063   0.796  -1.677  0.00  0.00     0.002 A 
ATOM      6  C7  UNL d   1       1.119   0.542  -0.682  0.00  0.00     0.002 A 
ENDROOT
BRANCH   1   7
ATOM      7  C1  UNL d   1      -0.193  -1.050   0.774  0.00  0.00     0.055 C 
ATOM      8  C   UNL d   1      -1.109   0.142   1.010  0.00  0.00     0.019 C 
ENDBRANCH   1   7
TORSDOF 1
ENDMDL
