MODEL 1
REMARK minimizedAffinity -5.10347319
REMARK minimizedRMSD -1
REMARK  1 active torsions:
REMARK  status: ('A' for Active; 'I' for Inactive)
REMARK    1  A    between atoms: C1_2  and  C2_3 
ROOT
ATOM      1  C2  UNL d   1       0.388  -0.084   0.441  0.00  0.00    -0.077 A 
ATOM      2  C3  UNL d   1       0.800  -1.348  -0.004  0.00  0.00     0.002 A 
ATOM      3  C4  UNL d   1       1.629  -1.467  -1.121  0.00  0.00     0.002 A 
ATOM      4  C5  UNL d   1       2.057  -0.328  -1.799  0.00  0.00    -0.004 A 
ATOM      5  C6  UNL d   1       1.651   0.934  -1.365  0.00  0.00     0.002 A 
ATOM      6  C7  UNL d   1       0.821   1.055  -0.250  0.00  0.00     0.002 A 
ENDROOT
BRANCH   1   7
ATOM      7  C1  UNL d   1      -0.466   0.049   1.675  0.00  0.00     0.055 C 
ATOM      8  C   UNL d   1      -1.879   0.491   1.325  0.00  0.00     0.019 C 
ENDBRANCH   1   7
TORSDOF 1
ENDMDL
