MODEL 1
REMARK minimizedAffinity -6.11883116
REMARK minimizedRMSD -1
REMARK  1 active torsions:
REMARK  status: ('A' for Active; 'I' for Inactive)
REMARK    1  A    between atoms: C1_2  and  C2_3 
ROOT
ATOM      1  C2  UNL d   1       0.475  -0.191  -0.987  0.00  0.00    -0.077 A 
ATOM      2  C3  UNL d   1       0.270  -1.519  -0.589  0.00  0.00     0.002 A 
ATOM      3  C4  UNL d   1       0.934  -2.562  -1.237  0.00  0.00     0.002 A 
ATOM      4  C5  UNL d   1       1.811  -2.288  -2.284  0.00  0.00    -0.004 A 
ATOM      5  C6  UNL d   1       2.021  -0.970  -2.689  0.00  0.00     0.002 A 
ATOM      6  C7  UNL d   1       1.357   0.073  -2.043  0.00  0.00     0.002 A 
ENDROOT
BRANCH   1   7
ATOM      7  C1  UNL d   1      -0.202   0.939  -0.258  0.00  0.00     0.055 C 
ATOM      8  C   UNL d   1      -1.051   0.423   0.896  0.00  0.00     0.019 C 
ENDBRANCH   1   7
TORSDOF 1
ENDMDL
