MODEL 1
REMARK minimizedAffinity 5.30256605
REMARK minimizedRMSD -1
REMARK  0 active torsions:
REMARK  status: ('A' for Active; 'I' for Inactive)
ROOT
ATOM      1  C   UNL d   1       1.134  -4.965  -1.954  0.00  0.00     0.172 C 
ATOM      2  N   UNL d   1       0.049  -4.797  -1.015  0.00  0.00    -0.070 N 
ATOM      3  C1  UNL d   1      -0.950  -5.703  -0.780  0.00  0.00    -0.004 A 
ATOM      4  C2  UNL d   1      -1.783  -5.173   0.181  0.00  0.00    -0.047 A 
ATOM      5  C3  UNL d   1      -1.267  -3.903   0.535  0.00  0.00    -0.047 A 
ATOM      6  C4  UNL d   1      -0.132  -3.696  -0.220  0.00  0.00    -0.004 A 
ENDROOT
TORSDOF 0
ENDMDL
