MODEL 1
REMARK minimizedAffinity 10.0702915
REMARK minimizedRMSD -1
REMARK  0 active torsions:
REMARK  status: ('A' for Active; 'I' for Inactive)
ROOT
ATOM      1  C   UNL d   1      -3.631   1.831  -3.518  0.00  0.00     0.172 C 
ATOM      2  N   UNL d   1      -3.891   3.030  -4.278  0.00  0.00    -0.070 N 
ATOM      3  C1  UNL d   1      -3.649   3.196  -5.616  0.00  0.00    -0.004 A 
ATOM      4  C2  UNL d   1      -4.032   4.475  -5.959  0.00  0.00    -0.047 A 
ATOM      5  C3  UNL d   1      -4.520   5.099  -4.787  0.00  0.00    -0.047 A 
ATOM      6  C4  UNL d   1      -4.422   4.183  -3.761  0.00  0.00    -0.004 A 
ENDROOT
TORSDOF 0
ENDMDL
