MODEL 1
REMARK minimizedAffinity 6.05121469
REMARK minimizedRMSD -1
REMARK  0 active torsions:
REMARK  status: ('A' for Active; 'I' for Inactive)
ROOT
ATOM      1  C   UNL d   1       1.703  -2.415   5.624  0.00  0.00     0.172 C 
ATOM      2  N   UNL d   1       1.806  -1.948   4.261  0.00  0.00    -0.070 N 
ATOM      3  C1  UNL d   1       1.408  -0.720   3.805  0.00  0.00    -0.004 A 
ATOM      4  C2  UNL d   1       1.675  -0.664   2.455  0.00  0.00    -0.047 A 
ATOM      5  C3  UNL d   1       2.254  -1.902   2.086  0.00  0.00    -0.047 A 
ATOM      6  C4  UNL d   1       2.323  -2.678   3.224  0.00  0.00    -0.004 A 
ENDROOT
TORSDOF 0
ENDMDL
