MODEL 1
REMARK minimizedAffinity 10.2039299
REMARK minimizedRMSD -1
REMARK  0 active torsions:
REMARK  status: ('A' for Active; 'I' for Inactive)
ROOT
ATOM      1  C   UNL d   1       1.496  -2.806   6.000  0.00  0.00     0.172 C 
ATOM      2  N   UNL d   1       1.582  -2.450   4.603  0.00  0.00    -0.070 N 
ATOM      3  C1  UNL d   1       1.069  -1.314   4.035  0.00  0.00    -0.004 A 
ATOM      4  C2  UNL d   1       1.360  -1.347   2.689  0.00  0.00    -0.047 A 
ATOM      5  C3  UNL d   1       2.071  -2.544   2.438  0.00  0.00    -0.047 A 
ATOM      6  C4  UNL d   1       2.195  -3.208   3.640  0.00  0.00    -0.004 A 
ENDROOT
TORSDOF 0
ENDMDL
