MODEL 1
REMARK minimizedAffinity 6.39824867
REMARK minimizedRMSD -1
REMARK  0 active torsions:
REMARK  status: ('A' for Active; 'I' for Inactive)
ROOT
ATOM      1  C   UNL d   1      -4.250   5.570  -3.796  0.00  0.00     0.172 C 
ATOM      2  N   UNL d   1      -3.984   4.249  -3.278  0.00  0.00    -0.070 N 
ATOM      3  C1  UNL d   1      -4.361   3.783  -2.046  0.00  0.00    -0.004 A 
ATOM      4  C2  UNL d   1      -3.921   2.482  -1.934  0.00  0.00    -0.047 A 
ATOM      5  C3  UNL d   1      -3.256   2.155  -3.140  0.00  0.00    -0.047 A 
ATOM      6  C4  UNL d   1      -3.310   3.266  -3.954  0.00  0.00    -0.004 A 
ENDROOT
TORSDOF 0
ENDMDL
