MODEL 1
REMARK minimizedAffinity 2.63686824
REMARK minimizedRMSD -1
REMARK  0 active torsions:
REMARK  status: ('A' for Active; 'I' for Inactive)
ROOT
ATOM      1  C   UNL d   1       1.513  -1.861   2.417  0.00  0.00     0.172 C 
ATOM      2  N   UNL d   1       1.716  -2.289   3.781  0.00  0.00    -0.070 N 
ATOM      3  C1  UNL d   1       2.425  -3.392   4.174  0.00  0.00    -0.004 A 
ATOM      4  C2  UNL d   1       2.384  -3.453   5.550  0.00  0.00    -0.047 A 
ATOM      5  C3  UNL d   1       1.623  -2.348   6.000  0.00  0.00    -0.047 A 
ATOM      6  C4  UNL d   1       1.222  -1.644   4.884  0.00  0.00    -0.004 A 
ENDROOT
TORSDOF 0
ENDMDL
