MODEL 1
REMARK minimizedAffinity 9.70212841
REMARK minimizedRMSD -1
REMARK  0 active torsions:
REMARK  status: ('A' for Active; 'I' for Inactive)
ROOT
ATOM      1  C   UNL d   1       1.040  -1.483   4.510  0.00  0.00     0.172 C 
ATOM      2  N   UNL d   1       1.446  -1.477   3.124  0.00  0.00    -0.070 N 
ATOM      3  C1  UNL d   1       1.344  -0.415   2.267  0.00  0.00    -0.004 A 
ATOM      4  C2  UNL d   1       1.837  -0.811   1.043  0.00  0.00    -0.047 A 
ATOM      5  C3  UNL d   1       2.250  -2.159   1.169  0.00  0.00    -0.047 A 
ATOM      6  C4  UNL d   1       1.997  -2.546   2.468  0.00  0.00    -0.004 A 
ENDROOT
TORSDOF 0
ENDMDL
