MODEL 1
REMARK minimizedAffinity 5.22115564
REMARK minimizedRMSD -1
REMARK  0 active torsions:
REMARK  status: ('A' for Active; 'I' for Inactive)
ROOT
ATOM      1  C   UNL d   1       1.428  -0.866   1.719  0.00  0.00     0.172 C 
ATOM      2  N   UNL d   1       2.109  -2.078   1.329  0.00  0.00    -0.070 N 
ATOM      3  C1  UNL d   1       3.154  -2.159   0.449  0.00  0.00    -0.004 A 
ATOM      4  C2  UNL d   1       3.519  -3.485   0.347  0.00  0.00    -0.047 A 
ATOM      5  C3  UNL d   1       2.662  -4.226   1.195  0.00  0.00    -0.047 A 
ATOM      6  C4  UNL d   1       1.799  -3.330   1.791  0.00  0.00    -0.004 A 
ENDROOT
TORSDOF 0
ENDMDL
