MODEL 1
REMARK minimizedAffinity -4.56395435
REMARK minimizedRMSD -1
REMARK  0 active torsions:
REMARK  status: ('A' for Active; 'I' for Inactive)
ROOT
ATOM      1  C1  BNZ d   1      -0.335  -0.174   0.254  0.00  0.00     0.000 A 
ATOM      2  C2  BNZ d   1       0.559   0.632   0.906  0.00  0.00     0.000 A 
ATOM      3  C3  BNZ d   1       0.325   1.043   2.189  0.00  0.00     0.000 A 
ATOM      4  C4  BNZ d   1      -0.820   0.681   2.802  0.00  0.00     0.000 A 
ATOM      5  C5  BNZ d   1      -1.736  -0.123   2.154  0.00  0.00     0.000 A 
ATOM      6  C6  BNZ d   1      -1.479  -0.567   0.877  0.00  0.00     0.000 A 
ENDROOT
TORSDOF 0
ENDMDL
