MODEL 1
REMARK minimizedAffinity -5.12331533
REMARK minimizedRMSD -1
REMARK  0 active torsions:
REMARK  status: ('A' for Active; 'I' for Inactive)
ROOT
ATOM      1  C1  BNZ d   1       0.429   0.645   2.176  0.00  0.00     0.000 A 
ATOM      2  C2  BNZ d   1       0.602   0.381   0.844  0.00  0.00     0.000 A 
ATOM      3  C3  BNZ d   1      -0.456   0.013   0.060  0.00  0.00     0.000 A 
ATOM      4  C4  BNZ d   1      -1.676  -0.130   0.617  0.00  0.00     0.000 A 
ATOM      5  C5  BNZ d   1      -1.865   0.124   1.961  0.00  0.00     0.000 A 
ATOM      6  C6  BNZ d   1      -0.806   0.532   2.739  0.00  0.00     0.000 A 
ENDROOT
TORSDOF 0
ENDMDL
