MODEL 1
REMARK minimizedAffinity -3.1985631
REMARK minimizedRMSD -1
REMARK  0 active torsions:
REMARK  status: ('A' for Active; 'I' for Inactive)
ROOT
ATOM      1  C1  BNZ d   1      -0.597  -0.067   2.887  0.00  0.00     0.000 A 
ATOM      2  C2  BNZ d   1       0.475  -0.390   3.676  0.00  0.00     0.000 A 
ATOM      3  C3  BNZ d   1       1.673  -0.742   3.120  0.00  0.00     0.000 A 
ATOM      4  C4  BNZ d   1       1.786  -0.809   1.777  0.00  0.00     0.000 A 
ATOM      5  C5  BNZ d   1       0.712  -0.496   0.969  0.00  0.00     0.000 A 
ATOM      6  C6  BNZ d   1      -0.481  -0.104   1.532  0.00  0.00     0.000 A 
ENDROOT
TORSDOF 0
ENDMDL
