MODEL 1
REMARK minimizedAffinity -0.792483628
REMARK minimizedRMSD -1
REMARK  0 active torsions:
REMARK  status: ('A' for Active; 'I' for Inactive)
ROOT
ATOM      1  C1  BNZ d   1       1.507   0.074   1.796  0.00  0.00     0.000 A 
ATOM      2  C2  BNZ d   1       1.593  -1.138   1.165  0.00  0.00     0.000 A 
ATOM      3  C3  BNZ d   1       0.838  -1.406   0.057  0.00  0.00     0.000 A 
ATOM      4  C4  BNZ d   1      -0.030  -0.478  -0.394  0.00  0.00     0.000 A 
ATOM      5  C5  BNZ d   1      -0.136   0.745   0.237  0.00  0.00     0.000 A 
ATOM      6  C6  BNZ d   1       0.654   1.026   1.328  0.00  0.00     0.000 A 
ENDROOT
TORSDOF 0
ENDMDL
