MODEL 1
REMARK minimizedAffinity -5.68994379
REMARK minimizedRMSD -1
REMARK  0 active torsions:
REMARK  status: ('A' for Active; 'I' for Inactive)
ROOT
ATOM      1  C1  DEN d   1       2.841  -0.277  -0.227  0.00  0.00     0.130 A 
ATOM      2  C2  DEN d   1       3.824   0.541   0.479  0.00  0.00    -0.031 A 
ATOM      3  C3  DEN d   1       3.096   1.441   1.395  0.00  0.00     0.027 A 
ATOM      4  C4  DEN d   1       0.555   1.645   1.790  0.00  0.00     0.027 A 
ATOM      5  C5  DEN d   1      -0.681   1.168   1.414  0.00  0.00    -0.003 A 
ATOM      6  C6  DEN d   1      -0.831   0.208   0.448  0.00  0.00     0.001 A 
ATOM      7  C7  DEN d   1       0.278  -0.338  -0.143  0.00  0.00     0.017 A 
ATOM      8  C8  DEN d   1       1.527   0.143   0.226  0.00  0.00    -0.094 A 
ATOM      9  C9  DEN d   1       1.658   1.105   1.213  0.00  0.00    -0.072 A 
ENDROOT
TORSDOF 0
ENDMDL
