MODEL 1
REMARK minimizedAffinity -3.395895
REMARK minimizedRMSD -1
REMARK  0 active torsions:
REMARK  status: ('A' for Active; 'I' for Inactive)
ROOT
ATOM      1  C1  DEN d   1      -2.670  -0.143  -2.236  0.00  0.00     0.130 A 
ATOM      2  C2  DEN d   1      -2.509  -1.540  -2.628  0.00  0.00    -0.031 A 
ATOM      3  C3  DEN d   1      -1.487  -2.146  -1.751  0.00  0.00     0.027 A 
ATOM      4  C4  DEN d   1      -0.150  -1.062   0.171  0.00  0.00     0.027 A 
ATOM      5  C5  DEN d   1       0.067   0.105   0.869  0.00  0.00    -0.003 A 
ATOM      6  C6  DEN d   1      -0.584   1.271   0.561  0.00  0.00     0.001 A 
ATOM      7  C7  DEN d   1      -1.516   1.284  -0.442  0.00  0.00     0.017 A 
ATOM      8  C8  DEN d   1      -1.734   0.112  -1.155  0.00  0.00    -0.094 A 
ATOM      9  C9  DEN d   1      -1.076  -1.059  -0.821  0.00  0.00    -0.072 A 
ENDROOT
TORSDOF 0
ENDMDL
