MODEL 1
REMARK minimizedAffinity -3.90525126
REMARK minimizedRMSD -1
REMARK  0 active torsions:
REMARK  status: ('A' for Active; 'I' for Inactive)
ROOT
ATOM      1  C1  DEN d   1       0.847   0.156  -0.433  0.00  0.00     0.130 A 
ATOM      2  C2  DEN d   1       0.495   0.101   0.983  0.00  0.00    -0.031 A 
ATOM      3  C3  DEN d   1      -0.734  -0.707   1.117  0.00  0.00     0.027 A 
ATOM      4  C4  DEN d   1      -2.116  -1.875  -0.721  0.00  0.00     0.027 A 
ATOM      5  C5  DEN d   1      -2.217  -2.103  -2.076  0.00  0.00    -0.003 A 
ATOM      6  C6  DEN d   1      -1.331  -1.570  -2.974  0.00  0.00     0.001 A 
ATOM      7  C7  DEN d   1      -0.277  -0.819  -2.524  0.00  0.00     0.017 A 
ATOM      8  C8  DEN d   1      -0.173  -0.579  -1.160  0.00  0.00    -0.094 A 
ATOM      9  C9  DEN d   1      -1.072  -1.137  -0.267  0.00  0.00    -0.072 A 
ENDROOT
TORSDOF 0
ENDMDL
