MODEL 1
REMARK minimizedAffinity 1.86827576
REMARK minimizedRMSD -1
REMARK  0 active torsions:
REMARK  status: ('A' for Active; 'I' for Inactive)
ROOT
ATOM      1  C1  DEN d   1      -1.379   1.257   0.563  0.00  0.00     0.130 A 
ATOM      2  C2  DEN d   1      -0.679   1.297   1.843  0.00  0.00    -0.031 A 
ATOM      3  C3  DEN d   1       0.677   0.747   1.641  0.00  0.00     0.027 A 
ATOM      4  C4  DEN d   1       1.755  -0.155  -0.522  0.00  0.00     0.027 A 
ATOM      5  C5  DEN d   1       1.547  -0.404  -1.861  0.00  0.00    -0.003 A 
ATOM      6  C6  DEN d   1       0.348  -0.151  -2.473  0.00  0.00     0.001 A 
ATOM      7  C7  DEN d   1      -0.676   0.410  -1.755  0.00  0.00     0.017 A 
ATOM      8  C8  DEN d   1      -0.476   0.657  -0.403  0.00  0.00    -0.094 A 
ATOM      9  C9  DEN d   1       0.747   0.405   0.194  0.00  0.00    -0.072 A 
ENDROOT
TORSDOF 0
ENDMDL
