MODEL 1
REMARK minimizedAffinity -0.35808894
REMARK minimizedRMSD -1
REMARK  0 active torsions:
REMARK  status: ('A' for Active; 'I' for Inactive)
ROOT
ATOM      1  C1  DEN d   1      -2.625  -0.750  -2.575  0.00  0.00     0.130 A 
ATOM      2  C2  DEN d   1      -2.434  -2.081  -3.144  0.00  0.00    -0.031 A 
ATOM      3  C3  DEN d   1      -1.366  -2.756  -2.380  0.00  0.00     0.027 A 
ATOM      4  C4  DEN d   1       0.000  -1.875  -0.377  0.00  0.00     0.027 A 
ATOM      5  C5  DEN d   1       0.204  -0.797   0.456  0.00  0.00    -0.003 A 
ATOM      6  C6  DEN d   1      -0.492   0.375   0.316  0.00  0.00     0.001 A 
ATOM      7  C7  DEN d   1      -1.457   0.481  -0.651  0.00  0.00     0.017 A 
ATOM      8  C8  DEN d   1      -1.662  -0.599  -1.499  0.00  0.00    -0.094 A 
ATOM      9  C9  DEN d   1      -0.958  -1.780  -1.334  0.00  0.00    -0.072 A 
ENDROOT
TORSDOF 0
ENDMDL
