MODEL 1
REMARK minimizedAffinity -1.21852684
REMARK minimizedRMSD -1
REMARK  0 active torsions:
REMARK  status: ('A' for Active; 'I' for Inactive)
ROOT
ATOM      1  C1  DEN d   1       0.107  -0.544  -0.625  0.00  0.00     0.130 A 
ATOM      2  C2  DEN d   1      -1.335  -0.422  -0.822  0.00  0.00    -0.031 A 
ATOM      3  C3  DEN d   1      -1.834   0.621   0.096  0.00  0.00     0.027 A 
ATOM      4  C4  DEN d   1      -0.521   2.056   1.790  0.00  0.00     0.027 A 
ATOM      5  C5  DEN d   1       0.724   2.304   2.323  0.00  0.00    -0.003 A 
ATOM      6  C6  DEN d   1       1.836   1.603   1.939  0.00  0.00     0.001 A 
ATOM      7  C7  DEN d   1       1.733   0.649   0.961  0.00  0.00     0.017 A 
ATOM      8  C8  DEN d   1       0.479   0.388   0.424  0.00  0.00    -0.094 A 
ATOM      9  C9  DEN d   1      -0.631   1.116   0.817  0.00  0.00    -0.072 A 
ENDROOT
TORSDOF 0
ENDMDL
