MODEL 1
REMARK minimizedAffinity -1.52272785
REMARK minimizedRMSD -1
REMARK  0 active torsions:
REMARK  status: ('A' for Active; 'I' for Inactive)
ROOT
ATOM      1  C1  DEN d   1       0.739  -1.155  -0.704  0.00  0.00     0.130 A 
ATOM      2  C2  DEN d   1      -0.406  -1.824  -1.316  0.00  0.00    -0.031 A 
ATOM      3  C3  DEN d   1      -1.635  -1.242  -0.742  0.00  0.00     0.027 A 
ATOM      4  C4  DEN d   1      -1.876   0.624   1.023  0.00  0.00     0.027 A 
ATOM      5  C5  DEN d   1      -1.187   1.488   1.844  0.00  0.00    -0.003 A 
ATOM      6  C6  DEN d   1       0.182   1.508   1.898  0.00  0.00     0.001 A 
ATOM      7  C7  DEN d   1       0.906   0.679   1.083  0.00  0.00     0.017 A 
ATOM      8  C8  DEN d   1       0.217  -0.201   0.258  0.00  0.00    -0.094 A 
ATOM      9  C9  DEN d   1      -1.166  -0.198   0.209  0.00  0.00    -0.072 A 
ENDROOT
TORSDOF 0
ENDMDL
