MODEL 1
REMARK minimizedAffinity -0.267371625
REMARK minimizedRMSD -1
REMARK  0 active torsions:
REMARK  status: ('A' for Active; 'I' for Inactive)
ROOT
ATOM      1  C1  DEN d   1       0.371   0.122  -1.047  0.00  0.00     0.130 A 
ATOM      2  C2  DEN d   1       0.330  -0.188   0.379  0.00  0.00    -0.031 A 
ATOM      3  C3  DEN d   1      -0.851  -1.040   0.628  0.00  0.00     0.027 A 
ATOM      4  C4  DEN d   1      -2.608  -1.906  -1.050  0.00  0.00     0.027 A 
ATOM      5  C5  DEN d   1      -3.000  -1.896  -2.370  0.00  0.00    -0.003 A 
ATOM      6  C6  DEN d   1      -2.321  -1.191  -3.329  0.00  0.00     0.001 A 
ATOM      7  C7  DEN d   1      -1.187  -0.503  -2.988  0.00  0.00     0.017 A 
ATOM      8  C8  DEN d   1      -0.790  -0.502  -1.657  0.00  0.00    -0.094 A 
ATOM      9  C9  DEN d   1      -1.483  -1.230  -0.706  0.00  0.00    -0.072 A 
ENDROOT
TORSDOF 0
ENDMDL
