MODEL 1
REMARK minimizedAffinity -1.34222364
REMARK minimizedRMSD -1
REMARK  0 active torsions:
REMARK  status: ('A' for Active; 'I' for Inactive)
ROOT
ATOM      1  C1  DEN d   1      -1.593  -0.686  -0.170  0.00  0.00     0.130 A 
ATOM      2  C2  DEN d   1      -0.844  -1.519  -1.107  0.00  0.00    -0.031 A 
ATOM      3  C3  DEN d   1       0.592  -1.217  -0.939  0.00  0.00     0.027 A 
ATOM      4  C4  DEN d   1       1.722   0.447   0.675  0.00  0.00     0.027 A 
ATOM      5  C5  DEN d   1       1.497   1.388   1.655  0.00  0.00    -0.003 A 
ATOM      6  C6  DEN d   1       0.236   1.726   2.069  0.00  0.00     0.001 A 
ATOM      7  C7  DEN d   1      -0.849   1.085   1.531  0.00  0.00     0.017 A 
ATOM      8  C8  DEN d   1      -0.631   0.140   0.537  0.00  0.00    -0.094 A 
ATOM      9  C9  DEN d   1       0.653  -0.197   0.142  0.00  0.00    -0.072 A 
ENDROOT
TORSDOF 0
ENDMDL
