MODEL 1
REMARK minimizedAffinity -1.15061212
REMARK minimizedRMSD -1
REMARK  0 active torsions:
REMARK  status: ('A' for Active; 'I' for Inactive)
ROOT
ATOM      1  C1  DEN d   1       3.174   0.218  -0.120  0.00  0.00     0.130 A 
ATOM      2  C2  DEN d   1       4.197   0.840   0.716  0.00  0.00    -0.031 A 
ATOM      3  C3  DEN d   1       3.515   1.580   1.796  0.00  0.00     0.027 A 
ATOM      4  C4  DEN d   1       0.989   1.818   2.256  0.00  0.00     0.027 A 
ATOM      5  C5  DEN d   1      -0.270   1.478   1.812  0.00  0.00    -0.003 A 
ATOM      6  C6  DEN d   1      -0.468   0.729   0.683  0.00  0.00     0.001 A 
ATOM      7  C7  DEN d   1       0.611   0.257  -0.016  0.00  0.00     0.017 A 
ATOM      8  C8  DEN d   1       1.883   0.601   0.421  0.00  0.00    -0.094 A 
ATOM      9  C9  DEN d   1       2.063   1.350   1.572  0.00  0.00    -0.072 A 
ENDROOT
TORSDOF 0
ENDMDL
