MODEL 1
REMARK minimizedAffinity -3.50277495
REMARK minimizedRMSD -1
REMARK  0 active torsions:
REMARK  status: ('A' for Active; 'I' for Inactive)
ROOT
ATOM      1  C1  DEN d   1       0.225  -0.794  -0.548  0.00  0.00     0.130 A 
ATOM      2  C2  DEN d   1      -0.275  -0.314   0.737  0.00  0.00    -0.031 A 
ATOM      3  C3  DEN d   1      -1.739  -0.510   0.759  0.00  0.00     0.027 A 
ATOM      4  C4  DEN d   1      -3.269  -1.511  -1.060  0.00  0.00     0.027 A 
ATOM      5  C5  DEN d   1      -3.303  -2.048  -2.328  0.00  0.00    -0.003 A 
ATOM      6  C6  DEN d   1      -2.177  -2.172  -3.099  0.00  0.00     0.001 A 
ATOM      7  C7  DEN d   1      -0.962  -1.795  -2.591  0.00  0.00     0.017 A 
ATOM      8  C8  DEN d   1      -0.921  -1.246  -1.316  0.00  0.00    -0.094 A 
ATOM      9  C9  DEN d   1      -2.068  -1.141  -0.548  0.00  0.00    -0.072 A 
ENDROOT
TORSDOF 0
ENDMDL
