MODEL 1
REMARK minimizedAffinity 0.552216828
REMARK minimizedRMSD -1
REMARK  0 active torsions:
REMARK  status: ('A' for Active; 'I' for Inactive)
ROOT
ATOM      1  C1  DEN d   1      -1.188  -4.761  -1.833  0.00  0.00     0.130 A 
ATOM      2  C2  DEN d   1      -0.633  -5.315  -3.065  0.00  0.00    -0.031 A 
ATOM      3  C3  DEN d   1      -0.928  -4.373  -4.163  0.00  0.00     0.027 A 
ATOM      4  C4  DEN d   1      -2.180  -2.120  -4.076  0.00  0.00     0.027 A 
ATOM      5  C5  DEN d   1      -2.845  -1.236  -3.254  0.00  0.00    -0.003 A 
ATOM      6  C6  DEN d   1      -3.033  -1.480  -1.920  0.00  0.00     0.001 A 
ATOM      7  C7  DEN d   1      -2.510  -2.614  -1.357  0.00  0.00     0.017 A 
ATOM      8  C8  DEN d   1      -1.844  -3.513  -2.180  0.00  0.00    -0.094 A 
ATOM      9  C9  DEN d   1      -1.655  -3.243  -3.524  0.00  0.00    -0.072 A 
ENDROOT
TORSDOF 0
ENDMDL
