MODEL 1
REMARK minimizedAffinity 4.6004734
REMARK minimizedRMSD -1
REMARK  0 active torsions:
REMARK  status: ('A' for Active; 'I' for Inactive)
ROOT
ATOM      1  C1  DEN d   1      -2.520  -1.906  -0.238  0.00  0.00     0.130 A 
ATOM      2  C2  DEN d   1      -3.601  -2.073  -1.205  0.00  0.00    -0.031 A 
ATOM      3  C3  DEN d   1      -3.021  -1.980  -2.559  0.00  0.00     0.027 A 
ATOM      4  C4  DEN d   1      -0.565  -1.602  -3.250  0.00  0.00     0.027 A 
ATOM      5  C5  DEN d   1       0.713  -1.393  -2.782  0.00  0.00    -0.003 A 
ATOM      6  C6  DEN d   1       0.996  -1.308  -1.445  0.00  0.00     0.001 A 
ATOM      7  C7  DEN d   1      -0.007  -1.476  -0.527  0.00  0.00     0.017 A 
ATOM      8  C8  DEN d   1      -1.299  -1.680  -0.991  0.00  0.00    -0.094 A 
ATOM      9  C9  DEN d   1      -1.563  -1.775  -2.347  0.00  0.00    -0.072 A 
ENDROOT
TORSDOF 0
ENDMDL
