MODEL 1
REMARK minimizedAffinity 3.23856306
REMARK minimizedRMSD -1
REMARK  1 active torsions:
REMARK  status: ('A' for Active; 'I' for Inactive)
REMARK    1  A    between atoms: C1_2  and  C2_3 
ROOT
ATOM      1  C2  UNL d   1       2.654   1.459   2.032  0.00  0.00    -0.073 A 
ATOM      2  C3  UNL d   1       2.733   2.176   3.231  0.00  0.00    -0.002 A 
ATOM      3  C4  UNL d   1       2.569   1.525   4.454  0.00  0.00     0.004 A 
ATOM      4  C5  UNL d   1       2.332   0.151   4.491  0.00  0.00    -0.004 A 
ATOM      5  C6  UNL d   1       2.263  -0.586   3.304  0.00  0.00    -0.075 A 
ATOM      6  C7  UNL d   1       2.007  -2.064   3.327  0.00  0.00     0.076 C 
ATOM      7  C8  UNL d   1       2.426   0.076   2.080  0.00  0.00     0.001 A 
ENDROOT
BRANCH   1   8
ATOM      8  C1  UNL d   1       2.837   2.157   0.709  0.00  0.00     0.053 C 
ATOM      9  C   UNL d   1       1.912   3.354   0.563  0.00  0.00     0.018 C 
ENDBRANCH   1   8
TORSDOF 1
ENDMDL
