MODEL 1
REMARK minimizedAffinity 5.15288115
REMARK minimizedRMSD -1
REMARK  1 active torsions:
REMARK  status: ('A' for Active; 'I' for Inactive)
REMARK    1  A    between atoms: C1_2  and  C2_3 
ROOT
ATOM      1  C2  UNL d   1      -5.616   2.746  -2.239  0.00  0.00    -0.073 A 
ATOM      2  C3  UNL d   1      -5.998   3.708  -3.181  0.00  0.00    -0.002 A 
ATOM      3  C4  UNL d   1      -5.814   3.472  -4.544  0.00  0.00     0.004 A 
ATOM      4  C5  UNL d   1      -5.253   2.271  -4.979  0.00  0.00    -0.004 A 
ATOM      5  C6  UNL d   1      -4.876   1.293  -4.053  0.00  0.00    -0.075 A 
ATOM      6  C7  UNL d   1      -4.269  -0.003  -4.505  0.00  0.00     0.076 C 
ATOM      7  C8  UNL d   1      -5.062   1.538  -2.686  0.00  0.00     0.001 A 
ENDROOT
BRANCH   1   8
ATOM      8  C1  UNL d   1      -5.819   2.994  -0.766  0.00  0.00     0.053 C 
ATOM      9  C   UNL d   1      -4.505   2.996  -0.002  0.00  0.00     0.018 C 
ENDBRANCH   1   8
TORSDOF 1
ENDMDL
