MODEL 1
REMARK minimizedAffinity 1.15132117
REMARK minimizedRMSD -1
REMARK  1 active torsions:
REMARK  status: ('A' for Active; 'I' for Inactive)
REMARK    1  A    between atoms: C1_2  and  C2_3 
ROOT
ATOM      1  C2  UNL d   1       2.622   1.331   1.052  0.00  0.00    -0.073 A 
ATOM      2  C3  UNL d   1       2.892   2.099   2.191  0.00  0.00    -0.002 A 
ATOM      3  C4  UNL d   1       2.830   1.522   3.460  0.00  0.00     0.004 A 
ATOM      4  C5  UNL d   1       2.504   0.173   3.604  0.00  0.00    -0.004 A 
ATOM      5  C6  UNL d   1       2.242  -0.613   2.477  0.00  0.00    -0.075 A 
ATOM      6  C7  UNL d   1       1.888  -2.064   2.614  0.00  0.00     0.076 C 
ATOM      7  C8  UNL d   1       2.304  -0.026   1.206  0.00  0.00     0.001 A 
ENDROOT
BRANCH   1   8
ATOM      8  C1  UNL d   1       2.694   1.948  -0.321  0.00  0.00     0.053 C 
ATOM      9  C   UNL d   1       1.713   3.099  -0.481  0.00  0.00     0.018 C 
ENDBRANCH   1   8
TORSDOF 1
ENDMDL
