MODEL 1
REMARK minimizedAffinity 2.09359074
REMARK minimizedRMSD -1
REMARK  1 active torsions:
REMARK  status: ('A' for Active; 'I' for Inactive)
REMARK    1  A    between atoms: C1_2  and  C2_3 
ROOT
ATOM      1  C2  UNL d   1       2.140   0.934   1.267  0.00  0.00    -0.073 A 
ATOM      2  C3  UNL d   1       0.919   0.432   0.801  0.00  0.00    -0.002 A 
ATOM      3  C4  UNL d   1       0.415  -0.770   1.299  0.00  0.00     0.004 A 
ATOM      4  C5  UNL d   1       1.121  -1.478   2.271  0.00  0.00    -0.004 A 
ATOM      5  C6  UNL d   1       2.337  -0.987   2.758  0.00  0.00    -0.075 A 
ATOM      6  C7  UNL d   1       3.110  -1.738   3.802  0.00  0.00     0.076 C 
ATOM      7  C8  UNL d   1       2.838   0.219   2.251  0.00  0.00     0.001 A 
ENDROOT
BRANCH   1   8
ATOM      8  C1  UNL d   1       2.685   2.235   0.737  0.00  0.00     0.053 C 
ATOM      9  C   UNL d   1       1.579   3.168   0.269  0.00  0.00     0.018 C 
ENDBRANCH   1   8
TORSDOF 1
ENDMDL
