MODEL 1
REMARK minimizedAffinity 1.5817312
REMARK minimizedRMSD -1
REMARK  1 active torsions:
REMARK  status: ('A' for Active; 'I' for Inactive)
REMARK    1  A    between atoms: C1_2  and  C2_3 
ROOT
ATOM      1  C2  UNL d   1      -2.407  -2.830  -2.332  0.00  0.00    -0.081 A 
ATOM      2  C3  UNL d   1      -2.106  -1.477  -2.531  0.00  0.00     0.006 A 
ATOM      3  C4  UNL d   1      -1.624  -0.696  -1.478  0.00  0.00     0.002 A 
ATOM      4  C5  UNL d   1      -1.426  -1.256  -0.212  0.00  0.00    -0.080 A 
ATOM      5  C6  UNL d   1      -0.880  -0.437   0.920  0.00  0.00     0.076 C 
ATOM      6  C7  UNL d   1      -1.743  -2.604  -0.008  0.00  0.00     0.002 A 
ATOM      7  C8  UNL d   1      -2.226  -3.385  -1.060  0.00  0.00     0.006 A 
ENDROOT
BRANCH   1   8
ATOM      8  C1  UNL d   1      -2.866  -3.690  -3.481  0.00  0.00     0.054 C 
ATOM      9  C   UNL d   1      -2.823  -2.926  -4.796  0.00  0.00     0.018 C 
ENDBRANCH   1   8
TORSDOF 1
ENDMDL
