MODEL 1
REMARK minimizedAffinity -2.8629415
REMARK minimizedRMSD -1
REMARK  1 active torsions:
REMARK  status: ('A' for Active; 'I' for Inactive)
REMARK    1  A    between atoms: C1_2  and  C2_3 
ROOT
ATOM      1  C2  UNL d   1      -1.792  -1.511  -0.013  0.00  0.00    -0.081 A 
ATOM      2  C3  UNL d   1      -1.492  -2.878  -0.064  0.00  0.00     0.006 A 
ATOM      3  C4  UNL d   1      -1.813  -3.631  -1.195  0.00  0.00     0.002 A 
ATOM      4  C5  UNL d   1      -2.431  -3.030  -2.297  0.00  0.00    -0.080 A 
ATOM      5  C6  UNL d   1      -2.754  -3.821  -3.530  0.00  0.00     0.076 C 
ATOM      6  C7  UNL d   1      -2.747  -1.668  -2.239  0.00  0.00     0.002 A 
ATOM      7  C8  UNL d   1      -2.427  -0.914  -1.108  0.00  0.00     0.006 A 
ENDROOT
BRANCH   1   8
ATOM      8  C1  UNL d   1      -1.389  -0.682   1.180  0.00  0.00     0.054 C 
ATOM      9  C   UNL d   1      -1.994  -1.230   2.465  0.00  0.00     0.018 C 
ENDBRANCH   1   8
TORSDOF 1
ENDMDL
