MODEL 1
REMARK minimizedAffinity 0.812591016
REMARK minimizedRMSD -1
REMARK  1 active torsions:
REMARK  status: ('A' for Active; 'I' for Inactive)
REMARK    1  A    between atoms: C1_2  and  C2_3 
ROOT
ATOM      1  C2  UNL d   1       2.780   2.901   2.307  0.00  0.00    -0.081 A 
ATOM      2  C3  UNL d   1       4.065   3.288   1.907  0.00  0.00     0.006 A 
ATOM      3  C4  UNL d   1       4.341   3.545   0.562  0.00  0.00     0.002 A 
ATOM      4  C5  UNL d   1       3.335   3.428  -0.404  0.00  0.00    -0.080 A 
ATOM      5  C6  UNL d   1       3.610   3.731  -1.847  0.00  0.00     0.076 C 
ATOM      6  C7  UNL d   1       2.056   3.025  -0.007  0.00  0.00     0.002 A 
ATOM      7  C8  UNL d   1       1.780   2.766   1.338  0.00  0.00     0.006 A 
ENDROOT
BRANCH   1   8
ATOM      8  C1  UNL d   1       2.464   2.685   3.765  0.00  0.00     0.054 C 
ATOM      9  C   UNL d   1       1.780   1.345   3.990  0.00  0.00     0.018 C 
ENDBRANCH   1   8
TORSDOF 1
ENDMDL
