MODEL 1
REMARK minimizedAffinity -0.607987285
REMARK minimizedRMSD -1
REMARK  1 active torsions:
REMARK  status: ('A' for Active; 'I' for Inactive)
REMARK    1  A    between atoms: C1_2  and  C2_3 
ROOT
ATOM      1  C2  UNL d   1      -3.808   0.377   5.573  0.00  0.00    -0.081 A 
ATOM      2  C3  UNL d   1      -4.845  -0.471   5.979  0.00  0.00     0.006 A 
ATOM      3  C4  UNL d   1      -4.830  -1.824   5.633  0.00  0.00     0.002 A 
ATOM      4  C5  UNL d   1      -3.775  -2.353   4.881  0.00  0.00    -0.080 A 
ATOM      5  C6  UNL d   1      -3.732  -3.810   4.528  0.00  0.00     0.076 C 
ATOM      6  C7  UNL d   1      -2.748  -1.502   4.460  0.00  0.00     0.002 A 
ATOM      7  C8  UNL d   1      -2.763  -0.149   4.806  0.00  0.00     0.006 A 
ENDROOT
BRANCH   1   8
ATOM      8  C1  UNL d   1      -3.789   1.823   6.000  0.00  0.00     0.054 C 
ATOM      9  C   UNL d   1      -2.372   2.380   6.000  0.00  0.00     0.018 C 
ENDBRANCH   1   8
TORSDOF 1
ENDMDL
