MODEL 1
REMARK minimizedAffinity 2.27805972
REMARK minimizedRMSD -1
REMARK  1 active torsions:
REMARK  status: ('A' for Active; 'I' for Inactive)
REMARK    1  A    between atoms: C1_2  and  C2_3 
ROOT
ATOM      1  C2  UNL d   1      -1.753  -1.315  -0.913  0.00  0.00    -0.081 A 
ATOM      2  C3  UNL d   1      -1.849  -0.460  -2.018  0.00  0.00     0.006 A 
ATOM      3  C4  UNL d   1      -2.258  -0.951  -3.260  0.00  0.00     0.002 A 
ATOM      4  C5  UNL d   1      -2.585  -2.302  -3.416  0.00  0.00    -0.080 A 
ATOM      5  C6  UNL d   1      -3.055  -2.836  -4.736  0.00  0.00     0.076 C 
ATOM      6  C7  UNL d   1      -2.473  -3.160  -2.316  0.00  0.00     0.002 A 
ATOM      7  C8  UNL d   1      -2.063  -2.670  -1.074  0.00  0.00     0.006 A 
ENDROOT
BRANCH   1   8
ATOM      8  C1  UNL d   1      -1.374  -0.776   0.443  0.00  0.00     0.054 C 
ATOM      9  C   UNL d   1      -2.295   0.361   0.863  0.00  0.00     0.018 C 
ENDBRANCH   1   8
TORSDOF 1
ENDMDL
