MODEL 1
REMARK minimizedAffinity 7.14984751
REMARK minimizedRMSD -1
REMARK  1 active torsions:
REMARK  status: ('A' for Active; 'I' for Inactive)
REMARK    1  A    between atoms: C1_2  and  C2_3 
ROOT
ATOM      1  C2  UNL d   1      -2.624   0.250   3.443  0.00  0.00    -0.081 A 
ATOM      2  C3  UNL d   1      -3.311   0.819   2.364  0.00  0.00     0.006 A 
ATOM      3  C4  UNL d   1      -2.703   0.917   1.110  0.00  0.00     0.002 A 
ATOM      4  C5  UNL d   1      -1.402   0.442   0.913  0.00  0.00    -0.080 A 
ATOM      5  C6  UNL d   1      -0.748   0.514  -0.435  0.00  0.00     0.076 C 
ATOM      6  C7  UNL d   1      -0.709  -0.110   1.996  0.00  0.00     0.002 A 
ATOM      7  C8  UNL d   1      -1.316  -0.208   3.250  0.00  0.00     0.006 A 
ENDROOT
BRANCH   1   8
ATOM      8  C1  UNL d   1      -3.300   0.084   4.780  0.00  0.00     0.054 C 
ATOM      9  C   UNL d   1      -3.452  -1.386   5.144  0.00  0.00     0.018 C 
ENDBRANCH   1   8
TORSDOF 1
ENDMDL
