MODEL 1
REMARK minimizedAffinity 2.54202843
REMARK minimizedRMSD -1
REMARK  1 active torsions:
REMARK  status: ('A' for Active; 'I' for Inactive)
REMARK    1  A    between atoms: C1_2  and  C2_3 
ROOT
ATOM      1  C2  UNL d   1      -1.739  -0.775  -0.427  0.00  0.00    -0.081 A 
ATOM      2  C3  UNL d   1      -1.978  -1.686   0.610  0.00  0.00     0.006 A 
ATOM      3  C4  UNL d   1      -2.256  -1.232   1.901  0.00  0.00     0.002 A 
ATOM      4  C5  UNL d   1      -2.309   0.139   2.176  0.00  0.00    -0.080 A 
ATOM      5  C6  UNL d   1      -2.637   0.640   3.551  0.00  0.00     0.076 C 
ATOM      6  C7  UNL d   1      -2.053   1.049   1.144  0.00  0.00     0.002 A 
ATOM      7  C8  UNL d   1      -1.773   0.595  -0.147  0.00  0.00     0.006 A 
ENDROOT
BRANCH   1   8
ATOM      8  C1  UNL d   1      -1.502  -1.260  -1.834  0.00  0.00     0.054 C 
ATOM      9  C   UNL d   1      -2.632  -2.164  -2.305  0.00  0.00     0.018 C 
ENDBRANCH   1   8
TORSDOF 1
ENDMDL
