MODEL 1
REMARK minimizedAffinity 1.13349199
REMARK minimizedRMSD -1
REMARK  1 active torsions:
REMARK  status: ('A' for Active; 'I' for Inactive)
REMARK    1  A    between atoms: C1_2  and  C2_3 
ROOT
ATOM      1  C2  UNL d   1      -4.273   3.972   2.335  0.00  0.00    -0.081 A 
ATOM      2  C3  UNL d   1      -4.240   3.694   3.707  0.00  0.00     0.006 A 
ATOM      3  C4  UNL d   1      -3.948   2.406   4.162  0.00  0.00     0.002 A 
ATOM      4  C5  UNL d   1      -3.676   1.377   3.254  0.00  0.00    -0.080 A 
ATOM      5  C6  UNL d   1      -3.331  -0.003   3.731  0.00  0.00     0.076 C 
ATOM      6  C7  UNL d   1      -3.726   1.650   1.883  0.00  0.00     0.002 A 
ATOM      7  C8  UNL d   1      -4.018   2.937   1.427  0.00  0.00     0.006 A 
ENDROOT
BRANCH   1   8
ATOM      8  C1  UNL d   1      -4.523   5.374   1.842  0.00  0.00     0.054 C 
ATOM      9  C   UNL d   1      -5.916   5.854   2.226  0.00  0.00     0.018 C 
ENDBRANCH   1   8
TORSDOF 1
ENDMDL
