MODEL 1
REMARK minimizedAffinity 5.45530605
REMARK minimizedRMSD -1
REMARK  1 active torsions:
REMARK  status: ('A' for Active; 'I' for Inactive)
REMARK    1  A    between atoms: C1_2  and  C2_3 
ROOT
ATOM      1  C2  UNL d   1      -4.514   4.554   3.323  0.00  0.00    -0.081 A 
ATOM      2  C3  UNL d   1      -4.015   4.031   2.123  0.00  0.00     0.006 A 
ATOM      3  C4  UNL d   1      -4.502   4.488   0.896  0.00  0.00     0.002 A 
ATOM      4  C5  UNL d   1      -5.489   5.478   0.848  0.00  0.00    -0.080 A 
ATOM      5  C6  UNL d   1      -5.999   5.998  -0.463  0.00  0.00     0.076 C 
ATOM      6  C7  UNL d   1      -5.999   5.987   2.047  0.00  0.00     0.002 A 
ATOM      7  C8  UNL d   1      -5.513   5.531   3.274  0.00  0.00     0.006 A 
ENDROOT
BRANCH   1   8
ATOM      8  C1  UNL d   1      -3.945   4.110   4.647  0.00  0.00     0.054 C 
ATOM      9  C   UNL d   1      -2.485   3.701   4.512  0.00  0.00     0.018 C 
ENDBRANCH   1   8
TORSDOF 1
ENDMDL
