MODEL 1
REMARK minimizedAffinity 1.97912824
REMARK minimizedRMSD -1
REMARK  1 active torsions:
REMARK  status: ('A' for Active; 'I' for Inactive)
REMARK    1  A    between atoms: C1_2  and  C2_3 
ROOT
ATOM      1  C2  UNL d   1      -3.362   4.369   4.532  0.00  0.00    -0.081 A 
ATOM      2  C3  UNL d   1      -4.185   5.461   4.833  0.00  0.00     0.006 A 
ATOM      3  C4  UNL d   1      -5.031   5.999   3.860  0.00  0.00     0.002 A 
ATOM      4  C5  UNL d   1      -5.074   5.450   2.574  0.00  0.00    -0.080 A 
ATOM      5  C6  UNL d   1      -6.000   5.999   1.530  0.00  0.00     0.076 C 
ATOM      6  C7  UNL d   1      -4.239   4.370   2.269  0.00  0.00     0.002 A 
ATOM      7  C8  UNL d   1      -3.392   3.832   3.240  0.00  0.00     0.006 A 
ENDROOT
BRANCH   1   8
ATOM      8  C1  UNL d   1      -2.496   3.745   5.597  0.00  0.00     0.054 C 
ATOM      9  C   UNL d   1      -1.019   3.866   5.250  0.00  0.00     0.018 C 
ENDBRANCH   1   8
TORSDOF 1
ENDMDL
