MODEL 1
REMARK minimizedAffinity 3.81048584
REMARK minimizedRMSD -1
REMARK  1 active torsions:
REMARK  status: ('A' for Active; 'I' for Inactive)
REMARK    1  A    between atoms: C1_2  and  C2_3 
ROOT
ATOM      1  C2  UNL d   1      -3.646  -3.499  -3.648  0.00  0.00    -0.081 A 
ATOM      2  C3  UNL d   1      -4.263  -2.943  -2.521  0.00  0.00     0.006 A 
ATOM      3  C4  UNL d   1      -5.034  -3.740  -1.671  0.00  0.00     0.002 A 
ATOM      4  C5  UNL d   1      -5.193  -5.106  -1.929  0.00  0.00    -0.080 A 
ATOM      5  C6  UNL d   1      -5.993  -5.979  -1.008  0.00  0.00     0.076 C 
ATOM      6  C7  UNL d   1      -4.590  -5.657  -3.065  0.00  0.00     0.002 A 
ATOM      7  C8  UNL d   1      -3.820  -4.861  -3.915  0.00  0.00     0.006 A 
ENDROOT
BRANCH   1   8
ATOM      8  C1  UNL d   1      -2.761  -2.655  -4.530  0.00  0.00     0.054 C 
ATOM      9  C   UNL d   1      -2.139  -1.505  -3.752  0.00  0.00     0.018 C 
ENDBRANCH   1   8
TORSDOF 1
ENDMDL
