MODEL 1
REMARK minimizedAffinity 7.12034988
REMARK minimizedRMSD -1
REMARK  1 active torsions:
REMARK  status: ('A' for Active; 'I' for Inactive)
REMARK    1  A    between atoms: C1_2  and  C2_3 
ROOT
ATOM      1  C2  UNL d   1      -1.262  -0.076  -1.888  0.00  0.00    -0.081 A 
ATOM      2  C3  UNL d   1      -2.262  -1.050  -1.783  0.00  0.00     0.006 A 
ATOM      3  C4  UNL d   1      -2.735  -1.706  -2.922  0.00  0.00     0.002 A 
ATOM      4  C5  UNL d   1      -2.210  -1.406  -4.183  0.00  0.00    -0.080 A 
ATOM      5  C6  UNL d   1      -2.687  -2.125  -5.410  0.00  0.00     0.076 C 
ATOM      6  C7  UNL d   1      -1.222  -0.421  -4.291  0.00  0.00     0.002 A 
ATOM      7  C8  UNL d   1      -0.750   0.236  -3.152  0.00  0.00     0.006 A 
ENDROOT
BRANCH   1   8
ATOM      8  C1  UNL d   1      -0.704   0.587  -0.655  0.00  0.00     0.054 C 
ATOM      9  C   UNL d   1      -0.378  -0.436   0.424  0.00  0.00     0.018 C 
ENDBRANCH   1   8
TORSDOF 1
ENDMDL
