MODEL 1
REMARK minimizedAffinity -3.54701614
REMARK minimizedRMSD -1
REMARK  0 active torsions:
REMARK  status: ('A' for Active; 'I' for Inactive)
ROOT
ATOM      1  C   UNL d   1      -2.137  -0.322   1.982  0.00  0.00     0.172 C 
ATOM      2  N   UNL d   1      -1.068   0.557   1.570  0.00  0.00    -0.070 N 
ATOM      3  C1  UNL d   1      -0.333   0.436   0.421  0.00  0.00    -0.004 A 
ATOM      4  C2  UNL d   1       0.584   1.465   0.396  0.00  0.00    -0.047 A 
ATOM      5  C3  UNL d   1       0.394   2.230   1.571  0.00  0.00    -0.047 A 
ATOM      6  C4  UNL d   1      -0.634   1.646   2.279  0.00  0.00    -0.004 A 
ENDROOT
TORSDOF 0
ENDMDL
