MODEL 1
REMARK minimizedAffinity -0.921538353
REMARK minimizedRMSD -1
REMARK  0 active torsions:
REMARK  status: ('A' for Active; 'I' for Inactive)
ROOT
ATOM      1  C   UNL d   1      -2.658  -0.618   3.471  0.00  0.00     0.172 C 
ATOM      2  N   UNL d   1      -1.835   0.243   2.655  0.00  0.00    -0.070 N 
ATOM      3  C1  UNL d   1      -1.221   1.393   3.074  0.00  0.00    -0.004 A 
ATOM      4  C2  UNL d   1      -0.533   1.919   2.002  0.00  0.00    -0.047 A 
ATOM      5  C3  UNL d   1      -0.741   1.056   0.900  0.00  0.00    -0.047 A 
ATOM      6  C4  UNL d   1      -1.551   0.027   1.332  0.00  0.00    -0.004 A 
ENDROOT
TORSDOF 0
ENDMDL
