MODEL 1
REMARK minimizedAffinity -1.8198297
REMARK minimizedRMSD -1
REMARK  0 active torsions:
REMARK  status: ('A' for Active; 'I' for Inactive)
ROOT
ATOM      1  C   UNL d   1       2.012  -0.044   1.930  0.00  0.00     0.172 C 
ATOM      2  N   UNL d   1       0.656   0.342   1.619  0.00  0.00    -0.070 N 
ATOM      3  C1  UNL d   1      -0.149   1.130   2.399  0.00  0.00    -0.004 A 
ATOM      4  C2  UNL d   1      -1.360   1.264   1.755  0.00  0.00    -0.047 A 
ATOM      5  C3  UNL d   1      -1.280   0.531   0.547  0.00  0.00    -0.047 A 
ATOM      6  C4  UNL d   1      -0.022  -0.029   0.488  0.00  0.00    -0.004 A 
ENDROOT
TORSDOF 0
ENDMDL
