MODEL 1
REMARK minimizedAffinity -3.44149351
REMARK minimizedRMSD -1
REMARK  0 active torsions:
REMARK  status: ('A' for Active; 'I' for Inactive)
ROOT
ATOM      1  C   UNL d   1       0.207  -0.035  -0.554  0.00  0.00     0.172 C 
ATOM      2  N   UNL d   1      -0.338   0.427   0.701  0.00  0.00    -0.070 N 
ATOM      3  C1  UNL d   1       0.276   1.292   1.568  0.00  0.00    -0.004 A 
ATOM      4  C2  UNL d   1      -0.566   1.481   2.642  0.00  0.00    -0.047 A 
ATOM      5  C3  UNL d   1      -1.725   0.702   2.414  0.00  0.00    -0.047 A 
ATOM      6  C4  UNL d   1      -1.557   0.059   1.206  0.00  0.00    -0.004 A 
ENDROOT
TORSDOF 0
ENDMDL
