MODEL 1
REMARK minimizedAffinity -3.62614965
REMARK minimizedRMSD -1
REMARK  0 active torsions:
REMARK  status: ('A' for Active; 'I' for Inactive)
ROOT
ATOM      1  C   UNL d   1       0.172  -0.583  -0.312  0.00  0.00     0.172 C 
ATOM      2  N   UNL d   1      -0.169   0.160   0.878  0.00  0.00    -0.070 N 
ATOM      3  C1  UNL d   1       0.715   0.591   1.831  0.00  0.00    -0.004 A 
ATOM      4  C2  UNL d   1      -0.002   1.260   2.800  0.00  0.00    -0.047 A 
ATOM      5  C3  UNL d   1      -1.364   1.228   2.416  0.00  0.00    -0.047 A 
ATOM      6  C4  UNL d   1      -1.439   0.542   1.223  0.00  0.00    -0.004 A 
ENDROOT
TORSDOF 0
ENDMDL
