MODEL 1
REMARK minimizedAffinity -2.58687115
REMARK minimizedRMSD -1
REMARK  0 active torsions:
REMARK  status: ('A' for Active; 'I' for Inactive)
ROOT
ATOM      1  C   UNL d   1       0.603  -0.292  -0.561  0.00  0.00     0.172 C 
ATOM      2  N   UNL d   1       0.013   0.292   0.621  0.00  0.00    -0.070 N 
ATOM      3  C1  UNL d   1       0.633   1.165   1.475  0.00  0.00    -0.004 A 
ATOM      4  C2  UNL d   1      -0.262   1.486   2.472  0.00  0.00    -0.047 A 
ATOM      5  C3  UNL d   1      -1.461   0.782   2.209  0.00  0.00    -0.047 A 
ATOM      6  C4  UNL d   1      -1.263   0.050   1.057  0.00  0.00    -0.004 A 
ENDROOT
TORSDOF 0
ENDMDL
