MODEL 1
REMARK minimizedAffinity -2.35680056
REMARK minimizedRMSD -1
REMARK  0 active torsions:
REMARK  status: ('A' for Active; 'I' for Inactive)
ROOT
ATOM      1  C   UNL d   1       0.832  -0.192  -0.245  0.00  0.00     0.172 C 
ATOM      2  N   UNL d   1       0.071   0.346   0.858  0.00  0.00    -0.070 N 
ATOM      3  C1  UNL d   1       0.503   1.307   1.733  0.00  0.00    -0.004 A 
ATOM      4  C2  UNL d   1      -0.512   1.544   2.635  0.00  0.00    -0.047 A 
ATOM      5  C3  UNL d   1      -1.591   0.695   2.291  0.00  0.00    -0.047 A 
ATOM      6  C4  UNL d   1      -1.203  -0.036   1.188  0.00  0.00    -0.004 A 
ENDROOT
TORSDOF 0
ENDMDL
