MODEL 1
REMARK minimizedAffinity -2.7918849
REMARK minimizedRMSD -1
REMARK  0 active torsions:
REMARK  status: ('A' for Active; 'I' for Inactive)
ROOT
ATOM      1  C   UNL d   1       0.587   2.798   0.256  0.00  0.00     0.172 C 
ATOM      2  N   UNL d   1       0.195   1.413   0.368  0.00  0.00    -0.070 N 
ATOM      3  C1  UNL d   1       1.025   0.334   0.220  0.00  0.00    -0.004 A 
ATOM      4  C2  UNL d   1       0.272  -0.806   0.402  0.00  0.00    -0.047 A 
ATOM      5  C3  UNL d   1      -1.057  -0.398   0.668  0.00  0.00    -0.047 A 
ATOM      6  C4  UNL d   1      -1.076   0.980   0.641  0.00  0.00    -0.004 A 
ENDROOT
TORSDOF 0
ENDMDL
