MODEL 1
REMARK minimizedAffinity -2.31101871
REMARK minimizedRMSD -1
REMARK  0 active torsions:
REMARK  status: ('A' for Active; 'I' for Inactive)
ROOT
ATOM      1  C   UNL d   1       0.903  -0.620  -0.326  0.00  0.00     0.172 C 
ATOM      2  N   UNL d   1       0.394   0.707  -0.071  0.00  0.00    -0.070 N 
ATOM      3  C1  UNL d   1       0.950   1.875  -0.520  0.00  0.00    -0.004 A 
ATOM      4  C2  UNL d   1       0.169   2.916  -0.066  0.00  0.00    -0.047 A 
ATOM      5  C3  UNL d   1      -0.892   2.354   0.683  0.00  0.00    -0.047 A 
ATOM      6  C4  UNL d   1      -0.728   0.985   0.664  0.00  0.00    -0.004 A 
ENDROOT
TORSDOF 0
ENDMDL
