MODEL 1
REMARK minimizedAffinity -2.4046092
REMARK minimizedRMSD -1
REMARK  0 active torsions:
REMARK  status: ('A' for Active; 'I' for Inactive)
ROOT
ATOM      1  C   UNL d   1       2.854   1.668   0.718  0.00  0.00     0.172 C 
ATOM      2  N   UNL d   1       1.435   1.916   0.618  0.00  0.00    -0.070 N 
ATOM      3  C1  UNL d   1       0.803   3.084   0.951  0.00  0.00    -0.004 A 
ATOM      4  C2  UNL d   1      -0.544   2.919   0.713  0.00  0.00    -0.047 A 
ATOM      5  C3  UNL d   1      -0.729   1.605   0.221  0.00  0.00    -0.047 A 
ATOM      6  C4  UNL d   1       0.512   1.006   0.172  0.00  0.00    -0.004 A 
ENDROOT
TORSDOF 0
ENDMDL
