MODEL 1
REMARK minimizedAffinity -3.37748098
REMARK minimizedRMSD -1
REMARK  0 active torsions:
REMARK  status: ('A' for Active; 'I' for Inactive)
ROOT
ATOM      1  C   UNL d   1       0.354  -0.981  -0.020  0.00  0.00     0.172 C 
ATOM      2  N   UNL d   1       0.277   0.459   0.051  0.00  0.00    -0.070 N 
ATOM      3  C1  UNL d   1      -0.567   1.175   0.858  0.00  0.00    -0.004 A 
ATOM      4  C2  UNL d   1      -0.332   2.514   0.632  0.00  0.00    -0.047 A 
ATOM      5  C3  UNL d   1       0.687   2.606  -0.345  0.00  0.00    -0.047 A 
ATOM      6  C4  UNL d   1       1.046   1.320  -0.687  0.00  0.00    -0.004 A 
ENDROOT
TORSDOF 0
ENDMDL
