MODEL 1
REMARK minimizedAffinity -1.3525492
REMARK minimizedRMSD -1
REMARK  0 active torsions:
REMARK  status: ('A' for Active; 'I' for Inactive)
ROOT
ATOM      1  C   UNL d   1      -0.401  -2.492  -1.298  0.00  0.00     0.172 C 
ATOM      2  N   UNL d   1      -0.412  -1.243  -0.572  0.00  0.00    -0.070 N 
ATOM      3  C1  UNL d   1      -0.789  -0.028  -1.080  0.00  0.00    -0.004 A 
ATOM      4  C2  UNL d   1      -0.659   0.907  -0.076  0.00  0.00    -0.047 A 
ATOM      5  C3  UNL d   1      -0.187   0.231   1.074  0.00  0.00    -0.047 A 
ATOM      6  C4  UNL d   1      -0.043  -1.099   0.739  0.00  0.00    -0.004 A 
ENDROOT
TORSDOF 0
ENDMDL
