MODEL 1
REMARK minimizedAffinity -4.00109053
REMARK minimizedRMSD -1
REMARK  0 active torsions:
REMARK  status: ('A' for Active; 'I' for Inactive)
ROOT
ATOM      1  C   UNL d   1      -1.916   2.872   2.914  0.00  0.00     0.172 C 
ATOM      2  N   UNL d   1      -1.230   2.423   1.725  0.00  0.00    -0.070 N 
ATOM      3  C1  UNL d   1      -0.223   3.094   1.084  0.00  0.00    -0.004 A 
ATOM      4  C2  UNL d   1       0.163   2.338  -0.002  0.00  0.00    -0.047 A 
ATOM      5  C3  UNL d   1      -0.640   1.173  -0.014  0.00  0.00    -0.047 A 
ATOM      6  C4  UNL d   1      -1.494   1.252   1.067  0.00  0.00    -0.004 A 
ENDROOT
TORSDOF 0
ENDMDL
