MODEL 1
REMARK minimizedAffinity -3.44333959
REMARK minimizedRMSD -1
REMARK  0 active torsions:
REMARK  status: ('A' for Active; 'I' for Inactive)
ROOT
ATOM      1  C   UNL d   1      -0.004  -0.898  -0.040  0.00  0.00     0.172 C 
ATOM      2  N   UNL d   1      -0.155   0.534   0.068  0.00  0.00    -0.070 N 
ATOM      3  C1  UNL d   1      -1.125   1.183   0.783  0.00  0.00    -0.004 A 
ATOM      4  C2  UNL d   1      -0.926   2.538   0.632  0.00  0.00    -0.047 A 
ATOM      5  C3  UNL d   1       0.203   2.709  -0.204  0.00  0.00    -0.047 A 
ATOM      6  C4  UNL d   1       0.660   1.452  -0.539  0.00  0.00    -0.004 A 
ENDROOT
TORSDOF 0
ENDMDL
