MODEL 1
REMARK minimizedAffinity -3.53285599
REMARK minimizedRMSD -1
REMARK  0 active torsions:
REMARK  status: ('A' for Active; 'I' for Inactive)
ROOT
ATOM      1  C   UNL d   1       0.326  -1.156   0.029  0.00  0.00     0.172 C 
ATOM      2  N   UNL d   1      -0.030   0.244   0.034  0.00  0.00    -0.070 N 
ATOM      3  C1  UNL d   1       0.714   1.259  -0.506  0.00  0.00    -0.004 A 
ATOM      4  C2  UNL d   1       0.034   2.439  -0.296  0.00  0.00    -0.047 A 
ATOM      5  C3  UNL d   1      -1.159   2.122   0.395  0.00  0.00    -0.047 A 
ATOM      6  C4  UNL d   1      -1.173   0.757   0.587  0.00  0.00    -0.004 A 
ENDROOT
TORSDOF 0
ENDMDL
