MODEL 1
REMARK minimizedAffinity 3.38056278
REMARK minimizedRMSD -1
REMARK  0 active torsions:
REMARK  status: ('A' for Active; 'I' for Inactive)
ROOT
ATOM      1  C   UNL d   1       1.957   2.502   0.455  0.00  0.00     0.172 C 
ATOM      2  N   UNL d   1       0.528   2.529   0.657  0.00  0.00    -0.070 N 
ATOM      3  C1  UNL d   1      -0.396   2.999  -0.237  0.00  0.00    -0.004 A 
ATOM      4  C2  UNL d   1      -1.644   2.851   0.328  0.00  0.00    -0.047 A 
ATOM      5  C3  UNL d   1      -1.464   2.271   1.607  0.00  0.00    -0.047 A 
ATOM      6  C4  UNL d   1      -0.110   2.083   1.785  0.00  0.00    -0.004 A 
ENDROOT
TORSDOF 0
ENDMDL
