MODEL 1
REMARK minimizedAffinity 1.94376802
REMARK minimizedRMSD -1
REMARK  0 active torsions:
REMARK  status: ('A' for Active; 'I' for Inactive)
ROOT
ATOM      1  C   UNL d   1      -0.345   2.535   0.506  0.00  0.00     0.172 C 
ATOM      2  N   UNL d   1       1.071   2.342   0.710  0.00  0.00    -0.070 N 
ATOM      3  C1  UNL d   1       1.788   1.236   0.339  0.00  0.00    -0.004 A 
ATOM      4  C2  UNL d   1       3.100   1.440   0.707  0.00  0.00    -0.047 A 
ATOM      5  C3  UNL d   1       3.174   2.712   1.322  0.00  0.00    -0.047 A 
ATOM      6  C4  UNL d   1       1.904   3.249   1.310  0.00  0.00    -0.004 A 
ENDROOT
TORSDOF 0
ENDMDL
