MODEL 1
REMARK minimizedAffinity -2.20904112
REMARK minimizedRMSD -1
REMARK  0 active torsions:
REMARK  status: ('A' for Active; 'I' for Inactive)
ROOT
ATOM      1  C   UNL d   1       2.604   1.070   0.820  0.00  0.00     0.172 C 
ATOM      2  N   UNL d   1       1.249   0.584   0.704  0.00  0.00    -0.070 N 
ATOM      3  C1  UNL d   1       0.134   1.361   0.536  0.00  0.00    -0.004 A 
ATOM      4  C2  UNL d   1      -0.958   0.523   0.470  0.00  0.00    -0.047 A 
ATOM      5  C3  UNL d   1      -0.483  -0.803   0.604  0.00  0.00    -0.047 A 
ATOM      6  C4  UNL d   1       0.886  -0.736   0.748  0.00  0.00    -0.004 A 
ENDROOT
TORSDOF 0
ENDMDL
