MODEL 1
REMARK minimizedAffinity -0.01874361
REMARK minimizedRMSD -1
REMARK  0 active torsions:
REMARK  status: ('A' for Active; 'I' for Inactive)
ROOT
ATOM      1  C   UNL d   1      -2.774   2.355  -0.135  0.00  0.00     0.172 C 
ATOM      2  N   UNL d   1      -1.337   2.495  -0.111  0.00  0.00    -0.070 N 
ATOM      3  C1  UNL d   1      -0.580   3.119  -1.066  0.00  0.00    -0.004 A 
ATOM      4  C2  UNL d   1       0.740   3.040  -0.677  0.00  0.00    -0.047 A 
ATOM      5  C3  UNL d   1       0.777   2.342   0.554  0.00  0.00    -0.047 A 
ATOM      6  C4  UNL d   1      -0.522   2.017   0.881  0.00  0.00    -0.004 A 
ENDROOT
TORSDOF 0
ENDMDL
