MODEL 1
REMARK minimizedAffinity -1.24690294
REMARK minimizedRMSD -1
REMARK  0 active torsions:
REMARK  status: ('A' for Active; 'I' for Inactive)
ROOT
ATOM      1  C   UNL d   1      -2.471   2.675  -0.297  0.00  0.00     0.172 C 
ATOM      2  N   UNL d   1      -1.030   2.670  -0.215  0.00  0.00    -0.070 N 
ATOM      3  C1  UNL d   1      -0.283   1.944   0.675  0.00  0.00    -0.004 A 
ATOM      4  C2  UNL d   1       1.046   2.213   0.429  0.00  0.00    -0.047 A 
ATOM      5  C3  UNL d   1       1.100   3.133  -0.645  0.00  0.00    -0.047 A 
ATOM      6  C4  UNL d   1      -0.199   3.398  -1.025  0.00  0.00    -0.004 A 
ENDROOT
TORSDOF 0
ENDMDL
