MODEL 1
REMARK minimizedAffinity -3.43730474
REMARK minimizedRMSD -1
REMARK  0 active torsions:
REMARK  status: ('A' for Active; 'I' for Inactive)
ROOT
ATOM      1  C   UNL d   1      -0.910  -2.732   0.300  0.00  0.00     0.172 C 
ATOM      2  N   UNL d   1      -0.735  -1.417  -0.271  0.00  0.00    -0.070 N 
ATOM      3  C1  UNL d   1      -0.777  -1.115  -1.606  0.00  0.00    -0.004 A 
ATOM      4  C2  UNL d   1      -0.566   0.241  -1.739  0.00  0.00    -0.047 A 
ATOM      5  C3  UNL d   1      -0.391   0.771  -0.438  0.00  0.00    -0.047 A 
ATOM      6  C4  UNL d   1      -0.500  -0.277   0.451  0.00  0.00    -0.004 A 
ENDROOT
TORSDOF 0
ENDMDL
