MODEL 1
REMARK minimizedAffinity -2.07506299
REMARK minimizedRMSD -1
REMARK  0 active torsions:
REMARK  status: ('A' for Active; 'I' for Inactive)
ROOT
ATOM      1  C   UNL d   1       0.385   3.087   0.378  0.00  0.00     0.172 C 
ATOM      2  N   UNL d   1       0.635   1.666   0.327  0.00  0.00    -0.070 N 
ATOM      3  C1  UNL d   1      -0.319   0.692   0.200  0.00  0.00    -0.004 A 
ATOM      4  C2  UNL d   1       0.321  -0.528   0.191  0.00  0.00    -0.047 A 
ATOM      5  C3  UNL d   1       1.709  -0.279   0.319  0.00  0.00    -0.047 A 
ATOM      6  C4  UNL d   1       1.874   1.088   0.401  0.00  0.00    -0.004 A 
ENDROOT
TORSDOF 0
ENDMDL
