MODEL 1
REMARK minimizedAffinity 2.05004478
REMARK minimizedRMSD -1
REMARK  1 active torsions:
REMARK  status: ('A' for Active; 'I' for Inactive)
REMARK    1  A    between atoms: C3_4  and  O_7 
ROOT
ATOM      1  C   UNL d   1       0.173   2.993   0.045  0.00  0.00    -0.033 A 
ATOM      2  C1  UNL d   1      -0.635   2.777  -1.072  0.00  0.00     0.039 A 
ATOM      3  C2  UNL d   1      -0.628   3.690  -2.128  0.00  0.00    -0.080 A 
ATOM      4  C3  UNL d   1       0.191   4.813  -2.055  0.00  0.00     0.150 A 
ATOM      5  C4  UNL d   1       1.002   5.033  -0.947  0.00  0.00    -0.007 A 
ATOM      6  C5  UNL d   1       0.993   4.121   0.107  0.00  0.00     0.039 A 
ENDROOT
BRANCH   4   7
ATOM      7  O   UNL d   1       0.228   5.735  -3.059  0.00  0.00    -0.526 OA
ATOM      8  H5  UNL d   1      -0.405   5.467  -3.746  0.00  0.00     0.418 HD
ENDBRANCH   4   7
TORSDOF 1
ENDMDL
