MODEL 1
REMARK minimizedAffinity -0.639737129
REMARK minimizedRMSD -1
REMARK  1 active torsions:
REMARK  status: ('A' for Active; 'I' for Inactive)
REMARK    1  A    between atoms: C3_4  and  O_7 
ROOT
ATOM      1  C   UNL d   1      -6.000   2.377  -2.637  0.00  0.00    -0.033 A 
ATOM      2  C1  UNL d   1      -5.996   2.407  -4.033  0.00  0.00     0.039 A 
ATOM      3  C2  UNL d   1      -5.360   3.450  -4.708  0.00  0.00    -0.080 A 
ATOM      4  C3  UNL d   1      -4.732   4.455  -3.977  0.00  0.00     0.150 A 
ATOM      5  C4  UNL d   1      -4.728   4.429  -2.587  0.00  0.00    -0.007 A 
ATOM      6  C5  UNL d   1      -5.365   3.387  -1.914  0.00  0.00     0.039 A 
ENDROOT
BRANCH   4   7
ATOM      7  O   UNL d   1      -4.102   5.496  -4.593  0.00  0.00    -0.526 OA
ATOM      8  H5  UNL d   1      -4.210   5.397  -5.553  0.00  0.00     0.418 HD
ENDBRANCH   4   7
TORSDOF 1
ENDMDL
