MODEL 1
REMARK minimizedAffinity 8.42961311
REMARK minimizedRMSD -1
REMARK  1 active torsions:
REMARK  status: ('A' for Active; 'I' for Inactive)
REMARK    1  A    between atoms: C3_4  and  O_7 
ROOT
ATOM      1  C   UNL d   1      -1.235   5.217  -3.103  0.00  0.00    -0.033 A 
ATOM      2  C1  UNL d   1       0.125   5.016  -2.860  0.00  0.00     0.039 A 
ATOM      3  C2  UNL d   1       0.539   4.356  -1.701  0.00  0.00    -0.080 A 
ATOM      4  C3  UNL d   1      -0.416   3.902  -0.795  0.00  0.00     0.150 A 
ATOM      5  C4  UNL d   1      -1.773   4.096  -1.033  0.00  0.00    -0.007 A 
ATOM      6  C5  UNL d   1      -2.184   4.756  -2.191  0.00  0.00     0.039 A 
ENDROOT
BRANCH   4   7
ATOM      7  O   UNL d   1      -0.061   3.258   0.352  0.00  0.00    -0.526 OA
ATOM      8  H5  UNL d   1       0.909   3.221   0.397  0.00  0.00     0.418 HD
ENDBRANCH   4   7
TORSDOF 1
ENDMDL
