MODEL 1
REMARK minimizedAffinity 6.1509819
REMARK minimizedRMSD -1
REMARK  1 active torsions:
REMARK  status: ('A' for Active; 'I' for Inactive)
REMARK    1  A    between atoms: C3_4  and  O_7 
ROOT
ATOM      1  C   UNL d   1      -1.214  -2.203  -3.030  0.00  0.00    -0.033 A 
ATOM      2  C1  UNL d   1      -0.903  -3.267  -3.879  0.00  0.00     0.039 A 
ATOM      3  C2  UNL d   1      -0.159  -4.348  -3.403  0.00  0.00    -0.080 A 
ATOM      4  C3  UNL d   1       0.266  -4.354  -2.077  0.00  0.00     0.150 A 
ATOM      5  C4  UNL d   1      -0.043  -3.299  -1.225  0.00  0.00    -0.007 A 
ATOM      6  C5  UNL d   1      -0.786  -2.220  -1.702  0.00  0.00     0.039 A 
ENDROOT
BRANCH   4   7
ATOM      7  O   UNL d   1       0.999  -5.384  -1.568  0.00  0.00    -0.526 OA
ATOM      8  H5  UNL d   1       1.161  -6.027  -2.279  0.00  0.00     0.418 HD
ENDBRANCH   4   7
TORSDOF 1
ENDMDL
