MODEL 1
REMARK minimizedAffinity 9.46630859
REMARK minimizedRMSD -1
REMARK  1 active torsions:
REMARK  status: ('A' for Active; 'I' for Inactive)
REMARK    1  A    between atoms: C3_4  and  O_7 
ROOT
ATOM      1  C   UNL d   1       1.239  -3.858  -0.318  0.00  0.00    -0.033 A 
ATOM      2  C1  UNL d   1       0.978  -4.903  -1.205  0.00  0.00     0.039 A 
ATOM      3  C2  UNL d   1       0.104  -4.711  -2.277  0.00  0.00    -0.080 A 
ATOM      4  C3  UNL d   1      -0.501  -3.469  -2.450  0.00  0.00     0.150 A 
ATOM      5  C4  UNL d   1      -0.244  -2.422  -1.572  0.00  0.00    -0.007 A 
ATOM      6  C5  UNL d   1       0.629  -2.616  -0.502  0.00  0.00     0.039 A 
ENDROOT
BRANCH   4   7
ATOM      7  O   UNL d   1      -1.365  -3.235  -3.478  0.00  0.00    -0.526 OA
ATOM      8  H5  UNL d   1      -1.469  -4.057  -3.986  0.00  0.00     0.418 HD
ENDBRANCH   4   7
TORSDOF 1
ENDMDL
