MODEL 1
REMARK minimizedAffinity 1.86772621
REMARK minimizedRMSD -1
REMARK  1 active torsions:
REMARK  status: ('A' for Active; 'I' for Inactive)
REMARK    1  A    between atoms: C3_4  and  O_7 
ROOT
ATOM      1  C   UNL d   1      -4.882  -2.997   6.000  0.00  0.00    -0.033 A 
ATOM      2  C1  UNL d   1      -5.999  -2.164   5.912  0.00  0.00     0.039 A 
ATOM      3  C2  UNL d   1      -6.000  -1.085   5.027  0.00  0.00    -0.080 A 
ATOM      4  C3  UNL d   1      -4.879  -0.850   4.235  0.00  0.00     0.150 A 
ATOM      5  C4  UNL d   1      -3.764  -1.677   4.315  0.00  0.00    -0.007 A 
ATOM      6  C5  UNL d   1      -3.765  -2.754   5.200  0.00  0.00     0.039 A 
ENDROOT
BRANCH   4   7
ATOM      7  O   UNL d   1      -4.831   0.194   3.360  0.00  0.00    -0.526 OA
ATOM      8  H5  UNL d   1      -5.660   0.696   3.434  0.00  0.00     0.418 HD
ENDBRANCH   4   7
TORSDOF 1
ENDMDL
