MODEL 1
REMARK minimizedAffinity 0.19762072
REMARK minimizedRMSD -1
REMARK  1 active torsions:
REMARK  status: ('A' for Active; 'I' for Inactive)
REMARK    1  A    between atoms: C3_4  and  O_7 
ROOT
ATOM      1  C   UNL d   1      -5.620   4.335  -1.873  0.00  0.00    -0.033 A 
ATOM      2  C1  UNL d   1      -5.994   2.999  -1.711  0.00  0.00     0.039 A 
ATOM      3  C2  UNL d   1      -6.000   2.136  -2.808  0.00  0.00    -0.080 A 
ATOM      4  C3  UNL d   1      -5.630   2.619  -4.060  0.00  0.00     0.150 A 
ATOM      5  C4  UNL d   1      -5.253   3.947  -4.228  0.00  0.00    -0.007 A 
ATOM      6  C5  UNL d   1      -5.249   4.808  -3.132  0.00  0.00     0.039 A 
ENDROOT
BRANCH   4   7
ATOM      7  O   UNL d   1      -5.625   1.815  -5.161  0.00  0.00    -0.526 OA
ATOM      8  H5  UNL d   1      -5.936   0.932  -4.899  0.00  0.00     0.418 HD
ENDBRANCH   4   7
TORSDOF 1
ENDMDL
