MODEL 1
REMARK minimizedAffinity 3.10868239
REMARK minimizedRMSD -1
REMARK  1 active torsions:
REMARK  status: ('A' for Active; 'I' for Inactive)
REMARK    1  A    between atoms: C3_4  and  O_7 
ROOT
ATOM      1  C   UNL d   1      -0.382   3.624   0.425  0.00  0.00    -0.033 A 
ATOM      2  C1  UNL d   1      -0.427   4.579  -0.593  0.00  0.00     0.039 A 
ATOM      3  C2  UNL d   1       0.725   5.288  -0.939  0.00  0.00    -0.080 A 
ATOM      4  C3  UNL d   1       1.914   5.033  -0.261  0.00  0.00     0.150 A 
ATOM      5  C4  UNL d   1       1.967   4.080   0.751  0.00  0.00    -0.007 A 
ATOM      6  C5  UNL d   1       0.815   3.373   1.096  0.00  0.00     0.039 A 
ENDROOT
BRANCH   4   7
ATOM      7  O   UNL d   1       3.062   5.703  -0.560  0.00  0.00    -0.526 OA
ATOM      8  H5  UNL d   1       2.868   6.350  -1.259  0.00  0.00     0.418 HD
ENDBRANCH   4   7
TORSDOF 1
ENDMDL
