MODEL 1
REMARK minimizedAffinity 12.1987438
REMARK minimizedRMSD -1
REMARK  1 active torsions:
REMARK  status: ('A' for Active; 'I' for Inactive)
REMARK    1  A    between atoms: C1_2  and  C2_3 
ROOT
ATOM      1  C2  UNL d   1      -2.894   0.251   1.530  0.00  0.00    -0.073 A 
ATOM      2  C3  UNL d   1      -2.912   0.866   2.787  0.00  0.00    -0.002 A 
ATOM      3  C4  UNL d   1      -2.008   0.475   3.776  0.00  0.00     0.004 A 
ATOM      4  C5  UNL d   1      -1.075  -0.529   3.517  0.00  0.00    -0.004 A 
ATOM      5  C6  UNL d   1      -1.034  -1.147   2.264  0.00  0.00    -0.075 A 
ATOM      6  C7  UNL d   1      -0.037  -2.230   1.970  0.00  0.00     0.076 C 
ATOM      7  C8  UNL d   1      -1.946  -0.751   1.276  0.00  0.00     0.001 A 
ENDROOT
BRANCH   1   8
ATOM      8  C1  UNL d   1      -3.863   0.674   0.457  0.00  0.00     0.053 C 
ATOM      9  C   UNL d   1      -5.275   0.185   0.739  0.00  0.00     0.018 C 
ENDBRANCH   1   8
TORSDOF 1
ENDMDL
