MODEL 1
REMARK minimizedAffinity 15.7935934
REMARK minimizedRMSD -1
REMARK  1 active torsions:
REMARK  status: ('A' for Active; 'I' for Inactive)
REMARK    1  A    between atoms: C1_2  and  C2_3 
ROOT
ATOM      1  C2  UNL d   1      -3.208   1.751   4.765  0.00  0.00    -0.073 A 
ATOM      2  C3  UNL d   1      -2.885   1.131   5.978  0.00  0.00    -0.002 A 
ATOM      3  C4  UNL d   1      -2.033   0.027   6.000  0.00  0.00     0.004 A 
ATOM      4  C5  UNL d   1      -1.490  -0.465   4.813  0.00  0.00    -0.004 A 
ATOM      5  C6  UNL d   1      -1.792   0.148   3.592  0.00  0.00    -0.075 A 
ATOM      6  C7  UNL d   1      -1.218  -0.370   2.307  0.00  0.00     0.076 C 
ATOM      7  C8  UNL d   1      -2.650   1.255   3.578  0.00  0.00     0.001 A 
ENDROOT
BRANCH   1   8
ATOM      8  C1  UNL d   1      -4.123   2.948   4.737  0.00  0.00     0.053 C 
ATOM      9  C   UNL d   1      -4.963   3.054   6.000  0.00  0.00     0.018 C 
ENDBRANCH   1   8
TORSDOF 1
ENDMDL
