MODEL 1
REMARK minimizedAffinity 21.9784355
REMARK minimizedRMSD -1
REMARK  1 active torsions:
REMARK  status: ('A' for Active; 'I' for Inactive)
REMARK    1  A    between atoms: C1_2  and  C2_3 
ROOT
ATOM      1  C2  UNL d   1      -3.689   2.269   5.235  0.00  0.00    -0.073 A 
ATOM      2  C3  UNL d   1      -3.643   2.310   3.837  0.00  0.00    -0.002 A 
ATOM      3  C4  UNL d   1      -2.648   1.619   3.144  0.00  0.00     0.004 A 
ATOM      4  C5  UNL d   1      -1.695   0.875   3.839  0.00  0.00    -0.004 A 
ATOM      5  C6  UNL d   1      -1.732   0.812   5.236  0.00  0.00    -0.075 A 
ATOM      6  C7  UNL d   1      -0.713   0.017   5.999  0.00  0.00     0.076 C 
ATOM      7  C8  UNL d   1      -2.732   1.510   5.925  0.00  0.00     0.001 A 
ENDROOT
BRANCH   1   8
ATOM      8  C1  UNL d   1      -4.765   3.008   5.988  0.00  0.00     0.053 C 
ATOM      9  C   UNL d   1      -4.523   4.509   6.000  0.00  0.00     0.018 C 
ENDBRANCH   1   8
TORSDOF 1
ENDMDL
