MODEL 1
REMARK minimizedAffinity 16.3740768
REMARK minimizedRMSD -1
REMARK  1 active torsions:
REMARK  status: ('A' for Active; 'I' for Inactive)
REMARK    1  A    between atoms: C1_2  and  C2_3 
ROOT
ATOM      1  C2  UNL d   1      -2.987   1.174   3.893  0.00  0.00    -0.073 A 
ATOM      2  C3  UNL d   1      -1.822   0.404   3.797  0.00  0.00    -0.002 A 
ATOM      3  C4  UNL d   1      -1.712  -0.588   2.822  0.00  0.00     0.004 A 
ATOM      4  C5  UNL d   1      -2.761  -0.817   1.931  0.00  0.00    -0.004 A 
ATOM      5  C6  UNL d   1      -3.928  -0.050   2.004  0.00  0.00    -0.075 A 
ATOM      6  C7  UNL d   1      -5.066  -0.285   1.055  0.00  0.00     0.076 C 
ATOM      7  C8  UNL d   1      -4.032   0.943   2.987  0.00  0.00     0.001 A 
ENDROOT
BRANCH   1   8
ATOM      8  C1  UNL d   1      -3.108   2.252   4.940  0.00  0.00     0.053 C 
ATOM      9  C   UNL d   1      -4.516   2.341   5.506  0.00  0.00     0.018 C 
ENDBRANCH   1   8
TORSDOF 1
ENDMDL
