MODEL 1
REMARK minimizedAffinity 10.4167528
REMARK minimizedRMSD -1
REMARK  1 active torsions:
REMARK  status: ('A' for Active; 'I' for Inactive)
REMARK    1  A    between atoms: C1_2  and  C2_3 
ROOT
ATOM      1  C2  UNL d   1      -2.868   1.259   3.522  0.00  0.00    -0.073 A 
ATOM      2  C3  UNL d   1      -4.051   1.063   2.800  0.00  0.00    -0.002 A 
ATOM      3  C4  UNL d   1      -4.083   0.167   1.730  0.00  0.00     0.004 A 
ATOM      4  C5  UNL d   1      -2.938  -0.546   1.376  0.00  0.00    -0.004 A 
ATOM      5  C6  UNL d   1      -1.750  -0.373   2.094  0.00  0.00    -0.075 A 
ATOM      6  C7  UNL d   1      -0.508  -1.131   1.725  0.00  0.00     0.076 C 
ATOM      7  C8  UNL d   1      -1.724   0.530   3.165  0.00  0.00     0.001 A 
ENDROOT
BRANCH   1   8
ATOM      8  C1  UNL d   1      -2.830   2.220   4.682  0.00  0.00     0.053 C 
ATOM      9  C   UNL d   1      -4.213   2.467   5.264  0.00  0.00     0.018 C 
ENDBRANCH   1   8
TORSDOF 1
ENDMDL
