MODEL 1
REMARK minimizedAffinity 5.84449863
REMARK minimizedRMSD -1
REMARK  1 active torsions:
REMARK  status: ('A' for Active; 'I' for Inactive)
REMARK    1  A    between atoms: C1_2  and  C2_3 
ROOT
ATOM      1  C2  UNL d   1      -0.869  -0.084   3.847  0.00  0.00    -0.073 A 
ATOM      2  C3  UNL d   1      -1.675  -0.662   2.860  0.00  0.00    -0.002 A 
ATOM      3  C4  UNL d   1      -1.177  -1.688   2.055  0.00  0.00     0.004 A 
ATOM      4  C5  UNL d   1       0.127  -2.149   2.232  0.00  0.00    -0.004 A 
ATOM      5  C6  UNL d   1       0.944  -1.591   3.221  0.00  0.00    -0.075 A 
ATOM      6  C7  UNL d   1       2.350  -2.074   3.423  0.00  0.00     0.076 C 
ATOM      7  C8  UNL d   1       0.438  -0.560   4.023  0.00  0.00     0.001 A 
ENDROOT
BRANCH   1   8
ATOM      8  C1  UNL d   1      -1.405   1.019   4.723  0.00  0.00     0.053 C 
ATOM      9  C   UNL d   1      -2.406   1.896   3.987  0.00  0.00     0.018 C 
ENDBRANCH   1   8
TORSDOF 1
ENDMDL
