MODEL 1
REMARK minimizedAffinity 10.7857018
REMARK minimizedRMSD -1
REMARK  1 active torsions:
REMARK  status: ('A' for Active; 'I' for Inactive)
REMARK    1  A    between atoms: C1_2  and  C2_3 
ROOT
ATOM      1  C2  UNL d   1      -3.505   0.826   3.486  0.00  0.00    -0.073 A 
ATOM      2  C3  UNL d   1      -4.736   0.571   2.872  0.00  0.00    -0.002 A 
ATOM      3  C4  UNL d   1      -4.829  -0.362   1.839  0.00  0.00     0.004 A 
ATOM      4  C5  UNL d   1      -3.695  -1.055   1.415  0.00  0.00    -0.004 A 
ATOM      5  C6  UNL d   1      -2.458  -0.823   2.024  0.00  0.00    -0.075 A 
ATOM      6  C7  UNL d   1      -1.228  -1.557   1.578  0.00  0.00     0.076 C 
ATOM      7  C8  UNL d   1      -2.372   0.118   3.059  0.00  0.00     0.001 A 
ENDROOT
BRANCH   1   8
ATOM      8  C1  UNL d   1      -3.401   1.829   4.607  0.00  0.00     0.053 C 
ATOM      9  C   UNL d   1      -4.751   2.107   5.249  0.00  0.00     0.018 C 
ENDBRANCH   1   8
TORSDOF 1
ENDMDL
