MODEL 1
REMARK minimizedAffinity 4.09657431
REMARK minimizedRMSD -1
REMARK  1 active torsions:
REMARK  status: ('A' for Active; 'I' for Inactive)
REMARK    1  A    between atoms: C1_2  and  C2_3 
ROOT
ATOM      1  C2  UNL d   1       3.318  -3.333   0.021  0.00  0.00    -0.073 A 
ATOM      2  C3  UNL d   1       3.952  -2.216  -0.534  0.00  0.00    -0.002 A 
ATOM      3  C4  UNL d   1       5.246  -2.322  -1.047  0.00  0.00     0.004 A 
ATOM      4  C5  UNL d   1       5.915  -3.545  -1.017  0.00  0.00    -0.004 A 
ATOM      5  C6  UNL d   1       5.293  -4.676  -0.477  0.00  0.00    -0.075 A 
ATOM      6  C7  UNL d   1       5.999  -5.999  -0.435  0.00  0.00     0.076 C 
ATOM      7  C8  UNL d   1       3.995  -4.561   0.038  0.00  0.00     0.001 A 
ENDROOT
BRANCH   1   8
ATOM      8  C1  UNL d   1       1.919  -3.225   0.570  0.00  0.00     0.053 C 
ATOM      9  C   UNL d   1       1.856  -2.332   1.799  0.00  0.00     0.018 C 
ENDBRANCH   1   8
TORSDOF 1
ENDMDL
