MODEL 1
REMARK minimizedAffinity 6.05811501
REMARK minimizedRMSD -1
REMARK  1 active torsions:
REMARK  status: ('A' for Active; 'I' for Inactive)
REMARK    1  A    between atoms: C1_2  and  C2_3 
ROOT
ATOM      1  C2  UNL d   1      -3.772   1.529   4.749  0.00  0.00    -0.073 A 
ATOM      2  C3  UNL d   1      -2.417   1.183   4.789  0.00  0.00    -0.002 A 
ATOM      3  C4  UNL d   1      -1.840   0.471   3.736  0.00  0.00     0.004 A 
ATOM      4  C5  UNL d   1      -2.610   0.103   2.633  0.00  0.00    -0.004 A 
ATOM      5  C6  UNL d   1      -3.963   0.450   2.569  0.00  0.00    -0.075 A 
ATOM      6  C7  UNL d   1      -4.805   0.060   1.390  0.00  0.00     0.076 C 
ATOM      7  C8  UNL d   1      -4.536   1.163   3.631  0.00  0.00     0.001 A 
ENDROOT
BRANCH   1   8
ATOM      8  C1  UNL d   1      -4.398   2.304   5.880  0.00  0.00     0.053 C 
ATOM      9  C   UNL d   1      -5.911   2.155   5.905  0.00  0.00     0.018 C 
ENDBRANCH   1   8
TORSDOF 1
ENDMDL
