MODEL 1
REMARK minimizedAffinity 11.3103456
REMARK minimizedRMSD -1
REMARK  1 active torsions:
REMARK  status: ('A' for Active; 'I' for Inactive)
REMARK    1  A    between atoms: C1_2  and  C2_3 
ROOT
ATOM      1  C2  UNL d   1      -2.717   0.481   3.633  0.00  0.00    -0.073 A 
ATOM      2  C3  UNL d   1      -1.552  -0.171   3.216  0.00  0.00    -0.002 A 
ATOM      3  C4  UNL d   1      -1.572  -1.001   2.094  0.00  0.00     0.004 A 
ATOM      4  C5  UNL d   1      -2.753  -1.181   1.375  0.00  0.00    -0.004 A 
ATOM      5  C6  UNL d   1      -3.926  -0.528   1.770  0.00  0.00    -0.075 A 
ATOM      6  C7  UNL d   1      -5.205  -0.713   1.008  0.00  0.00     0.076 C 
ATOM      7  C8  UNL d   1      -3.898   0.301   2.899  0.00  0.00     0.001 A 
ENDROOT
BRANCH   1   8
ATOM      8  C1  UNL d   1      -2.699   1.383   4.840  0.00  0.00     0.053 C 
ATOM      9  C   UNL d   1      -4.060   1.465   5.512  0.00  0.00     0.018 C 
ENDBRANCH   1   8
TORSDOF 1
ENDMDL
