MODEL 1
REMARK minimizedAffinity 15.7331934
REMARK minimizedRMSD -1
REMARK  1 active torsions:
REMARK  status: ('A' for Active; 'I' for Inactive)
REMARK    1  A    between atoms: C1_2  and  C2_3 
ROOT
ATOM      1  C2  UNL d   1       1.357   2.054  -1.935  0.00  0.00    -0.073 A 
ATOM      2  C3  UNL d   1       0.356   2.993  -2.211  0.00  0.00    -0.002 A 
ATOM      3  C4  UNL d   1       0.590   4.026  -3.119  0.00  0.00     0.004 A 
ATOM      4  C5  UNL d   1       1.822   4.128  -3.765  0.00  0.00    -0.004 A 
ATOM      5  C6  UNL d   1       2.831   3.193  -3.511  0.00  0.00    -0.075 A 
ATOM      6  C7  UNL d   1       4.163   3.290  -4.195  0.00  0.00     0.076 C 
ATOM      7  C8  UNL d   1       2.589   2.160  -2.596  0.00  0.00     0.001 A 
ENDROOT
BRANCH   1   8
ATOM      8  C1  UNL d   1       1.107   0.933  -0.960  0.00  0.00     0.053 C 
ATOM      9  C   UNL d   1       1.797   1.172   0.373  0.00  0.00     0.018 C 
ENDBRANCH   1   8
TORSDOF 1
ENDMDL
