MODEL 1
REMARK minimizedAffinity 10.7420607
REMARK minimizedRMSD -1
REMARK  1 active torsions:
REMARK  status: ('A' for Active; 'I' for Inactive)
REMARK    1  A    between atoms: C1_2  and  C2_3 
ROOT
ATOM      1  C2  UNL d   1       0.611   2.991  -2.318  0.00  0.00    -0.073 A 
ATOM      2  C3  UNL d   1       0.896   4.156  -1.598  0.00  0.00    -0.002 A 
ATOM      3  C4  UNL d   1       0.347   5.378  -1.988  0.00  0.00     0.004 A 
ATOM      4  C5  UNL d   1      -0.497   5.446  -3.097  0.00  0.00    -0.004 A 
ATOM      5  C6  UNL d   1      -0.803   4.290  -3.823  0.00  0.00    -0.075 A 
ATOM      6  C7  UNL d   1      -1.706   4.347  -5.019  0.00  0.00     0.076 C 
ATOM      7  C8  UNL d   1      -0.245   3.067  -3.426  0.00  0.00     0.001 A 
ENDROOT
BRANCH   1   8
ATOM      8  C1  UNL d   1       1.197   1.668  -1.896  0.00  0.00     0.053 C 
ATOM      9  C   UNL d   1       1.597   1.664  -0.429  0.00  0.00     0.018 C 
ENDBRANCH   1   8
TORSDOF 1
ENDMDL
