MODEL 1
REMARK minimizedAffinity 11.6335697
REMARK minimizedRMSD -1
REMARK  1 active torsions:
REMARK  status: ('A' for Active; 'I' for Inactive)
REMARK    1  A    between atoms: C1_2  and  C2_3 
ROOT
ATOM      1  C2  UNL d   1      -3.105   5.499  -5.053  0.00  0.00    -0.073 A 
ATOM      2  C3  UNL d   1      -2.679   4.561  -6.000  0.00  0.00    -0.002 A 
ATOM      3  C4  UNL d   1      -1.363   4.097  -5.990  0.00  0.00     0.004 A 
ATOM      4  C5  UNL d   1      -0.463   4.560  -5.031  0.00  0.00    -0.004 A 
ATOM      5  C6  UNL d   1      -0.872   5.490  -4.069  0.00  0.00    -0.075 A 
ATOM      6  C7  UNL d   1       0.085   6.000  -3.032  0.00  0.00     0.076 C 
ATOM      7  C8  UNL d   1      -2.195   5.953  -4.087  0.00  0.00     0.001 A 
ENDROOT
BRANCH   1   8
ATOM      8  C1  UNL d   1      -4.527   5.998  -5.056  0.00  0.00     0.053 C 
ATOM      9  C   UNL d   1      -5.235   5.710  -3.742  0.00  0.00     0.018 C 
ENDBRANCH   1   8
TORSDOF 1
ENDMDL
