MODEL 1
REMARK minimizedAffinity -2.45679927
REMARK minimizedRMSD -1
REMARK  1 active torsions:
REMARK  status: ('A' for Active; 'I' for Inactive)
REMARK    1  A    between atoms: C1_2  and  C2_3 
ROOT
ATOM      1  C2  UNL d   1      -0.949   0.763   0.508  0.00  0.00    -0.073 A 
ATOM      2  C3  UNL d   1      -1.095   2.018  -0.093  0.00  0.00    -0.002 A 
ATOM      3  C4  UNL d   1      -0.177   2.453  -1.050  0.00  0.00     0.004 A 
ATOM      4  C5  UNL d   1       0.890   1.635  -1.421  0.00  0.00    -0.004 A 
ATOM      5  C6  UNL d   1       1.046   0.372  -0.841  0.00  0.00    -0.075 A 
ATOM      6  C7  UNL d   1       2.190  -0.519  -1.227  0.00  0.00     0.076 C 
ATOM      7  C8  UNL d   1       0.122  -0.056   0.122  0.00  0.00     0.001 A 
ENDROOT
BRANCH   1   8
ATOM      8  C1  UNL d   1      -1.941   0.287   1.537  0.00  0.00     0.053 C 
ATOM      9  C   UNL d   1      -1.993   1.206   2.747  0.00  0.00     0.018 C 
ENDBRANCH   1   8
TORSDOF 1
ENDMDL
