MODEL 1
REMARK minimizedAffinity -5.37103891
REMARK minimizedRMSD -1
REMARK  1 active torsions:
REMARK  status: ('A' for Active; 'I' for Inactive)
REMARK    1  A    between atoms: C1_2  and  C2_3 
ROOT
ATOM      1  C2  UNL d   1       1.023  -0.539  -0.585  0.00  0.00    -0.073 A 
ATOM      2  C3  UNL d   1       2.211   0.190  -0.453  0.00  0.00    -0.002 A 
ATOM      3  C4  UNL d   1       3.373  -0.234  -1.098  0.00  0.00     0.004 A 
ATOM      4  C5  UNL d   1       3.359  -1.385  -1.886  0.00  0.00    -0.004 A 
ATOM      5  C6  UNL d   1       2.179  -2.120  -2.040  0.00  0.00    -0.075 A 
ATOM      6  C7  UNL d   1       2.147  -3.361  -2.882  0.00  0.00     0.076 C 
ATOM      7  C8  UNL d   1       1.016  -1.689  -1.386  0.00  0.00     0.001 A 
ENDROOT
BRANCH   1   8
ATOM      8  C1  UNL d   1      -0.236  -0.082   0.105  0.00  0.00     0.053 C 
ATOM      9  C   UNL d   1      -0.718   1.261  -0.420  0.00  0.00     0.018 C 
ENDBRANCH   1   8
TORSDOF 1
ENDMDL
