MODEL 1
REMARK minimizedAffinity -4.41748381
REMARK minimizedRMSD -1
REMARK  1 active torsions:
REMARK  status: ('A' for Active; 'I' for Inactive)
REMARK    1  A    between atoms: C1_2  and  C2_3 
ROOT
ATOM      1  C2  UNL d   1      -0.342  -0.685   0.768  0.00  0.00    -0.073 A 
ATOM      2  C3  UNL d   1      -0.802   0.104  -0.292  0.00  0.00    -0.002 A 
ATOM      3  C4  UNL d   1      -1.727   1.124  -0.061  0.00  0.00     0.004 A 
ATOM      4  C5  UNL d   1      -2.194   1.369   1.230  0.00  0.00    -0.004 A 
ATOM      5  C6  UNL d   1      -1.737   0.599   2.304  0.00  0.00    -0.075 A 
ATOM      6  C7  UNL d   1      -2.231   0.849   3.699  0.00  0.00     0.076 C 
ATOM      7  C8  UNL d   1      -0.810  -0.425   2.064  0.00  0.00     0.001 A 
ENDROOT
BRANCH   1   8
ATOM      8  C1  UNL d   1       0.661  -1.783   0.525  0.00  0.00     0.053 C 
ATOM      9  C   UNL d   1       0.011  -3.158   0.518  0.00  0.00     0.018 C 
ENDBRANCH   1   8
TORSDOF 1
ENDMDL
