MODEL 1
REMARK minimizedAffinity -4.57855558
REMARK minimizedRMSD -1
REMARK  1 active torsions:
REMARK  status: ('A' for Active; 'I' for Inactive)
REMARK    1  A    between atoms: C1_2  and  C2_3 
ROOT
ATOM      1  C2  UNL d   1      -0.118  -0.081  -0.051  0.00  0.00    -0.073 A 
ATOM      2  C3  UNL d   1      -0.439  -1.443  -0.017  0.00  0.00    -0.002 A 
ATOM      3  C4  UNL d   1       0.430  -2.385  -0.568  0.00  0.00     0.004 A 
ATOM      4  C5  UNL d   1       1.631  -1.978  -1.150  0.00  0.00    -0.004 A 
ATOM      5  C6  UNL d   1       1.975  -0.622  -1.182  0.00  0.00    -0.075 A 
ATOM      6  C7  UNL d   1       3.261  -0.167  -1.806  0.00  0.00     0.076 C 
ATOM      7  C8  UNL d   1       1.095   0.319  -0.630  0.00  0.00     0.001 A 
ENDROOT
BRANCH   1   8
ATOM      8  C1  UNL d   1      -1.051   0.940   0.548  0.00  0.00     0.053 C 
ATOM      9  C   UNL d   1      -1.711   0.433   1.820  0.00  0.00     0.018 C 
ENDBRANCH   1   8
TORSDOF 1
ENDMDL
