MODEL 1
REMARK minimizedAffinity -4.74892044
REMARK minimizedRMSD -1
REMARK  1 active torsions:
REMARK  status: ('A' for Active; 'I' for Inactive)
REMARK    1  A    between atoms: C1_2  and  C2_3 
ROOT
ATOM      1  C2  UNL d   1       1.283  -0.248  -0.308  0.00  0.00    -0.073 A 
ATOM      2  C3  UNL d   1       0.348   0.765  -0.063  0.00  0.00    -0.002 A 
ATOM      3  C4  UNL d   1      -1.002   0.454   0.101  0.00  0.00     0.004 A 
ATOM      4  C5  UNL d   1      -1.431  -0.872   0.029  0.00  0.00    -0.004 A 
ATOM      5  C6  UNL d   1      -0.511  -1.899  -0.203  0.00  0.00    -0.075 A 
ATOM      6  C7  UNL d   1      -0.956  -3.330  -0.285  0.00  0.00     0.076 C 
ATOM      7  C8  UNL d   1       0.843  -1.578  -0.369  0.00  0.00     0.001 A 
ENDROOT
BRANCH   1   8
ATOM      8  C1  UNL d   1       2.743   0.082  -0.480  0.00  0.00     0.053 C 
ATOM      9  C   UNL d   1       3.427  -0.853  -1.464  0.00  0.00     0.018 C 
ENDBRANCH   1   8
TORSDOF 1
ENDMDL
