MODEL 1
REMARK minimizedAffinity -4.11952782
REMARK minimizedRMSD -1
REMARK  1 active torsions:
REMARK  status: ('A' for Active; 'I' for Inactive)
REMARK    1  A    between atoms: C1_2  and  C2_3 
ROOT
ATOM      1  C2  UNL d   1      -0.441  -0.182   0.275  0.00  0.00    -0.073 A 
ATOM      2  C3  UNL d   1       0.410  -1.285   0.144  0.00  0.00    -0.002 A 
ATOM      3  C4  UNL d   1       1.578  -1.187  -0.614  0.00  0.00     0.004 A 
ATOM      4  C5  UNL d   1       1.910   0.014  -1.241  0.00  0.00    -0.004 A 
ATOM      5  C6  UNL d   1       1.078   1.130  -1.112  0.00  0.00    -0.075 A 
ATOM      6  C7  UNL d   1       1.419   2.429  -1.782  0.00  0.00     0.076 C 
ATOM      7  C8  UNL d   1      -0.095   1.023  -0.352  0.00  0.00     0.001 A 
ENDROOT
BRANCH   1   8
ATOM      8  C1  UNL d   1      -1.700  -0.281   1.097  0.00  0.00     0.053 C 
ATOM      9  C   UNL d   1      -1.685   0.674   2.280  0.00  0.00     0.018 C 
ENDBRANCH   1   8
TORSDOF 1
ENDMDL
