MODEL 1
REMARK minimizedAffinity -3.85156274
REMARK minimizedRMSD -1
REMARK  1 active torsions:
REMARK  status: ('A' for Active; 'I' for Inactive)
REMARK    1  A    between atoms: C1_2  and  C2_3 
ROOT
ATOM      1  C2  UNL d   1      -0.062  -0.131  -0.015  0.00  0.00    -0.073 A 
ATOM      2  C3  UNL d   1      -0.335  -1.490   0.179  0.00  0.00    -0.002 A 
ATOM      3  C4  UNL d   1       0.586  -2.459  -0.220  0.00  0.00     0.004 A 
ATOM      4  C5  UNL d   1       1.792  -2.080  -0.810  0.00  0.00    -0.004 A 
ATOM      5  C6  UNL d   1       2.088  -0.727  -1.003  0.00  0.00    -0.075 A 
ATOM      6  C7  UNL d   1       3.380  -0.303  -1.638  0.00  0.00     0.076 C 
ATOM      7  C8  UNL d   1       1.157   0.240  -0.601  0.00  0.00     0.001 A 
ENDROOT
BRANCH   1   8
ATOM      8  C1  UNL d   1      -1.051   0.919   0.420  0.00  0.00     0.053 C 
ATOM      9  C   UNL d   1      -1.445   0.760   1.880  0.00  0.00     0.018 C 
ENDBRANCH   1   8
TORSDOF 1
ENDMDL
