MODEL 1
REMARK minimizedAffinity -1.69543076
REMARK minimizedRMSD -1
REMARK  1 active torsions:
REMARK  status: ('A' for Active; 'I' for Inactive)
REMARK    1  A    between atoms: C1_2  and  C2_3 
ROOT
ATOM      1  C2  UNL d   1      -0.245  -0.488   0.897  0.00  0.00    -0.073 A 
ATOM      2  C3  UNL d   1       0.507   0.579   0.393  0.00  0.00    -0.002 A 
ATOM      3  C4  UNL d   1       0.235   1.887   0.796  0.00  0.00     0.004 A 
ATOM      4  C5  UNL d   1      -0.786   2.141   1.711  0.00  0.00    -0.004 A 
ATOM      5  C6  UNL d   1      -1.541   1.087   2.236  0.00  0.00    -0.075 A 
ATOM      6  C7  UNL d   1      -2.645   1.344   3.220  0.00  0.00     0.076 C 
ATOM      7  C8  UNL d   1      -1.263  -0.223   1.824  0.00  0.00     0.001 A 
ENDROOT
BRANCH   1   8
ATOM      8  C1  UNL d   1       0.050  -1.902   0.470  0.00  0.00     0.053 C 
ATOM      9  C   UNL d   1       0.164  -2.029  -1.041  0.00  0.00     0.018 C 
ENDBRANCH   1   8
TORSDOF 1
ENDMDL
