MODEL 1
REMARK minimizedAffinity -3.42307067
REMARK minimizedRMSD -1
REMARK  1 active torsions:
REMARK  status: ('A' for Active; 'I' for Inactive)
REMARK    1  A    between atoms: C1_2  and  C2_3 
ROOT
ATOM      1  C2  UNL d   1      -0.028  -0.192   0.539  0.00  0.00    -0.073 A 
ATOM      2  C3  UNL d   1      -1.172   0.127  -0.201  0.00  0.00    -0.002 A 
ATOM      3  C4  UNL d   1      -2.296   0.661   0.432  0.00  0.00     0.004 A 
ATOM      4  C5  UNL d   1      -2.285   0.887   1.808  0.00  0.00    -0.004 A 
ATOM      5  C6  UNL d   1      -1.147   0.585   2.564  0.00  0.00    -0.075 A 
ATOM      6  C7  UNL d   1      -1.120   0.820   4.045  0.00  0.00     0.076 C 
ATOM      7  C8  UNL d   1      -0.024   0.047   1.921  0.00  0.00     0.001 A 
ENDROOT
BRANCH   1   8
ATOM      8  C1  UNL d   1       1.189  -0.762  -0.141  0.00  0.00     0.053 C 
ATOM      9  C   UNL d   1       0.871  -2.038  -0.904  0.00  0.00     0.018 C 
ENDBRANCH   1   8
TORSDOF 1
ENDMDL
