MODEL 1
REMARK minimizedAffinity -5.99877071
REMARK minimizedRMSD -1
REMARK  1 active torsions:
REMARK  status: ('A' for Active; 'I' for Inactive)
REMARK    1  A    between atoms: C1_2  and  C2_3 
ROOT
ATOM      1  C2  UNL d   1       0.016   0.065  -0.596  0.00  0.00    -0.073 A 
ATOM      2  C3  UNL d   1       0.052  -1.287  -0.235  0.00  0.00    -0.002 A 
ATOM      3  C4  UNL d   1       1.115  -2.096  -0.637  0.00  0.00     0.004 A 
ATOM      4  C5  UNL d   1       2.156  -1.562  -1.396  0.00  0.00    -0.004 A 
ATOM      5  C6  UNL d   1       2.145  -0.211  -1.756  0.00  0.00    -0.075 A 
ATOM      6  C7  UNL d   1       3.256   0.379  -2.575  0.00  0.00     0.076 C 
ATOM      7  C8  UNL d   1       1.072   0.595  -1.351  0.00  0.00     0.001 A 
ENDROOT
BRANCH   1   8
ATOM      8  C1  UNL d   1      -1.127   0.944  -0.159  0.00  0.00     0.053 C 
ATOM      9  C   UNL d   1      -1.593   0.614   1.250  0.00  0.00     0.018 C 
ENDBRANCH   1   8
TORSDOF 1
ENDMDL
