MODEL 1
REMARK minimizedAffinity -6.11578369
REMARK minimizedRMSD -1
REMARK  0 active torsions:
REMARK  status: ('A' for Active; 'I' for Inactive)
ROOT
ATOM      1  C1  DEN d   1      -0.357   2.386  -1.718  0.00  0.00     0.130 A 
ATOM      2  C2  DEN d   1      -0.835   3.609  -1.079  0.00  0.00    -0.031 A 
ATOM      3  C3  DEN d   1      -0.783   3.411   0.383  0.00  0.00     0.027 A 
ATOM      4  C4  DEN d   1      -0.007   1.342   1.713  0.00  0.00     0.027 A 
ATOM      5  C5  DEN d   1       0.475   0.056   1.608  0.00  0.00    -0.003 A 
ATOM      6  C6  DEN d   1       0.679  -0.551   0.397  0.00  0.00     0.001 A 
ATOM      7  C7  DEN d   1       0.443   0.145  -0.759  0.00  0.00     0.017 A 
ATOM      8  C8  DEN d   1      -0.050   1.440  -0.661  0.00  0.00    -0.094 A 
ATOM      9  C9  DEN d   1      -0.238   2.039   0.572  0.00  0.00    -0.072 A 
ENDROOT
TORSDOF 0
ENDMDL
