MODEL 1
REMARK minimizedAffinity -5.65941286
REMARK minimizedRMSD -1
REMARK  0 active torsions:
REMARK  status: ('A' for Active; 'I' for Inactive)
ROOT
ATOM      1  C1  DEN d   1       0.182   0.384   1.838  0.00  0.00     0.130 A 
ATOM      2  C2  DEN d   1      -0.349   1.642   2.357  0.00  0.00    -0.031 A 
ATOM      3  C3  DEN d   1      -0.607   2.536   1.211  0.00  0.00     0.027 A 
ATOM      4  C4  DEN d   1      -0.243   2.097  -1.304  0.00  0.00     0.027 A 
ATOM      5  C5  DEN d   1       0.199   1.179  -2.231  0.00  0.00    -0.003 A 
ATOM      6  C6  DEN d   1       0.694  -0.045  -1.868  0.00  0.00     0.001 A 
ATOM      7  C7  DEN d   1       0.717  -0.402  -0.545  0.00  0.00     0.017 A 
ATOM      8  C8  DEN d   1       0.280   0.521   0.396  0.00  0.00    -0.094 A 
ATOM      9  C9  DEN d   1      -0.229   1.748   0.007  0.00  0.00    -0.072 A 
ENDROOT
TORSDOF 0
ENDMDL
