MODEL 1
REMARK minimizedAffinity -2.89108706
REMARK minimizedRMSD -1
REMARK  0 active torsions:
REMARK  status: ('A' for Active; 'I' for Inactive)
ROOT
ATOM      1  C1  DEN d   1      -0.096   2.004  -1.679  0.00  0.00     0.130 A 
ATOM      2  C2  DEN d   1       0.384   0.880  -2.479  0.00  0.00    -0.031 A 
ATOM      3  C3  DEN d   1       0.920  -0.141  -1.557  0.00  0.00     0.027 A 
ATOM      4  C4  DEN d   1       1.048  -0.094   1.019  0.00  0.00     0.027 A 
ATOM      5  C5  DEN d   1       0.777   0.654   2.143  0.00  0.00    -0.003 A 
ATOM      6  C6  DEN d   1       0.231   1.908   2.071  0.00  0.00     0.001 A 
ATOM      7  C7  DEN d   1      -0.103   2.434   0.851  0.00  0.00     0.017 A 
ATOM      8  C8  DEN d   1       0.175   1.689  -0.287  0.00  0.00    -0.094 A 
ATOM      9  C9  DEN d   1       0.716   0.418  -0.193  0.00  0.00    -0.072 A 
ENDROOT
TORSDOF 0
ENDMDL
