MODEL 1
REMARK minimizedAffinity -0.49119994
REMARK minimizedRMSD -1
REMARK  0 active torsions:
REMARK  status: ('A' for Active; 'I' for Inactive)
ROOT
ATOM      1  C1  DEN d   1       0.488  -0.271  -0.883  0.00  0.00     0.130 A 
ATOM      2  C2  DEN d   1       0.858  -1.379  -0.006  0.00  0.00    -0.031 A 
ATOM      3  C3  DEN d   1       0.659  -0.941   1.390  0.00  0.00     0.027 A 
ATOM      4  C4  DEN d   1      -0.186   1.330   2.274  0.00  0.00     0.027 A 
ATOM      5  C5  DEN d   1      -0.613   2.587   1.910  0.00  0.00    -0.003 A 
ATOM      6  C6  DEN d   1      -0.672   2.988   0.601  0.00  0.00     0.001 A 
ATOM      7  C7  DEN d   1      -0.338   2.108  -0.394  0.00  0.00     0.017 A 
ATOM      8  C8  DEN d   1       0.101   0.841  -0.034  0.00  0.00    -0.094 A 
ATOM      9  C9  DEN d   1       0.141   0.450   1.294  0.00  0.00    -0.072 A 
ENDROOT
TORSDOF 0
ENDMDL
