MODEL 1
REMARK minimizedAffinity -4.57941675
REMARK minimizedRMSD -1
REMARK  0 active torsions:
REMARK  status: ('A' for Active; 'I' for Inactive)
ROOT
ATOM      1  C1  DEN d   1       0.651   0.204  -0.846  0.00  0.00     0.130 A 
ATOM      2  C2  DEN d   1       0.860  -0.773   0.220  0.00  0.00    -0.031 A 
ATOM      3  C3  DEN d   1       0.494  -0.135   1.501  0.00  0.00     0.027 A 
ATOM      4  C4  DEN d   1      -0.377   2.253   1.934  0.00  0.00     0.027 A 
ATOM      5  C5  DEN d   1      -0.706   3.453   1.342  0.00  0.00    -0.003 A 
ATOM      6  C6  DEN d   1      -0.575   3.663  -0.005  0.00  0.00     0.001 A 
ATOM      7  C7  DEN d   1      -0.145   2.643  -0.812  0.00  0.00     0.017 A 
ATOM      8  C8  DEN d   1       0.196   1.433  -0.221  0.00  0.00    -0.094 A 
ATOM      9  C9  DEN d   1       0.045   1.236   1.141  0.00  0.00    -0.072 A 
ENDROOT
TORSDOF 0
ENDMDL
