MODEL 1
REMARK minimizedAffinity -2.69550776
REMARK minimizedRMSD -1
REMARK  1 active torsions:
REMARK  status: ('A' for Active; 'I' for Inactive)
REMARK    1  A    between atoms: C1_2  and  C2_3 
ROOT
ATOM      1  C2  UNL d   1      -0.870   0.151   1.070  0.00  0.00    -0.081 A 
ATOM      2  C3  UNL d   1       0.152  -0.252   0.203  0.00  0.00     0.006 A 
ATOM      3  C4  UNL d   1       1.459  -0.404   0.671  0.00  0.00     0.002 A 
ATOM      4  C5  UNL d   1       1.764  -0.164   2.015  0.00  0.00    -0.080 A 
ATOM      5  C6  UNL d   1       3.158  -0.353   2.537  0.00  0.00     0.076 C 
ATOM      6  C7  UNL d   1       0.746   0.256   2.878  0.00  0.00     0.002 A 
ATOM      7  C8  UNL d   1      -0.561   0.409   2.410  0.00  0.00     0.006 A 
ENDROOT
BRANCH   1   8
ATOM      8  C1  UNL d   1      -2.293   0.254   0.583  0.00  0.00     0.054 C 
ATOM      9  C   UNL d   1      -2.658  -0.923  -0.311  0.00  0.00     0.018 C 
ENDBRANCH   1   8
TORSDOF 1
ENDMDL
