MODEL 1
REMARK minimizedAffinity -1.91125965
REMARK minimizedRMSD -1
REMARK  1 active torsions:
REMARK  status: ('A' for Active; 'I' for Inactive)
REMARK    1  A    between atoms: C1_2  and  C2_3 
ROOT
ATOM      1  C2  UNL d   1       0.163  -0.775  -0.576  0.00  0.00    -0.081 A 
ATOM      2  C3  UNL d   1       1.270  -0.918   0.269  0.00  0.00     0.006 A 
ATOM      3  C4  UNL d   1       1.141  -0.711   1.645  0.00  0.00     0.002 A 
ATOM      4  C5  UNL d   1      -0.097  -0.367   2.199  0.00  0.00    -0.080 A 
ATOM      5  C6  UNL d   1      -0.255  -0.172   3.677  0.00  0.00     0.076 C 
ATOM      6  C7  UNL d   1      -1.199  -0.207   1.352  0.00  0.00     0.002 A 
ATOM      7  C8  UNL d   1      -1.071  -0.412  -0.024  0.00  0.00     0.006 A 
ENDROOT
BRANCH   1   8
ATOM      8  C1  UNL d   1       0.283  -1.060  -2.051  0.00  0.00     0.054 C 
ATOM      9  C   UNL d   1       0.748   0.171  -2.817  0.00  0.00     0.018 C 
ENDBRANCH   1   8
TORSDOF 1
ENDMDL
