MODEL 1
REMARK minimizedAffinity -4.95785713
REMARK minimizedRMSD -1
REMARK  1 active torsions:
REMARK  status: ('A' for Active; 'I' for Inactive)
REMARK    1  A    between atoms: C1_2  and  C2_3 
ROOT
ATOM      1  C2  UNL d   1       0.701   0.375   2.119  0.00  0.00    -0.081 A 
ATOM      2  C3  UNL d   1      -0.522   0.740   2.695  0.00  0.00     0.006 A 
ATOM      3  C4  UNL d   1      -1.704   0.661   1.955  0.00  0.00     0.002 A 
ATOM      4  C5  UNL d   1      -1.685   0.210   0.631  0.00  0.00    -0.080 A 
ATOM      5  C6  UNL d   1      -2.951   0.092  -0.165  0.00  0.00     0.076 C 
ATOM      6  C7  UNL d   1      -0.460  -0.138   0.050  0.00  0.00     0.002 A 
ATOM      7  C8  UNL d   1       0.722  -0.059   0.789  0.00  0.00     0.006 A 
ENDROOT
BRANCH   1   8
ATOM      8  C1  UNL d   1       1.969   0.397   2.934  0.00  0.00     0.054 C 
ATOM      9  C   UNL d   1       2.932  -0.694   2.489  0.00  0.00     0.018 C 
ENDBRANCH   1   8
TORSDOF 1
ENDMDL
