MODEL 1
REMARK minimizedAffinity -4.98192358
REMARK minimizedRMSD -1
REMARK  1 active torsions:
REMARK  status: ('A' for Active; 'I' for Inactive)
REMARK    1  A    between atoms: C1_2  and  C2_3 
ROOT
ATOM      1  C2  UNL d   1       0.300   0.336   2.090  0.00  0.00    -0.081 A 
ATOM      2  C3  UNL d   1      -1.014   0.529   2.534  0.00  0.00     0.006 A 
ATOM      3  C4  UNL d   1      -2.092   0.296   1.676  0.00  0.00     0.002 A 
ATOM      4  C5  UNL d   1      -1.875  -0.140   0.365  0.00  0.00    -0.080 A 
ATOM      5  C6  UNL d   1      -3.025  -0.422  -0.556  0.00  0.00     0.076 C 
ATOM      6  C7  UNL d   1      -0.562  -0.315  -0.084  0.00  0.00     0.002 A 
ATOM      7  C8  UNL d   1       0.517  -0.082   0.773  0.00  0.00     0.006 A 
ENDROOT
BRANCH   1   8
ATOM      8  C1  UNL d   1       1.462   0.524   3.032  0.00  0.00     0.054 C 
ATOM      9  C   UNL d   1       2.474  -0.605   2.894  0.00  0.00     0.018 C 
ENDBRANCH   1   8
TORSDOF 1
ENDMDL
