MODEL 1
REMARK minimizedAffinity 0.193137974
REMARK minimizedRMSD -1
REMARK  1 active torsions:
REMARK  status: ('A' for Active; 'I' for Inactive)
REMARK    1  A    between atoms: C1_2  and  C2_3 
ROOT
ATOM      1  C2  UNL d   1      -1.163  -0.216   0.982  0.00  0.00    -0.081 A 
ATOM      2  C3  UNL d   1      -0.077  -0.449   0.129  0.00  0.00     0.006 A 
ATOM      3  C4  UNL d   1       1.215  -0.571   0.645  0.00  0.00     0.002 A 
ATOM      4  C5  UNL d   1       1.443  -0.469   2.022  0.00  0.00    -0.080 A 
ATOM      5  C6  UNL d   1       2.821  -0.628   2.591  0.00  0.00     0.076 C 
ATOM      6  C7  UNL d   1       0.361  -0.219   2.872  0.00  0.00     0.002 A 
ATOM      7  C8  UNL d   1      -0.932  -0.097   2.357  0.00  0.00     0.006 A 
ENDROOT
BRANCH   1   8
ATOM      8  C1  UNL d   1      -2.566  -0.150   0.436  0.00  0.00     0.054 C 
ATOM      9  C   UNL d   1      -2.955  -1.451  -0.251  0.00  0.00     0.018 C 
ENDBRANCH   1   8
TORSDOF 1
ENDMDL
