MODEL 1
REMARK minimizedAffinity -1.17720568
REMARK minimizedRMSD -1
REMARK  1 active torsions:
REMARK  status: ('A' for Active; 'I' for Inactive)
REMARK    1  A    between atoms: C1_2  and  C2_3 
ROOT
ATOM      1  C2  UNL d   1       0.240  -0.453  -1.316  0.00  0.00    -0.081 A 
ATOM      2  C3  UNL d   1      -1.076  -0.108  -0.983  0.00  0.00     0.006 A 
ATOM      3  C4  UNL d   1      -1.459   0.012   0.354  0.00  0.00     0.002 A 
ATOM      4  C5  UNL d   1      -0.533  -0.202   1.380  0.00  0.00    -0.080 A 
ATOM      5  C6  UNL d   1      -0.924  -0.046   2.820  0.00  0.00     0.076 C 
ATOM      6  C7  UNL d   1       0.777  -0.563   1.048  0.00  0.00     0.002 A 
ATOM      7  C8  UNL d   1       1.161  -0.684  -0.289  0.00  0.00     0.006 A 
ENDROOT
BRANCH   1   8
ATOM      8  C1  UNL d   1       0.673  -0.520  -2.759  0.00  0.00     0.054 C 
ATOM      9  C   UNL d   1       1.536   0.676  -3.134  0.00  0.00     0.018 C 
ENDBRANCH   1   8
TORSDOF 1
ENDMDL
