MODEL 1
REMARK minimizedAffinity -3.7497468
REMARK minimizedRMSD -1
REMARK  1 active torsions:
REMARK  status: ('A' for Active; 'I' for Inactive)
REMARK    1  A    between atoms: C1_2  and  C2_3 
ROOT
ATOM      1  C2  UNL d   1       0.524  -0.258  -1.116  0.00  0.00    -0.081 A 
ATOM      2  C3  UNL d   1       0.872  -0.918   0.069  0.00  0.00     0.006 A 
ATOM      3  C4  UNL d   1       0.562  -0.357   1.310  0.00  0.00     0.002 A 
ATOM      4  C5  UNL d   1      -0.108   0.869   1.387  0.00  0.00    -0.080 A 
ATOM      5  C6  UNL d   1      -0.474   1.468   2.712  0.00  0.00     0.076 C 
ATOM      6  C7  UNL d   1      -0.440   1.537   0.204  0.00  0.00     0.002 A 
ATOM      7  C8  UNL d   1      -0.129   0.977  -1.037  0.00  0.00     0.006 A 
ENDROOT
BRANCH   1   8
ATOM      8  C1  UNL d   1       0.800  -0.891  -2.456  0.00  0.00     0.054 C 
ATOM      9  C   UNL d   1       1.163   0.156  -3.498  0.00  0.00     0.018 C 
ENDBRANCH   1   8
TORSDOF 1
ENDMDL
