MODEL 1
REMARK minimizedAffinity -4.85498381
REMARK minimizedRMSD -1
REMARK  1 active torsions:
REMARK  status: ('A' for Active; 'I' for Inactive)
REMARK    1  A    between atoms: C1_2  and  C2_3 
ROOT
ATOM      1  C2  UNL d   1       0.462  -1.139  -0.724  0.00  0.00    -0.081 A 
ATOM      2  C3  UNL d   1      -0.555  -0.559   0.045  0.00  0.00     0.006 A 
ATOM      3  C4  UNL d   1      -0.440  -0.491   1.435  0.00  0.00     0.002 A 
ATOM      4  C5  UNL d   1       0.696  -0.994   2.079  0.00  0.00    -0.080 A 
ATOM      5  C6  UNL d   1       0.845  -0.900   3.568  0.00  0.00     0.076 C 
ATOM      6  C7  UNL d   1       1.703  -1.589   1.312  0.00  0.00     0.002 A 
ATOM      7  C8  UNL d   1       1.589  -1.658  -0.078  0.00  0.00     0.006 A 
ENDROOT
BRANCH   1   8
ATOM      8  C1  UNL d   1       0.370  -1.155  -2.229  0.00  0.00     0.054 C 
ATOM      9  C   UNL d   1       1.191  -0.032  -2.845  0.00  0.00     0.018 C 
ENDBRANCH   1   8
TORSDOF 1
ENDMDL
