MODEL 1
REMARK minimizedAffinity 2.72432852
REMARK minimizedRMSD -1
REMARK  0 active torsions:
REMARK  status: ('A' for Active; 'I' for Inactive)
ROOT
ATOM      1  C   UNL d   1      -0.194   2.749  -5.258  0.00  0.00     0.023 A 
ATOM      2  C1  UNL d   1      -1.088   3.816  -5.156  0.00  0.00     0.003 A 
ATOM      3  C2  UNL d   1      -2.229   3.698  -4.360  0.00  0.00     0.048 A 
ATOM      4  C3  UNL d   1      -2.470   2.512  -3.667  0.00  0.00     0.023 A 
ATOM      5  C4  UNL d   1      -1.578   1.443  -3.765  0.00  0.00     0.048 A 
ATOM      6  C5  UNL d   1      -0.439   1.564  -4.563  0.00  0.00     0.003 A 
ATOM      7  I   UNL d   1      -4.168   2.336  -2.481  0.00  0.00    -0.146 I 
ENDROOT
TORSDOF 0
ENDMDL
