MODEL 1
REMARK minimizedAffinity 11.7618542
REMARK minimizedRMSD -1
REMARK  0 active torsions:
REMARK  status: ('A' for Active; 'I' for Inactive)
ROOT
ATOM      1  C   UNL d   1       4.358   5.998   5.995  0.00  0.00     0.023 A 
ATOM      2  C1  UNL d   1       5.508   5.514   5.372  0.00  0.00     0.003 A 
ATOM      3  C2  UNL d   1       5.401   4.619   4.306  0.00  0.00     0.048 A 
ATOM      4  C3  UNL d   1       4.141   4.213   3.867  0.00  0.00     0.023 A 
ATOM      5  C4  UNL d   1       2.988   4.696   4.487  0.00  0.00     0.048 A 
ATOM      6  C5  UNL d   1       3.099   5.590   5.553  0.00  0.00     0.003 A 
ATOM      7  I   UNL d   1       3.980   2.881   2.279  0.00  0.00    -0.146 I 
ENDROOT
TORSDOF 0
ENDMDL
