MODEL 1
REMARK minimizedAffinity -2.08281159
REMARK minimizedRMSD -1
REMARK  0 active torsions:
REMARK  status: ('A' for Active; 'I' for Inactive)
ROOT
ATOM      1  C   UNL d   1      -0.692   3.695  -5.865  0.00  0.00     0.023 A 
ATOM      2  C1  UNL d   1      -0.415   2.706  -4.921  0.00  0.00     0.003 A 
ATOM      3  C2  UNL d   1      -1.323   2.447  -3.892  0.00  0.00     0.048 A 
ATOM      4  C3  UNL d   1      -2.507   3.179  -3.815  0.00  0.00     0.023 A 
ATOM      5  C4  UNL d   1      -2.790   4.168  -4.759  0.00  0.00     0.048 A 
ATOM      6  C5  UNL d   1      -1.878   4.425  -5.784  0.00  0.00     0.003 A 
ATOM      7  I   UNL d   1      -3.861   2.795  -2.286  0.00  0.00    -0.146 I 
ENDROOT
TORSDOF 0
ENDMDL
