MODEL 1
REMARK minimizedAffinity 9.5961771
REMARK minimizedRMSD -1
REMARK  0 active torsions:
REMARK  status: ('A' for Active; 'I' for Inactive)
ROOT
ATOM      1  C   UNL d   1       1.042   3.479  -5.999  0.00  0.00     0.023 A 
ATOM      2  C1  UNL d   1       0.033   4.442  -5.998  0.00  0.00     0.003 A 
ATOM      3  C2  UNL d   1      -1.125   4.241  -5.244  0.00  0.00     0.048 A 
ATOM      4  C3  UNL d   1      -1.266   3.075  -4.492  0.00  0.00     0.023 A 
ATOM      5  C4  UNL d   1      -0.259   2.109  -4.490  0.00  0.00     0.048 A 
ATOM      6  C5  UNL d   1       0.896   2.314  -5.246  0.00  0.00     0.003 A 
ATOM      7  I   UNL d   1      -2.989   2.774  -3.369  0.00  0.00    -0.146 I 
ENDROOT
TORSDOF 0
ENDMDL
