MODEL 1
REMARK minimizedAffinity 11.9993515
REMARK minimizedRMSD -1
REMARK  0 active torsions:
REMARK  status: ('A' for Active; 'I' for Inactive)
ROOT
ATOM      1  C   UNL d   1      -1.987  -2.967   1.292  0.00  0.00     0.023 A 
ATOM      2  C1  UNL d   1      -1.159  -2.948   2.415  0.00  0.00     0.003 A 
ATOM      3  C2  UNL d   1       0.225  -3.058   2.266  0.00  0.00     0.048 A 
ATOM      4  C3  UNL d   1       0.775  -3.185   0.991  0.00  0.00     0.023 A 
ATOM      5  C4  UNL d   1      -0.049  -3.204  -0.136  0.00  0.00     0.048 A 
ATOM      6  C5  UNL d   1      -1.432  -3.094   0.018  0.00  0.00     0.003 A 
ATOM      7  I   UNL d   1       2.835  -3.349   0.766  0.00  0.00    -0.146 I 
ENDROOT
TORSDOF 0
ENDMDL
