MODEL 1
REMARK minimizedAffinity 7.91554213
REMARK minimizedRMSD -1
REMARK  0 active torsions:
REMARK  status: ('A' for Active; 'I' for Inactive)
ROOT
ATOM      1  C   UNL d   1      -1.272  -2.360   1.848  0.00  0.00     0.023 A 
ATOM      2  C1  UNL d   1      -0.172  -1.539   2.100  0.00  0.00     0.003 A 
ATOM      3  C2  UNL d   1       1.073  -1.851   1.551  0.00  0.00     0.048 A 
ATOM      4  C3  UNL d   1       1.212  -2.984   0.750  0.00  0.00     0.023 A 
ATOM      5  C4  UNL d   1       0.115  -3.807   0.494  0.00  0.00     0.048 A 
ATOM      6  C5  UNL d   1      -1.128  -3.493   1.046  0.00  0.00     0.003 A 
ATOM      7  I   UNL d   1       3.065  -3.449  -0.068  0.00  0.00    -0.146 I 
ENDROOT
TORSDOF 0
ENDMDL
