MODEL 1
REMARK minimizedAffinity -3.74494481
REMARK minimizedRMSD -1
REMARK  1 active torsions:
REMARK  status: ('A' for Active; 'I' for Inactive)
REMARK    1  A    between atoms: C3_4  and  O_7 
ROOT
ATOM      1  C   UNL d   1       0.040   0.508   0.846  0.00  0.00    -0.033 A 
ATOM      2  C1  UNL d   1      -1.200  -0.066   1.134  0.00  0.00     0.039 A 
ATOM      3  C2  UNL d   1      -2.364   0.698   1.037  0.00  0.00    -0.080 A 
ATOM      4  C3  UNL d   1      -2.275   2.033   0.650  0.00  0.00     0.150 A 
ATOM      5  C4  UNL d   1      -1.044   2.610   0.357  0.00  0.00    -0.007 A 
ATOM      6  C5  UNL d   1       0.118   1.845   0.456  0.00  0.00     0.039 A 
ENDROOT
BRANCH   4   7
ATOM      7  O   UNL d   1      -3.384   2.820   0.546  0.00  0.00    -0.526 OA
ATOM      8  H5  UNL d   1      -4.159   2.295   0.806  0.00  0.00     0.418 HD
ENDBRANCH   4   7
TORSDOF 1
ENDMDL
