MODEL 1
REMARK minimizedAffinity 0.5048877
REMARK minimizedRMSD -1
REMARK  1 active torsions:
REMARK  status: ('A' for Active; 'I' for Inactive)
REMARK    1  A    between atoms: C3_4  and  O_7 
ROOT
ATOM      1  C   UNL d   1      -0.814   1.902  -0.333  0.00  0.00    -0.033 A 
ATOM      2  C1  UNL d   1      -1.201   1.444   0.928  0.00  0.00     0.039 A 
ATOM      3  C2  UNL d   1      -2.543   1.500   1.311  0.00  0.00    -0.080 A 
ATOM      4  C3  UNL d   1      -3.485   2.015   0.425  0.00  0.00     0.150 A 
ATOM      5  C4  UNL d   1      -3.107   2.470  -0.834  0.00  0.00    -0.007 A 
ATOM      6  C5  UNL d   1      -1.767   2.414  -1.214  0.00  0.00     0.039 A 
ENDROOT
BRANCH   4   7
ATOM      7  O   UNL d   1      -4.805   2.095   0.756  0.00  0.00    -0.526 OA
ATOM      8  H5  UNL d   1      -4.915   1.772   1.666  0.00  0.00     0.418 HD
ENDBRANCH   4   7
TORSDOF 1
ENDMDL
