MODEL 1
REMARK minimizedAffinity -1.88311648
REMARK minimizedRMSD -1
REMARK  1 active torsions:
REMARK  status: ('A' for Active; 'I' for Inactive)
REMARK    1  A    between atoms: C3_4  and  O_7 
ROOT
ATOM      1  C   UNL d   1      -0.962   1.054   0.491  0.00  0.00    -0.033 A 
ATOM      2  C1  UNL d   1      -1.878   0.242   1.163  0.00  0.00     0.039 A 
ATOM      3  C2  UNL d   1      -3.225   0.606   1.221  0.00  0.00    -0.080 A 
ATOM      4  C3  UNL d   1      -3.642   1.782   0.603  0.00  0.00     0.150 A 
ATOM      5  C4  UNL d   1      -2.735   2.594  -0.071  0.00  0.00    -0.007 A 
ATOM      6  C5  UNL d   1      -1.391   2.229  -0.127  0.00  0.00     0.039 A 
ENDROOT
BRANCH   4   7
ATOM      7  O   UNL d   1      -4.945   2.181   0.637  0.00  0.00    -0.526 OA
ATOM      8  H5  UNL d   1      -5.451   1.538   1.162  0.00  0.00     0.418 HD
ENDBRANCH   4   7
TORSDOF 1
ENDMDL
