MODEL 1
REMARK minimizedAffinity -1.26559556
REMARK minimizedRMSD -1
REMARK  1 active torsions:
REMARK  status: ('A' for Active; 'I' for Inactive)
REMARK    1  A    between atoms: C3_4  and  O_7 
ROOT
ATOM      1  C   UNL d   1      -0.132  -5.998  -3.917  0.00  0.00    -0.033 A 
ATOM      2  C1  UNL d   1      -1.517  -6.000  -4.092  0.00  0.00     0.039 A 
ATOM      3  C2  UNL d   1      -2.358  -5.668  -3.027  0.00  0.00    -0.080 A 
ATOM      4  C3  UNL d   1      -1.801  -5.337  -1.795  0.00  0.00     0.150 A 
ATOM      5  C4  UNL d   1      -0.422  -5.329  -1.615  0.00  0.00    -0.007 A 
ATOM      6  C5  UNL d   1       0.416  -5.662  -2.679  0.00  0.00     0.039 A 
ENDROOT
BRANCH   4   7
ATOM      7  O   UNL d   1      -2.581  -5.011  -0.725  0.00  0.00    -0.526 OA
ATOM      8  H5  UNL d   1      -3.513  -5.086  -0.990  0.00  0.00     0.418 HD
ENDBRANCH   4   7
TORSDOF 1
ENDMDL
