MODEL 1
REMARK minimizedAffinity -2.75745273
REMARK minimizedRMSD -1
REMARK  1 active torsions:
REMARK  status: ('A' for Active; 'I' for Inactive)
REMARK    1  A    between atoms: C3_4  and  O_7 
ROOT
ATOM      1  C   UNL d   1      -0.693   0.740   0.429  0.00  0.00    -0.033 A 
ATOM      2  C1  UNL d   1      -0.781   2.020  -0.123  0.00  0.00     0.039 A 
ATOM      3  C2  UNL d   1      -2.015   2.670  -0.188  0.00  0.00    -0.080 A 
ATOM      4  C3  UNL d   1      -3.151   2.031   0.301  0.00  0.00     0.150 A 
ATOM      5  C4  UNL d   1      -3.070   0.758   0.856  0.00  0.00    -0.007 A 
ATOM      6  C5  UNL d   1      -1.837   0.110   0.919  0.00  0.00     0.039 A 
ENDROOT
BRANCH   4   7
ATOM      7  O   UNL d   1      -4.378   2.624   0.255  0.00  0.00    -0.526 OA
ATOM      8  H5  UNL d   1      -4.286   3.488  -0.180  0.00  0.00     0.418 HD
ENDBRANCH   4   7
TORSDOF 1
ENDMDL
