MODEL 1
REMARK minimizedAffinity 3.86863518
REMARK minimizedRMSD -1
REMARK  1 active torsions:
REMARK  status: ('A' for Active; 'I' for Inactive)
REMARK    1  A    between atoms: C3_4  and  O_7 
ROOT
ATOM      1  C   UNL d   1       0.040   2.438   0.703  0.00  0.00    -0.033 A 
ATOM      2  C1  UNL d   1      -0.051   1.399   1.631  0.00  0.00     0.039 A 
ATOM      3  C2  UNL d   1      -1.233   0.665   1.746  0.00  0.00    -0.080 A 
ATOM      4  C3  UNL d   1      -2.315   0.979   0.928  0.00  0.00     0.150 A 
ATOM      5  C4  UNL d   1      -2.229   2.010  -0.002  0.00  0.00    -0.007 A 
ATOM      6  C5  UNL d   1      -1.048   2.743  -0.115  0.00  0.00     0.039 A 
ENDROOT
BRANCH   4   7
ATOM      7  O   UNL d   1      -3.491   0.294   1.006  0.00  0.00    -0.526 OA
ATOM      8  H5  UNL d   1      -3.413  -0.370   1.711  0.00  0.00     0.418 HD
ENDBRANCH   4   7
TORSDOF 1
ENDMDL
