MODEL 1
REMARK minimizedAffinity 0.139273733
REMARK minimizedRMSD -1
REMARK  1 active torsions:
REMARK  status: ('A' for Active; 'I' for Inactive)
REMARK    1  A    between atoms: C3_4  and  O_7 
ROOT
ATOM      1  C   UNL d   1      -0.012   1.550  -0.376  0.00  0.00    -0.033 A 
ATOM      2  C1  UNL d   1      -1.347   1.265  -0.086  0.00  0.00     0.039 A 
ATOM      3  C2  UNL d   1      -1.670   0.481   1.024  0.00  0.00    -0.080 A 
ATOM      4  C3  UNL d   1      -0.650  -0.009   1.834  0.00  0.00     0.150 A 
ATOM      5  C4  UNL d   1       0.683   0.275   1.553  0.00  0.00    -0.007 A 
ATOM      6  C5  UNL d   1       1.003   1.056   0.444  0.00  0.00     0.039 A 
ENDROOT
BRANCH   4   7
ATOM      7  O   UNL d   1      -0.916  -0.782   2.925  0.00  0.00    -0.526 OA
ATOM      8  H5  UNL d   1      -1.876  -0.919   2.979  0.00  0.00     0.418 HD
ENDBRANCH   4   7
TORSDOF 1
ENDMDL
