MODEL 1
REMARK minimizedAffinity 0.777340293
REMARK minimizedRMSD -1
REMARK  1 active torsions:
REMARK  status: ('A' for Active; 'I' for Inactive)
REMARK    1  A    between atoms: C3_4  and  O_7 
ROOT
ATOM      1  C   UNL d   1       0.655   0.677   0.759  0.00  0.00    -0.033 A 
ATOM      2  C1  UNL d   1       0.889   2.036   0.978  0.00  0.00     0.039 A 
ATOM      3  C2  UNL d   1      -0.181   2.932   1.026  0.00  0.00    -0.080 A 
ATOM      4  C3  UNL d   1      -1.478   2.457   0.854  0.00  0.00     0.150 A 
ATOM      5  C4  UNL d   1      -1.719   1.104   0.639  0.00  0.00    -0.007 A 
ATOM      6  C5  UNL d   1      -0.649   0.211   0.591  0.00  0.00     0.039 A 
ENDROOT
BRANCH   4   7
ATOM      7  O   UNL d   1      -2.554   3.294   0.888  0.00  0.00    -0.526 OA
ATOM      8  H5  UNL d   1      -2.233   4.202   1.016  0.00  0.00     0.418 HD
ENDBRANCH   4   7
TORSDOF 1
ENDMDL
