MODEL 1
REMARK minimizedAffinity 4.47452068
REMARK minimizedRMSD -1
REMARK  1 active torsions:
REMARK  status: ('A' for Active; 'I' for Inactive)
REMARK    1  A    between atoms: C3_4  and  O_7 
ROOT
ATOM      1  C   UNL d   1      -0.178   0.706   1.219  0.00  0.00    -0.033 A 
ATOM      2  C1  UNL d   1      -1.450   0.264   1.589  0.00  0.00     0.039 A 
ATOM      3  C2  UNL d   1      -2.582   0.977   1.189  0.00  0.00    -0.080 A 
ATOM      4  C3  UNL d   1      -2.429   2.127   0.420  0.00  0.00     0.150 A 
ATOM      5  C4  UNL d   1      -1.165   2.571   0.045  0.00  0.00    -0.007 A 
ATOM      6  C5  UNL d   1      -0.036   1.859   0.446  0.00  0.00     0.039 A 
ENDROOT
BRANCH   4   7
ATOM      7  O   UNL d   1      -3.504   2.859   0.010  0.00  0.00    -0.526 OA
ATOM      8  H5  UNL d   1      -4.309   2.449   0.367  0.00  0.00     0.418 HD
ENDBRANCH   4   7
TORSDOF 1
ENDMDL
