MODEL 1
REMARK minimizedAffinity -2.161273
REMARK minimizedRMSD -1
REMARK  1 active torsions:
REMARK  status: ('A' for Active; 'I' for Inactive)
REMARK    1  A    between atoms: C3_4  and  O_7 
ROOT
ATOM      1  C   UNL d   1      -4.251   0.620   0.994  0.00  0.00    -0.033 A 
ATOM      2  C1  UNL d   1      -4.046   1.882   0.435  0.00  0.00     0.039 A 
ATOM      3  C2  UNL d   1      -2.748   2.358   0.238  0.00  0.00    -0.080 A 
ATOM      4  C3  UNL d   1      -1.666   1.562   0.604  0.00  0.00     0.150 A 
ATOM      5  C4  UNL d   1      -1.863   0.302   1.158  0.00  0.00    -0.007 A 
ATOM      6  C5  UNL d   1      -3.159  -0.171   1.355  0.00  0.00     0.039 A 
ENDROOT
BRANCH   4   7
ATOM      7  O   UNL d   1      -0.381   1.986   0.435  0.00  0.00    -0.526 OA
ATOM      8  H5  UNL d   1      -0.399   2.886   0.069  0.00  0.00     0.418 HD
ENDBRANCH   4   7
TORSDOF 1
ENDMDL
