MODEL 1
REMARK minimizedAffinity -1.16530955
REMARK minimizedRMSD -1
REMARK  1 active torsions:
REMARK  status: ('A' for Active; 'I' for Inactive)
REMARK    1  A    between atoms: C3_4  and  O_7 
ROOT
ATOM      1  C   UNL d   1      -2.874   1.405   0.414  0.00  0.00    -0.033 A 
ATOM      2  C1  UNL d   1      -2.249   0.182   0.662  0.00  0.00     0.039 A 
ATOM      3  C2  UNL d   1      -0.901   0.145   1.024  0.00  0.00    -0.080 A 
ATOM      4  C3  UNL d   1      -0.191   1.337   1.136  0.00  0.00     0.150 A 
ATOM      5  C4  UNL d   1      -0.808   2.560   0.894  0.00  0.00    -0.007 A 
ATOM      6  C5  UNL d   1      -2.154   2.594   0.531  0.00  0.00     0.039 A 
ENDROOT
BRANCH   4   7
ATOM      7  O   UNL d   1       1.128   1.351   1.481  0.00  0.00    -0.526 OA
ATOM      8  H5  UNL d   1       1.428   0.433   1.590  0.00  0.00     0.418 HD
ENDBRANCH   4   7
TORSDOF 1
ENDMDL
