MODEL 1
REMARK minimizedAffinity -3.46912861
REMARK minimizedRMSD -1
REMARK  1 active torsions:
REMARK  status: ('A' for Active; 'I' for Inactive)
REMARK    1  A    between atoms: C3_4  and  O_7 
ROOT
ATOM      1  C   UNL d   1      -0.242   1.554   0.556  0.00  0.00    -0.033 A 
ATOM      2  C1  UNL d   1      -0.916   2.758   0.340  0.00  0.00     0.039 A 
ATOM      3  C2  UNL d   1      -2.312   2.788   0.343  0.00  0.00    -0.080 A 
ATOM      4  C3  UNL d   1      -3.021   1.610   0.564  0.00  0.00     0.150 A 
ATOM      5  C4  UNL d   1      -2.355   0.409   0.783  0.00  0.00    -0.007 A 
ATOM      6  C5  UNL d   1      -0.961   0.380   0.778  0.00  0.00     0.039 A 
ENDROOT
BRANCH   4   7
ATOM      7  O   UNL d   1      -4.384   1.589   0.571  0.00  0.00    -0.526 OA
ATOM      8  H5  UNL d   1      -4.706   2.485   0.378  0.00  0.00     0.418 HD
ENDBRANCH   4   7
TORSDOF 1
ENDMDL
