MODEL 1
REMARK minimizedAffinity -0.345652461
REMARK minimizedRMSD -1
REMARK  1 active torsions:
REMARK  status: ('A' for Active; 'I' for Inactive)
REMARK    1  A    between atoms: C3_4  and  O_7 
ROOT
ATOM      1  C   UNL d   1       0.007   0.736   0.751  0.00  0.00    -0.033 A 
ATOM      2  C1  UNL d   1       0.286   2.077   0.477  0.00  0.00     0.039 A 
ATOM      3  C2  UNL d   1      -0.758   2.987   0.301  0.00  0.00    -0.080 A 
ATOM      4  C3  UNL d   1      -2.074   2.546   0.403  0.00  0.00     0.150 A 
ATOM      5  C4  UNL d   1      -2.360   1.213   0.679  0.00  0.00    -0.007 A 
ATOM      6  C5  UNL d   1      -1.316   0.305   0.853  0.00  0.00     0.039 A 
ENDROOT
BRANCH   4   7
ATOM      7  O   UNL d   1      -3.126   3.396   0.235  0.00  0.00    -0.526 OA
ATOM      8  H5  UNL d   1      -2.778   4.278   0.021  0.00  0.00     0.418 HD
ENDBRANCH   4   7
TORSDOF 1
ENDMDL
