MODEL 1
REMARK minimizedAffinity -2.99138689
REMARK minimizedRMSD -1
REMARK  1 active torsions:
REMARK  status: ('A' for Active; 'I' for Inactive)
REMARK    1  A    between atoms: C3_4  and  O_7 
ROOT
ATOM      1  C   UNL d   1      -0.181   0.478   0.748  0.00  0.00    -0.033 A 
ATOM      2  C1  UNL d   1      -1.276   0.049   1.502  0.00  0.00     0.039 A 
ATOM      3  C2  UNL d   1      -2.485   0.745   1.438  0.00  0.00    -0.080 A 
ATOM      4  C3  UNL d   1      -2.586   1.865   0.617  0.00  0.00     0.150 A 
ATOM      5  C4  UNL d   1      -1.501   2.295  -0.140  0.00  0.00    -0.007 A 
ATOM      6  C5  UNL d   1      -0.294   1.600  -0.074  0.00  0.00     0.039 A 
ENDROOT
BRANCH   4   7
ATOM      7  O   UNL d   1      -3.744   2.578   0.526  0.00  0.00    -0.526 OA
ATOM      8  H5  UNL d   1      -4.398   2.182   1.125  0.00  0.00     0.418 HD
ENDBRANCH   4   7
TORSDOF 1
ENDMDL
