MODEL 1
REMARK minimizedAffinity -1.7868253
REMARK minimizedRMSD -1
REMARK  1 active torsions:
REMARK  status: ('A' for Active; 'I' for Inactive)
REMARK    1  A    between atoms: C3_4  and  O_7 
ROOT
ATOM      1  C   UNL d   1      -0.226   0.887   0.623  0.00  0.00    -0.033 A 
ATOM      2  C1  UNL d   1      -1.290   0.261   1.275  0.00  0.00     0.039 A 
ATOM      3  C2  UNL d   1      -2.588   0.757   1.132  0.00  0.00    -0.080 A 
ATOM      4  C3  UNL d   1      -2.807   1.877   0.335  0.00  0.00     0.150 A 
ATOM      5  C4  UNL d   1      -1.752   2.504  -0.320  0.00  0.00    -0.007 A 
ATOM      6  C5  UNL d   1      -0.457   2.008  -0.176  0.00  0.00     0.039 A 
ENDROOT
BRANCH   4   7
ATOM      7  O   UNL d   1      -4.055   2.401   0.170  0.00  0.00    -0.526 OA
ATOM      8  H5  UNL d   1      -4.679   1.882   0.704  0.00  0.00     0.418 HD
ENDBRANCH   4   7
TORSDOF 1
ENDMDL
