MODEL 1
REMARK minimizedAffinity 0.421913683
REMARK minimizedRMSD -1
REMARK  1 active torsions:
REMARK  status: ('A' for Active; 'I' for Inactive)
REMARK    1  A    between atoms: C3_4  and  O_7 
ROOT
ATOM      1  C   UNL d   1      -0.894   1.188   0.260  0.00  0.00    -0.033 A 
ATOM      2  C1  UNL d   1      -1.188   2.365  -0.432  0.00  0.00     0.039 A 
ATOM      3  C2  UNL d   1      -2.469   2.916  -0.363  0.00  0.00    -0.080 A 
ATOM      4  C3  UNL d   1      -3.445   2.283   0.401  0.00  0.00     0.150 A 
ATOM      5  C4  UNL d   1      -3.158   1.113   1.096  0.00  0.00    -0.007 A 
ATOM      6  C5  UNL d   1      -1.879   0.563   1.026  0.00  0.00     0.039 A 
ENDROOT
BRANCH   4   7
ATOM      7  O   UNL d   1      -4.711   2.781   0.494  0.00  0.00    -0.526 OA
ATOM      8  H5  UNL d   1      -4.770   3.576  -0.061  0.00  0.00     0.418 HD
ENDBRANCH   4   7
TORSDOF 1
ENDMDL
