MODEL 1
REMARK minimizedAffinity -4.49368572
REMARK minimizedRMSD -1
REMARK  1 active torsions:
REMARK  status: ('A' for Active; 'I' for Inactive)
REMARK    1  A    between atoms: C3_4  and  O_7 
ROOT
ATOM      1  C   UNL d   1       0.024   1.166   0.096  0.00  0.00    -0.033 A 
ATOM      2  C1  UNL d   1      -0.542   2.115  -0.757  0.00  0.00     0.039 A 
ATOM      3  C2  UNL d   1      -1.923   2.317  -0.761  0.00  0.00    -0.080 A 
ATOM      4  C3  UNL d   1      -2.726   1.565   0.092  0.00  0.00     0.150 A 
ATOM      5  C4  UNL d   1      -2.169   0.621   0.947  0.00  0.00    -0.007 A 
ATOM      6  C5  UNL d   1      -0.789   0.420   0.950  0.00  0.00     0.039 A 
ENDROOT
BRANCH   4   7
ATOM      7  O   UNL d   1      -4.080   1.723   0.120  0.00  0.00    -0.526 OA
ATOM      8  H5  UNL d   1      -4.326   2.389  -0.544  0.00  0.00     0.418 HD
ENDBRANCH   4   7
TORSDOF 1
ENDMDL
