MODEL 1
REMARK minimizedAffinity 2.8181932
REMARK minimizedRMSD -1
REMARK  1 active torsions:
REMARK  status: ('A' for Active; 'I' for Inactive)
REMARK    1  A    between atoms: C3_4  and  O_7 
ROOT
ATOM      1  C   UNL d   1      -1.192   2.211   2.060  0.00  0.00    -0.033 A 
ATOM      2  C1  UNL d   1      -0.550   2.251   0.821  0.00  0.00     0.039 A 
ATOM      3  C2  UNL d   1       0.809   1.947   0.727  0.00  0.00    -0.080 A 
ATOM      4  C3  UNL d   1       1.514   1.604   1.877  0.00  0.00     0.150 A 
ATOM      5  C4  UNL d   1       0.880   1.559   3.115  0.00  0.00    -0.007 A 
ATOM      6  C5  UNL d   1      -0.478   1.863   3.207  0.00  0.00     0.039 A 
ENDROOT
BRANCH   4   7
ATOM      7  O   UNL d   1       2.843   1.304   1.836  0.00  0.00    -0.526 OA
ATOM      8  H5  UNL d   1       3.153   1.405   0.921  0.00  0.00     0.418 HD
ENDBRANCH   4   7
TORSDOF 1
ENDMDL
