MODEL 1
REMARK minimizedAffinity 11.1520586
REMARK minimizedRMSD -1
REMARK  0 active torsions:
REMARK  status: ('A' for Active; 'I' for Inactive)
ROOT
ATOM      1  C   UNL d   1       1.723   1.411  -0.674  0.00  0.00     0.124 A 
ATOM      2  C1  UNL d   1       1.675   0.537  -1.751  0.00  0.00     0.062 A 
ATOM      3  C2  UNL d   1       0.881  -0.604  -1.691  0.00  0.00     0.162 A 
ATOM      4  C3  UNL d   1       0.127  -0.878  -0.550  0.00  0.00    -0.034 A 
ATOM      5  C4  UNL d   1       0.181   0.006   0.530  0.00  0.00     0.162 A 
ATOM      6  C5  UNL d   1       0.977   1.145   0.465  0.00  0.00     0.062 A 
ATOM      7  F   UNL d   1       1.022   1.988   1.507  0.00  0.00    -0.097 F 
ATOM      8  F1  UNL d   1      -0.531  -0.227   1.643  0.00  0.00    -0.096 F 
ATOM      9  I   UNL d   1      -1.063  -2.583  -0.456  0.00  0.00    -0.060 I 
ATOM     10  F2  UNL d   1       0.853  -1.431  -2.747  0.00  0.00    -0.096 F 
ATOM     11  F3  UNL d   1       2.396   0.792  -2.852  0.00  0.00    -0.097 F 
ATOM     12  F4  UNL d   1       2.490   2.508  -0.734  0.00  0.00    -0.092 F 
ENDROOT
TORSDOF 0
ENDMDL
