MODEL 1
REMARK minimizedAffinity 23.3680286
REMARK minimizedRMSD -1
REMARK  0 active torsions:
REMARK  status: ('A' for Active; 'I' for Inactive)
ROOT
ATOM      1  C   UNL d   1       3.848   2.859   0.345  0.00  0.00     0.124 A 
ATOM      2  C1  UNL d   1       4.210   3.442   1.552  0.00  0.00     0.062 A 
ATOM      3  C2  UNL d   1       4.787   2.671   2.557  0.00  0.00     0.162 A 
ATOM      4  C3  UNL d   1       5.006   1.308   2.359  0.00  0.00    -0.034 A 
ATOM      5  C4  UNL d   1       4.639   0.728   1.143  0.00  0.00     0.162 A 
ATOM      6  C5  UNL d   1       4.062   1.504   0.142  0.00  0.00     0.062 A 
ATOM      7  F   UNL d   1       3.713   0.939  -1.023  0.00  0.00    -0.097 F 
ATOM      8  F1  UNL d   1       4.836  -0.579   0.919  0.00  0.00    -0.096 F 
ATOM      9  I   UNL d   1       5.869   0.151   3.858  0.00  0.00    -0.060 I 
ATOM     10  F2  UNL d   1       5.127   3.260   3.712  0.00  0.00    -0.096 F 
ATOM     11  F3  UNL d   1       4.002   4.752   1.751  0.00  0.00    -0.097 F 
ATOM     12  F4  UNL d   1       3.292   3.604  -0.619  0.00  0.00    -0.092 F 
ENDROOT
TORSDOF 0
ENDMDL
