MODEL 1
REMARK minimizedAffinity 19.3021507
REMARK minimizedRMSD -1
REMARK  0 active torsions:
REMARK  status: ('A' for Active; 'I' for Inactive)
ROOT
ATOM      1  C   UNL d   1       1.562   1.537   2.718  0.00  0.00     0.124 A 
ATOM      2  C1  UNL d   1       1.893   2.331   1.629  0.00  0.00     0.062 A 
ATOM      3  C2  UNL d   1       2.917   3.268   1.731  0.00  0.00     0.162 A 
ATOM      4  C3  UNL d   1       3.619   3.416   2.927  0.00  0.00    -0.034 A 
ATOM      5  C4  UNL d   1       3.280   2.615   4.019  0.00  0.00     0.162 A 
ATOM      6  C5  UNL d   1       2.255   1.680   3.912  0.00  0.00     0.062 A 
ATOM      7  F   UNL d   1       1.937   0.914   4.965  0.00  0.00    -0.097 F 
ATOM      8  F1  UNL d   1       3.934   2.731   5.184  0.00  0.00    -0.096 F 
ATOM      9  I   UNL d   1       5.151   4.816   3.084  0.00  0.00    -0.060 I 
ATOM     10  F2  UNL d   1       3.216   4.021   0.662  0.00  0.00    -0.096 F 
ATOM     11  F3  UNL d   1       1.225   2.195   0.474  0.00  0.00    -0.097 F 
ATOM     12  F4  UNL d   1       0.576   0.637   2.617  0.00  0.00    -0.092 F 
ENDROOT
TORSDOF 0
ENDMDL
