MODEL 1
REMARK minimizedAffinity 16.3249168
REMARK minimizedRMSD -1
REMARK  0 active torsions:
REMARK  status: ('A' for Active; 'I' for Inactive)
ROOT
ATOM      1  C   UNL d   1       0.764   2.728   2.075  0.00  0.00     0.124 A 
ATOM      2  C1  UNL d   1       1.484   3.347   3.088  0.00  0.00     0.062 A 
ATOM      3  C2  UNL d   1       2.873   3.259   3.113  0.00  0.00     0.162 A 
ATOM      4  C3  UNL d   1       3.551   2.550   2.121  0.00  0.00    -0.034 A 
ATOM      5  C4  UNL d   1       2.820   1.930   1.107  0.00  0.00     0.162 A 
ATOM      6  C5  UNL d   1       1.432   2.020   1.086  0.00  0.00     0.062 A 
ATOM      7  F   UNL d   1       0.738   1.422   0.107  0.00  0.00    -0.097 F 
ATOM      8  F1  UNL d   1       3.440   1.240   0.138  0.00  0.00    -0.096 F 
ATOM      9  I   UNL d   1       5.628   2.417   2.155  0.00  0.00    -0.060 I 
ATOM     10  F2  UNL d   1       3.543   3.867   4.103  0.00  0.00    -0.096 F 
ATOM     11  F3  UNL d   1       0.841   4.030   4.045  0.00  0.00    -0.097 F 
ATOM     12  F4  UNL d   1      -0.573   2.813   2.054  0.00  0.00    -0.092 F 
ENDROOT
TORSDOF 0
ENDMDL
