MODEL 1
REMARK minimizedAffinity 11.5675993
REMARK minimizedRMSD -1
REMARK  0 active torsions:
REMARK  status: ('A' for Active; 'I' for Inactive)
ROOT
ATOM      1  C   UNL d   1       0.901  -1.054  -1.147  0.00  0.00     0.124 A 
ATOM      2  C1  UNL d   1       2.144  -0.548  -0.792  0.00  0.00     0.062 A 
ATOM      3  C2  UNL d   1       2.237   0.517   0.099  0.00  0.00     0.162 A 
ATOM      4  C3  UNL d   1       1.084   1.083   0.643  0.00  0.00    -0.034 A 
ATOM      5  C4  UNL d   1      -0.163   0.569   0.280  0.00  0.00     0.162 A 
ATOM      6  C5  UNL d   1      -0.251  -0.495  -0.611  0.00  0.00     0.062 A 
ATOM      7  F   UNL d   1      -1.452  -0.983  -0.953  0.00  0.00    -0.097 F 
ATOM      8  F1  UNL d   1      -1.292   1.089   0.784  0.00  0.00    -0.096 F 
ATOM      9  I   UNL d   1       1.219   2.675   1.976  0.00  0.00    -0.060 I 
ATOM     10  F2  UNL d   1       3.451   0.986   0.425  0.00  0.00    -0.096 F 
ATOM     11  F3  UNL d   1       3.258  -1.085  -1.310  0.00  0.00    -0.097 F 
ATOM     12  F4  UNL d   1       0.814  -2.078  -2.006  0.00  0.00    -0.092 F 
ENDROOT
TORSDOF 0
ENDMDL
