MODEL 1
REMARK minimizedAffinity 27.549614
REMARK minimizedRMSD -1
REMARK  0 active torsions:
REMARK  status: ('A' for Active; 'I' for Inactive)
ROOT
ATOM      1  C   UNL d   1      -0.763   2.560   0.265  0.00  0.00     0.124 A 
ATOM      2  C1  UNL d   1      -0.705   3.946   0.278  0.00  0.00     0.062 A 
ATOM      3  C2  UNL d   1      -1.264   4.660   1.334  0.00  0.00     0.162 A 
ATOM      4  C3  UNL d   1      -1.887   3.988   2.386  0.00  0.00    -0.034 A 
ATOM      5  C4  UNL d   1      -1.942   2.594   2.365  0.00  0.00     0.162 A 
ATOM      6  C5  UNL d   1      -1.382   1.885   1.308  0.00  0.00     0.062 A 
ATOM      7  F   UNL d   1      -1.439   0.545   1.296  0.00  0.00    -0.097 F 
ATOM      8  F1  UNL d   1      -2.533   1.916   3.361  0.00  0.00    -0.096 F 
ATOM      9  I   UNL d   1      -2.724   5.052   3.967  0.00  0.00    -0.060 I 
ATOM     10  F2  UNL d   1      -1.193   6.000   1.321  0.00  0.00    -0.096 F 
ATOM     11  F3  UNL d   1      -0.108   4.601  -0.729  0.00  0.00    -0.097 F 
ATOM     12  F4  UNL d   1      -0.225   1.875  -0.753  0.00  0.00    -0.092 F 
ENDROOT
TORSDOF 0
ENDMDL
