MODEL 1
REMARK minimizedAffinity 25.7552376
REMARK minimizedRMSD -1
REMARK  0 active torsions:
REMARK  status: ('A' for Active; 'I' for Inactive)
ROOT
ATOM      1  C   UNL d   1       2.393   2.523   2.259  0.00  0.00     0.124 A 
ATOM      2  C1  UNL d   1       3.702   2.380   1.820  0.00  0.00     0.062 A 
ATOM      3  C2  UNL d   1       4.733   3.063   2.457  0.00  0.00     0.162 A 
ATOM      4  C3  UNL d   1       4.461   3.895   3.543  0.00  0.00    -0.034 A 
ATOM      5  C4  UNL d   1       3.142   4.034   3.979  0.00  0.00     0.162 A 
ATOM      6  C5  UNL d   1       2.115   3.349   3.338  0.00  0.00     0.062 A 
ATOM      7  F   UNL d   1       0.851   3.489   3.765  0.00  0.00    -0.097 F 
ATOM      8  F1  UNL d   1       2.844   4.826   5.020  0.00  0.00    -0.096 F 
ATOM      9  I   UNL d   1       6.000   4.918   4.500  0.00  0.00    -0.060 I 
ATOM     10  F2  UNL d   1       5.989   2.906   2.011  0.00  0.00    -0.096 F 
ATOM     11  F3  UNL d   1       3.974   1.582   0.777  0.00  0.00    -0.097 F 
ATOM     12  F4  UNL d   1       1.403   1.865   1.643  0.00  0.00    -0.092 F 
ENDROOT
TORSDOF 0
ENDMDL
