MODEL 1
REMARK minimizedAffinity 10.0244045
REMARK minimizedRMSD -1
REMARK  0 active torsions:
REMARK  status: ('A' for Active; 'I' for Inactive)
ROOT
ATOM      1  C   UNL d   1       5.973   1.183   3.613  0.00  0.00     0.124 A 
ATOM      2  C1  UNL d   1       5.983   2.057   4.692  0.00  0.00     0.062 A 
ATOM      3  C2  UNL d   1       5.991   3.432   4.479  0.00  0.00     0.162 A 
ATOM      4  C3  UNL d   1       5.988   3.943   3.181  0.00  0.00    -0.034 A 
ATOM      5  C4  UNL d   1       5.979   3.059   2.101  0.00  0.00     0.162 A 
ATOM      6  C5  UNL d   1       5.972   1.685   2.320  0.00  0.00     0.062 A 
ATOM      7  F   UNL d   1       5.963   0.842   1.276  0.00  0.00    -0.097 F 
ATOM      8  F1  UNL d   1       5.976   3.516   0.841  0.00  0.00    -0.096 F 
ATOM      9  I   UNL d   1       5.999   5.999   2.859  0.00  0.00    -0.060 I 
ATOM     10  F2  UNL d   1       6.000   4.253   5.540  0.00  0.00    -0.096 F 
ATOM     11  F3  UNL d   1       5.986   1.575   5.943  0.00  0.00    -0.097 F 
ATOM     12  F4  UNL d   1       5.967  -0.140   3.821  0.00  0.00    -0.092 F 
ENDROOT
TORSDOF 0
ENDMDL
