MODEL 1
REMARK minimizedAffinity 1.77907908
REMARK minimizedRMSD -1
REMARK  0 active torsions:
REMARK  status: ('A' for Active; 'I' for Inactive)
ROOT
ATOM      1  C   UNL d   1      -2.381  -3.300  -0.319  0.00  0.00     0.124 A 
ATOM      2  C1  UNL d   1      -2.510  -1.955  -0.634  0.00  0.00     0.062 A 
ATOM      3  C2  UNL d   1      -1.388  -1.132  -0.667  0.00  0.00     0.162 A 
ATOM      4  C3  UNL d   1      -0.125  -1.654  -0.385  0.00  0.00    -0.034 A 
ATOM      5  C4  UNL d   1      -0.003  -3.008  -0.068  0.00  0.00     0.162 A 
ATOM      6  C5  UNL d   1      -1.128  -3.825  -0.036  0.00  0.00     0.062 A 
ATOM      7  F   UNL d   1      -1.001  -5.125   0.269  0.00  0.00    -0.097 F 
ATOM      8  F1  UNL d   1       1.196  -3.541   0.208  0.00  0.00    -0.096 F 
ATOM      9  I   UNL d   1       1.556  -0.427  -0.434  0.00  0.00    -0.060 I 
ATOM     10  F2  UNL d   1      -1.542   0.164  -0.975  0.00  0.00    -0.096 F 
ATOM     11  F3  UNL d   1      -3.720  -1.445  -0.906  0.00  0.00    -0.097 F 
ATOM     12  F4  UNL d   1      -3.463  -4.089  -0.286  0.00  0.00    -0.092 F 
ENDROOT
TORSDOF 0
ENDMDL
