MODEL 1
REMARK minimizedAffinity 8.48634529
REMARK minimizedRMSD -1
REMARK  0 active torsions:
REMARK  status: ('A' for Active; 'I' for Inactive)
ROOT
ATOM      1  C   UNL d   1       2.027  -0.290  -0.593  0.00  0.00     0.124 A 
ATOM      2  C1  UNL d   1       2.440   1.006  -0.868  0.00  0.00     0.062 A 
ATOM      3  C2  UNL d   1       1.992   2.065  -0.083  0.00  0.00     0.162 A 
ATOM      4  C3  UNL d   1       1.126   1.832   0.985  0.00  0.00    -0.034 A 
ATOM      5  C4  UNL d   1       0.714   0.525   1.255  0.00  0.00     0.162 A 
ATOM      6  C5  UNL d   1       1.164  -0.529   0.468  0.00  0.00     0.062 A 
ATOM      7  F   UNL d   1       0.764  -1.781   0.735  0.00  0.00    -0.097 F 
ATOM      8  F1  UNL d   1      -0.118   0.266   2.274  0.00  0.00    -0.096 F 
ATOM      9  I   UNL d   1       0.454   3.412   2.161  0.00  0.00    -0.060 I 
ATOM     10  F2  UNL d   1       2.407   3.307  -0.372  0.00  0.00    -0.096 F 
ATOM     11  F3  UNL d   1       3.272   1.240  -1.893  0.00  0.00    -0.097 F 
ATOM     12  F4  UNL d   1       2.458  -1.307  -1.350  0.00  0.00    -0.092 F 
ENDROOT
TORSDOF 0
ENDMDL
