MODEL 1
REMARK minimizedAffinity 23.0483074
REMARK minimizedRMSD -1
REMARK  0 active torsions:
REMARK  status: ('A' for Active; 'I' for Inactive)
ROOT
ATOM      1  C   UNL d   1       1.601   1.996   0.114  0.00  0.00     0.124 A 
ATOM      2  C1  UNL d   1       0.593   1.823   1.053  0.00  0.00     0.062 A 
ATOM      3  C2  UNL d   1      -0.279   0.742   0.953  0.00  0.00     0.162 A 
ATOM      4  C3  UNL d   1      -0.146  -0.175  -0.089  0.00  0.00    -0.034 A 
ATOM      5  C4  UNL d   1       0.869   0.006  -1.030  0.00  0.00     0.162 A 
ATOM      6  C5  UNL d   1       1.738   1.087  -0.926  0.00  0.00     0.062 A 
ATOM      7  F   UNL d   1       2.711   1.253  -1.834  0.00  0.00    -0.097 F 
ATOM      8  F1  UNL d   1       1.025  -0.857  -2.045  0.00  0.00    -0.096 F 
ATOM      9  I   UNL d   1      -1.448  -1.792  -0.242  0.00  0.00    -0.060 I 
ATOM     10  F2  UNL d   1      -1.243   0.600   1.874  0.00  0.00    -0.096 F 
ATOM     11  F3  UNL d   1       0.458   2.700   2.058  0.00  0.00    -0.097 F 
ATOM     12  F4  UNL d   1       2.437   3.037   0.212  0.00  0.00    -0.092 F 
ENDROOT
TORSDOF 0
ENDMDL
