MODEL 1
REMARK minimizedAffinity 17.5290089
REMARK minimizedRMSD -1
REMARK  0 active torsions:
REMARK  status: ('A' for Active; 'I' for Inactive)
ROOT
ATOM      1  C   UNL d   1      -3.619   1.592   3.796  0.00  0.00     0.124 A 
ATOM      2  C1  UNL d   1      -4.349   1.006   2.772  0.00  0.00     0.062 A 
ATOM      3  C2  UNL d   1      -4.674  -0.346   2.828  0.00  0.00     0.162 A 
ATOM      4  C3  UNL d   1      -4.270  -1.122   3.914  0.00  0.00    -0.034 A 
ATOM      5  C4  UNL d   1      -3.535  -0.526   4.940  0.00  0.00     0.162 A 
ATOM      6  C5  UNL d   1      -3.213   0.825   4.879  0.00  0.00     0.062 A 
ATOM      7  F   UNL d   1      -2.507   1.390   5.870  0.00  0.00    -0.097 F 
ATOM      8  F1  UNL d   1      -3.130  -1.244   5.999  0.00  0.00    -0.096 F 
ATOM      9  I   UNL d   1      -4.754  -3.144   4.002  0.00  0.00    -0.060 I 
ATOM     10  F2  UNL d   1      -5.381  -0.885   1.824  0.00  0.00    -0.096 F 
ATOM     11  F3  UNL d   1      -4.743   1.745   1.724  0.00  0.00    -0.097 F 
ATOM     12  F4  UNL d   1      -3.307   2.893   3.739  0.00  0.00    -0.092 F 
ENDROOT
TORSDOF 0
ENDMDL
