MODEL 1
REMARK minimizedAffinity 11.9816494
REMARK minimizedRMSD -1
REMARK  0 active torsions:
REMARK  status: ('A' for Active; 'I' for Inactive)
ROOT
ATOM      1  C   UNL d   1      -2.934  -4.851  -0.225  0.00  0.00     0.124 A 
ATOM      2  C1  UNL d   1      -1.811  -4.821   0.591  0.00  0.00     0.062 A 
ATOM      3  C2  UNL d   1      -1.121  -3.628   0.789  0.00  0.00     0.162 A 
ATOM      4  C3  UNL d   1      -1.553  -2.455   0.170  0.00  0.00    -0.034 A 
ATOM      5  C4  UNL d   1      -2.682  -2.493  -0.650  0.00  0.00     0.162 A 
ATOM      6  C5  UNL d   1      -3.368  -3.687  -0.844  0.00  0.00     0.062 A 
ATOM      7  F   UNL d   1      -4.452  -3.715  -1.633  0.00  0.00    -0.097 F 
ATOM      8  F1  UNL d   1      -3.125  -1.383  -1.260  0.00  0.00    -0.096 F 
ATOM      9  I   UNL d   1      -0.524  -0.669   0.463  0.00  0.00    -0.060 I 
ATOM     10  F2  UNL d   1      -0.040  -3.628   1.582  0.00  0.00    -0.096 F 
ATOM     11  F3  UNL d   1      -1.389  -5.944   1.190  0.00  0.00    -0.097 F 
ATOM     12  F4  UNL d   1      -3.595  -6.000  -0.414  0.00  0.00    -0.092 F 
ENDROOT
TORSDOF 0
ENDMDL
