MODEL 1
REMARK minimizedAffinity 21.5103359
REMARK minimizedRMSD -1
REMARK  0 active torsions:
REMARK  status: ('A' for Active; 'I' for Inactive)
ROOT
ATOM      1  C   UNL d   1       2.641   0.237   2.396  0.00  0.00     0.124 A 
ATOM      2  C1  UNL d   1       2.368   0.026   3.741  0.00  0.00     0.062 A 
ATOM      3  C2  UNL d   1       3.314   0.354   4.707  0.00  0.00     0.162 A 
ATOM      4  C3  UNL d   1       4.543   0.898   4.334  0.00  0.00    -0.034 A 
ATOM      5  C4  UNL d   1       4.811   1.106   2.980  0.00  0.00     0.162 A 
ATOM      6  C5  UNL d   1       3.862   0.777   2.017  0.00  0.00     0.062 A 
ATOM      7  F   UNL d   1       4.128   0.981   0.719  0.00  0.00    -0.097 F 
ATOM      8  F1  UNL d   1       5.982   1.627   2.585  0.00  0.00    -0.096 F 
ATOM      9  I   UNL d   1       5.960   1.390   5.776  0.00  0.00    -0.060 I 
ATOM     10  F2  UNL d   1       3.023   0.139   5.999  0.00  0.00    -0.096 F 
ATOM     11  F3  UNL d   1       1.189  -0.497   4.110  0.00  0.00    -0.097 F 
ATOM     12  F4  UNL d   1       1.730  -0.081   1.468  0.00  0.00    -0.092 F 
ENDROOT
TORSDOF 0
ENDMDL
