MODEL 1
REMARK minimizedAffinity 23.1636868
REMARK minimizedRMSD -1
REMARK  0 active torsions:
REMARK  status: ('A' for Active; 'I' for Inactive)
ROOT
ATOM      1  C   UNL d   1       5.902   3.377   3.636  0.00  0.00     0.124 A 
ATOM      2  C1  UNL d   1       5.903   2.697   2.426  0.00  0.00     0.062 A 
ATOM      3  C2  UNL d   1       5.928   1.305   2.405  0.00  0.00     0.162 A 
ATOM      4  C3  UNL d   1       5.952   0.584   3.599  0.00  0.00    -0.034 A 
ATOM      5  C4  UNL d   1       5.952   1.275   4.812  0.00  0.00     0.162 A 
ATOM      6  C5  UNL d   1       5.927   2.666   4.827  0.00  0.00     0.062 A 
ATOM      7  F   UNL d   1       5.927   3.321   5.997  0.00  0.00    -0.097 F 
ATOM      8  F1  UNL d   1       5.975   0.613   5.978  0.00  0.00    -0.096 F 
ATOM      9  I   UNL d   1       5.990  -1.497   3.572  0.00  0.00    -0.060 I 
ATOM     10  F2  UNL d   1       5.928   0.674   1.222  0.00  0.00    -0.096 F 
ATOM     11  F3  UNL d   1       5.879   3.381   1.273  0.00  0.00    -0.097 F 
ATOM     12  F4  UNL d   1       5.879   4.716   3.653  0.00  0.00    -0.092 F 
ENDROOT
TORSDOF 0
ENDMDL
