MODEL 1
REMARK minimizedAffinity 15.8842916
REMARK minimizedRMSD -1
REMARK  0 active torsions:
REMARK  status: ('A' for Active; 'I' for Inactive)
ROOT
ATOM      1  C   UNL d   1       0.987  -2.456   0.837  0.00  0.00     0.124 A 
ATOM      2  C1  UNL d   1       2.149  -2.176   1.543  0.00  0.00     0.062 A 
ATOM      3  C2  UNL d   1       2.803  -3.186   2.242  0.00  0.00     0.162 A 
ATOM      4  C3  UNL d   1       2.298  -4.487   2.238  0.00  0.00    -0.034 A 
ATOM      5  C4  UNL d   1       1.129  -4.760   1.526  0.00  0.00     0.162 A 
ATOM      6  C5  UNL d   1       0.479  -3.747   0.829  0.00  0.00     0.062 A 
ATOM      7  F   UNL d   1      -0.644  -4.020   0.147  0.00  0.00    -0.097 F 
ATOM      8  F1  UNL d   1       0.616  -5.999   1.500  0.00  0.00    -0.096 F 
ATOM      9  I   UNL d   1       3.274  -6.000   3.282  0.00  0.00    -0.060 I 
ATOM     10  F2  UNL d   1       3.924  -2.887   2.916  0.00  0.00    -0.096 F 
ATOM     11  F3  UNL d   1       2.642  -0.930   1.553  0.00  0.00    -0.097 F 
ATOM     12  F4  UNL d   1       0.359  -1.482   0.166  0.00  0.00    -0.092 F 
ENDROOT
TORSDOF 0
ENDMDL
