MODEL 1
REMARK minimizedAffinity 18.9642735
REMARK minimizedRMSD -1
REMARK  0 active torsions:
REMARK  status: ('A' for Active; 'I' for Inactive)
ROOT
ATOM      1  C   UNL d   1       3.462   1.723  -4.098  0.00  0.00     0.124 A 
ATOM      2  C1  UNL d   1       4.249   2.858  -3.961  0.00  0.00     0.062 A 
ATOM      3  C2  UNL d   1       3.820   4.075  -4.483  0.00  0.00     0.162 A 
ATOM      4  C3  UNL d   1       2.595   4.164  -5.146  0.00  0.00    -0.034 A 
ATOM      5  C4  UNL d   1       1.810   3.017  -5.280  0.00  0.00     0.162 A 
ATOM      6  C5  UNL d   1       2.243   1.804  -4.757  0.00  0.00     0.062 A 
ATOM      7  F   UNL d   1       1.481   0.708  -4.890  0.00  0.00    -0.097 F 
ATOM      8  F1  UNL d   1       0.627   3.067  -5.912  0.00  0.00    -0.096 F 
ATOM      9  I   UNL d   1       1.950   5.981  -5.928  0.00  0.00    -0.060 I 
ATOM     10  F2  UNL d   1       4.601   5.155  -4.337  0.00  0.00    -0.096 F 
ATOM     11  F3  UNL d   1       5.427   2.783  -3.326  0.00  0.00    -0.097 F 
ATOM     12  F4  UNL d   1       3.878   0.554  -3.596  0.00  0.00    -0.092 F 
ENDROOT
TORSDOF 0
ENDMDL
