MODEL 1
REMARK minimizedAffinity 26.8448486
REMARK minimizedRMSD -1
REMARK  0 active torsions:
REMARK  status: ('A' for Active; 'I' for Inactive)
ROOT
ATOM      1  C   UNL d   1       4.504  -5.929   2.516  0.00  0.00     0.124 A 
ATOM      2  C1  UNL d   1       3.921  -5.858   1.258  0.00  0.00     0.062 A 
ATOM      3  C2  UNL d   1       2.537  -5.785   1.131  0.00  0.00     0.162 A 
ATOM      4  C3  UNL d   1       1.725  -5.781   2.266  0.00  0.00    -0.034 A 
ATOM      5  C4  UNL d   1       2.319  -5.854   3.527  0.00  0.00     0.162 A 
ATOM      6  C5  UNL d   1       3.702  -5.927   3.649  0.00  0.00     0.062 A 
ATOM      7  F   UNL d   1       4.264  -5.995   4.865  0.00  0.00    -0.097 F 
ATOM      8  F1  UNL d   1       1.568  -5.853   4.639  0.00  0.00    -0.096 F 
ATOM      9  I   UNL d   1      -0.345  -5.672   2.080  0.00  0.00    -0.060 I 
ATOM     10  F2  UNL d   1       2.001  -5.717  -0.097  0.00  0.00    -0.096 F 
ATOM     11  F3  UNL d   1       4.693  -5.860   0.162  0.00  0.00    -0.097 F 
ATOM     12  F4  UNL d   1       5.836  -6.000   2.635  0.00  0.00    -0.092 F 
ENDROOT
TORSDOF 0
ENDMDL
