MODEL 1
REMARK minimizedAffinity 31.7204151
REMARK minimizedRMSD -1
REMARK  0 active torsions:
REMARK  status: ('A' for Active; 'I' for Inactive)
ROOT
ATOM      1  C   UNL d   1      -3.620  -1.957   4.615  0.00  0.00     0.124 A 
ATOM      2  C1  UNL d   1      -2.475  -1.356   5.121  0.00  0.00     0.062 A 
ATOM      3  C2  UNL d   1      -2.501  -0.021   5.515  0.00  0.00     0.162 A 
ATOM      4  C3  UNL d   1      -3.676   0.722   5.407  0.00  0.00    -0.034 A 
ATOM      5  C4  UNL d   1      -4.823   0.111   4.897  0.00  0.00     0.162 A 
ATOM      6  C5  UNL d   1      -4.792  -1.223   4.504  0.00  0.00     0.062 A 
ATOM      7  F   UNL d   1      -5.899  -1.801   4.016  0.00  0.00    -0.097 F 
ATOM      8  F1  UNL d   1      -5.970   0.797   4.779  0.00  0.00    -0.096 F 
ATOM      9  I   UNL d   1      -3.718   2.718   5.995  0.00  0.00    -0.060 I 
ATOM     10  F2  UNL d   1      -1.380   0.533   6.000  0.00  0.00    -0.096 F 
ATOM     11  F3  UNL d   1      -1.341  -2.062   5.228  0.00  0.00    -0.097 F 
ATOM     12  F4  UNL d   1      -3.592  -3.241   4.236  0.00  0.00    -0.092 F 
ENDROOT
TORSDOF 0
ENDMDL
