MODEL 1
REMARK minimizedAffinity 1.0519141
REMARK minimizedRMSD -1
REMARK  0 active torsions:
REMARK  status: ('A' for Active; 'I' for Inactive)
ROOT
ATOM      1  C   UNL d   1       0.734  -1.571   0.872  0.00  0.00     0.124 A 
ATOM      2  C1  UNL d   1       1.513  -1.185  -0.210  0.00  0.00     0.062 A 
ATOM      3  C2  UNL d   1       1.219  -0.015  -0.904  0.00  0.00     0.162 A 
ATOM      4  C3  UNL d   1       0.140   0.780  -0.517  0.00  0.00    -0.034 A 
ATOM      5  C4  UNL d   1      -0.640   0.385   0.572  0.00  0.00     0.162 A 
ATOM      6  C5  UNL d   1      -0.342  -0.785   1.262  0.00  0.00     0.062 A 
ATOM      7  F   UNL d   1      -1.096  -1.156   2.307  0.00  0.00    -0.097 F 
ATOM      8  F1  UNL d   1      -1.684   1.126   0.971  0.00  0.00    -0.096 F 
ATOM      9  I   UNL d   1      -0.303   2.530  -1.551  0.00  0.00    -0.060 I 
ATOM     10  F2  UNL d   1       1.989   0.333  -1.945  0.00  0.00    -0.096 F 
ATOM     11  F3  UNL d   1       2.552  -1.943  -0.590  0.00  0.00    -0.097 F 
ATOM     12  F4  UNL d   1       1.019  -2.698   1.537  0.00  0.00    -0.092 F 
ENDROOT
TORSDOF 0
ENDMDL
