MODEL 1
REMARK minimizedAffinity 10.011981
REMARK minimizedRMSD -1
REMARK  0 active torsions:
REMARK  status: ('A' for Active; 'I' for Inactive)
ROOT
ATOM      1  C   UNL d   1       3.630  -4.760   0.676  0.00  0.00     0.124 A 
ATOM      2  C1  UNL d   1       4.627  -4.079  -0.008  0.00  0.00     0.062 A 
ATOM      3  C2  UNL d   1       4.396  -2.791  -0.482  0.00  0.00     0.162 A 
ATOM      4  C3  UNL d   1       3.163  -2.175  -0.273  0.00  0.00    -0.034 A 
ATOM      5  C4  UNL d   1       2.164  -2.866   0.415  0.00  0.00     0.162 A 
ATOM      6  C5  UNL d   1       2.400  -4.153   0.887  0.00  0.00     0.062 A 
ATOM      7  F   UNL d   1       1.435  -4.810   1.548  0.00  0.00    -0.097 F 
ATOM      8  F1  UNL d   1       0.966  -2.303   0.633  0.00  0.00    -0.096 F 
ATOM      9  I   UNL d   1       2.814  -0.249  -0.981  0.00  0.00    -0.060 I 
ATOM     10  F2  UNL d   1       5.378  -2.157  -1.140  0.00  0.00    -0.096 F 
ATOM     11  F3  UNL d   1       5.816  -4.664  -0.213  0.00  0.00    -0.097 F 
ATOM     12  F4  UNL d   1       3.854  -6.000   1.131  0.00  0.00    -0.092 F 
ENDROOT
TORSDOF 0
ENDMDL
