MODEL 1
REMARK minimizedAffinity 4.81397963
REMARK minimizedRMSD -1
REMARK  0 active torsions:
REMARK  status: ('A' for Active; 'I' for Inactive)
ROOT
ATOM      1  C   UNL d   1       3.321  -2.430  -0.290  0.00  0.00     0.124 A 
ATOM      2  C1  UNL d   1       3.292  -3.614   0.434  0.00  0.00     0.062 A 
ATOM      3  C2  UNL d   1       2.212  -3.900   1.264  0.00  0.00     0.162 A 
ATOM      4  C3  UNL d   1       1.151  -3.001   1.374  0.00  0.00    -0.034 A 
ATOM      5  C4  UNL d   1       1.188  -1.812   0.643  0.00  0.00     0.162 A 
ATOM      6  C5  UNL d   1       2.270  -1.531  -0.185  0.00  0.00     0.062 A 
ATOM      7  F   UNL d   1       2.296  -0.386  -0.884  0.00  0.00    -0.097 F 
ATOM      8  F1  UNL d   1       0.185  -0.926   0.725  0.00  0.00    -0.096 F 
ATOM      9  I   UNL d   1      -0.465  -3.426   2.614  0.00  0.00    -0.060 I 
ATOM     10  F2  UNL d   1       2.211  -5.051   1.952  0.00  0.00    -0.096 F 
ATOM     11  F3  UNL d   1       4.308  -4.484   0.335  0.00  0.00    -0.097 F 
ATOM     12  F4  UNL d   1       4.362  -2.156  -1.087  0.00  0.00    -0.092 F 
ENDROOT
TORSDOF 0
ENDMDL
