MODEL 1
REMARK minimizedAffinity 8.67135429
REMARK minimizedRMSD -1
REMARK  0 active torsions:
REMARK  status: ('A' for Active; 'I' for Inactive)
ROOT
ATOM      1  C   UNL d   1       0.135  -1.393   2.083  0.00  0.00     0.124 A 
ATOM      2  C1  UNL d   1       0.658  -1.296   0.801  0.00  0.00     0.062 A 
ATOM      3  C2  UNL d   1       0.032  -0.499  -0.152  0.00  0.00     0.162 A 
ATOM      4  C3  UNL d   1      -1.124   0.210   0.173  0.00  0.00    -0.034 A 
ATOM      5  C4  UNL d   1      -1.646   0.107   1.464  0.00  0.00     0.162 A 
ATOM      6  C5  UNL d   1      -1.016  -0.692   2.413  0.00  0.00     0.062 A 
ATOM      7  F   UNL d   1      -1.523  -0.784   3.651  0.00  0.00    -0.097 F 
ATOM      8  F1  UNL d   1      -2.756   0.775   1.810  0.00  0.00    -0.096 F 
ATOM      9  I   UNL d   1      -2.064   1.404  -1.250  0.00  0.00    -0.060 I 
ATOM     10  F2  UNL d   1       0.560  -0.424  -1.383  0.00  0.00    -0.096 F 
ATOM     11  F3  UNL d   1       1.770  -1.974   0.479  0.00  0.00    -0.097 F 
ATOM     12  F4  UNL d   1       0.739  -2.162   2.998  0.00  0.00    -0.092 F 
ENDROOT
TORSDOF 0
ENDMDL
