MODEL 1
REMARK minimizedAffinity 3.02989507
REMARK minimizedRMSD -1
REMARK  0 active torsions:
REMARK  status: ('A' for Active; 'I' for Inactive)
ROOT
ATOM      1  C   UNL d   1      -0.830  -0.237   1.393  0.00  0.00     0.124 A 
ATOM      2  C1  UNL d   1      -0.303  -0.315   0.112  0.00  0.00     0.062 A 
ATOM      3  C2  UNL d   1       0.749  -1.186  -0.161  0.00  0.00     0.162 A 
ATOM      4  C3  UNL d   1       1.280  -1.986   0.851  0.00  0.00    -0.034 A 
ATOM      5  C4  UNL d   1       0.745  -1.901   2.137  0.00  0.00     0.162 A 
ATOM      6  C5  UNL d   1      -0.306  -1.030   2.405  0.00  0.00     0.062 A 
ATOM      7  F   UNL d   1      -0.814  -0.956   3.643  0.00  0.00    -0.097 F 
ATOM      8  F1  UNL d   1       1.232  -2.656   3.133  0.00  0.00    -0.096 F 
ATOM      9  I   UNL d   1       2.852  -3.289   0.447  0.00  0.00    -0.060 I 
ATOM     10  F2  UNL d   1       1.238  -1.241  -1.408  0.00  0.00    -0.096 F 
ATOM     11  F3  UNL d   1      -0.807   0.450  -0.867  0.00  0.00    -0.097 F 
ATOM     12  F4  UNL d   1      -1.841   0.602   1.653  0.00  0.00    -0.092 F 
ENDROOT
TORSDOF 0
ENDMDL
