MODEL 1
REMARK minimizedAffinity 5.63035917
REMARK minimizedRMSD -1
REMARK  0 active torsions:
REMARK  status: ('A' for Active; 'I' for Inactive)
ROOT
ATOM      1  C   UNL d   1       0.069  -3.618   2.958  0.00  0.00     0.124 A 
ATOM      2  C1  UNL d   1      -0.285  -2.277   2.905  0.00  0.00     0.062 A 
ATOM      3  C2  UNL d   1       0.309  -1.433   1.972  0.00  0.00     0.162 A 
ATOM      4  C3  UNL d   1       1.264  -1.927   1.083  0.00  0.00    -0.034 A 
ATOM      5  C4  UNL d   1       1.615  -3.277   1.143  0.00  0.00     0.162 A 
ATOM      6  C5  UNL d   1       1.018  -4.117   2.078  0.00  0.00     0.062 A 
ATOM      7  F   UNL d   1       1.361  -5.412   2.128  0.00  0.00    -0.097 F 
ATOM      8  F1  UNL d   1       2.529  -3.786   0.303  0.00  0.00    -0.096 F 
ATOM      9  I   UNL d   1       2.155  -0.668  -0.314  0.00  0.00    -0.060 I 
ATOM     10  F2  UNL d   1      -0.052  -0.141   1.943  0.00  0.00    -0.096 F 
ATOM     11  F3  UNL d   1      -1.201  -1.792   3.756  0.00  0.00    -0.097 F 
ATOM     12  F4  UNL d   1      -0.504  -4.428   3.858  0.00  0.00    -0.092 F 
ENDROOT
TORSDOF 0
ENDMDL
