MODEL 1
REMARK minimizedAffinity 6.13259554
REMARK minimizedRMSD -1
REMARK  0 active torsions:
REMARK  status: ('A' for Active; 'I' for Inactive)
ROOT
ATOM      1  C   UNL d   1       4.464  -2.215  -0.361  0.00  0.00     0.124 A 
ATOM      2  C1  UNL d   1       4.044  -0.900  -0.498  0.00  0.00     0.062 A 
ATOM      3  C2  UNL d   1       2.717  -0.559  -0.248  0.00  0.00     0.162 A 
ATOM      4  C3  UNL d   1       1.802  -1.536   0.143  0.00  0.00    -0.034 A 
ATOM      5  C4  UNL d   1       2.232  -2.858   0.278  0.00  0.00     0.162 A 
ATOM      6  C5  UNL d   1       3.559  -3.193   0.027  0.00  0.00     0.062 A 
ATOM      7  F   UNL d   1       3.963  -4.464   0.160  0.00  0.00    -0.097 F 
ATOM      8  F1  UNL d   1       1.378  -3.822   0.652  0.00  0.00    -0.096 F 
ATOM      9  I   UNL d   1      -0.182  -1.032   0.517  0.00  0.00    -0.060 I 
ATOM     10  F2  UNL d   1       2.338   0.720  -0.389  0.00  0.00    -0.096 F 
ATOM     11  F3  UNL d   1       4.916   0.046  -0.874  0.00  0.00    -0.097 F 
ATOM     12  F4  UNL d   1       5.741  -2.540  -0.603  0.00  0.00    -0.092 F 
ENDROOT
TORSDOF 0
ENDMDL
