MODEL 1
REMARK minimizedAffinity 1.57877588
REMARK minimizedRMSD -1
REMARK  0 active torsions:
REMARK  status: ('A' for Active; 'I' for Inactive)
ROOT
ATOM      1  C   UNL d   1      -1.105  -0.517   1.465  0.00  0.00     0.124 A 
ATOM      2  C1  UNL d   1      -0.434  -0.406   0.255  0.00  0.00     0.062 A 
ATOM      3  C2  UNL d   1       0.614  -1.270  -0.047  0.00  0.00     0.162 A 
ATOM      4  C3  UNL d   1       0.998  -2.256   0.863  0.00  0.00    -0.034 A 
ATOM      5  C4  UNL d   1       0.319  -2.361   2.078  0.00  0.00     0.162 A 
ATOM      6  C5  UNL d   1      -0.728  -1.495   2.375  0.00  0.00     0.062 A 
ATOM      7  F   UNL d   1      -1.375  -1.604   3.545  0.00  0.00    -0.097 F 
ATOM      8  F1  UNL d   1       0.662  -3.297   2.976  0.00  0.00    -0.096 F 
ATOM      9  I   UNL d   1       2.565  -3.550   0.416  0.00  0.00    -0.060 I 
ATOM     10  F2  UNL d   1       1.244  -1.140  -1.224  0.00  0.00    -0.096 F 
ATOM     11  F3  UNL d   1      -0.796   0.538  -0.626  0.00  0.00    -0.097 F 
ATOM     12  F4  UNL d   1      -2.113   0.317   1.753  0.00  0.00    -0.092 F 
ENDROOT
TORSDOF 0
ENDMDL
