MODEL 1
REMARK minimizedAffinity 9.0621233
REMARK minimizedRMSD -1
REMARK  0 active torsions:
REMARK  status: ('A' for Active; 'I' for Inactive)
ROOT
ATOM      1  C   UNL d   1       2.942  -3.972   0.198  0.00  0.00     0.124 A 
ATOM      2  C1  UNL d   1       1.955  -4.346   1.099  0.00  0.00     0.062 A 
ATOM      3  C2  UNL d   1       0.932  -3.460   1.424  0.00  0.00     0.162 A 
ATOM      4  C3  UNL d   1       0.890  -2.191   0.846  0.00  0.00    -0.034 A 
ATOM      5  C4  UNL d   1       1.887  -1.822  -0.059  0.00  0.00     0.162 A 
ATOM      6  C5  UNL d   1       2.907  -2.711  -0.380  0.00  0.00     0.062 A 
ATOM      7  F   UNL d   1       3.860  -2.348  -1.251  0.00  0.00    -0.097 F 
ATOM      8  F1  UNL d   1       1.877  -0.610  -0.633  0.00  0.00    -0.096 F 
ATOM      9  I   UNL d   1      -0.638  -0.863   1.330  0.00  0.00    -0.060 I 
ATOM     10  F2  UNL d   1      -0.009  -3.848   2.298  0.00  0.00    -0.096 F 
ATOM     11  F3  UNL d   1       1.987  -5.564   1.660  0.00  0.00    -0.097 F 
ATOM     12  F4  UNL d   1       3.926  -4.826  -0.112  0.00  0.00    -0.092 F 
ENDROOT
TORSDOF 0
ENDMDL
