MODEL 1
REMARK minimizedAffinity -0.513546884
REMARK minimizedRMSD -1
REMARK  0 active torsions:
REMARK  status: ('A' for Active; 'I' for Inactive)
ROOT
ATOM      1  C2' OXE d   1       4.809   2.253   5.580  0.00  0.00     0.078 C 
ATOM      2  C1' OXE d   1       2.391   0.890   6.000  0.00  0.00     0.078 C 
ATOM      3  C1  OXE d   1       2.344   2.395   5.907  0.00  0.00    -0.078 A 
ATOM      4  C2  OXE d   1       3.537   3.057   5.748  0.00  0.00    -0.078 A 
ATOM      5  C3  OXE d   1       3.544   4.441   5.601  0.00  0.00     0.003 A 
ATOM      6  C4  OXE d   1       2.365   5.177   5.768  0.00  0.00    -0.002 A 
ATOM      7  C5  OXE d   1       1.144   4.525   5.970  0.00  0.00    -0.002 A 
ATOM      8  C6  OXE d   1       1.110   3.135   5.999  0.00  0.00     0.003 A 
ENDROOT
TORSDOF 0
ENDMDL
