MODEL 1
REMARK minimizedAffinity 2.6474185
REMARK minimizedRMSD -1
REMARK  0 active torsions:
REMARK  status: ('A' for Active; 'I' for Inactive)
ROOT
ATOM      1  C2' OXE d   1      -1.655  -6.000   3.335  0.00  0.00     0.078 C 
ATOM      2  C1' OXE d   1      -2.255  -5.332   5.995  0.00  0.00     0.078 C 
ATOM      3  C1  OXE d   1      -1.113  -4.607   5.328  0.00  0.00    -0.078 A 
ATOM      4  C2  OXE d   1      -0.797  -4.973   4.042  0.00  0.00    -0.078 A 
ATOM      5  C3  OXE d   1       0.212  -4.298   3.361  0.00  0.00     0.003 A 
ATOM      6  C4  OXE d   1       1.008  -3.356   4.025  0.00  0.00    -0.002 A 
ATOM      7  C5  OXE d   1       0.728  -2.997   5.348  0.00  0.00    -0.002 A 
ATOM      8  C6  OXE d   1      -0.353  -3.580   5.998  0.00  0.00     0.003 A 
ENDROOT
TORSDOF 0
ENDMDL
