MODEL 1
REMARK minimizedAffinity 9.31712437
REMARK minimizedRMSD -1
REMARK  0 active torsions:
REMARK  status: ('A' for Active; 'I' for Inactive)
ROOT
ATOM      1  C2' OXE d   1       0.918   4.849   5.990  0.00  0.00     0.078 C 
ATOM      2  C1' OXE d   1       1.168   2.053   6.000  0.00  0.00     0.078 C 
ATOM      3  C1  OXE d   1       2.434   2.872   5.983  0.00  0.00    -0.078 A 
ATOM      4  C2  OXE d   1       2.302   4.239   5.931  0.00  0.00    -0.078 A 
ATOM      5  C3  OXE d   1       3.437   5.043   5.969  0.00  0.00     0.003 A 
ATOM      6  C4  OXE d   1       4.714   4.471   5.904  0.00  0.00    -0.002 A 
ATOM      7  C5  OXE d   1       4.870   3.081   5.915  0.00  0.00    -0.002 A 
ATOM      8  C6  OXE d   1       3.744   2.269   5.998  0.00  0.00     0.003 A 
ENDROOT
TORSDOF 0
ENDMDL
