MODEL 1
REMARK minimizedAffinity -2.45513415
REMARK minimizedRMSD -1
REMARK  0 active torsions:
REMARK  status: ('A' for Active; 'I' for Inactive)
ROOT
ATOM      1  C2' OXE d   1       1.406   4.787   5.958  0.00  0.00     0.078 C 
ATOM      2  C1' OXE d   1       4.070   5.671   5.931  0.00  0.00     0.078 C 
ATOM      3  C1  OXE d   1       3.823   4.184   5.938  0.00  0.00    -0.078 A 
ATOM      4  C2  OXE d   1       2.517   3.760   5.998  0.00  0.00    -0.078 A 
ATOM      5  C3  OXE d   1       2.231   2.399   5.952  0.00  0.00     0.003 A 
ATOM      6  C4  OXE d   1       3.265   1.455   5.999  0.00  0.00    -0.002 A 
ATOM      7  C5  OXE d   1       4.602   1.865   5.978  0.00  0.00    -0.002 A 
ATOM      8  C6  OXE d   1       4.897   3.222   5.904  0.00  0.00     0.003 A 
ENDROOT
TORSDOF 0
ENDMDL
