MODEL 1
REMARK minimizedAffinity 4.87271023
REMARK minimizedRMSD -1
REMARK  0 active torsions:
REMARK  status: ('A' for Active; 'I' for Inactive)
ROOT
ATOM      1  C2' OXE d   1      -4.197   1.121   1.812  0.00  0.00     0.078 C 
ATOM      2  C1' OXE d   1      -6.000  -0.053   0.007  0.00  0.00     0.078 C 
ATOM      3  C1  OXE d   1      -4.554   0.050  -0.409  0.00  0.00    -0.078 A 
ATOM      4  C2  OXE d   1      -3.687   0.668   0.460  0.00  0.00    -0.078 A 
ATOM      5  C3  OXE d   1      -2.333   0.740   0.149  0.00  0.00     0.003 A 
ATOM      6  C4  OXE d   1      -1.871   0.328  -1.107  0.00  0.00    -0.002 A 
ATOM      7  C5  OXE d   1      -2.744  -0.268  -2.024  0.00  0.00    -0.002 A 
ATOM      8  C6  OXE d   1      -4.077  -0.452  -1.674  0.00  0.00     0.003 A 
ENDROOT
TORSDOF 0
ENDMDL
