MODEL 1
REMARK minimizedAffinity 4.25951195
REMARK minimizedRMSD -1
REMARK  0 active torsions:
REMARK  status: ('A' for Active; 'I' for Inactive)
ROOT
ATOM      1  C2' OXE d   1       4.909   4.907   4.119  0.00  0.00     0.078 C 
ATOM      2  C1' OXE d   1       2.482   4.739   5.519  0.00  0.00     0.078 C 
ATOM      3  C1  OXE d   1       3.314   3.487   5.400  0.00  0.00    -0.078 A 
ATOM      4  C2  OXE d   1       4.478   3.567   4.674  0.00  0.00    -0.078 A 
ATOM      5  C3  OXE d   1       5.310   2.455   4.579  0.00  0.00     0.003 A 
ATOM      6  C4  OXE d   1       4.898   1.217   5.087  0.00  0.00    -0.002 A 
ATOM      7  C5  OXE d   1       3.698   1.104   5.797  0.00  0.00    -0.002 A 
ATOM      8  C6  OXE d   1       2.916   2.236   5.998  0.00  0.00     0.003 A 
ENDROOT
TORSDOF 0
ENDMDL
