MODEL 1
REMARK minimizedAffinity 3.36110091
REMARK minimizedRMSD -1
REMARK  0 active torsions:
REMARK  status: ('A' for Active; 'I' for Inactive)
ROOT
ATOM      1  C2' OXE d   1       2.162  -3.465   2.742  0.00  0.00     0.078 C 
ATOM      2  C1' OXE d   1      -0.014  -4.969   1.803  0.00  0.00     0.078 C 
ATOM      3  C1  OXE d   1       0.267  -4.989   3.285  0.00  0.00    -0.078 A 
ATOM      4  C2  OXE d   1       1.362  -4.287   3.729  0.00  0.00    -0.078 A 
ATOM      5  C3  OXE d   1       1.635  -4.227   5.093  0.00  0.00     0.003 A 
ATOM      6  C4  OXE d   1       0.897  -4.999   5.998  0.00  0.00    -0.002 A 
ATOM      7  C5  OXE d   1      -0.198  -5.752   5.561  0.00  0.00    -0.002 A 
ATOM      8  C6  OXE d   1      -0.551  -5.724   4.217  0.00  0.00     0.003 A 
ENDROOT
TORSDOF 0
ENDMDL
