MODEL 1
REMARK minimizedAffinity 21.6674938
REMARK minimizedRMSD -1
REMARK  0 active torsions:
REMARK  status: ('A' for Active; 'I' for Inactive)
ROOT
ATOM      1  C   UNL d   1       3.314  -4.407   1.094  0.00  0.00     0.124 A 
ATOM      2  C1  UNL d   1       2.211  -3.707   0.625  0.00  0.00     0.062 A 
ATOM      3  C2  UNL d   1       2.378  -2.474   0.002  0.00  0.00     0.162 A 
ATOM      4  C3  UNL d   1       3.654  -1.932  -0.157  0.00  0.00    -0.034 A 
ATOM      5  C4  UNL d   1       4.758  -2.642   0.319  0.00  0.00     0.162 A 
ATOM      6  C5  UNL d   1       4.586  -3.874   0.941  0.00  0.00     0.062 A 
ATOM      7  F   UNL d   1       5.653  -4.549   1.393  0.00  0.00    -0.097 F 
ATOM      8  F1  UNL d   1       5.999  -2.150   0.182  0.00  0.00    -0.096 F 
ATOM      9  I   UNL d   1       3.907  -0.088  -1.088  0.00  0.00    -0.060 I 
ATOM     10  F2  UNL d   1       1.294  -1.820  -0.441  0.00  0.00    -0.096 F 
ATOM     11  F3  UNL d   1       0.981  -4.220   0.773  0.00  0.00    -0.097 F 
ATOM     12  F4  UNL d   1       3.151  -5.593   1.694  0.00  0.00    -0.092 F 
ENDROOT
TORSDOF 0
ENDMDL
