MODEL 1
REMARK minimizedAffinity 5.40193558
REMARK minimizedRMSD -1
REMARK  0 active torsions:
REMARK  status: ('A' for Active; 'I' for Inactive)
ROOT
ATOM      1  C   UNL d   1      -0.325  -0.707  -0.653  0.00  0.00     0.124 A 
ATOM      2  C1  UNL d   1      -1.695  -0.915  -0.584  0.00  0.00     0.062 A 
ATOM      3  C2  UNL d   1      -2.251  -1.559   0.517  0.00  0.00     0.162 A 
ATOM      4  C3  UNL d   1      -1.436  -1.999   1.560  0.00  0.00    -0.034 A 
ATOM      5  C4  UNL d   1      -0.058  -1.787   1.483  0.00  0.00     0.162 A 
ATOM      6  C5  UNL d   1       0.492  -1.143   0.380  0.00  0.00     0.062 A 
ATOM      7  F   UNL d   1       1.817  -0.943   0.315  0.00  0.00    -0.097 F 
ATOM      8  F1  UNL d   1       0.755  -2.197   2.468  0.00  0.00    -0.096 F 
ATOM      9  I   UNL d   1      -2.262  -2.963   3.209  0.00  0.00    -0.060 I 
ATOM     10  F2  UNL d   1      -3.578  -1.747   0.558  0.00  0.00    -0.096 F 
ATOM     11  F3  UNL d   1      -2.487  -0.496  -1.582  0.00  0.00    -0.097 F 
ATOM     12  F4  UNL d   1       0.207  -0.088  -1.715  0.00  0.00    -0.092 F 
ENDROOT
TORSDOF 0
ENDMDL
