MODEL 1
REMARK minimizedAffinity 18.7109528
REMARK minimizedRMSD -1
REMARK  0 active torsions:
REMARK  status: ('A' for Active; 'I' for Inactive)
ROOT
ATOM      1  C   UNL d   1      -1.644  -2.206   2.112  0.00  0.00     0.124 A 
ATOM      2  C1  UNL d   1      -2.301  -1.583   1.059  0.00  0.00     0.062 A 
ATOM      3  C2  UNL d   1      -2.233  -0.201   0.912  0.00  0.00     0.162 A 
ATOM      4  C3  UNL d   1      -1.505   0.569   1.819  0.00  0.00    -0.034 A 
ATOM      5  C4  UNL d   1      -0.848  -0.065   2.876  0.00  0.00     0.162 A 
ATOM      6  C5  UNL d   1      -0.919  -1.447   3.019  0.00  0.00     0.062 A 
ATOM      7  F   UNL d   1      -0.285  -2.047   4.036  0.00  0.00    -0.097 F 
ATOM      8  F1  UNL d   1      -0.140   0.645   3.767  0.00  0.00    -0.096 F 
ATOM      9  I   UNL d   1      -1.401   2.636   1.603  0.00  0.00    -0.060 I 
ATOM     10  F2  UNL d   1      -2.877   0.375  -0.115  0.00  0.00    -0.096 F 
ATOM     11  F3  UNL d   1      -3.003  -2.315   0.182  0.00  0.00    -0.097 F 
ATOM     12  F4  UNL d   1      -1.712  -3.536   2.251  0.00  0.00    -0.092 F 
ENDROOT
TORSDOF 0
ENDMDL
