MODEL 1
REMARK minimizedAffinity 8.2476387
REMARK minimizedRMSD -1
REMARK  0 active torsions:
REMARK  status: ('A' for Active; 'I' for Inactive)
ROOT
ATOM      1  C   UNL d   1       1.734  -3.289   1.171  0.00  0.00     0.124 A 
ATOM      2  C1  UNL d   1       1.690  -2.025   0.598  0.00  0.00     0.062 A 
ATOM      3  C2  UNL d   1       0.698  -1.123   0.969  0.00  0.00     0.162 A 
ATOM      4  C3  UNL d   1      -0.259  -1.480   1.920  0.00  0.00    -0.034 A 
ATOM      5  C4  UNL d   1      -0.208  -2.753   2.491  0.00  0.00     0.162 A 
ATOM      6  C5  UNL d   1       0.785  -3.651   2.116  0.00  0.00     0.062 A 
ATOM      7  F   UNL d   1       0.826  -4.872   2.670  0.00  0.00    -0.097 F 
ATOM      8  F1  UNL d   1      -1.112  -3.129   3.407  0.00  0.00    -0.096 F 
ATOM      9  I   UNL d   1      -1.744  -0.133   2.478  0.00  0.00    -0.060 I 
ATOM     10  F2  UNL d   1       0.680   0.092   0.399  0.00  0.00    -0.096 F 
ATOM     11  F3  UNL d   1       2.605  -1.673  -0.317  0.00  0.00    -0.097 F 
ATOM     12  F4  UNL d   1       2.689  -4.156   0.811  0.00  0.00    -0.092 F 
ENDROOT
TORSDOF 0
ENDMDL
