MODEL 1
REMARK minimizedAffinity 4.18537903
REMARK minimizedRMSD -1
REMARK  0 active torsions:
REMARK  status: ('A' for Active; 'I' for Inactive)
ROOT
ATOM      1  C   UNL d   1       0.892  -1.493   2.082  0.00  0.00     0.124 A 
ATOM      2  C1  UNL d   1       1.173  -1.659   0.733  0.00  0.00     0.062 A 
ATOM      3  C2  UNL d   1       0.347  -1.087  -0.230  0.00  0.00     0.162 A 
ATOM      4  C3  UNL d   1      -0.768  -0.342   0.153  0.00  0.00    -0.034 A 
ATOM      5  C4  UNL d   1      -1.045  -0.179   1.511  0.00  0.00     0.162 A 
ATOM      6  C5  UNL d   1      -0.216  -0.754   2.470  0.00  0.00     0.062 A 
ATOM      7  F   UNL d   1      -0.489  -0.592   3.773  0.00  0.00    -0.097 F 
ATOM      8  F1  UNL d   1      -2.109   0.531   1.914  0.00  0.00    -0.096 F 
ATOM      9  I   UNL d   1      -2.006   0.516  -1.284  0.00  0.00    -0.060 I 
ATOM     10  F2  UNL d   1       0.643  -1.264  -1.526  0.00  0.00    -0.096 F 
ATOM     11  F3  UNL d   1       2.243  -2.374   0.355  0.00  0.00    -0.097 F 
ATOM     12  F4  UNL d   1       1.688  -2.046   3.006  0.00  0.00    -0.092 F 
ENDROOT
TORSDOF 0
ENDMDL
