MODEL 1
REMARK minimizedAffinity 15.5314188
REMARK minimizedRMSD -1
REMARK  0 active torsions:
REMARK  status: ('A' for Active; 'I' for Inactive)
ROOT
ATOM      1  C   UNL d   1      -2.394  -1.197  -3.771  0.00  0.00     0.124 A 
ATOM      2  C1  UNL d   1      -2.240  -0.419  -2.632  0.00  0.00     0.062 A 
ATOM      3  C2  UNL d   1      -2.696   0.896  -2.615  0.00  0.00     0.162 A 
ATOM      4  C3  UNL d   1      -3.312   1.441  -3.742  0.00  0.00    -0.034 A 
ATOM      5  C4  UNL d   1      -3.463   0.653  -4.884  0.00  0.00     0.162 A 
ATOM      6  C5  UNL d   1      -3.005  -0.661  -4.896  0.00  0.00     0.062 A 
ATOM      7  F   UNL d   1      -3.154  -1.411  -5.997  0.00  0.00    -0.097 F 
ATOM      8  F1  UNL d   1      -4.050   1.146  -5.984  0.00  0.00    -0.096 F 
ATOM      9  I   UNL d   1      -3.996   3.407  -3.721  0.00  0.00    -0.060 I 
ATOM     10  F2  UNL d   1      -2.534   1.624  -1.501  0.00  0.00    -0.096 F 
ATOM     11  F3  UNL d   1      -1.649  -0.935  -1.545  0.00  0.00    -0.097 F 
ATOM     12  F4  UNL d   1      -1.953  -2.462  -3.785  0.00  0.00    -0.092 F 
ENDROOT
TORSDOF 0
ENDMDL
