MODEL 1
REMARK minimizedAffinity 15.3511534
REMARK minimizedRMSD -1
REMARK  0 active torsions:
REMARK  status: ('A' for Active; 'I' for Inactive)
ROOT
ATOM      1  C   UNL d   1       3.629  -4.137  -0.330  0.00  0.00     0.124 A 
ATOM      2  C1  UNL d   1       4.504  -5.029   0.274  0.00  0.00     0.062 A 
ATOM      3  C2  UNL d   1       4.686  -5.005   1.654  0.00  0.00     0.162 A 
ATOM      4  C3  UNL d   1       3.991  -4.085   2.439  0.00  0.00    -0.034 A 
ATOM      5  C4  UNL d   1       3.113  -3.190   1.824  0.00  0.00     0.162 A 
ATOM      6  C5  UNL d   1       2.935  -3.218   0.445  0.00  0.00     0.062 A 
ATOM      7  F   UNL d   1       2.090  -2.355  -0.138  0.00  0.00    -0.097 F 
ATOM      8  F1  UNL d   1       2.429  -2.293   2.549  0.00  0.00    -0.096 F 
ATOM      9  I   UNL d   1       4.260  -4.045   4.503  0.00  0.00    -0.060 I 
ATOM     10  F2  UNL d   1       5.537  -5.878   2.211  0.00  0.00    -0.096 F 
ATOM     11  F3  UNL d   1       5.176  -5.916  -0.473  0.00  0.00    -0.097 F 
ATOM     12  F4  UNL d   1       3.457  -4.162  -1.658  0.00  0.00    -0.092 F 
ENDROOT
TORSDOF 0
ENDMDL
