MODEL 1
REMARK minimizedAffinity 18.7397232
REMARK minimizedRMSD -1
REMARK  0 active torsions:
REMARK  status: ('A' for Active; 'I' for Inactive)
ROOT
ATOM      1  C   UNL d   1      -0.033  -1.688   2.013  0.00  0.00     0.124 A 
ATOM      2  C1  UNL d   1       1.028  -1.076   1.361  0.00  0.00     0.062 A 
ATOM      3  C2  UNL d   1       2.046  -1.845   0.806  0.00  0.00     0.162 A 
ATOM      4  C3  UNL d   1       2.009  -3.236   0.901  0.00  0.00    -0.034 A 
ATOM      5  C4  UNL d   1       0.939  -3.845   1.560  0.00  0.00     0.162 A 
ATOM      6  C5  UNL d   1      -0.077  -3.072   2.112  0.00  0.00     0.062 A 
ATOM      7  F   UNL d   1      -1.101  -3.665   2.742  0.00  0.00    -0.097 F 
ATOM      8  F1  UNL d   1       0.872  -5.180   1.669  0.00  0.00    -0.096 F 
ATOM      9  I   UNL d   1       3.530  -4.390   0.073  0.00  0.00    -0.060 I 
ATOM     10  F2  UNL d   1       3.059  -1.226   0.181  0.00  0.00    -0.096 F 
ATOM     11  F3  UNL d   1       1.072   0.261   1.265  0.00  0.00    -0.097 F 
ATOM     12  F4  UNL d   1      -1.012  -0.946   2.547  0.00  0.00    -0.092 F 
ENDROOT
TORSDOF 0
ENDMDL
