MODEL 1
REMARK minimizedAffinity -0.677918255
REMARK minimizedRMSD -1
REMARK  2 active torsions:
REMARK  status: ('A' for Active; 'I' for Inactive)
REMARK    1  A    between atoms: C2'_3  and  C1'_4 
REMARK    2  A    between atoms: C1'_4  and  C1_5 
ROOT
ATOM      1  C1  I4B d   1       3.451   3.351   1.611  0.00  0.00    -0.075 A 
ATOM      2  C2  I4B d   1       4.657   3.795   2.091  0.00  0.00     0.003 A 
ATOM      3  C3  I4B d   1       4.931   3.752   3.479  0.00  0.00     0.002 A 
ATOM      4  C4  I4B d   1       3.958   3.306   4.351  0.00  0.00    -0.004 A 
ATOM      5  C5  I4B d   1       2.744   2.834   3.860  0.00  0.00     0.002 A 
ATOM      6  C6  I4B d   1       2.493   2.845   2.480  0.00  0.00     0.003 A 
ENDROOT
BRANCH   1   7
ATOM      7  C1' I4B d   1       3.182   3.442   0.142  0.00  0.00     0.060 C 
BRANCH   7   8
ATOM      8  C2' I4B d   1       4.510   3.612  -0.566  0.00  0.00    -0.013 C 
ATOM      9  C4' I4B d   1       4.646   2.642  -1.711  0.00  0.00     0.013 C 
ATOM     10  C3' I4B d   1       4.603   5.030  -1.044  0.00  0.00     0.013 C 
ENDBRANCH   7   8
ENDBRANCH   1   7
TORSDOF 2
ENDMDL
