MODEL 1
REMARK minimizedAffinity -4.1045475
REMARK minimizedRMSD -1
REMARK  2 active torsions:
REMARK  status: ('A' for Active; 'I' for Inactive)
REMARK    1  A    between atoms: C2'_3  and  C1'_4 
REMARK    2  A    between atoms: C1'_4  and  C1_5 
ROOT
ATOM      1  C1  I4B d   1       1.013   0.267   0.673  0.00  0.00    -0.075 A 
ATOM      2  C2  I4B d   1       0.034   0.650  -0.210  0.00  0.00     0.003 A 
ATOM      3  C3  I4B d   1      -1.085  -0.186  -0.440  0.00  0.00     0.002 A 
ATOM      4  C4  I4B d   1      -1.161  -1.410   0.192  0.00  0.00    -0.004 A 
ATOM      5  C5  I4B d   1      -0.179  -1.787   1.104  0.00  0.00     0.002 A 
ATOM      6  C6  I4B d   1       0.908  -0.938   1.356  0.00  0.00     0.003 A 
ENDROOT
BRANCH   1   7
ATOM      7  C1' I4B d   1       2.197   1.159   0.868  0.00  0.00     0.060 C 
BRANCH   7   8
ATOM      8  C2' I4B d   1       1.778   2.302   1.770  0.00  0.00    -0.013 C 
ATOM      9  C4' I4B d   1       2.046   1.980   3.217  0.00  0.00     0.013 C 
ATOM     10  C3' I4B d   1       2.526   3.529   1.341  0.00  0.00     0.013 C 
ENDBRANCH   7   8
ENDBRANCH   1   7
TORSDOF 2
ENDMDL
