MODEL 1
REMARK minimizedAffinity -6.47435951
REMARK minimizedRMSD -1
REMARK  2 active torsions:
REMARK  status: ('A' for Active; 'I' for Inactive)
REMARK    1  A    between atoms: C2'_3  and  C1'_4 
REMARK    2  A    between atoms: C1'_4  and  C1_5 
ROOT
ATOM      1  C1  I4B d   1       0.184  -0.034   0.549  0.00  0.00    -0.075 A 
ATOM      2  C2  I4B d   1      -0.288   0.621  -0.561  0.00  0.00     0.003 A 
ATOM      3  C3  I4B d   1      -1.499   0.209  -1.170  0.00  0.00     0.002 A 
ATOM      4  C4  I4B d   1      -2.174  -0.885  -0.668  0.00  0.00    -0.004 A 
ATOM      5  C5  I4B d   1      -1.705  -1.533   0.471  0.00  0.00     0.002 A 
ATOM      6  C6  I4B d   1      -0.525  -1.097   1.091  0.00  0.00     0.003 A 
ENDROOT
BRANCH   1   7
ATOM      7  C1' I4B d   1       1.483   0.407   1.146  0.00  0.00     0.060 C 
BRANCH   7   8
ATOM      8  C2' I4B d   1       1.790   1.796   0.625  0.00  0.00    -0.013 C 
ATOM      9  C4' I4B d   1       1.768   2.812   1.736  0.00  0.00     0.013 C 
ATOM     10  C3' I4B d   1       3.132   1.753  -0.044  0.00  0.00     0.013 C 
ENDBRANCH   7   8
ENDBRANCH   1   7
TORSDOF 2
ENDMDL
