MODEL 1
REMARK minimizedAffinity 4.89157772
REMARK minimizedRMSD -1
REMARK  2 active torsions:
REMARK  status: ('A' for Active; 'I' for Inactive)
REMARK    1  A    between atoms: C2'_3  and  C1'_4 
REMARK    2  A    between atoms: C1'_4  and  C1_5 
ROOT
ATOM      1  C1  I4B d   1       0.713  -1.033   1.555  0.00  0.00    -0.075 A 
ATOM      2  C2  I4B d   1       0.090  -1.990   2.317  0.00  0.00     0.003 A 
ATOM      3  C3  I4B d   1      -1.065  -2.648   1.828  0.00  0.00     0.002 A 
ATOM      4  C4  I4B d   1      -1.588  -2.285   0.604  0.00  0.00    -0.004 A 
ATOM      5  C5  I4B d   1      -0.942  -1.330  -0.176  0.00  0.00     0.002 A 
ATOM      6  C6  I4B d   1       0.223  -0.709   0.297  0.00  0.00     0.003 A 
ENDROOT
BRANCH   1   7
ATOM      7  C1' I4B d   1       1.911  -0.334   2.116  0.00  0.00     0.060 C 
BRANCH   7   8
ATOM      8  C2' I4B d   1       1.571   1.136   2.258  0.00  0.00    -0.013 C 
ATOM      9  C4' I4B d   1       0.924   1.419   3.588  0.00  0.00     0.013 C 
ATOM     10  C3' I4B d   1       2.836   1.922   2.092  0.00  0.00     0.013 C 
ENDBRANCH   7   8
ENDBRANCH   1   7
TORSDOF 2
ENDMDL
