MODEL 1
REMARK minimizedAffinity 9.02003479
REMARK minimizedRMSD -1
REMARK  2 active torsions:
REMARK  status: ('A' for Active; 'I' for Inactive)
REMARK    1  A    between atoms: C2'_3  and  C1'_4 
REMARK    2  A    between atoms: C1'_4  and  C1_5 
ROOT
ATOM      1  C1  I4B d   1      -1.115  -1.294   3.068  0.00  0.00    -0.075 A 
ATOM      2  C2  I4B d   1      -2.202  -1.878   3.669  0.00  0.00     0.003 A 
ATOM      3  C3  I4B d   1      -3.151  -1.080   4.354  0.00  0.00     0.002 A 
ATOM      4  C4  I4B d   1      -2.948   0.281   4.455  0.00  0.00    -0.004 A 
ATOM      5  C5  I4B d   1      -1.858   0.873   3.825  0.00  0.00     0.002 A 
ATOM      6  C6  I4B d   1      -0.941   0.083   3.116  0.00  0.00     0.003 A 
ENDROOT
BRANCH   1   7
ATOM      7  C1' I4B d   1      -0.115  -2.170   2.381  0.00  0.00     0.060 C 
BRANCH   7   8
ATOM      8  C2' I4B d   1       1.214  -1.443   2.373  0.00  0.00    -0.013 C 
ATOM      9  C4' I4B d   1       2.139  -1.986   3.430  0.00  0.00     0.013 C 
ATOM     10  C3' I4B d   1       1.812  -1.586   1.005  0.00  0.00     0.013 C 
ENDBRANCH   7   8
ENDBRANCH   1   7
TORSDOF 2
ENDMDL
