MODEL 1
REMARK minimizedAffinity 13.3435507
REMARK minimizedRMSD -1
REMARK  2 active torsions:
REMARK  status: ('A' for Active; 'I' for Inactive)
REMARK    1  A    between atoms: C2'_3  and  C1'_4 
REMARK    2  A    between atoms: C1'_4  and  C1_5 
ROOT
ATOM      1  C1  I4B d   1      -2.415   0.636  -1.659  0.00  0.00    -0.075 A 
ATOM      2  C2  I4B d   1      -3.476   0.211  -0.898  0.00  0.00     0.003 A 
ATOM      3  C3  I4B d   1      -3.557  -1.139  -0.479  0.00  0.00     0.002 A 
ATOM      4  C4  I4B d   1      -2.588  -2.035  -0.882  0.00  0.00    -0.004 A 
ATOM      5  C5  I4B d   1      -1.502  -1.597  -1.634  0.00  0.00     0.002 A 
ATOM      6  C6  I4B d   1      -1.408  -0.251  -2.015  0.00  0.00     0.003 A 
ENDROOT
BRANCH   1   7
ATOM      7  C1' I4B d   1      -2.379   2.061  -2.111  0.00  0.00     0.060 C 
BRANCH   7   8
ATOM      8  C2' I4B d   1      -2.247   2.068  -3.621  0.00  0.00    -0.013 C 
ATOM      9  C4' I4B d   1      -3.337   2.889  -4.259  0.00  0.00     0.013 C 
ATOM     10  C3' I4B d   1      -0.891   2.607  -3.965  0.00  0.00     0.013 C 
ENDBRANCH   7   8
ENDBRANCH   1   7
TORSDOF 2
ENDMDL
