MODEL 1
REMARK minimizedAffinity -6.72371292
REMARK minimizedRMSD -1
REMARK  2 active torsions:
REMARK  status: ('A' for Active; 'I' for Inactive)
REMARK    1  A    between atoms: C2'_3  and  C1'_4 
REMARK    2  A    between atoms: C1'_4  and  C1_5 
ROOT
ATOM      1  C1  I4B d   1       0.352   0.287   0.232  0.00  0.00    -0.075 A 
ATOM      2  C2  I4B d   1      -0.289  -0.394   1.236  0.00  0.00     0.003 A 
ATOM      3  C3  I4B d   1      -1.581  -0.931   1.021  0.00  0.00     0.002 A 
ATOM      4  C4  I4B d   1      -2.212  -0.721  -0.189  0.00  0.00    -0.004 A 
ATOM      5  C5  I4B d   1      -1.551  -0.050  -1.214  0.00  0.00     0.002 A 
ATOM      6  C6  I4B d   1      -0.256   0.447  -1.007  0.00  0.00     0.003 A 
ENDROOT
BRANCH   1   7
ATOM      7  C1' I4B d   1       1.703   0.870   0.504  0.00  0.00     0.060 C 
BRANCH   7   8
ATOM      8  C2' I4B d   1       1.567   1.843   1.657  0.00  0.00    -0.013 C 
ATOM      9  C4' I4B d   1       2.494   1.481   2.788  0.00  0.00     0.013 C 
ATOM     10  C3' I4B d   1       1.858   3.219   1.138  0.00  0.00     0.013 C 
ENDBRANCH   7   8
ENDBRANCH   1   7
TORSDOF 2
ENDMDL
