MODEL 1
REMARK minimizedAffinity -1.33213806
REMARK minimizedRMSD -1
REMARK  2 active torsions:
REMARK  status: ('A' for Active; 'I' for Inactive)
REMARK    1  A    between atoms: C2'_3  and  C1'_4 
REMARK    2  A    between atoms: C1'_4  and  C1_5 
ROOT
ATOM      1  C1  I4B d   1      -1.236  -1.595   0.820  0.00  0.00    -0.075 A 
ATOM      2  C2  I4B d   1      -0.682  -1.355  -0.413  0.00  0.00     0.003 A 
ATOM      3  C3  I4B d   1      -0.013  -0.133  -0.668  0.00  0.00     0.002 A 
ATOM      4  C4  I4B d   1       0.034   0.834   0.315  0.00  0.00    -0.004 A 
ATOM      5  C5  I4B d   1      -0.508   0.580   1.572  0.00  0.00     0.002 A 
ATOM      6  C6  I4B d   1      -1.136  -0.647   1.830  0.00  0.00     0.003 A 
ENDROOT
BRANCH   1   7
ATOM      7  C1' I4B d   1      -1.963  -2.883   1.045  0.00  0.00     0.060 C 
BRANCH   7   8
ATOM      8  C2' I4B d   1      -2.816  -3.157  -0.177  0.00  0.00    -0.013 C 
ATOM      9  C4' I4B d   1      -2.702  -4.595  -0.610  0.00  0.00     0.013 C 
ATOM     10  C3' I4B d   1      -4.234  -2.803   0.159  0.00  0.00     0.013 C 
ENDBRANCH   7   8
ENDBRANCH   1   7
TORSDOF 2
ENDMDL
