MODEL 1
REMARK minimizedAffinity 0.602420986
REMARK minimizedRMSD -1
REMARK  2 active torsions:
REMARK  status: ('A' for Active; 'I' for Inactive)
REMARK    1  A    between atoms: C2'_3  and  C1'_4 
REMARK    2  A    between atoms: C1'_4  and  C1_5 
ROOT
ATOM      1  C1  I4B d   1      -1.407  -0.709  -2.803  0.00  0.00    -0.075 A 
ATOM      2  C2  I4B d   1      -1.363  -0.486  -1.449  0.00  0.00     0.003 A 
ATOM      3  C3  I4B d   1      -0.162  -0.055  -0.835  0.00  0.00     0.002 A 
ATOM      4  C4  I4B d   1       0.977   0.092  -1.600  0.00  0.00    -0.004 A 
ATOM      5  C5  I4B d   1       0.925  -0.111  -2.976  0.00  0.00     0.002 A 
ATOM      6  C6  I4B d   1      -0.277  -0.502  -3.584  0.00  0.00     0.003 A 
ENDROOT
BRANCH   1   7
ATOM      7  C1' I4B d   1      -2.683  -1.196  -3.412  0.00  0.00     0.060 C 
BRANCH   7   8
ATOM      8  C2' I4B d   1      -2.380  -2.471  -4.173  0.00  0.00    -0.013 C 
ATOM      9  C4' I4B d   1      -2.893  -3.680  -3.435  0.00  0.00     0.013 C 
ATOM     10  C3' I4B d   1      -3.005  -2.359  -5.531  0.00  0.00     0.013 C 
ENDBRANCH   7   8
ENDBRANCH   1   7
TORSDOF 2
ENDMDL
