MODEL 1
REMARK minimizedAffinity 4.37029934
REMARK minimizedRMSD -1
REMARK  2 active torsions:
REMARK  status: ('A' for Active; 'I' for Inactive)
REMARK    1  A    between atoms: C2'_3  and  C1'_4 
REMARK    2  A    between atoms: C1'_4  and  C1_5 
ROOT
ATOM      1  C1  I4B d   1      -1.764  -0.327   1.860  0.00  0.00    -0.075 A 
ATOM      2  C2  I4B d   1      -2.750   0.553   1.488  0.00  0.00     0.003 A 
ATOM      3  C3  I4B d   1      -2.952   0.863   0.121  0.00  0.00     0.002 A 
ATOM      4  C4  I4B d   1      -2.118   0.311  -0.830  0.00  0.00    -0.004 A 
ATOM      5  C5  I4B d   1      -1.135  -0.599  -0.454  0.00  0.00     0.002 A 
ATOM      6  C6  I4B d   1      -0.964  -0.930   0.898  0.00  0.00     0.003 A 
ENDROOT
BRANCH   1   7
ATOM      7  C1' I4B d   1      -1.557  -0.606   3.315  0.00  0.00     0.060 C 
BRANCH   7   8
ATOM      8  C2' I4B d   1      -2.920  -0.704   3.970  0.00  0.00    -0.013 C 
ATOM      9  C4' I4B d   1      -3.194  -2.104   4.452  0.00  0.00     0.013 C 
ATOM     10  C3' I4B d   1      -2.961   0.277   5.103  0.00  0.00     0.013 C 
ENDBRANCH   7   8
ENDBRANCH   1   7
TORSDOF 2
ENDMDL
