MODEL 1
REMARK minimizedAffinity 7.98740005
REMARK minimizedRMSD -1
REMARK  2 active torsions:
REMARK  status: ('A' for Active; 'I' for Inactive)
REMARK    1  A    between atoms: C2'_3  and  C1'_4 
REMARK    2  A    between atoms: C1'_4  and  C1_5 
ROOT
ATOM      1  C1  I4B d   1      -0.934  -0.612  -0.508  0.00  0.00    -0.075 A 
ATOM      2  C2  I4B d   1      -1.711  -0.496  -1.633  0.00  0.00     0.003 A 
ATOM      3  C3  I4B d   1      -1.153  -0.004  -2.838  0.00  0.00     0.002 A 
ATOM      4  C4  I4B d   1       0.164   0.405  -2.859  0.00  0.00    -0.004 A 
ATOM      5  C5  I4B d   1       0.958   0.265  -1.724  0.00  0.00     0.002 A 
ATOM      6  C6  I4B d   1       0.409  -0.258  -0.544  0.00  0.00     0.003 A 
ENDROOT
BRANCH   1   7
ATOM      7  C1' I4B d   1      -1.564  -1.105   0.756  0.00  0.00     0.060 C 
BRANCH   7   8
ATOM      8  C2' I4B d   1      -1.820   0.093   1.648  0.00  0.00    -0.013 C 
ATOM      9  C4' I4B d   1      -2.259  -0.335   3.023  0.00  0.00     0.013 C 
ATOM     10  C3' I4B d   1      -0.559   0.902   1.709  0.00  0.00     0.013 C 
ENDBRANCH   7   8
ENDBRANCH   1   7
TORSDOF 2
ENDMDL
