MODEL 1
REMARK minimizedAffinity 6.65616846
REMARK minimizedRMSD -1
REMARK  2 active torsions:
REMARK  status: ('A' for Active; 'I' for Inactive)
REMARK    1  A    between atoms: C2'_3  and  C1'_4 
REMARK    2  A    between atoms: C1'_4  and  C1_5 
ROOT
ATOM      1  C1  I4B d   1      -4.912   5.961   1.345  0.00  0.00    -0.075 A 
ATOM      2  C2  I4B d   1      -5.978   5.975   2.210  0.00  0.00     0.003 A 
ATOM      3  C3  I4B d   1      -5.759   5.985   3.609  0.00  0.00     0.002 A 
ATOM      4  C4  I4B d   1      -4.470   5.929   4.096  0.00  0.00    -0.004 A 
ATOM      5  C5  I4B d   1      -3.390   5.938   3.218  0.00  0.00     0.002 A 
ATOM      6  C6  I4B d   1      -3.612   5.967   1.833  0.00  0.00     0.003 A 
ENDROOT
BRANCH   1   7
ATOM      7  C1' I4B d   1      -5.179   5.918  -0.126  0.00  0.00     0.060 C 
BRANCH   7   8
ATOM      8  C2' I4B d   1      -4.409   4.750  -0.706  0.00  0.00    -0.013 C 
ATOM      9  C4' I4B d   1      -4.887   3.442  -0.131  0.00  0.00     0.013 C 
ATOM     10  C3' I4B d   1      -4.576   4.779  -2.196  0.00  0.00     0.013 C 
ENDBRANCH   7   8
ENDBRANCH   1   7
TORSDOF 2
ENDMDL
