MODEL 1
REMARK minimizedAffinity -0.145211801
REMARK minimizedRMSD -1
REMARK  2 active torsions:
REMARK  status: ('A' for Active; 'I' for Inactive)
REMARK    1  A    between atoms: C2'_3  and  C1'_4 
REMARK    2  A    between atoms: C1'_4  and  C1_5 
ROOT
ATOM      1  C1  I4B d   1      -5.582   5.099   2.294  0.00  0.00    -0.075 A 
ATOM      2  C2  I4B d   1      -5.830   3.758   2.135  0.00  0.00     0.003 A 
ATOM      3  C3  I4B d   1      -5.487   3.108   0.925  0.00  0.00     0.002 A 
ATOM      4  C4  I4B d   1      -4.947   3.842  -0.111  0.00  0.00    -0.004 A 
ATOM      5  C5  I4B d   1      -4.675   5.196   0.059  0.00  0.00     0.002 A 
ATOM      6  C6  I4B d   1      -4.983   5.826   1.273  0.00  0.00     0.003 A 
ENDROOT
BRANCH   1   7
ATOM      7  C1' I4B d   1      -5.987   5.761   3.572  0.00  0.00     0.060 C 
BRANCH   7   8
ATOM      8  C2' I4B d   1      -5.972   4.712   4.666  0.00  0.00    -0.013 C 
ATOM      9  C4' I4B d   1      -4.762   3.823   4.551  0.00  0.00     0.013 C 
ATOM     10  C3' I4B d   1      -5.999   5.421   5.987  0.00  0.00     0.013 C 
ENDBRANCH   7   8
ENDBRANCH   1   7
TORSDOF 2
ENDMDL
