MODEL 1
REMARK minimizedAffinity -3.66849422
REMARK minimizedRMSD -1
REMARK  2 active torsions:
REMARK  status: ('A' for Active; 'I' for Inactive)
REMARK    1  A    between atoms: C2'_3  and  C1'_4 
REMARK    2  A    between atoms: C1'_4  and  C1_5 
ROOT
ATOM      1  C1  I4B d   1       0.230  -0.286   0.125  0.00  0.00    -0.075 A 
ATOM      2  C2  I4B d   1      -0.524  -1.123   0.910  0.00  0.00     0.003 A 
ATOM      3  C3  I4B d   1      -1.821  -1.513   0.496  0.00  0.00     0.002 A 
ATOM      4  C4  I4B d   1      -2.341  -1.005  -0.678  0.00  0.00    -0.004 A 
ATOM      5  C5  I4B d   1      -1.566  -0.175  -1.483  0.00  0.00     0.002 A 
ATOM      6  C6  I4B d   1      -0.268   0.177  -1.086  0.00  0.00     0.003 A 
ENDROOT
BRANCH   1   7
ATOM      7  C1' I4B d   1       1.582   0.132   0.609  0.00  0.00     0.060 C 
BRANCH   7   8
ATOM      8  C2' I4B d   1       1.562   1.633   0.812  0.00  0.00    -0.013 C 
ATOM      9  C4' I4B d   1       1.704   1.988   2.268  0.00  0.00     0.013 C 
ATOM     10  C3' I4B d   1       2.675   2.225  -0.001  0.00  0.00     0.013 C 
ENDBRANCH   7   8
ENDBRANCH   1   7
TORSDOF 2
ENDMDL
