MODEL 1
REMARK minimizedAffinity -5.97599077
REMARK minimizedRMSD -1
REMARK  2 active torsions:
REMARK  status: ('A' for Active; 'I' for Inactive)
REMARK    1  A    between atoms: C2'_3  and  C1'_4 
REMARK    2  A    between atoms: C1'_4  and  C1_5 
ROOT
ATOM      1  C1  I4B d   1       1.699   0.776   0.870  0.00  0.00    -0.075 A 
ATOM      2  C2  I4B d   1       2.336   1.709   0.091  0.00  0.00     0.003 A 
ATOM      3  C3  I4B d   1       2.913   2.858   0.684  0.00  0.00     0.002 A 
ATOM      4  C4  I4B d   1       2.788   3.057   2.043  0.00  0.00    -0.004 A 
ATOM      5  C5  I4B d   1       2.163   2.098   2.835  0.00  0.00     0.002 A 
ATOM      6  C6  I4B d   1       1.625   0.944   2.247  0.00  0.00     0.003 A 
ENDROOT
BRANCH   1   7
ATOM      7  C1' I4B d   1       1.072  -0.409   0.208  0.00  0.00     0.060 C 
BRANCH   7   8
ATOM      8  C2' I4B d   1      -0.333  -0.561   0.755  0.00  0.00    -0.013 C 
ATOM      9  C4' I4B d   1      -1.347  -0.626  -0.357  0.00  0.00     0.013 C 
ATOM     10  C3' I4B d   1      -0.371  -1.801   1.596  0.00  0.00     0.013 C 
ENDBRANCH   7   8
ENDBRANCH   1   7
TORSDOF 2
ENDMDL
