MODEL 1
REMARK minimizedAffinity -2.59303808
REMARK minimizedRMSD -1
REMARK  0 active torsions:
REMARK  status: ('A' for Active; 'I' for Inactive)
ROOT
ATOM      1  C2' OXE d   1       5.893  -1.899  -4.206  0.00  0.00     0.078 C 
ATOM      2  C1' OXE d   1       3.740  -2.086  -5.998  0.00  0.00     0.078 C 
ATOM      3  C1  OXE d   1       4.351  -3.370  -5.495  0.00  0.00    -0.078 A 
ATOM      4  C2  OXE d   1       5.433  -3.269  -4.655  0.00  0.00    -0.078 A 
ATOM      5  C3  OXE d   1       6.000  -4.422  -4.118  0.00  0.00     0.003 A 
ATOM      6  C4  OXE d   1       5.575  -5.686  -4.546  0.00  0.00    -0.002 A 
ATOM      7  C5  OXE d   1       4.499  -5.811  -5.432  0.00  0.00    -0.002 A 
ATOM      8  C6  OXE d   1       3.850  -4.666  -5.881  0.00  0.00     0.003 A 
ENDROOT
TORSDOF 0
ENDMDL
