MODEL 1
REMARK minimizedAffinity -2.4813478
REMARK minimizedRMSD -1
REMARK  0 active torsions:
REMARK  status: ('A' for Active; 'I' for Inactive)
ROOT
ATOM      1  C2' OXE d   1       4.154  -5.316  -3.601  0.00  0.00     0.078 C 
ATOM      2  C1' OXE d   1       5.984  -5.543  -5.717  0.00  0.00     0.078 C 
ATOM      3  C1  OXE d   1       5.518  -4.160  -5.336  0.00  0.00    -0.078 A 
ATOM      4  C2  OXE d   1       4.587  -4.062  -4.330  0.00  0.00    -0.078 A 
ATOM      5  C3  OXE d   1       4.164  -2.807  -3.902  0.00  0.00     0.003 A 
ATOM      6  C4  OXE d   1       4.561  -1.653  -4.588  0.00  0.00    -0.002 A 
ATOM      7  C5  OXE d   1       5.478  -1.734  -5.641  0.00  0.00    -0.002 A 
ATOM      8  C6  OXE d   1       5.998  -2.973  -5.999  0.00  0.00     0.003 A 
ENDROOT
TORSDOF 0
ENDMDL
