MODEL 1
REMARK minimizedAffinity -2.41135359
REMARK minimizedRMSD -1
REMARK  0 active torsions:
REMARK  status: ('A' for Active; 'I' for Inactive)
ROOT
ATOM      1  C2' OXE d   1       5.973  -4.161  -4.814  0.00  0.00     0.078 C 
ATOM      2  C1' OXE d   1       3.321  -3.753  -3.987  0.00  0.00     0.078 C 
ATOM      3  C1  OXE d   1       4.015  -2.624  -4.706  0.00  0.00    -0.078 A 
ATOM      4  C2  OXE d   1       5.327  -2.815  -5.065  0.00  0.00    -0.078 A 
ATOM      5  C3  OXE d   1       5.998  -1.826  -5.779  0.00  0.00     0.003 A 
ATOM      6  C4  OXE d   1       5.397  -0.580  -5.999  0.00  0.00    -0.002 A 
ATOM      7  C5  OXE d   1       4.074  -0.350  -5.606  0.00  0.00    -0.002 A 
ATOM      8  C6  OXE d   1       3.357  -1.374  -4.997  0.00  0.00     0.003 A 
ENDROOT
TORSDOF 0
ENDMDL
