MODEL 1
REMARK minimizedAffinity -1.71010137
REMARK minimizedRMSD -1
REMARK  0 active torsions:
REMARK  status: ('A' for Active; 'I' for Inactive)
ROOT
ATOM      1  C2' OXE d   1       5.994  -2.344  -3.527  0.00  0.00     0.078 C 
ATOM      2  C1' OXE d   1       3.557  -2.151  -4.906  0.00  0.00     0.078 C 
ATOM      3  C1  OXE d   1       4.186  -3.516  -4.775  0.00  0.00    -0.078 A 
ATOM      4  C2  OXE d   1       5.401  -3.594  -4.140  0.00  0.00    -0.078 A 
ATOM      5  C3  OXE d   1       5.999  -4.836  -3.944  0.00  0.00     0.003 A 
ATOM      6  C4  OXE d   1       5.449  -5.986  -4.523  0.00  0.00    -0.002 A 
ATOM      7  C5  OXE d   1       4.231  -5.923  -5.209  0.00  0.00    -0.002 A 
ATOM      8  C6  OXE d   1       3.567  -4.705  -5.307  0.00  0.00     0.003 A 
ENDROOT
TORSDOF 0
ENDMDL
