MODEL 1
REMARK minimizedAffinity -1.64275944
REMARK minimizedRMSD -1
REMARK  0 active torsions:
REMARK  status: ('A' for Active; 'I' for Inactive)
ROOT
ATOM      1  C2' OXE d   1       3.379  -2.259  -4.489  0.00  0.00     0.078 C 
ATOM      2  C1' OXE d   1       6.000  -2.211  -5.494  0.00  0.00     0.078 C 
ATOM      3  C1  OXE d   1       5.341  -3.555  -5.309  0.00  0.00    -0.078 A 
ATOM      4  C2  OXE d   1       4.076  -3.572  -4.773  0.00  0.00    -0.078 A 
ATOM      5  C3  OXE d   1       3.402  -4.781  -4.632  0.00  0.00     0.003 A 
ATOM      6  C4  OXE d   1       4.058  -5.992  -4.888  0.00  0.00    -0.002 A 
ATOM      7  C5  OXE d   1       5.361  -6.000  -5.397  0.00  0.00    -0.002 A 
ATOM      8  C6  OXE d   1       6.000  -4.791  -5.653  0.00  0.00     0.003 A 
ENDROOT
TORSDOF 0
ENDMDL
