MODEL 1
REMARK minimizedAffinity -3.12965369
REMARK minimizedRMSD -1
REMARK  0 active torsions:
REMARK  status: ('A' for Active; 'I' for Inactive)
ROOT
ATOM      1  C2' OXE d   1       5.824  -6.000  -3.602  0.00  0.00     0.078 C 
ATOM      2  C1' OXE d   1       4.285  -5.914  -5.949  0.00  0.00     0.078 C 
ATOM      3  C1  OXE d   1       4.765  -4.605  -5.374  0.00  0.00    -0.078 A 
ATOM      4  C2  OXE d   1       5.478  -4.653  -4.200  0.00  0.00    -0.078 A 
ATOM      5  C3  OXE d   1       5.991  -3.479  -3.656  0.00  0.00     0.003 A 
ATOM      6  C4  OXE d   1       5.658  -2.237  -4.209  0.00  0.00    -0.002 A 
ATOM      7  C5  OXE d   1       4.900  -2.163  -5.383  0.00  0.00    -0.002 A 
ATOM      8  C6  OXE d   1       4.483  -3.337  -6.000  0.00  0.00     0.003 A 
ENDROOT
TORSDOF 0
ENDMDL
