MODEL 1
REMARK minimizedAffinity 11.7887964
REMARK minimizedRMSD -1
REMARK  0 active torsions:
REMARK  status: ('A' for Active; 'I' for Inactive)
ROOT
ATOM      1  C   UNL d   1      -0.779   2.323   2.441  0.00  0.00     0.077 C 
ATOM      2  C1  UNL d   1      -2.187   1.940   2.786  0.00  0.00    -0.074 A 
ATOM      3  C2  UNL d   1      -2.678   0.665   2.489  0.00  0.00    -0.005 A 
ATOM      4  C3  UNL d   1      -3.987   0.319   2.825  0.00  0.00     0.006 A 
ATOM      5  C4  UNL d   1      -4.817   1.244   3.461  0.00  0.00    -0.005 A 
ATOM      6  C5  UNL d   1      -4.342   2.524   3.767  0.00  0.00    -0.074 A 
ATOM      7  C6  UNL d   1      -5.217   3.526   4.459  0.00  0.00     0.077 C 
ATOM      8  C7  UNL d   1      -3.024   2.861   3.432  0.00  0.00    -0.001 A 
ENDROOT
TORSDOF 0
ENDMDL
