MODEL 1
REMARK minimizedAffinity -4.00924635
REMARK minimizedRMSD -1
REMARK  0 active torsions:
REMARK  status: ('A' for Active; 'I' for Inactive)
ROOT
ATOM      1  C   UNL d   1       3.362  -3.935  -3.754  0.00  0.00     0.077 C 
ATOM      2  C1  UNL d   1       3.401  -4.139  -2.269  0.00  0.00    -0.074 A 
ATOM      3  C2  UNL d   1       2.235  -4.426  -1.552  0.00  0.00    -0.005 A 
ATOM      4  C3  UNL d   1       2.288  -4.622  -0.172  0.00  0.00     0.006 A 
ATOM      5  C4  UNL d   1       3.505  -4.534   0.504  0.00  0.00    -0.005 A 
ATOM      6  C5  UNL d   1       4.682  -4.249  -0.196  0.00  0.00    -0.074 A 
ATOM      7  C6  UNL d   1       6.000  -4.161   0.514  0.00  0.00     0.077 C 
ATOM      8  C7  UNL d   1       4.621  -4.060  -1.584  0.00  0.00    -0.001 A 
ENDROOT
TORSDOF 0
ENDMDL
