MODEL 1
REMARK minimizedAffinity 14.5958662
REMARK minimizedRMSD -1
REMARK  0 active torsions:
REMARK  status: ('A' for Active; 'I' for Inactive)
ROOT
ATOM      1  C   UNL d   1       0.918  -0.709  -1.453  0.00  0.00     0.077 C 
ATOM      2  C1  UNL d   1       1.461   0.034  -0.268  0.00  0.00    -0.074 A 
ATOM      3  C2  UNL d   1       2.788   0.472  -0.241  0.00  0.00    -0.005 A 
ATOM      4  C3  UNL d   1       3.276   1.170   0.863  0.00  0.00     0.006 A 
ATOM      5  C4  UNL d   1       2.442   1.437   1.950  0.00  0.00    -0.005 A 
ATOM      6  C5  UNL d   1       1.112   1.007   1.941  0.00  0.00    -0.074 A 
ATOM      7  C6  UNL d   1       0.200   1.294   3.096  0.00  0.00     0.077 C 
ATOM      8  C7  UNL d   1       0.627   0.312   0.824  0.00  0.00    -0.001 A 
ENDROOT
TORSDOF 0
ENDMDL
