MODEL 1
REMARK minimizedAffinity -0.458218396
REMARK minimizedRMSD -1
REMARK  0 active torsions:
REMARK  status: ('A' for Active; 'I' for Inactive)
ROOT
ATOM      1  C   UNL d   1      -0.741   5.976   0.336  0.00  0.00     0.077 C 
ATOM      2  C1  UNL d   1       0.442   5.275  -0.264  0.00  0.00    -0.074 A 
ATOM      3  C2  UNL d   1       1.539   5.997  -0.742  0.00  0.00    -0.005 A 
ATOM      4  C3  UNL d   1       2.636   5.331  -1.288  0.00  0.00     0.006 A 
ATOM      5  C4  UNL d   1       2.647   3.938  -1.361  0.00  0.00    -0.005 A 
ATOM      6  C5  UNL d   1       1.559   3.198  -0.887  0.00  0.00    -0.074 A 
ATOM      7  C6  UNL d   1       1.558   1.699  -0.949  0.00  0.00     0.077 C 
ATOM      8  C7  UNL d   1       0.463   3.875  -0.333  0.00  0.00    -0.001 A 
ENDROOT
TORSDOF 0
ENDMDL
