MODEL 1
REMARK minimizedAffinity 2.31616569
REMARK minimizedRMSD -1
REMARK  0 active torsions:
REMARK  status: ('A' for Active; 'I' for Inactive)
ROOT
ATOM      1  C   UNL d   1       1.878   1.221  -1.872  0.00  0.00     0.077 C 
ATOM      2  C1  UNL d   1       1.235   2.443  -1.285  0.00  0.00    -0.074 A 
ATOM      3  C2  UNL d   1      -0.108   2.432  -0.897  0.00  0.00    -0.005 A 
ATOM      4  C3  UNL d   1      -0.690   3.572  -0.344  0.00  0.00     0.006 A 
ATOM      5  C4  UNL d   1       0.065   4.733  -0.173  0.00  0.00    -0.005 A 
ATOM      6  C5  UNL d   1       1.410   4.763  -0.554  0.00  0.00    -0.074 A 
ATOM      7  C6  UNL d   1       2.238   5.999  -0.368  0.00  0.00     0.077 C 
ATOM      8  C7  UNL d   1       1.989   3.610  -1.103  0.00  0.00    -0.001 A 
ENDROOT
TORSDOF 0
ENDMDL
