MODEL 1
REMARK minimizedAffinity -0.690566301
REMARK minimizedRMSD -1
REMARK  0 active torsions:
REMARK  status: ('A' for Active; 'I' for Inactive)
ROOT
ATOM      1  C   UNL d   1       1.803  -1.120  -1.035  0.00  0.00     0.077 C 
ATOM      2  C1  UNL d   1       1.849   0.359  -1.281  0.00  0.00    -0.074 A 
ATOM      3  C2  UNL d   1       2.691   0.899  -2.258  0.00  0.00    -0.005 A 
ATOM      4  C3  UNL d   1       2.716   2.276  -2.482  0.00  0.00     0.006 A 
ATOM      5  C4  UNL d   1       1.901   3.125  -1.732  0.00  0.00    -0.005 A 
ATOM      6  C5  UNL d   1       1.052   2.602  -0.751  0.00  0.00    -0.074 A 
ATOM      7  C6  UNL d   1       0.162   3.500   0.057  0.00  0.00     0.077 C 
ATOM      8  C7  UNL d   1       1.027   1.217  -0.537  0.00  0.00    -0.001 A 
ENDROOT
TORSDOF 0
ENDMDL
