MODEL 1
REMARK minimizedAffinity 6.80105639
REMARK minimizedRMSD -1
REMARK  0 active torsions:
REMARK  status: ('A' for Active; 'I' for Inactive)
ROOT
ATOM      1  C   UNL d   1       3.691  -0.278  -0.196  0.00  0.00     0.077 C 
ATOM      2  C1  UNL d   1       2.948   0.457  -1.271  0.00  0.00    -0.074 A 
ATOM      3  C2  UNL d   1       2.219  -0.236  -2.244  0.00  0.00    -0.005 A 
ATOM      4  C3  UNL d   1       1.525   0.462  -3.232  0.00  0.00     0.006 A 
ATOM      5  C4  UNL d   1       1.552   1.857  -3.258  0.00  0.00    -0.005 A 
ATOM      6  C5  UNL d   1       2.274   2.567  -2.293  0.00  0.00    -0.074 A 
ATOM      7  C6  UNL d   1       2.305   4.066  -2.301  0.00  0.00     0.077 C 
ATOM      8  C7  UNL d   1       2.963   1.859  -1.299  0.00  0.00    -0.001 A 
ENDROOT
TORSDOF 0
ENDMDL
