MODEL 1
REMARK minimizedAffinity 3.48515487
REMARK minimizedRMSD -1
REMARK  0 active torsions:
REMARK  status: ('A' for Active; 'I' for Inactive)
ROOT
ATOM      1  C   UNL d   1       4.494  -1.833   0.071  0.00  0.00     0.077 C 
ATOM      2  C1  UNL d   1       3.172  -1.705  -0.627  0.00  0.00    -0.074 A 
ATOM      3  C2  UNL d   1       2.096  -2.530  -0.287  0.00  0.00    -0.005 A 
ATOM      4  C3  UNL d   1       0.870  -2.392  -0.938  0.00  0.00     0.006 A 
ATOM      5  C4  UNL d   1       0.708  -1.429  -1.934  0.00  0.00    -0.005 A 
ATOM      6  C5  UNL d   1       1.773  -0.594  -2.287  0.00  0.00    -0.074 A 
ATOM      7  C6  UNL d   1       1.613   0.454  -3.349  0.00  0.00     0.077 C 
ATOM      8  C7  UNL d   1       2.999  -0.734  -1.624  0.00  0.00    -0.001 A 
ENDROOT
TORSDOF 0
ENDMDL
