MODEL 1
REMARK minimizedAffinity -1.46223164
REMARK minimizedRMSD -1
REMARK  0 active torsions:
REMARK  status: ('A' for Active; 'I' for Inactive)
ROOT
ATOM      1  C   UNL d   1      -2.281   6.000  -5.249  0.00  0.00     0.077 C 
ATOM      2  C1  UNL d   1      -3.340   4.965  -5.490  0.00  0.00    -0.074 A 
ATOM      3  C2  UNL d   1      -4.676   5.334  -5.675  0.00  0.00    -0.005 A 
ATOM      4  C3  UNL d   1      -5.649   4.362  -5.907  0.00  0.00     0.006 A 
ATOM      5  C4  UNL d   1      -5.295   3.013  -5.957  0.00  0.00    -0.005 A 
ATOM      6  C5  UNL d   1      -3.964   2.625  -5.776  0.00  0.00    -0.074 A 
ATOM      7  C6  UNL d   1      -3.565   1.180  -5.836  0.00  0.00     0.077 C 
ATOM      8  C7  UNL d   1      -2.991   3.609  -5.549  0.00  0.00    -0.001 A 
ENDROOT
TORSDOF 0
ENDMDL
