MODEL 1
REMARK minimizedAffinity 19.6205883
REMARK minimizedRMSD -1
REMARK  0 active torsions:
REMARK  status: ('A' for Active; 'I' for Inactive)
ROOT
ATOM      1  C   UNL d   1       1.297  -3.597  -0.729  0.00  0.00     0.077 C 
ATOM      2  C1  UNL d   1       1.529  -2.143  -1.016  0.00  0.00    -0.074 A 
ATOM      3  C2  UNL d   1       1.228  -1.602  -2.270  0.00  0.00    -0.005 A 
ATOM      4  C3  UNL d   1       1.439  -0.246  -2.520  0.00  0.00     0.006 A 
ATOM      5  C4  UNL d   1       1.954   0.581  -1.520  0.00  0.00    -0.005 A 
ATOM      6  C5  UNL d   1       2.260   0.057  -0.260  0.00  0.00    -0.074 A 
ATOM      7  C6  UNL d   1       2.804   0.934   0.828  0.00  0.00     0.077 C 
ATOM      8  C7  UNL d   1       2.038  -1.305  -0.015  0.00  0.00    -0.001 A 
ENDROOT
TORSDOF 0
ENDMDL
