MODEL 1
REMARK minimizedAffinity 3.35166979
REMARK minimizedRMSD -1
REMARK  0 active torsions:
REMARK  status: ('A' for Active; 'I' for Inactive)
ROOT
ATOM      1  C   UNL d   1      -4.375  -4.910  -6.000  0.00  0.00     0.077 C 
ATOM      2  C1  UNL d   1      -3.274  -4.325  -5.166  0.00  0.00    -0.074 A 
ATOM      3  C2  UNL d   1      -2.570  -3.196  -5.595  0.00  0.00    -0.005 A 
ATOM      4  C3  UNL d   1      -1.555  -2.657  -4.804  0.00  0.00     0.006 A 
ATOM      5  C4  UNL d   1      -1.235  -3.241  -3.578  0.00  0.00    -0.005 A 
ATOM      6  C5  UNL d   1      -1.929  -4.370  -3.132  0.00  0.00    -0.074 A 
ATOM      7  C6  UNL d   1      -1.605  -5.005  -1.812  0.00  0.00     0.077 C 
ATOM      8  C7  UNL d   1      -2.952  -4.901  -3.929  0.00  0.00    -0.001 A 
ENDROOT
TORSDOF 0
ENDMDL
