MODEL 1
REMARK minimizedAffinity 7.22704649
REMARK minimizedRMSD -1
REMARK  0 active torsions:
REMARK  status: ('A' for Active; 'I' for Inactive)
ROOT
ATOM      1  C   UNL d   1      -2.898  -5.246  -5.999  0.00  0.00     0.077 C 
ATOM      2  C1  UNL d   1      -2.312  -4.384  -4.921  0.00  0.00    -0.074 A 
ATOM      3  C2  UNL d   1      -1.873  -3.085  -5.198  0.00  0.00    -0.005 A 
ATOM      4  C3  UNL d   1      -1.339  -2.291  -4.183  0.00  0.00     0.006 A 
ATOM      5  C4  UNL d   1      -1.239  -2.787  -2.883  0.00  0.00    -0.005 A 
ATOM      6  C5  UNL d   1      -1.674  -4.082  -2.586  0.00  0.00    -0.074 A 
ATOM      7  C6  UNL d   1      -1.582  -4.627  -1.192  0.00  0.00     0.077 C 
ATOM      8  C7  UNL d   1      -2.215  -4.872  -3.610  0.00  0.00    -0.001 A 
ENDROOT
TORSDOF 0
ENDMDL
