MODEL 1
REMARK minimizedAffinity 7.12649155
REMARK minimizedRMSD -1
REMARK  0 active torsions:
REMARK  status: ('A' for Active; 'I' for Inactive)
ROOT
ATOM      1  C   UNL d   1       3.189   0.346  -0.749  0.00  0.00     0.077 C 
ATOM      2  C1  UNL d   1       2.397   1.471  -1.348  0.00  0.00    -0.074 A 
ATOM      3  C2  UNL d   1       1.535   1.248  -2.426  0.00  0.00    -0.005 A 
ATOM      4  C3  UNL d   1       0.798   2.301  -2.967  0.00  0.00     0.006 A 
ATOM      5  C4  UNL d   1       0.916   3.586  -2.436  0.00  0.00    -0.005 A 
ATOM      6  C5  UNL d   1       1.773   3.828  -1.358  0.00  0.00    -0.074 A 
ATOM      7  C6  UNL d   1       1.905   5.202  -0.770  0.00  0.00     0.077 C 
ATOM      8  C7  UNL d   1       2.505   2.763  -0.816  0.00  0.00    -0.001 A 
ENDROOT
TORSDOF 0
ENDMDL
