MODEL 1
REMARK minimizedAffinity 9.96016407
REMARK minimizedRMSD -1
REMARK  0 active torsions:
REMARK  status: ('A' for Active; 'I' for Inactive)
ROOT
ATOM      1  C   UNL d   1       0.355  -3.517   1.102  0.00  0.00     0.077 C 
ATOM      2  C1  UNL d   1      -0.665  -3.216   2.159  0.00  0.00    -0.074 A 
ATOM      3  C2  UNL d   1      -0.314  -2.517   3.319  0.00  0.00    -0.005 A 
ATOM      4  C3  UNL d   1      -1.275  -2.236   4.289  0.00  0.00     0.006 A 
ATOM      5  C4  UNL d   1      -2.596  -2.650   4.110  0.00  0.00    -0.005 A 
ATOM      6  C5  UNL d   1      -2.966  -3.348   2.957  0.00  0.00    -0.074 A 
ATOM      7  C6  UNL d   1      -4.383  -3.792   2.744  0.00  0.00     0.077 C 
ATOM      8  C7  UNL d   1      -1.996  -3.621   1.983  0.00  0.00    -0.001 A 
ENDROOT
TORSDOF 0
ENDMDL
