MODEL 1
REMARK minimizedAffinity 5.64005232
REMARK minimizedRMSD -1
REMARK  0 active torsions:
REMARK  status: ('A' for Active; 'I' for Inactive)
ROOT
ATOM      1  C   UNL d   1       1.429   4.230   2.131  0.00  0.00     0.077 C 
ATOM      2  C1  UNL d   1       1.535   4.181   0.636  0.00  0.00    -0.074 A 
ATOM      3  C2  UNL d   1       1.684   5.352  -0.114  0.00  0.00    -0.005 A 
ATOM      4  C3  UNL d   1       1.791   5.289  -1.503  0.00  0.00     0.006 A 
ATOM      5  C4  UNL d   1       1.749   4.057  -2.156  0.00  0.00    -0.005 A 
ATOM      6  C5  UNL d   1       1.600   2.875  -1.423  0.00  0.00    -0.074 A 
ATOM      7  C6  UNL d   1       1.563   1.541  -2.109  0.00  0.00     0.077 C 
ATOM      8  C7  UNL d   1       1.501   2.946  -0.027  0.00  0.00    -0.001 A 
ENDROOT
TORSDOF 0
ENDMDL
