MODEL 1
REMARK minimizedAffinity 0.37176919
REMARK minimizedRMSD -1
REMARK  0 active torsions:
REMARK  status: ('A' for Active; 'I' for Inactive)
ROOT
ATOM      1  C1  DEN d   1       1.166  -0.147   0.112  0.00  0.00     0.130 A 
ATOM      2  C2  DEN d   1       0.881   1.012  -0.729  0.00  0.00    -0.031 A 
ATOM      3  C3  DEN d   1      -0.557   0.993  -1.061  0.00  0.00     0.027 A 
ATOM      4  C4  DEN d   1      -2.363  -0.709  -0.355  0.00  0.00     0.027 A 
ATOM      5  C5  DEN d   1      -2.597  -1.869   0.348  0.00  0.00    -0.003 A 
ATOM      6  C6  DEN d   1      -1.596  -2.550   0.989  0.00  0.00     0.001 A 
ATOM      7  C7  DEN d   1      -0.320  -2.051   0.976  0.00  0.00     0.017 A 
ATOM      8  C8  DEN d   1      -0.075  -0.886   0.263  0.00  0.00    -0.094 A 
ATOM      9  C9  DEN d   1      -1.103  -0.205  -0.368  0.00  0.00    -0.072 A 
ENDROOT
TORSDOF 0
ENDMDL
