MODEL 1
REMARK minimizedAffinity -5.29641914
REMARK minimizedRMSD -1
REMARK  0 active torsions:
REMARK  status: ('A' for Active; 'I' for Inactive)
ROOT
ATOM      1  C1  DEN d   1      -2.192  -1.214   1.336  0.00  0.00     0.130 A 
ATOM      2  C2  DEN d   1      -1.823  -2.584   1.680  0.00  0.00    -0.031 A 
ATOM      3  C3  DEN d   1      -0.411  -2.786   1.295  0.00  0.00     0.027 A 
ATOM      4  C4  DEN d   1       1.230  -1.118   0.211  0.00  0.00     0.027 A 
ATOM      5  C5  DEN d   1       1.370   0.162  -0.278  0.00  0.00    -0.003 A 
ATOM      6  C6  DEN d   1       0.332   1.055  -0.294  0.00  0.00     0.001 A 
ATOM      7  C7  DEN d   1      -0.882   0.694   0.229  0.00  0.00     0.017 A 
ATOM      8  C8  DEN d   1      -1.033  -0.597   0.717  0.00  0.00    -0.094 A 
ATOM      9  C9  DEN d   1       0.033  -1.481   0.736  0.00  0.00    -0.072 A 
ENDROOT
TORSDOF 0
ENDMDL
