MODEL 1
REMARK minimizedAffinity -4.21957731
REMARK minimizedRMSD -1
REMARK  0 active torsions:
REMARK  status: ('A' for Active; 'I' for Inactive)
ROOT
ATOM      1  C1  DEN d   1       1.227   0.283  -1.195  0.00  0.00     0.130 A 
ATOM      2  C2  DEN d   1       0.792   1.649  -0.915  0.00  0.00    -0.031 A 
ATOM      3  C3  DEN d   1      -0.363   1.582   0.003  0.00  0.00     0.027 A 
ATOM      4  C4  DEN d   1      -1.510  -0.493   1.018  0.00  0.00     0.027 A 
ATOM      5  C5  DEN d   1      -1.503  -1.869   1.064  0.00  0.00    -0.003 A 
ATOM      6  C6  DEN d   1      -0.615  -2.620   0.340  0.00  0.00     0.001 A 
ATOM      7  C7  DEN d   1       0.333  -1.996  -0.427  0.00  0.00     0.017 A 
ATOM      8  C8  DEN d   1       0.328  -0.609  -0.484  0.00  0.00    -0.094 A 
ATOM      9  C9  DEN d   1      -0.570   0.132   0.265  0.00  0.00    -0.072 A 
ENDROOT
TORSDOF 0
ENDMDL
