MODEL 1
REMARK minimizedAffinity -1.50766015
REMARK minimizedRMSD -1
REMARK  0 active torsions:
REMARK  status: ('A' for Active; 'I' for Inactive)
ROOT
ATOM      1  C1  DEN d   1       1.525  -1.541   0.742  0.00  0.00     0.130 A 
ATOM      2  C2  DEN d   1       0.664  -2.578   1.304  0.00  0.00    -0.031 A 
ATOM      3  C3  DEN d   1      -0.717  -2.054   1.340  0.00  0.00     0.027 A 
ATOM      4  C4  DEN d   1      -1.600   0.247   0.580  0.00  0.00     0.027 A 
ATOM      5  C5  DEN d   1      -1.243   1.466   0.047  0.00  0.00    -0.003 A 
ATOM      6  C6  DEN d   1       0.056   1.778  -0.257  0.00  0.00     0.001 A 
ATOM      7  C7  DEN d   1       1.040   0.843  -0.073  0.00  0.00     0.017 A 
ATOM      8  C8  DEN d   1       0.689  -0.385   0.471  0.00  0.00    -0.094 A 
ATOM      9  C9  DEN d   1      -0.631  -0.686   0.761  0.00  0.00    -0.072 A 
ENDROOT
TORSDOF 0
ENDMDL
