MODEL 1
REMARK minimizedAffinity -5.51224852
REMARK minimizedRMSD -1
REMARK  0 active torsions:
REMARK  status: ('A' for Active; 'I' for Inactive)
ROOT
ATOM      1  C1  DEN d   1       0.990  -0.787  -0.097  0.00  0.00     0.130 A 
ATOM      2  C2  DEN d   1       1.136   0.664  -0.171  0.00  0.00    -0.031 A 
ATOM      3  C3  DEN d   1      -0.058   1.275   0.445  0.00  0.00     0.027 A 
ATOM      4  C4  DEN d   1      -2.107   0.122   1.506  0.00  0.00     0.027 A 
ATOM      5  C5  DEN d   1      -2.687  -1.094   1.793  0.00  0.00    -0.003 A 
ATOM      6  C6  DEN d   1      -2.104  -2.282   1.442  0.00  0.00     0.001 A 
ATOM      7  C7  DEN d   1      -0.881  -2.282   0.824  0.00  0.00     0.017 A 
ATOM      8  C8  DEN d   1      -0.293  -1.060   0.525  0.00  0.00    -0.094 A 
ATOM      9  C9  DEN d   1      -0.893   0.131   0.899  0.00  0.00    -0.072 A 
ENDROOT
TORSDOF 0
ENDMDL
