MODEL 1
REMARK minimizedAffinity -3.56463766
REMARK minimizedRMSD -1
REMARK  0 active torsions:
REMARK  status: ('A' for Active; 'I' for Inactive)
ROOT
ATOM      1  C1  DEN d   1      -0.103   2.141  -0.549  0.00  0.00     0.130 A 
ATOM      2  C2  DEN d   1       1.045   1.489  -1.173  0.00  0.00    -0.031 A 
ATOM      3  C3  DEN d   1       0.882   0.029  -1.016  0.00  0.00     0.027 A 
ATOM      4  C4  DEN d   1      -1.029  -1.277   0.121  0.00  0.00     0.027 A 
ATOM      5  C5  DEN d   1      -2.219  -1.158   0.804  0.00  0.00    -0.003 A 
ATOM      6  C6  DEN d   1      -2.766   0.060   1.112  0.00  0.00     0.001 A 
ATOM      7  C7  DEN d   1      -2.144   1.207   0.695  0.00  0.00     0.017 A 
ATOM      8  C8  DEN d   1      -0.940   1.095   0.012  0.00  0.00    -0.094 A 
ATOM      9  C9  DEN d   1      -0.410  -0.145  -0.300  0.00  0.00    -0.072 A 
ENDROOT
TORSDOF 0
ENDMDL
