MODEL 1
REMARK minimizedAffinity -2.64611959
REMARK minimizedRMSD -1
REMARK  0 active torsions:
REMARK  status: ('A' for Active; 'I' for Inactive)
ROOT
ATOM      1  C1  DEN d   1       1.495   0.783  -0.518  0.00  0.00     0.130 A 
ATOM      2  C2  DEN d   1       1.452   2.234  -0.680  0.00  0.00    -0.031 A 
ATOM      3  C3  DEN d   1       0.116   2.701  -0.258  0.00  0.00     0.027 A 
ATOM      4  C4  DEN d   1      -1.878   1.327   0.629  0.00  0.00     0.027 A 
ATOM      5  C5  DEN d   1      -2.321   0.059   0.931  0.00  0.00    -0.003 A 
ATOM      6  C6  DEN d   1      -1.542  -1.052   0.741  0.00  0.00     0.001 A 
ATOM      7  C7  DEN d   1      -0.261  -0.911   0.277  0.00  0.00     0.017 A 
ATOM      8  C8  DEN d   1       0.191   0.365  -0.037  0.00  0.00    -0.094 A 
ATOM      9  C9  DEN d   1      -0.608   1.476   0.174  0.00  0.00    -0.072 A 
ENDROOT
TORSDOF 0
ENDMDL
