MODEL 1
REMARK minimizedAffinity -0.899302304
REMARK minimizedRMSD -1
REMARK  0 active torsions:
REMARK  status: ('A' for Active; 'I' for Inactive)
ROOT
ATOM      1  C1  DEN d   1      -1.087   0.381  -0.375  0.00  0.00     0.130 A 
ATOM      2  C2  DEN d   1       0.207   1.027  -0.576  0.00  0.00    -0.031 A 
ATOM      3  C3  DEN d   1       1.238   0.199   0.082  0.00  0.00     0.027 A 
ATOM      4  C4  DEN d   1       0.958  -2.011   1.382  0.00  0.00     0.027 A 
ATOM      5  C5  DEN d   1       0.047  -2.943   1.828  0.00  0.00    -0.003 A 
ATOM      6  C6  DEN d   1      -1.298  -2.816   1.602  0.00  0.00     0.001 A 
ATOM      7  C7  DEN d   1      -1.767  -1.756   0.873  0.00  0.00     0.017 A 
ATOM      8  C8  DEN d   1      -0.855  -0.808   0.426  0.00  0.00    -0.094 A 
ATOM      9  C9  DEN d   1       0.502  -0.960   0.654  0.00  0.00    -0.072 A 
ENDROOT
TORSDOF 0
ENDMDL
