MODEL 1
REMARK minimizedAffinity -4.04247046
REMARK minimizedRMSD -1
REMARK  0 active torsions:
REMARK  status: ('A' for Active; 'I' for Inactive)
ROOT
ATOM      1  C1  DEN d   1       0.933  -1.550  -0.222  0.00  0.00     0.130 A 
ATOM      2  C2  DEN d   1      -0.038  -2.415   0.443  0.00  0.00    -0.031 A 
ATOM      3  C3  DEN d   1      -1.116  -1.562   0.982  0.00  0.00     0.027 A 
ATOM      4  C4  DEN d   1      -1.377   1.000   0.849  0.00  0.00     0.027 A 
ATOM      5  C5  DEN d   1      -0.800   2.166   0.394  0.00  0.00    -0.003 A 
ATOM      6  C6  DEN d   1       0.402   2.177  -0.262  0.00  0.00     0.001 A 
ATOM      7  C7  DEN d   1       1.045   0.995  -0.522  0.00  0.00     0.017 A 
ATOM      8  C8  DEN d   1       0.472  -0.183  -0.061  0.00  0.00    -0.094 A 
ATOM      9  C9  DEN d   1      -0.750  -0.175   0.590  0.00  0.00    -0.072 A 
ENDROOT
TORSDOF 0
ENDMDL
