MODEL 1
REMARK minimizedAffinity -5.10188437
REMARK minimizedRMSD -1
REMARK  0 active torsions:
REMARK  status: ('A' for Active; 'I' for Inactive)
ROOT
ATOM      1  C1  DEN d   1       0.052   1.230   0.023  0.00  0.00     0.130 A 
ATOM      2  C2  DEN d   1       1.203   0.501  -0.502  0.00  0.00    -0.031 A 
ATOM      3  C3  DEN d   1       1.175  -0.864   0.061  0.00  0.00     0.027 A 
ATOM      4  C4  DEN d   1      -0.533  -1.914   1.684  0.00  0.00     0.027 A 
ATOM      5  C5  DEN d   1      -1.677  -1.681   2.416  0.00  0.00    -0.003 A 
ATOM      6  C6  DEN d   1      -2.300  -0.461   2.428  0.00  0.00     0.001 A 
ATOM      7  C7  DEN d   1      -1.808   0.560   1.658  0.00  0.00     0.017 A 
ATOM      8  C8  DEN d   1      -0.651   0.335   0.924  0.00  0.00    -0.094 A 
ATOM      9  C9  DEN d   1      -0.043  -0.909   0.915  0.00  0.00    -0.072 A 
ENDROOT
TORSDOF 0
ENDMDL
