MODEL 1
REMARK minimizedAffinity -4.55414867
REMARK minimizedRMSD -1
REMARK  0 active torsions:
REMARK  status: ('A' for Active; 'I' for Inactive)
ROOT
ATOM      1  C1  DEN d   1       0.002   1.414   0.089  0.00  0.00     0.130 A 
ATOM      2  C2  DEN d   1       1.241   0.737  -0.285  0.00  0.00    -0.031 A 
ATOM      3  C3  DEN d   1       1.193  -0.636   0.257  0.00  0.00     0.027 A 
ATOM      4  C4  DEN d   1      -0.672  -1.774   1.628  0.00  0.00     0.027 A 
ATOM      5  C5  DEN d   1      -1.911  -1.596   2.203  0.00  0.00    -0.003 A 
ATOM      6  C6  DEN d   1      -2.578  -0.401   2.143  0.00  0.00     0.001 A 
ATOM      7  C7  DEN d   1      -2.030   0.649   1.456  0.00  0.00     0.017 A 
ATOM      8  C8  DEN d   1      -0.778   0.479   0.880  0.00  0.00    -0.094 A 
ATOM      9  C9  DEN d   1      -0.125  -0.740   0.940  0.00  0.00    -0.072 A 
ENDROOT
TORSDOF 0
ENDMDL
