MODEL 1
REMARK minimizedAffinity 9.26931763
REMARK minimizedRMSD -1
REMARK  0 active torsions:
REMARK  status: ('A' for Active; 'I' for Inactive)
ROOT
ATOM      1  C   UNL d   1       3.322  -0.652  -1.642  0.00  0.00     0.020 A 
ATOM      2  C1  UNL d   1       3.555   0.565  -1.004  0.00  0.00     0.020 A 
ATOM      3  C2  UNL d   1       2.480   1.357  -0.597  0.00  0.00     0.034 A 
ATOM      4  C3  UNL d   1       1.166   0.934  -0.828  0.00  0.00     0.017 A 
ATOM      5  C4  UNL d   1       0.933  -0.289  -1.469  0.00  0.00     0.017 A 
ATOM      6  C5  UNL d   1       2.013  -1.078  -1.874  0.00  0.00     0.034 A 
ATOM      7 Cl   UNL d   1      -0.660  -0.878  -1.788  0.00  0.00    -0.070 Cl
ATOM      8 Cl1  UNL d   1      -0.116   1.964  -0.297  0.00  0.00    -0.070 Cl
ENDROOT
TORSDOF 0
ENDMDL
