MODEL 1
REMARK minimizedAffinity 9.01269436
REMARK minimizedRMSD -1
REMARK  0 active torsions:
REMARK  status: ('A' for Active; 'I' for Inactive)
ROOT
ATOM      1  C   UNL d   1       5.954   2.025  -1.132  0.00  0.00     0.020 A 
ATOM      2  C1  UNL d   1       5.157   2.300  -0.022  0.00  0.00     0.020 A 
ATOM      3  C2  UNL d   1       3.892   1.719   0.091  0.00  0.00     0.034 A 
ATOM      4  C3  UNL d   1       3.421   0.860  -0.908  0.00  0.00     0.017 A 
ATOM      5  C4  UNL d   1       4.222   0.584  -2.022  0.00  0.00     0.017 A 
ATOM      6  C5  UNL d   1       5.487   1.168  -2.130  0.00  0.00     0.034 A 
ATOM      7 Cl   UNL d   1       3.708  -0.466  -3.295  0.00  0.00    -0.070 Cl
ATOM      8 Cl1  UNL d   1       1.847   0.177  -0.703  0.00  0.00    -0.070 Cl
ENDROOT
TORSDOF 0
ENDMDL
