MODEL 1
REMARK minimizedAffinity 6.73705435
REMARK minimizedRMSD -1
REMARK  0 active torsions:
REMARK  status: ('A' for Active; 'I' for Inactive)
ROOT
ATOM      1  C   UNL d   1       4.361   4.177   5.998  0.00  0.00     0.020 A 
ATOM      2  C1  UNL d   1       5.098   4.222   4.815  0.00  0.00     0.020 A 
ATOM      3  C2  UNL d   1       4.520   3.800   3.616  0.00  0.00     0.034 A 
ATOM      4  C3  UNL d   1       3.201   3.332   3.597  0.00  0.00     0.017 A 
ATOM      5  C4  UNL d   1       2.462   3.288   4.785  0.00  0.00     0.017 A 
ATOM      6  C5  UNL d   1       3.046   3.711   5.983  0.00  0.00     0.034 A 
ATOM      7 Cl   UNL d   1       0.830   2.723   4.840  0.00  0.00    -0.070 Cl
ATOM      8 Cl1  UNL d   1       2.550   2.826   2.078  0.00  0.00    -0.070 Cl
ENDROOT
TORSDOF 0
ENDMDL
