MODEL 1
REMARK minimizedAffinity -3.07034135
REMARK minimizedRMSD -1
REMARK  0 active torsions:
REMARK  status: ('A' for Active; 'I' for Inactive)
ROOT
ATOM      1  C   UNL d   1       1.222   3.482   5.594  0.00  0.00     0.020 A 
ATOM      2  C1  UNL d   1       1.127   3.000   4.290  0.00  0.00     0.020 A 
ATOM      3  C2  UNL d   1       2.174   3.210   3.389  0.00  0.00     0.034 A 
ATOM      4  C3  UNL d   1       3.320   3.905   3.793  0.00  0.00     0.017 A 
ATOM      5  C4  UNL d   1       3.414   4.388   5.103  0.00  0.00     0.017 A 
ATOM      6  C5  UNL d   1       2.363   4.175   6.000  0.00  0.00     0.034 A 
ATOM      7 Cl   UNL d   1       4.797   5.254   5.673  0.00  0.00    -0.070 Cl
ATOM      8 Cl1  UNL d   1       4.575   4.128   2.627  0.00  0.00    -0.070 Cl
ENDROOT
TORSDOF 0
ENDMDL
