MODEL 1
REMARK minimizedAffinity 7.98548985
REMARK minimizedRMSD -1
REMARK  0 active torsions:
REMARK  status: ('A' for Active; 'I' for Inactive)
ROOT
ATOM      1  C   UNL d   1       3.008  -0.064  -2.048  0.00  0.00     0.020 A 
ATOM      2  C1  UNL d   1       3.004  -0.124  -0.655  0.00  0.00     0.020 A 
ATOM      3  C2  UNL d   1       3.932   0.618   0.079  0.00  0.00     0.034 A 
ATOM      4  C3  UNL d   1       4.869   1.422  -0.580  0.00  0.00     0.017 A 
ATOM      5  C4  UNL d   1       4.874   1.481  -1.978  0.00  0.00     0.017 A 
ATOM      6  C5  UNL d   1       3.941   0.737  -2.708  0.00  0.00     0.034 A 
ATOM      7 Cl   UNL d   1       5.999   2.450  -2.862  0.00  0.00    -0.070 Cl
ATOM      8 Cl1  UNL d   1       5.988   2.311   0.391  0.00  0.00    -0.070 Cl
ENDROOT
TORSDOF 0
ENDMDL
