MODEL 1
REMARK minimizedAffinity 5.02784586
REMARK minimizedRMSD -1
REMARK  0 active torsions:
REMARK  status: ('A' for Active; 'I' for Inactive)
ROOT
ATOM      1  C   UNL d   1       2.706  -0.006  -2.249  0.00  0.00     0.020 A 
ATOM      2  C1  UNL d   1       2.594  -0.176  -0.869  0.00  0.00     0.020 A 
ATOM      3  C2  UNL d   1       3.542   0.395  -0.017  0.00  0.00     0.034 A 
ATOM      4  C3  UNL d   1       4.605   1.138  -0.543  0.00  0.00     0.017 A 
ATOM      5  C4  UNL d   1       4.716   1.308  -1.927  0.00  0.00     0.017 A 
ATOM      6  C5  UNL d   1       3.765   0.734  -2.776  0.00  0.00     0.034 A 
ATOM      7 Cl   UNL d   1       6.000   2.212  -2.651  0.00  0.00    -0.070 Cl
ATOM      8 Cl1  UNL d   1       5.739   1.816   0.570  0.00  0.00    -0.070 Cl
ENDROOT
TORSDOF 0
ENDMDL
