MODEL 1
REMARK minimizedAffinity 5.4051137
REMARK minimizedRMSD -1
REMARK  0 active torsions:
REMARK  status: ('A' for Active; 'I' for Inactive)
ROOT
ATOM      1  C   UNL d   1       3.276   0.893   0.049  0.00  0.00     0.020 A 
ATOM      2  C1  UNL d   1       3.297   1.792   1.114  0.00  0.00     0.020 A 
ATOM      3  C2  UNL d   1       2.187   2.599   1.369  0.00  0.00     0.034 A 
ATOM      4  C3  UNL d   1       1.051   2.510   0.556  0.00  0.00     0.017 A 
ATOM      5  C4  UNL d   1       1.031   1.608  -0.514  0.00  0.00     0.017 A 
ATOM      6  C5  UNL d   1       2.145   0.802  -0.764  0.00  0.00     0.034 A 
ATOM      7 Cl   UNL d   1      -0.335   1.441  -1.560  0.00  0.00    -0.070 Cl
ATOM      8 Cl1  UNL d   1      -0.287   3.539   0.928  0.00  0.00    -0.070 Cl
ENDROOT
TORSDOF 0
ENDMDL
