MODEL 1
REMARK minimizedAffinity 4.07561302
REMARK minimizedRMSD -1
REMARK  0 active torsions:
REMARK  status: ('A' for Active; 'I' for Inactive)
ROOT
ATOM      1  C   UNL d   1      -2.265   2.103  -0.671  0.00  0.00     0.020 A 
ATOM      2  C1  UNL d   1      -1.040   2.646  -0.288  0.00  0.00     0.020 A 
ATOM      3  C2  UNL d   1       0.149   1.998  -0.631  0.00  0.00     0.034 A 
ATOM      4  C3  UNL d   1       0.115   0.803  -1.359  0.00  0.00     0.017 A 
ATOM      5  C4  UNL d   1      -1.116   0.258  -1.742  0.00  0.00     0.017 A 
ATOM      6  C5  UNL d   1      -2.303   0.911  -1.396  0.00  0.00     0.034 A 
ATOM      7 Cl   UNL d   1      -1.239  -1.213  -2.641  0.00  0.00    -0.070 Cl
ATOM      8 Cl1  UNL d   1       1.623   0.056  -1.748  0.00  0.00    -0.070 Cl
ENDROOT
TORSDOF 0
ENDMDL
