MODEL 1
REMARK minimizedAffinity 4.26780558
REMARK minimizedRMSD -1
REMARK  1 active torsions:
REMARK  status: ('A' for Active; 'I' for Inactive)
REMARK    1  A    between atoms: N_2  and  C1_3 
ROOT
ATOM      1  C1  UNL d   1       2.982  -0.667  -0.562  0.00  0.00     0.143 A 
ATOM      2  C2  UNL d   1       3.035  -1.392   0.634  0.00  0.00    -0.057 A 
ATOM      3  C3  UNL d   1       2.472  -2.669   0.734  0.00  0.00     0.033 A 
ATOM      4  C4  UNL d   1       1.817  -3.235  -0.355  0.00  0.00    -0.042 A 
ATOM      5  C5  UNL d   1       1.730  -2.523  -1.546  0.00  0.00     0.033 A 
ATOM      6  C6  UNL d   1       2.301  -1.250  -1.642  0.00  0.00    -0.057 A 
ENDROOT
BRANCH   1   7
ATOM      7  N   UNL d   1       3.437   0.647  -0.696  0.00  0.00    -0.732 N 
ATOM      8  C   UNL d   1       4.763   1.017  -0.251  0.00  0.00     0.284 C 
ATOM      9  H3  UNL d   1       3.165   1.063  -1.584  0.00  0.00     0.395 HD
ENDBRANCH   1   7
TORSDOF 1
ENDMDL
