MODEL 1
REMARK minimizedAffinity 6.06005239
REMARK minimizedRMSD -1
REMARK  1 active torsions:
REMARK  status: ('A' for Active; 'I' for Inactive)
REMARK    1  A    between atoms: N_2  and  C1_3 
ROOT
ATOM      1  C1  UNL d   1       3.264  -0.140  -0.412  0.00  0.00     0.143 A 
ATOM      2  C2  UNL d   1       4.247  -1.050  -0.009  0.00  0.00    -0.057 A 
ATOM      3  C3  UNL d   1       5.599  -0.690   0.025  0.00  0.00     0.033 A 
ATOM      4  C4  UNL d   1       5.997   0.582  -0.372  0.00  0.00    -0.042 A 
ATOM      5  C5  UNL d   1       5.040   1.495  -0.800  0.00  0.00     0.033 A 
ATOM      6  C6  UNL d   1       3.690   1.132  -0.826  0.00  0.00    -0.057 A 
ENDROOT
BRANCH   1   7
ATOM      7  N   UNL d   1       1.914  -0.468  -0.561  0.00  0.00    -0.732 N 
ATOM      8  C   UNL d   1       0.891   0.548  -0.445  0.00  0.00     0.284 C 
ATOM      9  H3  UNL d   1       1.757  -1.132  -1.316  0.00  0.00     0.395 HD
ENDBRANCH   1   7
TORSDOF 1
ENDMDL
