MODEL 1
REMARK minimizedAffinity 12.1539097
REMARK minimizedRMSD -1
REMARK  1 active torsions:
REMARK  status: ('A' for Active; 'I' for Inactive)
REMARK    1  A    between atoms: N_2  and  C1_3 
ROOT
ATOM      1  C1  UNL d   1      -1.135  -4.901  -2.643  0.00  0.00     0.143 A 
ATOM      2  C2  UNL d   1      -0.749  -5.644  -1.522  0.00  0.00    -0.057 A 
ATOM      3  C3  UNL d   1       0.387  -5.300  -0.779  0.00  0.00     0.033 A 
ATOM      4  C4  UNL d   1       1.176  -4.220  -1.164  0.00  0.00    -0.042 A 
ATOM      5  C5  UNL d   1       0.825  -3.483  -2.289  0.00  0.00     0.033 A 
ATOM      6  C6  UNL d   1      -0.314  -3.828  -3.023  0.00  0.00    -0.057 A 
ENDROOT
BRANCH   1   7
ATOM      7  N   UNL d   1      -2.198  -5.252  -3.480  0.00  0.00    -0.732 N 
ATOM      8  C   UNL d   1      -1.963  -6.000  -4.696  0.00  0.00     0.284 C 
ATOM      9  H3  UNL d   1      -3.019  -5.551  -2.959  0.00  0.00     0.395 HD
ENDBRANCH   1   7
TORSDOF 1
ENDMDL
