MODEL 1
REMARK minimizedAffinity 3.88326192
REMARK minimizedRMSD -1
REMARK  1 active torsions:
REMARK  status: ('A' for Active; 'I' for Inactive)
REMARK    1  A    between atoms: N_2  and  C1_3 
ROOT
ATOM      1  C1  UNL d   1       3.825  -1.038  -0.610  0.00  0.00     0.143 A 
ATOM      2  C2  UNL d   1       3.493   0.214  -1.139  0.00  0.00    -0.057 A 
ATOM      3  C3  UNL d   1       4.404   1.277  -1.114  0.00  0.00     0.033 A 
ATOM      4  C4  UNL d   1       5.656   1.114  -0.531  0.00  0.00    -0.042 A 
ATOM      5  C5  UNL d   1       5.999  -0.114   0.023  0.00  0.00     0.033 A 
ATOM      6  C6  UNL d   1       5.087  -1.174  -0.011  0.00  0.00    -0.057 A 
ENDROOT
BRANCH   1   7
ATOM      7  N   UNL d   1       2.928  -2.105  -0.517  0.00  0.00    -0.732 N 
ATOM      8  C   UNL d   1       2.530  -2.839  -1.698  0.00  0.00     0.284 C 
ATOM      9  H3  UNL d   1       3.106  -2.691   0.296  0.00  0.00     0.395 HD
ENDBRANCH   1   7
TORSDOF 1
ENDMDL
