MODEL 1
REMARK minimizedAffinity 7.35814238
REMARK minimizedRMSD -1
REMARK  1 active torsions:
REMARK  status: ('A' for Active; 'I' for Inactive)
REMARK    1  A    between atoms: N_2  and  C1_3 
ROOT
ATOM      1  C1  UNL d   1      -0.263   3.542   1.917  0.00  0.00     0.143 A 
ATOM      2  C2  UNL d   1      -1.272   3.196   1.013  0.00  0.00    -0.057 A 
ATOM      3  C3  UNL d   1      -1.551   1.857   0.713  0.00  0.00     0.033 A 
ATOM      4  C4  UNL d   1      -0.803   0.838   1.293  0.00  0.00    -0.042 A 
ATOM      5  C5  UNL d   1       0.222   1.159   2.175  0.00  0.00     0.033 A 
ATOM      6  C6  UNL d   1       0.491   2.498   2.476  0.00  0.00    -0.057 A 
ENDROOT
BRANCH   1   7
ATOM      7  N   UNL d   1       0.128   4.857   2.181  0.00  0.00    -0.732 N 
ATOM      8  C   UNL d   1       1.172   5.137   3.144  0.00  0.00     0.284 C 
ATOM      9  H3  UNL d   1       0.178   5.424   1.338  0.00  0.00     0.395 HD
ENDBRANCH   1   7
TORSDOF 1
ENDMDL
