MODEL 1
REMARK minimizedAffinity 15.5075092
REMARK minimizedRMSD -1
REMARK  1 active torsions:
REMARK  status: ('A' for Active; 'I' for Inactive)
REMARK    1  A    between atoms: N_2  and  C1_3 
ROOT
ATOM      1  C1  UNL d   1       0.415  -4.709   5.372  0.00  0.00     0.143 A 
ATOM      2  C2  UNL d   1      -0.099  -4.044   4.253  0.00  0.00    -0.057 A 
ATOM      3  C3  UNL d   1       0.531  -2.908   3.731  0.00  0.00     0.033 A 
ATOM      4  C4  UNL d   1       1.675  -2.399   4.337  0.00  0.00    -0.042 A 
ATOM      5  C5  UNL d   1       2.189  -3.028   5.465  0.00  0.00     0.033 A 
ATOM      6  C6  UNL d   1       1.559  -4.166   5.978  0.00  0.00    -0.057 A 
ENDROOT
BRANCH   1   7
ATOM      7  N   UNL d   1      -0.221  -5.784   5.998  0.00  0.00    -0.732 N 
ATOM      8  C   UNL d   1      -1.664  -5.887   6.000  0.00  0.00     0.284 C 
ATOM      9  H3  UNL d   1       0.259  -6.666   5.836  0.00  0.00     0.395 HD
ENDBRANCH   1   7
TORSDOF 1
ENDMDL
