MODEL 1
REMARK minimizedAffinity 11.5941772
REMARK minimizedRMSD -1
REMARK  1 active torsions:
REMARK  status: ('A' for Active; 'I' for Inactive)
REMARK    1  A    between atoms: N_2  and  C1_3 
ROOT
ATOM      1  C1  UNL d   1       3.737  -0.435  -0.751  0.00  0.00     0.143 A 
ATOM      2  C2  UNL d   1       3.750   0.756  -1.485  0.00  0.00    -0.057 A 
ATOM      3  C3  UNL d   1       4.875   1.590  -1.496  0.00  0.00     0.033 A 
ATOM      4  C4  UNL d   1       6.000   1.260  -0.747  0.00  0.00    -0.042 A 
ATOM      5  C5  UNL d   1       6.000   0.094   0.010  0.00  0.00     0.033 A 
ATOM      6  C6  UNL d   1       4.876  -0.738   0.011  0.00  0.00    -0.057 A 
ENDROOT
BRANCH   1   7
ATOM      7  N   UNL d   1       2.614  -1.256  -0.621  0.00  0.00    -0.732 N 
ATOM      8  C   UNL d   1       2.568  -2.549  -1.269  0.00  0.00     0.284 C 
ATOM      9  H3  UNL d   1       2.236  -1.251   0.324  0.00  0.00     0.395 HD
ENDBRANCH   1   7
TORSDOF 1
ENDMDL
