MODEL 1
REMARK minimizedAffinity -3.00434923
REMARK minimizedRMSD -1
REMARK  3 active torsions:
REMARK  status: ('A' for Active; 'I' for Inactive)
REMARK    1  A    between atoms: C3'_2  and  C2'_3 
REMARK    2  A    between atoms: C2'_3  and  C1'_4 
REMARK    3  A    between atoms: C1'_4  and  C1_5 
ROOT
ATOM      1  C1  N4B d   1       0.257   0.249  -0.031  0.00  0.00    -0.075 A 
ATOM      2  C2  N4B d   1       1.516  -0.295  -0.367  0.00  0.00     0.002 A 
ATOM      3  C3  N4B d   1       2.052  -1.306   0.394  0.00  0.00     0.002 A 
ATOM      4  C4  N4B d   1       1.359  -1.772   1.501  0.00  0.00    -0.004 A 
ATOM      5  C5  N4B d   1       0.132  -1.259   1.803  0.00  0.00     0.002 A 
ATOM      6  C6  N4B d   1      -0.421  -0.246   1.046  0.00  0.00     0.002 A 
ENDROOT
BRANCH   1   7
ATOM      7  C1' N4B d   1      -0.331   1.413  -0.781  0.00  0.00     0.057 C 
BRANCH   7   8
ATOM      8  C2' N4B d   1      -1.498   0.922  -1.632  0.00  0.00     0.009 C 
BRANCH   8   9
ATOM      9  C3' N4B d   1      -1.885   1.929  -2.702  0.00  0.00     0.004 C 
ATOM     10  C4' N4B d   1      -2.605   1.301  -3.857  0.00  0.00     0.003 C 
ENDBRANCH   8   9
ENDBRANCH   7   8
ENDBRANCH   1   7
TORSDOF 3
ENDMDL
