MODEL 1
REMARK minimizedAffinity -1.19764638
REMARK minimizedRMSD -1
REMARK  3 active torsions:
REMARK  status: ('A' for Active; 'I' for Inactive)
REMARK    1  A    between atoms: C3'_2  and  C2'_3 
REMARK    2  A    between atoms: C2'_3  and  C1'_4 
REMARK    3  A    between atoms: C1'_4  and  C1_5 
ROOT
ATOM      1  C1  N4B d   1      -0.448   0.432   0.284  0.00  0.00    -0.075 A 
ATOM      2  C2  N4B d   1      -1.541   0.688   1.141  0.00  0.00     0.002 A 
ATOM      3  C3  N4B d   1      -1.762  -0.117   2.231  0.00  0.00     0.002 A 
ATOM      4  C4  N4B d   1      -0.918  -1.191   2.473  0.00  0.00    -0.004 A 
ATOM      5  C5  N4B d   1       0.150  -1.417   1.655  0.00  0.00     0.002 A 
ATOM      6  C6  N4B d   1       0.387  -0.613   0.558  0.00  0.00     0.002 A 
ENDROOT
BRANCH   1   7
ATOM      7  C1' N4B d   1      -0.216   1.232  -0.968  0.00  0.00     0.057 C 
BRANCH   7   8
ATOM      8  C2' N4B d   1      -1.562   1.604  -1.582  0.00  0.00     0.009 C 
BRANCH   8   9
ATOM      9  C3' N4B d   1      -1.428   2.699  -2.626  0.00  0.00     0.004 C 
ATOM     10  C4' N4B d   1      -1.169   2.162  -4.001  0.00  0.00     0.003 C 
ENDBRANCH   8   9
ENDBRANCH   7   8
ENDBRANCH   1   7
TORSDOF 3
ENDMDL
