MODEL 1
REMARK minimizedAffinity -4.49476576
REMARK minimizedRMSD -1
REMARK  3 active torsions:
REMARK  status: ('A' for Active; 'I' for Inactive)
REMARK    1  A    between atoms: C3'_2  and  C2'_3 
REMARK    2  A    between atoms: C2'_3  and  C1'_4 
REMARK    3  A    between atoms: C1'_4  and  C1_5 
ROOT
ATOM      1  C1  N4B d   1      -0.235   0.838  -1.041  0.00  0.00    -0.075 A 
ATOM      2  C2  N4B d   1      -0.932   2.061  -0.928  0.00  0.00     0.002 A 
ATOM      3  C3  N4B d   1      -1.929   2.368  -1.821  0.00  0.00     0.002 A 
ATOM      4  C4  N4B d   1      -2.232   1.480  -2.843  0.00  0.00    -0.004 A 
ATOM      5  C5  N4B d   1      -1.571   0.289  -2.929  0.00  0.00     0.002 A 
ATOM      6  C6  N4B d   1      -0.570  -0.034  -2.036  0.00  0.00     0.002 A 
ENDROOT
BRANCH   1   7
ATOM      7  C1' N4B d   1       0.921   0.496  -0.140  0.00  0.00     0.057 C 
BRANCH   7   8
ATOM      8  C2' N4B d   1       1.154  -1.011  -0.174  0.00  0.00     0.009 C 
BRANCH   8   9
ATOM      9  C3' N4B d   1       2.051  -1.473   0.961  0.00  0.00     0.004 C 
ATOM     10  C4' N4B d   1       1.285  -2.090   2.093  0.00  0.00     0.003 C 
ENDBRANCH   8   9
ENDBRANCH   7   8
ENDBRANCH   1   7
TORSDOF 3
ENDMDL
