MODEL 1
REMARK minimizedAffinity -4.88980055
REMARK minimizedRMSD -1
REMARK  3 active torsions:
REMARK  status: ('A' for Active; 'I' for Inactive)
REMARK    1  A    between atoms: C3'_2  and  C2'_3 
REMARK    2  A    between atoms: C2'_3  and  C1'_4 
REMARK    3  A    between atoms: C1'_4  and  C1_5 
ROOT
ATOM      1  C1  N4B d   1       0.209   0.219   0.319  0.00  0.00    -0.075 A 
ATOM      2  C2  N4B d   1       1.095  -0.170  -0.711  0.00  0.00     0.002 A 
ATOM      3  C3  N4B d   1       1.875  -1.289  -0.558  0.00  0.00     0.002 A 
ATOM      4  C4  N4B d   1       1.802  -2.021   0.618  0.00  0.00    -0.004 A 
ATOM      5  C5  N4B d   1       0.926  -1.653   1.596  0.00  0.00     0.002 A 
ATOM      6  C6  N4B d   1       0.133  -0.533   1.455  0.00  0.00     0.002 A 
ENDROOT
BRANCH   1   7
ATOM      7  C1' N4B d   1      -0.601   1.484   0.233  0.00  0.00     0.057 C 
BRANCH   7   8
ATOM      8  C2' N4B d   1      -0.707   1.913  -1.227  0.00  0.00     0.009 C 
BRANCH   8   9
ATOM      9  C3' N4B d   1      -2.066   1.582  -1.819  0.00  0.00     0.004 C 
ATOM     10  C4' N4B d   1      -1.975   1.034  -3.212  0.00  0.00     0.003 C 
ENDBRANCH   8   9
ENDBRANCH   7   8
ENDBRANCH   1   7
TORSDOF 3
ENDMDL
