MODEL 1
REMARK minimizedAffinity -4.67500305
REMARK minimizedRMSD -1
REMARK  3 active torsions:
REMARK  status: ('A' for Active; 'I' for Inactive)
REMARK    1  A    between atoms: C3'_2  and  C2'_3 
REMARK    2  A    between atoms: C2'_3  and  C1'_4 
REMARK    3  A    between atoms: C1'_4  and  C1_5 
ROOT
ATOM      1  C1  N4B d   1      -0.018   0.171   0.142  0.00  0.00    -0.075 A 
ATOM      2  C2  N4B d   1       1.136   0.295  -0.663  0.00  0.00     0.002 A 
ATOM      3  C3  N4B d   1       2.199  -0.554  -0.474  0.00  0.00     0.002 A 
ATOM      4  C4  N4B d   1       2.138  -1.518   0.521  0.00  0.00    -0.004 A 
ATOM      5  C5  N4B d   1       1.010  -1.648   1.277  0.00  0.00     0.002 A 
ATOM      6  C6  N4B d   1      -0.067  -0.804   1.096  0.00  0.00     0.002 A 
ENDROOT
BRANCH   1   7
ATOM      7  C1' N4B d   1      -1.171   1.131   0.030  0.00  0.00     0.057 C 
BRANCH   7   8
ATOM      8  C2' N4B d   1      -1.190   1.729  -1.374  0.00  0.00     0.009 C 
BRANCH   8   9
ATOM      9  C3' N4B d   1      -2.235   1.070  -2.258  0.00  0.00     0.004 C 
ATOM     10  C4' N4B d   1      -1.850   1.066  -3.707  0.00  0.00     0.003 C 
ENDBRANCH   8   9
ENDBRANCH   7   8
ENDBRANCH   1   7
TORSDOF 3
ENDMDL
