MODEL 1
REMARK minimizedAffinity -4.22261763
REMARK minimizedRMSD -1
REMARK  3 active torsions:
REMARK  status: ('A' for Active; 'I' for Inactive)
REMARK    1  A    between atoms: C3'_2  and  C2'_3 
REMARK    2  A    between atoms: C2'_3  and  C1'_4 
REMARK    3  A    between atoms: C1'_4  and  C1_5 
ROOT
ATOM      1  C1  N4B d   1      -0.811   1.057  -0.884  0.00  0.00    -0.075 A 
ATOM      2  C2  N4B d   1      -0.832   2.395  -1.335  0.00  0.00     0.002 A 
ATOM      3  C3  N4B d   1      -1.648   2.755  -2.379  0.00  0.00     0.002 A 
ATOM      4  C4  N4B d   1      -2.434   1.795  -2.998  0.00  0.00    -0.004 A 
ATOM      5  C5  N4B d   1      -2.427   0.510  -2.540  0.00  0.00     0.002 A 
ATOM      6  C6  N4B d   1      -1.615   0.135  -1.488  0.00  0.00     0.002 A 
ENDROOT
BRANCH   1   7
ATOM      7  C1' N4B d   1       0.128   0.598   0.198  0.00  0.00     0.057 C 
BRANCH   7   8
ATOM      8  C2' N4B d   1       1.565   0.876  -0.234  0.00  0.00     0.009 C 
BRANCH   8   9
ATOM      9  C3' N4B d   1       2.146  -0.269  -1.045  0.00  0.00     0.004 C 
ATOM     10  C4' N4B d   1       2.156  -1.566  -0.293  0.00  0.00     0.003 C 
ENDBRANCH   8   9
ENDBRANCH   7   8
ENDBRANCH   1   7
TORSDOF 3
ENDMDL
