MODEL 1
REMARK minimizedAffinity -4.44056129
REMARK minimizedRMSD -1
REMARK  3 active torsions:
REMARK  status: ('A' for Active; 'I' for Inactive)
REMARK    1  A    between atoms: C3'_2  and  C2'_3 
REMARK    2  A    between atoms: C2'_3  and  C1'_4 
REMARK    3  A    between atoms: C1'_4  and  C1_5 
ROOT
ATOM      1  C1  N4B d   1       0.258   0.333   0.353  0.00  0.00    -0.075 A 
ATOM      2  C2  N4B d   1       1.379  -0.031  -0.426  0.00  0.00     0.002 A 
ATOM      3  C3  N4B d   1       2.242  -1.000   0.023  0.00  0.00     0.002 A 
ATOM      4  C4  N4B d   1       2.016  -1.604   1.251  0.00  0.00    -0.004 A 
ATOM      5  C5  N4B d   1       0.917  -1.265   1.985  0.00  0.00     0.002 A 
ATOM      6  C6  N4B d   1       0.040  -0.295   1.545  0.00  0.00     0.002 A 
ENDROOT
BRANCH   1   7
ATOM      7  C1' N4B d   1      -0.665   1.448  -0.056  0.00  0.00     0.057 C 
BRANCH   7   8
ATOM      8  C2' N4B d   1      -1.383   1.056  -1.344  0.00  0.00     0.009 C 
BRANCH   8   9
ATOM      9  C3' N4B d   1      -1.410   2.196  -2.348  0.00  0.00     0.004 C 
ATOM     10  C4' N4B d   1      -2.447   2.005  -3.415  0.00  0.00     0.003 C 
ENDBRANCH   8   9
ENDBRANCH   7   8
ENDBRANCH   1   7
TORSDOF 3
ENDMDL
