MODEL 1
REMARK minimizedAffinity -1.85375571
REMARK minimizedRMSD -1
REMARK  3 active torsions:
REMARK  status: ('A' for Active; 'I' for Inactive)
REMARK    1  A    between atoms: C3'_2  and  C2'_3 
REMARK    2  A    between atoms: C2'_3  and  C1'_4 
REMARK    3  A    between atoms: C1'_4  and  C1_5 
ROOT
ATOM      1  C1  N4B d   1      -0.401   0.389  -0.036  0.00  0.00    -0.075 A 
ATOM      2  C2  N4B d   1       0.884  -0.086  -0.380  0.00  0.00     0.002 A 
ATOM      3  C3  N4B d   1       1.487  -1.051   0.390  0.00  0.00     0.002 A 
ATOM      4  C4  N4B d   1       0.837  -1.539   1.513  0.00  0.00    -0.004 A 
ATOM      5  C5  N4B d   1      -0.415  -1.094   1.823  0.00  0.00     0.002 A 
ATOM      6  C6  N4B d   1      -1.035  -0.128   1.057  0.00  0.00     0.002 A 
ENDROOT
BRANCH   1   7
ATOM      7  C1' N4B d   1      -1.066   1.503  -0.797  0.00  0.00     0.057 C 
BRANCH   7   8
ATOM      8  C2' N4B d   1      -2.220   0.933  -1.615  0.00  0.00     0.009 C 
BRANCH   8   9
ATOM      9  C3' N4B d   1      -2.726   1.922  -2.651  0.00  0.00     0.004 C 
ATOM     10  C4' N4B d   1      -1.619   2.546  -3.447  0.00  0.00     0.003 C 
ENDBRANCH   8   9
ENDBRANCH   7   8
ENDBRANCH   1   7
TORSDOF 3
ENDMDL
