MODEL 1
REMARK minimizedAffinity -4.5039587
REMARK minimizedRMSD -1
REMARK  3 active torsions:
REMARK  status: ('A' for Active; 'I' for Inactive)
REMARK    1  A    between atoms: C3'_2  and  C2'_3 
REMARK    2  A    between atoms: C2'_3  and  C1'_4 
REMARK    3  A    between atoms: C1'_4  and  C1_5 
ROOT
ATOM      1  C1  N4B d   1       0.618   0.135   0.054  0.00  0.00    -0.075 A 
ATOM      2  C2  N4B d   1       0.954  -0.592   1.217  0.00  0.00     0.002 A 
ATOM      3  C3  N4B d   1       1.933  -1.554   1.166  0.00  0.00     0.002 A 
ATOM      4  C4  N4B d   1       2.572  -1.819  -0.036  0.00  0.00    -0.004 A 
ATOM      5  C5  N4B d   1       2.259  -1.096  -1.149  0.00  0.00     0.002 A 
ATOM      6  C6  N4B d   1       1.280  -0.123  -1.111  0.00  0.00     0.002 A 
ENDROOT
BRANCH   1   7
ATOM      7  C1' N4B d   1      -0.505   1.136   0.040  0.00  0.00     0.057 C 
BRANCH   7   8
ATOM      8  C2' N4B d   1      -0.819   1.516  -1.403  0.00  0.00     0.009 C 
BRANCH   8   9
ATOM      9  C3' N4B d   1      -2.162   2.216  -1.527  0.00  0.00     0.004 C 
ATOM     10  C4' N4B d   1      -3.195   1.372  -2.213  0.00  0.00     0.003 C 
ENDBRANCH   8   9
ENDBRANCH   7   8
ENDBRANCH   1   7
TORSDOF 3
ENDMDL
