MODEL 1
REMARK minimizedAffinity -3.213727
REMARK minimizedRMSD -1
REMARK  3 active torsions:
REMARK  status: ('A' for Active; 'I' for Inactive)
REMARK    1  A    between atoms: C3'_2  and  C2'_3 
REMARK    2  A    between atoms: C2'_3  and  C1'_4 
REMARK    3  A    between atoms: C1'_4  and  C1_5 
ROOT
ATOM      1  C1  N4B d   1       0.381  -0.545   0.269  0.00  0.00    -0.075 A 
ATOM      2  C2  N4B d   1       1.568  -1.298   0.407  0.00  0.00     0.002 A 
ATOM      3  C3  N4B d   1       1.749  -2.096   1.510  0.00  0.00     0.002 A 
ATOM      4  C4  N4B d   1       0.771  -2.143   2.492  0.00  0.00    -0.004 A 
ATOM      5  C5  N4B d   1      -0.383  -1.432   2.339  0.00  0.00     0.002 A 
ATOM      6  C6  N4B d   1      -0.581  -0.628   1.234  0.00  0.00     0.002 A 
ENDROOT
BRANCH   1   7
ATOM      7  C1' N4B d   1       0.174   0.408  -0.876  0.00  0.00     0.057 C 
BRANCH   7   8
ATOM      8  C2' N4B d   1      -1.184   1.086  -0.725  0.00  0.00     0.009 C 
BRANCH   8   9
ATOM      9  C3' N4B d   1      -1.584   1.844  -1.979  0.00  0.00     0.004 C 
ATOM     10  C4' N4B d   1      -2.954   1.476  -2.468  0.00  0.00     0.003 C 
ENDBRANCH   8   9
ENDBRANCH   7   8
ENDBRANCH   1   7
TORSDOF 3
ENDMDL
