MODEL 1
REMARK minimizedAffinity -5.17635775
REMARK minimizedRMSD -1
REMARK  3 active torsions:
REMARK  status: ('A' for Active; 'I' for Inactive)
REMARK    1  A    between atoms: C3'_2  and  C2'_3 
REMARK    2  A    between atoms: C2'_3  and  C1'_4 
REMARK    3  A    between atoms: C1'_4  and  C1_5 
ROOT
ATOM      1  C1  N4B d   1       0.494   0.176  -0.655  0.00  0.00    -0.075 A 
ATOM      2  C2  N4B d   1       1.593  -0.567  -1.139  0.00  0.00     0.002 A 
ATOM      3  C3  N4B d   1       2.360  -1.303  -0.270  0.00  0.00     0.002 A 
ATOM      4  C4  N4B d   1       2.060  -1.297   1.084  0.00  0.00    -0.004 A 
ATOM      5  C5  N4B d   1       0.982  -0.597   1.540  0.00  0.00     0.002 A 
ATOM      6  C6  N4B d   1       0.200   0.144   0.678  0.00  0.00     0.002 A 
ENDROOT
BRANCH   1   7
ATOM      7  C1' N4B d   1      -0.322   1.065  -1.553  0.00  0.00     0.057 C 
BRANCH   7   8
ATOM      8  C2' N4B d   1      -1.724   1.215  -0.970  0.00  0.00     0.009 C 
BRANCH   8   9
ATOM      9  C3' N4B d   1      -2.751   1.546  -2.039  0.00  0.00     0.004 C 
ATOM     10  C4' N4B d   1      -2.162   2.286  -3.202  0.00  0.00     0.003 C 
ENDBRANCH   8   9
ENDBRANCH   7   8
ENDBRANCH   1   7
TORSDOF 3
ENDMDL
