MODEL 1
REMARK minimizedAffinity -2.89563155
REMARK minimizedRMSD -1
REMARK  3 active torsions:
REMARK  status: ('A' for Active; 'I' for Inactive)
REMARK    1  A    between atoms: C3'_2  and  C2'_3 
REMARK    2  A    between atoms: C2'_3  and  C1'_4 
REMARK    3  A    between atoms: C1'_4  and  C1_5 
ROOT
ATOM      1  C1  N4B d   1      -0.474   0.999  -0.495  0.00  0.00    -0.075 A 
ATOM      2  C2  N4B d   1      -0.827   1.838  -1.575  0.00  0.00     0.002 A 
ATOM      3  C3  N4B d   1      -2.101   1.798  -2.087  0.00  0.00     0.002 A 
ATOM      4  C4  N4B d   1      -3.028   0.917  -1.551  0.00  0.00    -0.004 A 
ATOM      5  C5  N4B d   1      -2.687   0.128  -0.492  0.00  0.00     0.002 A 
ATOM      6  C6  N4B d   1      -1.412   0.161   0.036  0.00  0.00     0.002 A 
ENDROOT
BRANCH   1   7
ATOM      7  C1' N4B d   1       0.929   0.945   0.043  0.00  0.00     0.057 C 
BRANCH   7   8
ATOM      8  C2' N4B d   1       1.754  -0.019  -0.804  0.00  0.00     0.009 C 
BRANCH   8   9
ATOM      9  C3' N4B d   1       2.076  -1.301  -0.055  0.00  0.00     0.004 C 
ATOM     10  C4' N4B d   1       2.785  -1.053   1.243  0.00  0.00     0.003 C 
ENDBRANCH   8   9
ENDBRANCH   7   8
ENDBRANCH   1   7
TORSDOF 3
ENDMDL
