MODEL 1
REMARK minimizedAffinity -2.51350546
REMARK minimizedRMSD -1
REMARK  0 active torsions:
REMARK  status: ('A' for Active; 'I' for Inactive)
ROOT
ATOM      1  C1  DEN d   1       2.456  -1.851  -0.865  0.00  0.00     0.130 A 
ATOM      2  C2  DEN d   1       3.529  -1.687   0.112  0.00  0.00    -0.031 A 
ATOM      3  C3  DEN d   1       2.982  -0.955   1.272  0.00  0.00     0.027 A 
ATOM      4  C4  DEN d   1       0.590  -0.067   1.649  0.00  0.00     0.027 A 
ATOM      5  C5  DEN d   1      -0.666   0.045   1.096  0.00  0.00    -0.003 A 
ATOM      6  C6  DEN d   1      -0.959  -0.434  -0.154  0.00  0.00     0.001 A 
ATOM      7  C7  DEN d   1       0.007  -1.087  -0.874  0.00  0.00     0.017 A 
ATOM      8  C8  DEN d   1       1.278  -1.197  -0.325  0.00  0.00    -0.094 A 
ATOM      9  C9  DEN d   1       1.550  -0.717   0.945  0.00  0.00    -0.072 A 
ENDROOT
TORSDOF 0
ENDMDL
