MODEL 1
REMARK minimizedAffinity -2.33167291
REMARK minimizedRMSD -1
REMARK  0 active torsions:
REMARK  status: ('A' for Active; 'I' for Inactive)
ROOT
ATOM      1  C1  DEN d   1       3.378   5.978   1.971  0.00  0.00     0.130 A 
ATOM      2  C2  DEN d   1       4.834   6.000   2.081  0.00  0.00    -0.031 A 
ATOM      3  C3  DEN d   1       5.183   6.000   3.516  0.00  0.00     0.027 A 
ATOM      4  C4  DEN d   1       3.619   5.964   5.566  0.00  0.00     0.027 A 
ATOM      5  C5  DEN d   1       2.303   5.954   5.974  0.00  0.00    -0.003 A 
ATOM      6  C6  DEN d   1       1.262   5.984   5.085  0.00  0.00     0.001 A 
ATOM      7  C7  DEN d   1       1.519   5.982   3.739  0.00  0.00     0.017 A 
ATOM      8  C8  DEN d   1       2.843   6.000   3.320  0.00  0.00    -0.094 A 
ATOM      9  C9  DEN d   1       3.881   5.956   4.235  0.00  0.00    -0.072 A 
ENDROOT
TORSDOF 0
ENDMDL
