MODEL 1
REMARK minimizedAffinity 0.659266174
REMARK minimizedRMSD -1
REMARK  0 active torsions:
REMARK  status: ('A' for Active; 'I' for Inactive)
ROOT
ATOM      1  C1  DEN d   1       2.326   5.973   1.887  0.00  0.00     0.130 A 
ATOM      2  C2  DEN d   1       3.715   5.995   1.437  0.00  0.00    -0.031 A 
ATOM      3  C3  DEN d   1       4.583   5.997   2.632  0.00  0.00     0.027 A 
ATOM      4  C4  DEN d   1       3.913   5.965   5.122  0.00  0.00     0.027 A 
ATOM      5  C5  DEN d   1       2.850   5.955   5.999  0.00  0.00    -0.003 A 
ATOM      6  C6  DEN d   1       1.550   5.985   5.571  0.00  0.00     0.001 A 
ATOM      7  C7  DEN d   1       1.277   5.980   4.228  0.00  0.00     0.017 A 
ATOM      8  C8  DEN d   1       2.343   5.997   3.338  0.00  0.00    -0.094 A 
ATOM      9  C9  DEN d   1       3.651   5.955   3.791  0.00  0.00    -0.072 A 
ENDROOT
TORSDOF 0
ENDMDL
