MODEL 1
REMARK minimizedAffinity -0.42326355
REMARK minimizedRMSD -1
REMARK  0 active torsions:
REMARK  status: ('A' for Active; 'I' for Inactive)
ROOT
ATOM      1  C1  DEN d   1       5.402   6.000   3.792  0.00  0.00     0.130 A 
ATOM      2  C2  DEN d   1       5.507   5.964   2.336  0.00  0.00    -0.031 A 
ATOM      3  C3  DEN d   1       4.139   5.948   1.780  0.00  0.00     0.027 A 
ATOM      4  C4  DEN d   1       1.881   5.981   3.025  0.00  0.00     0.027 A 
ATOM      5  C5  DEN d   1       1.283   6.000   4.266  0.00  0.00    -0.003 A 
ATOM      6  C6  DEN d   1       2.011   5.986   5.427  0.00  0.00     0.001 A 
ATOM      7  C7  DEN d   1       3.379   5.998   5.371  0.00  0.00     0.017 A 
ATOM      8  C8  DEN d   1       3.989   5.971   4.123  0.00  0.00    -0.094 A 
ATOM      9  C9  DEN d   1       3.236   5.998   2.961  0.00  0.00    -0.072 A 
ENDROOT
TORSDOF 0
ENDMDL
