MODEL 1
REMARK minimizedAffinity -3.45077562
REMARK minimizedRMSD -1
REMARK  0 active torsions:
REMARK  status: ('A' for Active; 'I' for Inactive)
ROOT
ATOM      1  C1  DEN d   1       4.921   5.974   3.926  0.00  0.00     0.130 A 
ATOM      2  C2  DEN d   1       4.831   5.942   2.469  0.00  0.00    -0.031 A 
ATOM      3  C3  DEN d   1       3.402   5.936   2.099  0.00  0.00     0.027 A 
ATOM      4  C4  DEN d   1       1.329   5.979   3.634  0.00  0.00     0.027 A 
ATOM      5  C5  DEN d   1       0.902   5.998   4.943  0.00  0.00    -0.003 A 
ATOM      6  C6  DEN d   1       1.777   5.976   5.997  0.00  0.00     0.001 A 
ATOM      7  C7  DEN d   1       3.126   5.980   5.759  0.00  0.00     0.017 A 
ATOM      8  C8  DEN d   1       3.564   5.953   4.442  0.00  0.00    -0.094 A 
ATOM      9  C9  DEN d   1       2.664   5.988   3.390  0.00  0.00    -0.072 A 
ENDROOT
TORSDOF 0
ENDMDL
