MODEL 1
REMARK minimizedAffinity 1.99090207
REMARK minimizedRMSD -1
REMARK  0 active torsions:
REMARK  status: ('A' for Active; 'I' for Inactive)
ROOT
ATOM      1  C1  DEN d   1      -1.682  -0.693   1.831  0.00  0.00     0.130 A 
ATOM      2  C2  DEN d   1      -2.520   0.094   0.931  0.00  0.00    -0.031 A 
ATOM      3  C3  DEN d   1      -1.746   0.362  -0.298  0.00  0.00     0.027 A 
ATOM      4  C4  DEN d   1       0.655  -0.367  -0.893  0.00  0.00     0.027 A 
ATOM      5  C5  DEN d   1       1.769  -1.040  -0.441  0.00  0.00    -0.003 A 
ATOM      6  C6  DEN d   1       1.822  -1.611   0.803  0.00  0.00     0.001 A 
ATOM      7  C7  DEN d   1       0.724  -1.558   1.621  0.00  0.00     0.017 A 
ATOM      8  C8  DEN d   1      -0.399  -0.875   1.176  0.00  0.00    -0.094 A 
ATOM      9  C9  DEN d   1      -0.437  -0.315  -0.090  0.00  0.00    -0.072 A 
ENDROOT
TORSDOF 0
ENDMDL
