MODEL 1
REMARK minimizedAffinity 6.14858723
REMARK minimizedRMSD -1
REMARK  1 active torsions:
REMARK  status: ('A' for Active; 'I' for Inactive)
REMARK    1  A    between atoms: C1_2  and  C2_3 
ROOT
ATOM      1  C2  UNL d   1       0.391   1.131   2.005  0.00  0.00    -0.076 A 
ATOM      2  C3  UNL d   1      -0.958   1.486   2.177  0.00  0.00     0.004 A 
ATOM      3  C4  UNL d   1      -1.766   1.789   1.082  0.00  0.00    -0.003 A 
ATOM      4  C5  UNL d   1      -1.237   1.742  -0.203  0.00  0.00     0.000 A 
ATOM      5  C6  UNL d   1       0.095   1.375  -0.394  0.00  0.00     0.000 A 
ATOM      6  C7  UNL d   1       0.918   1.051   0.698  0.00  0.00    -0.073 A 
ATOM      7  C8  UNL d   1       2.349   0.668   0.435  0.00  0.00     0.078 C 
ENDROOT
BRANCH   1   8
ATOM      8  C1  UNL d   1       1.225   0.839   3.232  0.00  0.00     0.053 C 
ATOM      9  C   UNL d   1       0.527  -0.103   4.200  0.00  0.00     0.018 C 
ENDBRANCH   1   8
TORSDOF 1
ENDMDL
