MODEL 1
REMARK minimizedAffinity 1.39693165
REMARK minimizedRMSD -1
REMARK  1 active torsions:
REMARK  status: ('A' for Active; 'I' for Inactive)
REMARK    1  A    between atoms: C1_2  and  C2_3 
ROOT
ATOM      1  C2  UNL d   1      -0.073   1.074   1.301  0.00  0.00    -0.076 A 
ATOM      2  C3  UNL d   1      -0.964   1.199   2.381  0.00  0.00     0.004 A 
ATOM      3  C4  UNL d   1      -0.755   0.499   3.568  0.00  0.00    -0.003 A 
ATOM      4  C5  UNL d   1       0.349  -0.337   3.695  0.00  0.00     0.000 A 
ATOM      5  C6  UNL d   1       1.253  -0.460   2.640  0.00  0.00     0.000 A 
ATOM      6  C7  UNL d   1       1.066   0.252   1.442  0.00  0.00    -0.073 A 
ATOM      7  C8  UNL d   1       2.069   0.077   0.335  0.00  0.00     0.078 C 
ENDROOT
BRANCH   1   8
ATOM      8  C1  UNL d   1      -0.365   1.837   0.029  0.00  0.00     0.053 C 
ATOM      9  C   UNL d   1      -1.214   1.037  -0.947  0.00  0.00     0.018 C 
ENDBRANCH   1   8
TORSDOF 1
ENDMDL
