MODEL 1
REMARK minimizedAffinity 4.99562836
REMARK minimizedRMSD -1
REMARK  1 active torsions:
REMARK  status: ('A' for Active; 'I' for Inactive)
REMARK    1  A    between atoms: C1_2  and  C2_3 
ROOT
ATOM      1  C2  UNL d   1       3.293  -0.754   0.131  0.00  0.00    -0.076 A 
ATOM      2  C3  UNL d   1       4.691  -0.763  -0.016  0.00  0.00     0.004 A 
ATOM      3  C4  UNL d   1       5.422   0.423  -0.007  0.00  0.00    -0.003 A 
ATOM      4  C5  UNL d   1       4.766   1.640   0.150  0.00  0.00     0.000 A 
ATOM      5  C6  UNL d   1       3.382   1.667   0.314  0.00  0.00     0.000 A 
ATOM      6  C7  UNL d   1       2.632   0.478   0.324  0.00  0.00    -0.073 A 
ATOM      7  C8  UNL d   1       1.141   0.567   0.498  0.00  0.00     0.078 C 
ENDROOT
BRANCH   1   8
ATOM      8  C1  UNL d   1       2.551  -2.070   0.086  0.00  0.00     0.053 C 
ATOM      9  C   UNL d   1       2.683  -2.768  -1.259  0.00  0.00     0.018 C 
ENDBRANCH   1   8
TORSDOF 1
ENDMDL
