MODEL 1
REMARK minimizedAffinity -0.772722483
REMARK minimizedRMSD -1
REMARK  1 active torsions:
REMARK  status: ('A' for Active; 'I' for Inactive)
REMARK    1  A    between atoms: C1_2  and  C2_3 
ROOT
ATOM      1  C2  UNL d   1       2.310  -0.874   0.523  0.00  0.00    -0.076 A 
ATOM      2  C3  UNL d   1       2.308  -2.207   0.076  0.00  0.00     0.004 A 
ATOM      3  C4  UNL d   1       3.047  -2.589  -1.042  0.00  0.00    -0.003 A 
ATOM      4  C5  UNL d   1       3.801  -1.646  -1.731  0.00  0.00     0.000 A 
ATOM      5  C6  UNL d   1       3.828  -0.323  -1.291  0.00  0.00     0.000 A 
ATOM      6  C7  UNL d   1       3.102   0.077  -0.156  0.00  0.00    -0.073 A 
ATOM      7  C8  UNL d   1       3.163   1.518   0.270  0.00  0.00     0.078 C 
ENDROOT
BRANCH   1   8
ATOM      8  C1  UNL d   1       1.467  -0.512   1.725  0.00  0.00     0.053 C 
ATOM      9  C   UNL d   1       1.952  -1.185   3.000  0.00  0.00     0.018 C 
ENDBRANCH   1   8
TORSDOF 1
ENDMDL
