MODEL 1
REMARK minimizedAffinity 4.1440773
REMARK minimizedRMSD -1
REMARK  1 active torsions:
REMARK  status: ('A' for Active; 'I' for Inactive)
REMARK    1  A    between atoms: C1_2  and  C2_3 
ROOT
ATOM      1  C2  UNL d   1       0.840   0.878   0.855  0.00  0.00    -0.076 A 
ATOM      2  C3  UNL d   1       1.371   0.597   2.127  0.00  0.00     0.004 A 
ATOM      3  C4  UNL d   1       0.561   0.612   3.261  0.00  0.00    -0.003 A 
ATOM      4  C5  UNL d   1      -0.793   0.907   3.142  0.00  0.00     0.000 A 
ATOM      5  C6  UNL d   1      -1.339   1.170   1.887  0.00  0.00     0.000 A 
ATOM      6  C7  UNL d   1      -0.540   1.144   0.731  0.00  0.00    -0.073 A 
ATOM      7  C8  UNL d   1      -1.181   1.442  -0.597  0.00  0.00     0.078 C 
ENDROOT
BRANCH   1   8
ATOM      8  C1  UNL d   1       1.772   0.874  -0.335  0.00  0.00     0.053 C 
ATOM      9  C   UNL d   1       3.185   1.302   0.030  0.00  0.00     0.018 C 
ENDBRANCH   1   8
TORSDOF 1
ENDMDL
