MODEL 1
REMARK minimizedAffinity 5.55440712
REMARK minimizedRMSD -1
REMARK  1 active torsions:
REMARK  status: ('A' for Active; 'I' for Inactive)
REMARK    1  A    between atoms: C1_2  and  C2_3 
ROOT
ATOM      1  C2  UNL d   1       0.768   0.867   0.651  0.00  0.00    -0.076 A 
ATOM      2  C3  UNL d   1       1.131   0.733   2.002  0.00  0.00     0.004 A 
ATOM      3  C4  UNL d   1       0.229   1.035   3.021  0.00  0.00    -0.003 A 
ATOM      4  C5  UNL d   1      -1.051   1.475   2.705  0.00  0.00     0.000 A 
ATOM      5  C6  UNL d   1      -1.435   1.597   1.370  0.00  0.00     0.000 A 
ATOM      6  C7  UNL d   1      -0.543   1.281   0.331  0.00  0.00    -0.073 A 
ATOM      7  C8  UNL d   1      -1.007   1.436  -1.092  0.00  0.00     0.078 C 
ENDROOT
BRANCH   1   8
ATOM      8  C1  UNL d   1       1.797   0.550  -0.411  0.00  0.00     0.053 C 
ATOM      9  C   UNL d   1       3.211   0.900   0.026  0.00  0.00     0.018 C 
ENDBRANCH   1   8
TORSDOF 1
ENDMDL
