MODEL 1
REMARK minimizedAffinity -2.1201129
REMARK minimizedRMSD -1
REMARK  0 active torsions:
REMARK  status: ('A' for Active; 'I' for Inactive)
ROOT
ATOM      1  C4' PXY d   1      -3.779  -0.710   2.926  0.00  0.00     0.077 C 
ATOM      2  C1' PXY d   1       1.003   2.120   1.334  0.00  0.00     0.077 C 
ATOM      3  C1  PXY d   1      -0.253   1.387   1.761  0.00  0.00    -0.082 A 
ATOM      4  C2  PXY d   1      -0.367   0.091   1.522  0.00  0.00     0.003 A 
ATOM      5  C3  PXY d   1      -1.509  -0.581   1.873  0.00  0.00     0.003 A 
ATOM      6  C4  PXY d   1      -2.525   0.069   2.521  0.00  0.00    -0.082 A 
ATOM      7  C5  PXY d   1      -2.412   1.390   2.778  0.00  0.00     0.003 A 
ATOM      8  C6  PXY d   1      -1.261   2.062   2.377  0.00  0.00     0.003 A 
ENDROOT
TORSDOF 0
ENDMDL
