MODEL 1
REMARK minimizedAffinity -6.45822144
REMARK minimizedRMSD -1
REMARK  0 active torsions:
REMARK  status: ('A' for Active; 'I' for Inactive)
ROOT
ATOM      1  C4' PXY d   1       1.855   0.747  -0.242  0.00  0.00     0.077 C 
ATOM      2  C1' PXY d   1      -2.893   1.488   2.971  0.00  0.00     0.077 C 
ATOM      3  C1  PXY d   1      -1.646   1.282   2.134  0.00  0.00    -0.082 A 
ATOM      4  C2  PXY d   1      -1.004   2.332   1.647  0.00  0.00     0.003 A 
ATOM      5  C3  PXY d   1       0.107   2.163   0.861  0.00  0.00     0.003 A 
ATOM      6  C4  PXY d   1       0.597   0.908   0.616  0.00  0.00    -0.082 A 
ATOM      7  C5  PXY d   1      -0.046  -0.167   1.118  0.00  0.00     0.003 A 
ATOM      8  C6  PXY d   1      -1.196   0.024   1.878  0.00  0.00     0.003 A 
ENDROOT
TORSDOF 0
ENDMDL
