MODEL 1
REMARK minimizedAffinity -0.156352878
REMARK minimizedRMSD -1
REMARK  0 active torsions:
REMARK  status: ('A' for Active; 'I' for Inactive)
ROOT
ATOM      1  C4' PXY d   1      -2.969   2.262   3.399  0.00  0.00     0.077 C 
ATOM      2  C1' PXY d   1       1.395  -0.220   0.535  0.00  0.00     0.077 C 
ATOM      3  C1  PXY d   1       0.257   0.442   1.286  0.00  0.00    -0.082 A 
ATOM      4  C2  PXY d   1      -0.535  -0.290   2.052  0.00  0.00     0.003 A 
ATOM      5  C3  PXY d   1      -1.589   0.287   2.713  0.00  0.00     0.003 A 
ATOM      6  C4  PXY d   1      -1.802   1.637   2.630  0.00  0.00    -0.082 A 
ATOM      7  C5  PXY d   1      -0.992   2.393   1.859  0.00  0.00     0.003 A 
ATOM      8  C6  PXY d   1       0.047   1.781   1.164  0.00  0.00     0.003 A 
ENDROOT
TORSDOF 0
ENDMDL
