MODEL 1
REMARK minimizedAffinity -1.43601489
REMARK minimizedRMSD -1
REMARK  0 active torsions:
REMARK  status: ('A' for Active; 'I' for Inactive)
ROOT
ATOM      1  C4' PXY d   1       2.293   1.108  -0.247  0.00  0.00     0.077 C 
ATOM      2  C1' PXY d   1      -2.667  -0.287   2.373  0.00  0.00     0.077 C 
ATOM      3  C1  PXY d   1      -1.372   0.088   1.679  0.00  0.00    -0.082 A 
ATOM      4  C2  PXY d   1      -0.382  -0.788   1.624  0.00  0.00     0.003 A 
ATOM      5  C3  PXY d   1       0.807  -0.454   1.028  0.00  0.00     0.003 A 
ATOM      6  C4  PXY d   1       0.965   0.770   0.435  0.00  0.00    -0.082 A 
ATOM      7  C5  PXY d   1      -0.044   1.665   0.477  0.00  0.00     0.003 A 
ATOM      8  C6  PXY d   1      -1.229   1.321   1.123  0.00  0.00     0.003 A 
ENDROOT
TORSDOF 0
ENDMDL
