MODEL 1
REMARK minimizedAffinity -6.65810204
REMARK minimizedRMSD -1
REMARK  0 active torsions:
REMARK  status: ('A' for Active; 'I' for Inactive)
ROOT
ATOM      1  C4' PXY d   1       0.504   0.356   0.640  0.00  0.00     0.077 C 
ATOM      2  C1' PXY d   1      -4.096   1.586   3.918  0.00  0.00     0.077 C 
ATOM      3  C1  PXY d   1      -2.891   1.251   3.061  0.00  0.00    -0.082 A 
ATOM      4  C2  PXY d   1      -1.985   2.183   2.814  0.00  0.00     0.003 A 
ATOM      5  C3  PXY d   1      -0.906   1.905   2.015  0.00  0.00     0.003 A 
ATOM      6  C4  PXY d   1      -0.724   0.647   1.507  0.00  0.00    -0.082 A 
ATOM      7  C5  PXY d   1      -1.639  -0.312   1.764  0.00  0.00     0.003 A 
ATOM      8  C6  PXY d   1      -2.749   0.001   2.543  0.00  0.00     0.003 A 
ENDROOT
TORSDOF 0
ENDMDL
