MODEL 1
REMARK minimizedAffinity 0.0840029642
REMARK minimizedRMSD -1
REMARK  0 active torsions:
REMARK  status: ('A' for Active; 'I' for Inactive)
ROOT
ATOM      1  C4' PXY d   1      -3.037   2.337   3.697  0.00  0.00     0.077 C 
ATOM      2  C1' PXY d   1       1.040   0.196   0.203  0.00  0.00     0.077 C 
ATOM      3  C1  PXY d   1      -0.037   0.747   1.116  0.00  0.00    -0.082 A 
ATOM      4  C2  PXY d   1      -0.074   2.044   1.376  0.00  0.00     0.003 A 
ATOM      5  C3  PXY d   1      -1.021   2.555   2.225  0.00  0.00     0.003 A 
ATOM      6  C4  PXY d   1      -1.973   1.738   2.773  0.00  0.00    -0.082 A 
ATOM      7  C5  PXY d   1      -1.949   0.415   2.505  0.00  0.00     0.003 A 
ATOM      8  C6  PXY d   1      -0.954  -0.090   1.673  0.00  0.00     0.003 A 
ENDROOT
TORSDOF 0
ENDMDL
