MODEL 1
REMARK minimizedAffinity -1.99345553
REMARK minimizedRMSD -1
REMARK  0 active torsions:
REMARK  status: ('A' for Active; 'I' for Inactive)
ROOT
ATOM      1  C4' PXY d   1      -4.054   1.560   3.811  0.00  0.00     0.077 C 
ATOM      2  C1' PXY d   1       0.780   1.292   0.652  0.00  0.00     0.077 C 
ATOM      3  C1  PXY d   1      -0.492   1.351   1.475  0.00  0.00    -0.082 A 
ATOM      4  C2  PXY d   1      -0.930   2.518   1.920  0.00  0.00     0.003 A 
ATOM      5  C3  PXY d   1      -2.060   2.586   2.693  0.00  0.00     0.003 A 
ATOM      6  C4  PXY d   1      -2.780   1.454   2.969  0.00  0.00    -0.082 A 
ATOM      7  C5  PXY d   1      -2.346   0.261   2.509  0.00  0.00     0.003 A 
ATOM      8  C6  PXY d   1      -1.173   0.208   1.761  0.00  0.00     0.003 A 
ENDROOT
TORSDOF 0
ENDMDL
