MODEL 1
REMARK minimizedAffinity 2.42284417
REMARK minimizedRMSD -1
REMARK  0 active torsions:
REMARK  status: ('A' for Active; 'I' for Inactive)
ROOT
ATOM      1  C4' PXY d   1      -3.190   1.968   3.778  0.00  0.00     0.077 C 
ATOM      2  C1' PXY d   1       1.268   0.424   0.438  0.00  0.00     0.077 C 
ATOM      3  C1  PXY d   1       0.093   0.818   1.312  0.00  0.00    -0.082 A 
ATOM      4  C2  PXY d   1      -0.143   2.097   1.552  0.00  0.00     0.003 A 
ATOM      5  C3  PXY d   1      -1.183   2.469   2.366  0.00  0.00     0.003 A 
ATOM      6  C4  PXY d   1      -2.021   1.525   2.895  0.00  0.00    -0.082 A 
ATOM      7  C5  PXY d   1      -1.793   0.218   2.645  0.00  0.00     0.003 A 
ATOM      8  C6  PXY d   1      -0.708  -0.141   1.851  0.00  0.00     0.003 A 
ENDROOT
TORSDOF 0
ENDMDL
