MODEL 1
REMARK minimizedAffinity -1.72711408
REMARK minimizedRMSD -1
REMARK  0 active torsions:
REMARK  status: ('A' for Active; 'I' for Inactive)
ROOT
ATOM      1  C4' PXY d   1      -3.657   1.401   3.352  0.00  0.00     0.077 C 
ATOM      2  C1' PXY d   1       1.205   0.593   0.332  0.00  0.00     0.077 C 
ATOM      3  C1  PXY d   1      -0.064   0.814   1.131  0.00  0.00    -0.082 A 
ATOM      4  C2  PXY d   1      -0.970  -0.148   1.201  0.00  0.00     0.003 A 
ATOM      5  C3  PXY d   1      -2.137   0.046   1.893  0.00  0.00     0.003 A 
ATOM      6  C4  PXY d   1      -2.357   1.219   2.565  0.00  0.00    -0.082 A 
ATOM      7  C5  PXY d   1      -1.434   2.201   2.508  0.00  0.00     0.003 A 
ATOM      8  C6  PXY d   1      -0.273   1.999   1.766  0.00  0.00     0.003 A 
ENDROOT
TORSDOF 0
ENDMDL
