MODEL 1
REMARK minimizedAffinity 0.702936947
REMARK minimizedRMSD -1
REMARK  0 active torsions:
REMARK  status: ('A' for Active; 'I' for Inactive)
ROOT
ATOM      1  C4' PXY d   1       1.153   0.378   0.732  0.00  0.00     0.077 C 
ATOM      2  C1' PXY d   1      -3.392   2.333   3.722  0.00  0.00     0.077 C 
ATOM      3  C1  PXY d   1      -2.203   1.808   2.941  0.00  0.00    -0.082 A 
ATOM      4  C2  PXY d   1      -1.178   2.608   2.693  0.00  0.00     0.003 A 
ATOM      5  C3  PXY d   1      -0.109   2.159   1.961  0.00  0.00     0.003 A 
ATOM      6  C4  PXY d   1      -0.065   0.862   1.524  0.00  0.00    -0.082 A 
ATOM      7  C5  PXY d   1      -1.101   0.037   1.782  0.00  0.00     0.003 A 
ATOM      8  C6  PXY d   1      -2.195   0.524   2.491  0.00  0.00     0.003 A 
ENDROOT
TORSDOF 0
ENDMDL
