MODEL 1
REMARK minimizedAffinity -1.45570183
REMARK minimizedRMSD -1
REMARK  0 active torsions:
REMARK  status: ('A' for Active; 'I' for Inactive)
ROOT
ATOM      1  C4' PXY d   1      -0.684   2.389   2.246  0.00  0.00     0.077 C 
ATOM      2  C1' PXY d   1       3.211  -0.882  -0.501  0.00  0.00     0.077 C 
ATOM      3  C1  PXY d   1       2.180  -0.033   0.216  0.00  0.00    -0.082 A 
ATOM      4  C2  PXY d   1       2.395   1.263   0.373  0.00  0.00     0.003 A 
ATOM      5  C3  PXY d   1       1.488   2.040   1.047  0.00  0.00     0.003 A 
ATOM      6  C4  PXY d   1       0.325   1.495   1.520  0.00  0.00    -0.082 A 
ATOM      7  C5  PXY d   1       0.094   0.175   1.355  0.00  0.00     0.003 A 
ATOM      8  C6  PXY d   1       1.046  -0.604   0.704  0.00  0.00     0.003 A 
ENDROOT
TORSDOF 0
ENDMDL
