MODEL 1
REMARK minimizedAffinity -0.320779085
REMARK minimizedRMSD -1
REMARK  0 active torsions:
REMARK  status: ('A' for Active; 'I' for Inactive)
ROOT
ATOM      1  C4' PXY d   1      -6.000   4.430   6.000  0.00  0.00     0.077 C 
ATOM      2  C1' PXY d   1      -3.208   0.097   3.383  0.00  0.00     0.077 C 
ATOM      3  C1  PXY d   1      -3.937   1.228   4.081  0.00  0.00    -0.082 A 
ATOM      4  C2  PXY d   1      -4.894   1.882   3.443  0.00  0.00     0.003 A 
ATOM      5  C3  PXY d   1      -5.541   2.928   4.047  0.00  0.00     0.003 A 
ATOM      6  C4  PXY d   1      -5.243   3.275   5.338  0.00  0.00    -0.082 A 
ATOM      7  C5  PXY d   1      -4.276   2.606   6.000  0.00  0.00     0.003 A 
ATOM      8  C6  PXY d   1      -3.602   1.573   5.354  0.00  0.00     0.003 A 
ENDROOT
TORSDOF 0
ENDMDL
