MODEL 1
REMARK minimizedAffinity -5.75912619
REMARK minimizedRMSD -1
REMARK  0 active torsions:
REMARK  status: ('A' for Active; 'I' for Inactive)
ROOT
ATOM      1  C4' PXY d   1      -3.567   1.286   3.625  0.00  0.00     0.077 C 
ATOM      2  C1' PXY d   1       0.834   0.370  -0.009  0.00  0.00     0.077 C 
ATOM      3  C1  PXY d   1      -0.314   0.621   0.948  0.00  0.00    -0.082 A 
ATOM      4  C2  PXY d   1      -1.073  -0.390   1.338  0.00  0.00     0.003 A 
ATOM      5  C3  PXY d   1      -2.135  -0.176   2.179  0.00  0.00     0.003 A 
ATOM      6  C4  PXY d   1      -2.391   1.078   2.667  0.00  0.00    -0.082 A 
ATOM      7  C5  PXY d   1      -1.614   2.113   2.282  0.00  0.00     0.003 A 
ATOM      8  C6  PXY d   1      -0.566   1.881   1.396  0.00  0.00     0.003 A 
ENDROOT
TORSDOF 0
ENDMDL
