MODEL 1
REMARK minimizedAffinity -5.65764856
REMARK minimizedRMSD -1
REMARK  0 active torsions:
REMARK  status: ('A' for Active; 'I' for Inactive)
ROOT
ATOM      1  C4' PXY d   1       0.608   0.426   0.562  0.00  0.00     0.077 C 
ATOM      2  C1' PXY d   1      -3.875   2.096   3.807  0.00  0.00     0.077 C 
ATOM      3  C1  PXY d   1      -2.701   1.646   2.960  0.00  0.00    -0.082 A 
ATOM      4  C2  PXY d   1      -1.785   2.527   2.591  0.00  0.00     0.003 A 
ATOM      5  C3  PXY d   1      -0.734   2.143   1.798  0.00  0.00     0.003 A 
ATOM      6  C4  PXY d   1      -0.590   0.834   1.425  0.00  0.00    -0.082 A 
ATOM      7  C5  PXY d   1      -1.514  -0.073   1.807  0.00  0.00     0.003 A 
ATOM      8  C6  PXY d   1      -2.596   0.345   2.577  0.00  0.00     0.003 A 
ENDROOT
TORSDOF 0
ENDMDL
