MODEL 1
REMARK minimizedAffinity -0.0455463491
REMARK minimizedRMSD -1
REMARK  0 active torsions:
REMARK  status: ('A' for Active; 'I' for Inactive)
ROOT
ATOM      1  C4' PXY d   1      -3.554   1.883   3.666  0.00  0.00     0.077 C 
ATOM      2  C1' PXY d   1       1.386   1.655   0.672  0.00  0.00     0.077 C 
ATOM      3  C1  PXY d   1       0.090   1.728   1.455  0.00  0.00    -0.082 A 
ATOM      4  C2  PXY d   1      -0.195   0.783   2.337  0.00  0.00     0.003 A 
ATOM      5  C3  PXY d   1      -1.377   0.816   3.031  0.00  0.00     0.003 A 
ATOM      6  C4  PXY d   1      -2.253   1.855   2.859  0.00  0.00    -0.082 A 
ATOM      7  C5  PXY d   1      -1.964   2.828   1.969  0.00  0.00     0.003 A 
ATOM      8  C6  PXY d   1      -0.778   2.754   1.245  0.00  0.00     0.003 A 
ENDROOT
TORSDOF 0
ENDMDL
