MODEL 1
REMARK minimizedAffinity -1.93413413
REMARK minimizedRMSD -1
REMARK  0 active torsions:
REMARK  status: ('A' for Active; 'I' for Inactive)
ROOT
ATOM      1  C4' PXY d   1      -2.941   2.257   3.071  0.00  0.00     0.077 C 
ATOM      2  C1' PXY d   1       1.454   0.037   0.042  0.00  0.00     0.077 C 
ATOM      3  C1  PXY d   1       0.310   0.627   0.843  0.00  0.00    -0.082 A 
ATOM      4  C2  PXY d   1      -0.827  -0.042   0.949  0.00  0.00     0.003 A 
ATOM      5  C3  PXY d   1      -1.883   0.491   1.643  0.00  0.00     0.003 A 
ATOM      6  C4  PXY d   1      -1.756   1.696   2.280  0.00  0.00    -0.082 A 
ATOM      7  C5  PXY d   1      -0.595   2.379   2.186  0.00  0.00     0.003 A 
ATOM      8  C6  PXY d   1       0.451   1.840   1.442  0.00  0.00     0.003 A 
ENDROOT
TORSDOF 0
ENDMDL
