MODEL 1
REMARK minimizedAffinity -3.57081866
REMARK minimizedRMSD -1
REMARK  0 active torsions:
REMARK  status: ('A' for Active; 'I' for Inactive)
ROOT
ATOM      1  C4' PXY d   1       1.360   3.602   0.817  0.00  0.00     0.077 C 
ATOM      2  C1' PXY d   1      -1.696  -1.267   1.425  0.00  0.00     0.077 C 
ATOM      3  C1  PXY d   1      -0.906   0.017   1.267  0.00  0.00    -0.082 A 
ATOM      4  C2  PXY d   1       0.282  -0.014   0.684  0.00  0.00     0.003 A 
ATOM      5  C3  PXY d   1       1.024   1.132   0.561  0.00  0.00     0.003 A 
ATOM      6  C4  PXY d   1       0.522   2.332   0.991  0.00  0.00    -0.082 A 
ATOM      7  C5  PXY d   1      -0.693   2.373   1.576  0.00  0.00     0.003 A 
ATOM      8  C6  PXY d   1      -1.413   1.192   1.729  0.00  0.00     0.003 A 
ENDROOT
TORSDOF 0
ENDMDL
