MODEL 1
REMARK minimizedAffinity 0.211419538
REMARK minimizedRMSD -1
REMARK  0 active torsions:
REMARK  status: ('A' for Active; 'I' for Inactive)
ROOT
ATOM      1  C4' PXY d   1      -4.364   1.451   4.106  0.00  0.00     0.077 C 
ATOM      2  C1' PXY d   1       0.508   0.790   1.066  0.00  0.00     0.077 C 
ATOM      3  C1  PXY d   1      -0.777   0.957   1.854  0.00  0.00    -0.082 A 
ATOM      4  C2  PXY d   1      -0.880   1.938   2.735  0.00  0.00     0.003 A 
ATOM      5  C3  PXY d   1      -2.022   2.085   3.480  0.00  0.00     0.003 A 
ATOM      6  C4  PXY d   1      -3.090   1.250   3.281  0.00  0.00    -0.082 A 
ATOM      7  C5  PXY d   1      -2.996   0.253   2.376  0.00  0.00     0.003 A 
ATOM      8  C6  PXY d   1      -1.813   0.097   1.660  0.00  0.00     0.003 A 
ENDROOT
TORSDOF 0
ENDMDL
