MODEL 1
REMARK minimizedAffinity 1.72668445
REMARK minimizedRMSD -1
REMARK  0 active torsions:
REMARK  status: ('A' for Active; 'I' for Inactive)
ROOT
ATOM      1  C4' PXY d   1       1.305   2.621   1.404  0.00  0.00     0.077 C 
ATOM      2  C1' PXY d   1      -3.979   1.513   3.471  0.00  0.00     0.077 C 
ATOM      3  C1  PXY d   1      -2.588   1.794   2.936  0.00  0.00    -0.082 A 
ATOM      4  C2  PXY d   1      -2.290   3.004   2.491  0.00  0.00     0.003 A 
ATOM      5  C3  PXY d   1      -1.048   3.266   1.975  0.00  0.00     0.003 A 
ATOM      6  C4  PXY d   1      -0.083   2.295   1.962  0.00  0.00    -0.082 A 
ATOM      7  C5  PXY d   1      -0.376   1.060   2.423  0.00  0.00     0.003 A 
ATOM      8  C6  PXY d   1      -1.656   0.803   2.906  0.00  0.00     0.003 A 
ENDROOT
TORSDOF 0
ENDMDL
