MODEL 1
REMARK minimizedAffinity 2.09310532
REMARK minimizedRMSD -1
REMARK  1 active torsions:
REMARK  status: ('A' for Active; 'I' for Inactive)
REMARK    1  A    between atoms: C3_4  and  O_7 
ROOT
ATOM      1  C   UNL d   1       2.569   1.508  -4.001  0.00  0.00    -0.033 A 
ATOM      2  C1  UNL d   1       1.586   0.617  -4.437  0.00  0.00     0.039 A 
ATOM      3  C2  UNL d   1       1.152  -0.411  -3.597  0.00  0.00    -0.080 A 
ATOM      4  C3  UNL d   1       1.706  -0.535  -2.326  0.00  0.00     0.150 A 
ATOM      5  C4  UNL d   1       2.683   0.351  -1.884  0.00  0.00    -0.007 A 
ATOM      6  C5  UNL d   1       3.116   1.376  -2.724  0.00  0.00     0.039 A 
ENDROOT
BRANCH   4   7
ATOM      7  O   UNL d   1       1.317  -1.525  -1.473  0.00  0.00    -0.526 OA
ATOM      8  H5  UNL d   1       0.658  -2.078  -1.924  0.00  0.00     0.418 HD
ENDBRANCH   4   7
TORSDOF 1
ENDMDL
