MODEL 1
REMARK minimizedAffinity -4.08376789
REMARK minimizedRMSD -1
REMARK  1 active torsions:
REMARK  status: ('A' for Active; 'I' for Inactive)
REMARK    1  A    between atoms: C3_4  and  O_7 
ROOT
ATOM      1  C   UNL d   1       5.579   0.025   5.131  0.00  0.00    -0.033 A 
ATOM      2  C1  UNL d   1       5.662   0.025   3.737  0.00  0.00     0.039 A 
ATOM      3  C2  UNL d   1       5.559  -1.175   3.030  0.00  0.00    -0.080 A 
ATOM      4  C3  UNL d   1       5.372  -2.365   3.727  0.00  0.00     0.150 A 
ATOM      5  C4  UNL d   1       5.284  -2.372   5.115  0.00  0.00    -0.007 A 
ATOM      6  C5  UNL d   1       5.388  -1.173   5.820  0.00  0.00     0.039 A 
ENDROOT
BRANCH   4   7
ATOM      7  O   UNL d   1       5.270  -3.561   3.081  0.00  0.00    -0.526 OA
ATOM      8  H5  UNL d   1       5.378  -3.406   2.127  0.00  0.00     0.418 HD
ENDBRANCH   4   7
TORSDOF 1
ENDMDL
