MODEL 1
REMARK minimizedAffinity -2.31590009
REMARK minimizedRMSD -1
REMARK  1 active torsions:
REMARK  status: ('A' for Active; 'I' for Inactive)
REMARK    1  A    between atoms: C3_4  and  O_7 
ROOT
ATOM      1  C   UNL d   1       6.000   5.367   3.339  0.00  0.00    -0.033 A 
ATOM      2  C1  UNL d   1       5.902   4.472   2.272  0.00  0.00     0.039 A 
ATOM      3  C2  UNL d   1       5.808   3.100   2.515  0.00  0.00    -0.080 A 
ATOM      4  C3  UNL d   1       5.812   2.637   3.828  0.00  0.00     0.150 A 
ATOM      5  C4  UNL d   1       5.905   3.523   4.896  0.00  0.00    -0.007 A 
ATOM      6  C5  UNL d   1       6.000   4.893   4.651  0.00  0.00     0.039 A 
ENDROOT
BRANCH   4   7
ATOM      7  O   UNL d   1       5.727   1.307   4.115  0.00  0.00    -0.526 OA
ATOM      8  H5  UNL d   1       5.698   0.813   3.279  0.00  0.00     0.418 HD
ENDBRANCH   4   7
TORSDOF 1
ENDMDL
