MODEL 1
REMARK minimizedAffinity -2.12705016
REMARK minimizedRMSD -1
REMARK  1 active torsions:
REMARK  status: ('A' for Active; 'I' for Inactive)
REMARK    1  A    between atoms: C3_4  and  O_7 
ROOT
ATOM      1  C   UNL d   1       5.995   0.980   3.713  0.00  0.00    -0.033 A 
ATOM      2  C1  UNL d   1       5.987   1.166   5.097  0.00  0.00     0.039 A 
ATOM      3  C2  UNL d   1       5.988   2.457   5.630  0.00  0.00    -0.080 A 
ATOM      4  C3  UNL d   1       5.994   3.551   4.770  0.00  0.00     0.150 A 
ATOM      5  C4  UNL d   1       5.998   3.374   3.390  0.00  0.00    -0.007 A 
ATOM      6  C5  UNL d   1       5.999   2.084   2.860  0.00  0.00     0.039 A 
ENDROOT
BRANCH   4   7
ATOM      7  O   UNL d   1       6.000   4.830   5.243  0.00  0.00    -0.526 OA
ATOM      8  H5  UNL d   1       6.026   4.798   6.214  0.00  0.00     0.418 HD
ENDBRANCH   4   7
TORSDOF 1
ENDMDL
