MODEL 1
REMARK minimizedAffinity -1.80739975
REMARK minimizedRMSD -1
REMARK  1 active torsions:
REMARK  status: ('A' for Active; 'I' for Inactive)
REMARK    1  A    between atoms: C3_4  and  O_7 
ROOT
ATOM      1  C   UNL d   1       5.250   2.822   3.731  0.00  0.00    -0.033 A 
ATOM      2  C1  UNL d   1       5.995   1.872   3.029  0.00  0.00     0.039 A 
ATOM      3  C2  UNL d   1       5.999   0.539   3.444  0.00  0.00    -0.080 A 
ATOM      4  C3  UNL d   1       5.255   0.169   4.561  0.00  0.00     0.150 A 
ATOM      5  C4  UNL d   1       4.508   1.109   5.263  0.00  0.00    -0.007 A 
ATOM      6  C5  UNL d   1       4.505   2.440   4.847  0.00  0.00     0.039 A 
ENDROOT
BRANCH   4   7
ATOM      7  O   UNL d   1       5.233  -1.119   5.008  0.00  0.00    -0.526 OA
ATOM      8  H5  UNL d   1       5.818  -1.651   4.443  0.00  0.00     0.418 HD
ENDBRANCH   4   7
TORSDOF 1
ENDMDL
