MODEL 1
REMARK minimizedAffinity -2.19438648
REMARK minimizedRMSD -1
REMARK  1 active torsions:
REMARK  status: ('A' for Active; 'I' for Inactive)
REMARK    1  A    between atoms: C3_4  and  O_7 
ROOT
ATOM      1  C   UNL d   1       5.940   2.861   4.796  0.00  0.00    -0.033 A 
ATOM      2  C1  UNL d   1       5.773   2.172   6.000  0.00  0.00     0.039 A 
ATOM      3  C2  UNL d   1       5.662   0.780   6.000  0.00  0.00    -0.080 A 
ATOM      4  C3  UNL d   1       5.721   0.090   4.793  0.00  0.00     0.150 A 
ATOM      5  C4  UNL d   1       5.891   0.769   3.591  0.00  0.00    -0.007 A 
ATOM      6  C5  UNL d   1       6.000   2.159   3.592  0.00  0.00     0.039 A 
ENDROOT
BRANCH   4   7
ATOM      7  O   UNL d   1       5.613  -1.268   4.742  0.00  0.00    -0.526 OA
ATOM      8  H5  UNL d   1       5.470  -1.599   5.645  0.00  0.00     0.418 HD
ENDBRANCH   4   7
TORSDOF 1
ENDMDL
