MODEL 1
REMARK minimizedAffinity -1.40628803
REMARK minimizedRMSD -1
REMARK  1 active torsions:
REMARK  status: ('A' for Active; 'I' for Inactive)
REMARK    1  A    between atoms: C3_4  and  O_7 
ROOT
ATOM      1  C   UNL d   1       5.367   1.462   4.428  0.00  0.00    -0.033 A 
ATOM      2  C1  UNL d   1       4.759   1.066   5.622  0.00  0.00     0.039 A 
ATOM      3  C2  UNL d   1       4.768  -0.278   6.000  0.00  0.00    -0.080 A 
ATOM      4  C3  UNL d   1       5.389  -1.215   5.178  0.00  0.00     0.150 A 
ATOM      5  C4  UNL d   1       6.000  -0.827   3.990  0.00  0.00    -0.007 A 
ATOM      6  C5  UNL d   1       5.988   0.516   3.613  0.00  0.00     0.039 A 
ENDROOT
BRANCH   4   7
ATOM      7  O   UNL d   1       5.420  -2.538   5.503  0.00  0.00    -0.526 OA
ATOM      8  H5  UNL d   1       4.934  -2.662   6.335  0.00  0.00     0.418 HD
ENDBRANCH   4   7
TORSDOF 1
ENDMDL
