MODEL 1
REMARK minimizedAffinity -1.02495623
REMARK minimizedRMSD -1
REMARK  1 active torsions:
REMARK  status: ('A' for Active; 'I' for Inactive)
REMARK    1  A    between atoms: C3_4  and  O_7 
ROOT
ATOM      1  C   UNL d   1       5.998   3.740   4.297  0.00  0.00    -0.033 A 
ATOM      2  C1  UNL d   1       5.989   5.134   4.388  0.00  0.00     0.039 A 
ATOM      3  C2  UNL d   1       5.985   5.910   3.227  0.00  0.00    -0.080 A 
ATOM      4  C3  UNL d   1       5.990   5.283   1.985  0.00  0.00     0.150 A 
ATOM      5  C4  UNL d   1       5.995   3.895   1.887  0.00  0.00    -0.007 A 
ATOM      6  C5  UNL d   1       6.000   3.121   3.047  0.00  0.00     0.039 A 
ENDROOT
BRANCH   4   7
ATOM      7  O   UNL d   1       5.992   5.999   0.825  0.00  0.00    -0.526 OA
ATOM      8  H5  UNL d   1       6.017   6.944   1.047  0.00  0.00     0.418 HD
ENDBRANCH   4   7
TORSDOF 1
ENDMDL
