MODEL 1
REMARK minimizedAffinity -4.60182381
REMARK minimizedRMSD -1
REMARK  1 active torsions:
REMARK  status: ('A' for Active; 'I' for Inactive)
REMARK    1  A    between atoms: C3_4  and  O_7 
ROOT
ATOM      1  C   UNL d   1       5.626  -0.822   5.612  0.00  0.00    -0.033 A 
ATOM      2  C1  UNL d   1       5.737   0.447   5.039  0.00  0.00     0.039 A 
ATOM      3  C2  UNL d   1       5.862   0.580   3.655  0.00  0.00    -0.080 A 
ATOM      4  C3  UNL d   1       5.875  -0.560   2.857  0.00  0.00     0.150 A 
ATOM      5  C4  UNL d   1       5.761  -1.826   3.421  0.00  0.00    -0.007 A 
ATOM      6  C5  UNL d   1       5.637  -1.958   4.803  0.00  0.00     0.039 A 
ENDROOT
BRANCH   4   7
ATOM      7  O   UNL d   1       6.000  -0.480   1.501  0.00  0.00    -0.526 OA
ATOM      8  H5  UNL d   1       6.098   0.455   1.256  0.00  0.00     0.418 HD
ENDBRANCH   4   7
TORSDOF 1
ENDMDL
