MODEL 1
REMARK minimizedAffinity -3.91563296
REMARK minimizedRMSD -1
REMARK  1 active torsions:
REMARK  status: ('A' for Active; 'I' for Inactive)
REMARK    1  A    between atoms: C3_4  and  O_7 
ROOT
ATOM      1  C   UNL d   1       5.996   2.186   4.142  0.00  0.00    -0.033 A 
ATOM      2  C1  UNL d   1       5.996   1.244   3.112  0.00  0.00     0.039 A 
ATOM      3  C2  UNL d   1       5.601  -0.071   3.366  0.00  0.00    -0.080 A 
ATOM      4  C3  UNL d   1       5.207  -0.430   4.652  0.00  0.00     0.150 A 
ATOM      5  C4  UNL d   1       5.201   0.505   5.682  0.00  0.00    -0.007 A 
ATOM      6  C5  UNL d   1       5.597   1.817   5.427  0.00  0.00     0.039 A 
ENDROOT
BRANCH   4   7
ATOM      7  O   UNL d   1       4.818  -1.702   4.949  0.00  0.00    -0.526 OA
ATOM      8  H5  UNL d   1       4.900  -2.244   4.146  0.00  0.00     0.418 HD
ENDBRANCH   4   7
TORSDOF 1
ENDMDL
