MODEL 1
REMARK minimizedAffinity -4.07928181
REMARK minimizedRMSD -1
REMARK  1 active torsions:
REMARK  status: ('A' for Active; 'I' for Inactive)
REMARK    1  A    between atoms: C3_4  and  O_7 
ROOT
ATOM      1  C   UNL d   1       5.854   3.397   2.467  0.00  0.00    -0.033 A 
ATOM      2  C1  UNL d   1       5.995   2.009   2.522  0.00  0.00     0.039 A 
ATOM      3  C2  UNL d   1       5.709   1.323   3.703  0.00  0.00    -0.080 A 
ATOM      4  C3  UNL d   1       5.282   2.035   4.821  0.00  0.00     0.150 A 
ATOM      5  C4  UNL d   1       5.135   3.417   4.772  0.00  0.00    -0.007 A 
ATOM      6  C5  UNL d   1       5.422   4.101   3.592  0.00  0.00     0.039 A 
ENDROOT
BRANCH   4   7
ATOM      7  O   UNL d   1       4.995   1.409   5.998  0.00  0.00    -0.526 OA
ATOM      8  H5  UNL d   1       5.170   0.459   5.891  0.00  0.00     0.418 HD
ENDBRANCH   4   7
TORSDOF 1
ENDMDL
