MODEL 1
REMARK minimizedAffinity -3.38266087
REMARK minimizedRMSD -1
REMARK  1 active torsions:
REMARK  status: ('A' for Active; 'I' for Inactive)
REMARK    1  A    between atoms: C3_4  and  O_7 
ROOT
ATOM      1  C   UNL d   1       6.000   4.123   1.627  0.00  0.00    -0.033 A 
ATOM      2  C1  UNL d   1       5.746   3.150   2.596  0.00  0.00     0.039 A 
ATOM      3  C2  UNL d   1       5.045   3.484   3.757  0.00  0.00    -0.080 A 
ATOM      4  C3  UNL d   1       4.603   4.792   3.935  0.00  0.00     0.150 A 
ATOM      5  C4  UNL d   1       4.849   5.765   2.972  0.00  0.00    -0.007 A 
ATOM      6  C5  UNL d   1       5.550   5.430   1.815  0.00  0.00     0.039 A 
ENDROOT
BRANCH   4   7
ATOM      7  O   UNL d   1       3.919   5.167   5.053  0.00  0.00    -0.526 OA
ATOM      8  H5  UNL d   1       3.848   4.397   5.643  0.00  0.00     0.418 HD
ENDBRANCH   4   7
TORSDOF 1
ENDMDL
