MODEL 1
REMARK minimizedAffinity -2.31265736
REMARK minimizedRMSD -1
REMARK  1 active torsions:
REMARK  status: ('A' for Active; 'I' for Inactive)
REMARK    1  A    between atoms: C3_4  and  O_7 
ROOT
ATOM      1  C   UNL d   1       5.998   5.997   2.919  0.00  0.00    -0.033 A 
ATOM      2  C1  UNL d   1       5.997   5.367   4.166  0.00  0.00     0.039 A 
ATOM      3  C2  UNL d   1       5.994   3.974   4.245  0.00  0.00    -0.080 A 
ATOM      4  C3  UNL d   1       5.992   3.222   3.073  0.00  0.00     0.150 A 
ATOM      5  C4  UNL d   1       5.997   3.843   1.829  0.00  0.00    -0.007 A 
ATOM      6  C5  UNL d   1       6.000   5.235   1.751  0.00  0.00     0.039 A 
ENDROOT
BRANCH   4   7
ATOM      7  O   UNL d   1       5.984   1.859   3.101  0.00  0.00    -0.526 OA
ATOM      8  H5  UNL d   1       5.952   1.570   4.028  0.00  0.00     0.418 HD
ENDBRANCH   4   7
TORSDOF 1
ENDMDL
