MODEL 1
REMARK minimizedAffinity -5.36266899
REMARK minimizedRMSD -1
REMARK  0 active torsions:
REMARK  status: ('A' for Active; 'I' for Inactive)
ROOT
ATOM      1  N1  IND d   1      -0.560   1.119   0.438  0.00  0.00    -0.196 N 
ATOM      2  C2  IND d   1      -1.378   0.565   1.382  0.00  0.00     0.054 A 
ATOM      3  C3  IND d   1      -0.832  -0.572   1.869  0.00  0.00    -0.031 A 
ATOM      4  C4  IND d   1       1.442  -1.654   1.333  0.00  0.00     0.051 A 
ATOM      5  C5  IND d   1       2.524  -1.533   0.507  0.00  0.00    -0.031 A 
ATOM      6  C6  IND d   1       2.638  -0.500  -0.401  0.00  0.00     0.015 A 
ATOM      7  C7  IND d   1       1.674   0.462  -0.509  0.00  0.00    -0.016 A 
ATOM      8  C8  IND d   1       0.570   0.339   0.323  0.00  0.00    -0.047 A 
ATOM      9  C9  IND d   1       0.429  -0.731   1.217  0.00  0.00    -0.096 A 
ATOM     10  HN1 IND d   1      -0.723   1.835  -0.010  0.00  0.00     0.298 HD
ENDROOT
TORSDOF 0
ENDMDL
