MODEL 1
REMARK minimizedAffinity -4.95085382
REMARK minimizedRMSD -1
REMARK  0 active torsions:
REMARK  status: ('A' for Active; 'I' for Inactive)
ROOT
ATOM      1  N1  IND d   1      -1.268   0.983   0.213  0.00  0.00    -0.196 N 
ATOM      2  C2  IND d   1      -0.936   2.083  -0.527  0.00  0.00     0.054 A 
ATOM      3  C3  IND d   1       0.393   2.097  -0.779  0.00  0.00    -0.031 A 
ATOM      4  C4  IND d   1       2.193   0.364  -0.160  0.00  0.00     0.051 A 
ATOM      5  C5  IND d   1       2.378  -0.792   0.546  0.00  0.00    -0.031 A 
ATOM      6  C6  IND d   1       1.336  -1.429   1.187  0.00  0.00     0.015 A 
ATOM      7  C7  IND d   1       0.062  -0.938   1.137  0.00  0.00    -0.016 A 
ATOM      8  C8  IND d   1      -0.129   0.239   0.427  0.00  0.00    -0.047 A 
ATOM      9  C9  IND d   1       0.932   0.913  -0.190  0.00  0.00    -0.096 A 
ATOM     10  HN1 IND d   1      -2.056   0.789   0.497  0.00  0.00     0.298 HD
ENDROOT
TORSDOF 0
ENDMDL
