MODEL 1
REMARK minimizedAffinity -4.53378582
REMARK minimizedRMSD -1
REMARK  0 active torsions:
REMARK  status: ('A' for Active; 'I' for Inactive)
ROOT
ATOM      1  N1  IND d   1      -0.772   0.032   0.588  0.00  0.00    -0.196 N 
ATOM      2  C2  IND d   1      -0.948   1.195  -0.108  0.00  0.00     0.054 A 
ATOM      3  C3  IND d   1       0.243   1.676  -0.530  0.00  0.00    -0.031 A 
ATOM      4  C4  IND d   1       2.596   0.663  -0.280  0.00  0.00     0.051 A 
ATOM      5  C5  IND d   1       3.267  -0.372   0.310  0.00  0.00    -0.031 A 
ATOM      6  C6  IND d   1       2.611  -1.346   1.036  0.00  0.00     0.015 A 
ATOM      7  C7  IND d   1       1.254  -1.328   1.189  0.00  0.00    -0.016 A 
ATOM      8  C8  IND d   1       0.571  -0.275   0.597  0.00  0.00    -0.047 A 
ATOM      9  C9  IND d   1       1.235   0.740  -0.104  0.00  0.00    -0.096 A 
ATOM     10  HN1 IND d   1      -1.395  -0.431   0.958  0.00  0.00     0.298 HD
ENDROOT
TORSDOF 0
ENDMDL
