MODEL 1
REMARK minimizedAffinity -1.95726192
REMARK minimizedRMSD -1
REMARK  0 active torsions:
REMARK  status: ('A' for Active; 'I' for Inactive)
ROOT
ATOM      1  N1  IND d   1      -0.437   4.138  -5.399  0.00  0.00    -0.196 N 
ATOM      2  C2  IND d   1       0.341   5.066  -4.763  0.00  0.00     0.054 A 
ATOM      3  C3  IND d   1       0.337   4.848  -3.429  0.00  0.00    -0.031 A 
ATOM      4  C4  IND d   1      -0.794   2.968  -2.082  0.00  0.00     0.051 A 
ATOM      5  C5  IND d   1      -1.641   1.905  -2.219  0.00  0.00    -0.031 A 
ATOM      6  C6  IND d   1      -2.139   1.522  -3.448  0.00  0.00     0.015 A 
ATOM      7  C7  IND d   1      -1.796   2.185  -4.593  0.00  0.00    -0.016 A 
ATOM      8  C8  IND d   1      -0.941   3.269  -4.457  0.00  0.00    -0.047 A 
ATOM      9  C9  IND d   1      -0.467   3.688  -3.207  0.00  0.00    -0.096 A 
ATOM     10  HN1 IND d   1      -0.585   4.104  -6.245  0.00  0.00     0.298 HD
ENDROOT
TORSDOF 0
ENDMDL
