MODEL 1
REMARK minimizedAffinity -1.14097083
REMARK minimizedRMSD -1
REMARK  0 active torsions:
REMARK  status: ('A' for Active; 'I' for Inactive)
ROOT
ATOM      1  N1  IND d   1      -0.267  -2.230   1.404  0.00  0.00    -0.196 N 
ATOM      2  C2  IND d   1       1.009  -2.702   1.269  0.00  0.00     0.054 A 
ATOM      3  C3  IND d   1       1.772  -1.810   0.598  0.00  0.00    -0.031 A 
ATOM      4  C4  IND d   1       1.160   0.531  -0.280  0.00  0.00     0.051 A 
ATOM      5  C5  IND d   1       0.103   1.385  -0.426  0.00  0.00    -0.031 A 
ATOM      6  C6  IND d   1      -1.157   1.072   0.044  0.00  0.00     0.015 A 
ATOM      7  C7  IND d   1      -1.404  -0.107   0.688  0.00  0.00    -0.016 A 
ATOM      8  C8  IND d   1      -0.334  -0.979   0.831  0.00  0.00    -0.047 A 
ATOM      9  C9  IND d   1       0.936  -0.686   0.320  0.00  0.00    -0.096 A 
ATOM     10  HN1 IND d   1      -0.917  -2.645   1.783  0.00  0.00     0.298 HD
ENDROOT
TORSDOF 0
ENDMDL
