MODEL 1
REMARK minimizedAffinity -0.724959016
REMARK minimizedRMSD -1
REMARK  0 active torsions:
REMARK  status: ('A' for Active; 'I' for Inactive)
ROOT
ATOM      1  N1  IND d   1       2.908  -1.156   0.674  0.00  0.00    -0.196 N 
ATOM      2  C2  IND d   1       2.190  -2.142   1.290  0.00  0.00     0.054 A 
ATOM      3  C3  IND d   1       0.865  -1.948   1.101  0.00  0.00    -0.031 A 
ATOM      4  C4  IND d   1      -0.342  -0.135  -0.273  0.00  0.00     0.051 A 
ATOM      5  C5  IND d   1      -0.111   1.006  -0.988  0.00  0.00    -0.031 A 
ATOM      6  C6  IND d   1       1.163   1.494  -1.192  0.00  0.00     0.015 A 
ATOM      7  C7  IND d   1       2.261   0.849  -0.696  0.00  0.00    -0.016 A 
ATOM      8  C8  IND d   1       2.030  -0.307   0.036  0.00  0.00    -0.047 A 
ATOM      9  C9  IND d   1       0.736  -0.783   0.283  0.00  0.00    -0.096 A 
ATOM     10  HN1 IND d   1       3.764  -1.079   0.682  0.00  0.00     0.298 HD
ENDROOT
TORSDOF 0
ENDMDL
