MODEL 1
REMARK minimizedAffinity -3.76011825
REMARK minimizedRMSD -1
REMARK  0 active torsions:
REMARK  status: ('A' for Active; 'I' for Inactive)
ROOT
ATOM      1  N1  IND d   1      -1.252   0.458  -0.377  0.00  0.00    -0.196 N 
ATOM      2  C2  IND d   1      -1.230   1.666  -1.016  0.00  0.00     0.054 A 
ATOM      3  C3  IND d   1       0.044   2.042  -1.269  0.00  0.00    -0.031 A 
ATOM      4  C4  IND d   1       2.242   0.781  -0.813  0.00  0.00     0.051 A 
ATOM      5  C5  IND d   1       2.733  -0.345  -0.214  0.00  0.00    -0.031 A 
ATOM      6  C6  IND d   1       1.905  -1.281   0.370  0.00  0.00     0.015 A 
ATOM      7  C7  IND d   1       0.547  -1.131   0.368  0.00  0.00    -0.016 A 
ATOM      8  C8  IND d   1       0.045   0.015  -0.233  0.00  0.00    -0.047 A 
ATOM      9  C9  IND d   1       0.883   0.989  -0.790  0.00  0.00    -0.096 A 
ATOM     10  HN1 IND d   1      -1.957   0.045  -0.109  0.00  0.00     0.298 HD
ENDROOT
TORSDOF 0
ENDMDL
