MODEL 1
REMARK minimizedAffinity -4.24184704
REMARK minimizedRMSD -1
REMARK  0 active torsions:
REMARK  status: ('A' for Active; 'I' for Inactive)
ROOT
ATOM      1  N1  IND d   1       1.588   1.006  -0.095  0.00  0.00    -0.196 N 
ATOM      2  C2  IND d   1       0.339   1.483  -0.378  0.00  0.00     0.054 A 
ATOM      3  C3  IND d   1      -0.555   0.469  -0.411  0.00  0.00    -0.031 A 
ATOM      4  C4  IND d   1      -0.207  -2.036   0.070  0.00  0.00     0.051 A 
ATOM      5  C5  IND d   1       0.768  -2.956   0.337  0.00  0.00    -0.031 A 
ATOM      6  C6  IND d   1       2.092  -2.595   0.479  0.00  0.00     0.015 A 
ATOM      7  C7  IND d   1       2.491  -1.293   0.370  0.00  0.00    -0.016 A 
ATOM      8  C8  IND d   1       1.505  -0.357   0.092  0.00  0.00    -0.047 A 
ATOM      9  C9  IND d   1       0.166  -0.723  -0.095  0.00  0.00    -0.096 A 
ATOM     10  HN1 IND d   1       2.305   1.477  -0.043  0.00  0.00     0.298 HD
ENDROOT
TORSDOF 0
ENDMDL
