MODEL 1
REMARK minimizedAffinity -3.27017069
REMARK minimizedRMSD -1
REMARK  0 active torsions:
REMARK  status: ('A' for Active; 'I' for Inactive)
ROOT
ATOM      1  N1  IND d   1       2.537  -1.584   0.784  0.00  0.00    -0.196 N 
ATOM      2  C2  IND d   1       1.924  -2.743   1.173  0.00  0.00     0.054 A 
ATOM      3  C3  IND d   1       0.602  -2.693   0.892  0.00  0.00    -0.031 A 
ATOM      4  C4  IND d   1      -0.749  -0.851  -0.295  0.00  0.00     0.051 A 
ATOM      5  C5  IND d   1      -0.633   0.412  -0.803  0.00  0.00    -0.031 A 
ATOM      6  C6  IND d   1       0.570   1.087  -0.810  0.00  0.00     0.015 A 
ATOM      7  C7  IND d   1       1.710   0.517  -0.318  0.00  0.00    -0.016 A 
ATOM      8  C8  IND d   1       1.595  -0.763   0.204  0.00  0.00    -0.047 A 
ATOM      9  C9  IND d   1       0.367  -1.437   0.254  0.00  0.00    -0.096 A 
ATOM     10  HN1 IND d   1       3.371  -1.400   0.884  0.00  0.00     0.298 HD
ENDROOT
TORSDOF 0
ENDMDL
