MODEL 1
REMARK minimizedAffinity -2.65223694
REMARK minimizedRMSD -1
REMARK  0 active torsions:
REMARK  status: ('A' for Active; 'I' for Inactive)
ROOT
ATOM      1  N1  IND d   1      -1.598   1.289   0.267  0.00  0.00    -0.196 N 
ATOM      2  C2  IND d   1      -0.873   1.690  -0.821  0.00  0.00     0.054 A 
ATOM      3  C3  IND d   1       0.097   0.790  -1.097  0.00  0.00    -0.031 A 
ATOM      4  C4  IND d   1       0.611  -1.461   0.040  0.00  0.00     0.051 A 
ATOM      5  C5  IND d   1       0.244  -2.241   1.101  0.00  0.00    -0.031 A 
ATOM      6  C6  IND d   1      -0.779  -1.878   1.953  0.00  0.00     0.015 A 
ATOM      7  C7  IND d   1      -1.483  -0.721   1.769  0.00  0.00    -0.016 A 
ATOM      8  C8  IND d   1      -1.108   0.076   0.697  0.00  0.00    -0.047 A 
ATOM      9  C9  IND d   1      -0.043  -0.266  -0.146  0.00  0.00    -0.096 A 
ATOM     10  HN1 IND d   1      -2.251   1.722   0.622  0.00  0.00     0.298 HD
ENDROOT
TORSDOF 0
ENDMDL
