MODEL 1
REMARK minimizedAffinity -4.11549711
REMARK minimizedRMSD -1
REMARK  0 active torsions:
REMARK  status: ('A' for Active; 'I' for Inactive)
ROOT
ATOM      1  N1  IND d   1      -1.310  -0.251   0.296  0.00  0.00    -0.196 N 
ATOM      2  C2  IND d   1      -1.212   1.039  -0.144  0.00  0.00     0.054 A 
ATOM      3  C3  IND d   1       0.085   1.375  -0.329  0.00  0.00    -0.031 A 
ATOM      4  C4  IND d   1       2.202  -0.066  -0.068  0.00  0.00     0.051 A 
ATOM      5  C5  IND d   1       2.621  -1.299   0.347  0.00  0.00    -0.031 A 
ATOM      6  C6  IND d   1       1.733  -2.266   0.773  0.00  0.00     0.015 A 
ATOM      7  C7  IND d   1       0.386  -2.039   0.788  0.00  0.00    -0.016 A 
ATOM      8  C8  IND d   1      -0.043  -0.786   0.373  0.00  0.00    -0.047 A 
ATOM      9  C9  IND d   1       0.856   0.214  -0.019  0.00  0.00    -0.096 A 
ATOM     10  HN1 IND d   1      -2.041  -0.660   0.491  0.00  0.00     0.298 HD
ENDROOT
TORSDOF 0
ENDMDL
