MODEL 1
REMARK minimizedAffinity -0.724057019
REMARK minimizedRMSD -1
REMARK  0 active torsions:
REMARK  status: ('A' for Active; 'I' for Inactive)
ROOT
ATOM      1  N1  IND d   1      -0.671   4.568  -5.033  0.00  0.00    -0.196 N 
ATOM      2  C2  IND d   1       0.521   5.026  -4.545  0.00  0.00     0.054 A 
ATOM      3  C3  IND d   1       0.893   4.307  -3.462  0.00  0.00    -0.031 A 
ATOM      4  C4  IND d   1      -0.252   2.273  -2.378  0.00  0.00     0.051 A 
ATOM      5  C5  IND d   1      -1.384   1.509  -2.447  0.00  0.00    -0.031 A 
ATOM      6  C6  IND d   1      -2.354   1.729  -3.404  0.00  0.00     0.015 A 
ATOM      7  C7  IND d   1      -2.222   2.718  -4.337  0.00  0.00    -0.016 A 
ATOM      8  C8  IND d   1      -1.078   3.500  -4.265  0.00  0.00    -0.047 A 
ATOM      9  C9  IND d   1      -0.110   3.309  -3.270  0.00  0.00    -0.096 A 
ATOM     10  HN1 IND d   1      -1.095   4.893  -5.707  0.00  0.00     0.298 HD
ENDROOT
TORSDOF 0
ENDMDL
