MODEL 1
REMARK minimizedAffinity -4.00849104
REMARK minimizedRMSD -1
REMARK  0 active torsions:
REMARK  status: ('A' for Active; 'I' for Inactive)
ROOT
ATOM      1  N1  IND d   1       0.433   1.263  -0.200  0.00  0.00    -0.196 N 
ATOM      2  C2  IND d   1      -0.911   1.159   0.029  0.00  0.00     0.054 A 
ATOM      3  C3  IND d   1      -1.217  -0.080   0.477  0.00  0.00    -0.031 A 
ATOM      4  C4  IND d   1       0.341  -2.060   1.003  0.00  0.00     0.051 A 
ATOM      5  C5  IND d   1       1.646  -2.456   0.919  0.00  0.00    -0.031 A 
ATOM      6  C6  IND d   1       2.635  -1.614   0.450  0.00  0.00     0.015 A 
ATOM      7  C7  IND d   1       2.354  -0.336   0.057  0.00  0.00    -0.016 A 
ATOM      8  C8  IND d   1       1.029   0.067   0.135  0.00  0.00    -0.047 A 
ATOM      9  C9  IND d   1       0.015  -0.797   0.570  0.00  0.00    -0.096 A 
ATOM     10  HN1 IND d   1       0.838   1.958  -0.503  0.00  0.00     0.298 HD
ENDROOT
TORSDOF 0
ENDMDL
