MODEL 1
REMARK minimizedAffinity -4.17175913
REMARK minimizedRMSD -1
REMARK  0 active torsions:
REMARK  status: ('A' for Active; 'I' for Inactive)
ROOT
ATOM      1  N1  IND d   1      -0.802   0.375  -0.963  0.00  0.00    -0.196 N 
ATOM      2  C2  IND d   1      -0.405   1.462  -0.236  0.00  0.00     0.054 A 
ATOM      3  C3  IND d   1       0.455   1.089   0.738  0.00  0.00    -0.031 A 
ATOM      4  C4  IND d   1       1.428  -1.237   1.257  0.00  0.00     0.051 A 
ATOM      5  C5  IND d   1       1.336  -2.550   0.889  0.00  0.00    -0.031 A 
ATOM      6  C6  IND d   1       0.512  -2.963  -0.138  0.00  0.00     0.015 A 
ATOM      7  C7  IND d   1      -0.246  -2.073  -0.846  0.00  0.00    -0.016 A 
ATOM      8  C8  IND d   1      -0.160  -0.740  -0.470  0.00  0.00    -0.047 A 
ATOM      9  C9  IND d   1       0.643  -0.320   0.599  0.00  0.00    -0.096 A 
ATOM     10  HN1 IND d   1      -1.358   0.385  -1.618  0.00  0.00     0.298 HD
ENDROOT
TORSDOF 0
ENDMDL
