MODEL 1
REMARK minimizedAffinity -1.2106142
REMARK minimizedRMSD -1
REMARK  0 active torsions:
REMARK  status: ('A' for Active; 'I' for Inactive)
ROOT
ATOM      1  N1  IND d   1       1.088   0.724   0.158  0.00  0.00    -0.196 N 
ATOM      2  C2  IND d   1       2.438   0.598  -0.012  0.00  0.00     0.054 A 
ATOM      3  C3  IND d   1       2.813  -0.692   0.137  0.00  0.00    -0.031 A 
ATOM      4  C4  IND d   1       1.364  -2.778   0.560  0.00  0.00     0.051 A 
ATOM      5  C5  IND d   1       0.079  -3.161   0.823  0.00  0.00    -0.031 A 
ATOM      6  C6  IND d   1      -0.957  -2.252   0.876  0.00  0.00     0.015 A 
ATOM      7  C7  IND d   1      -0.747  -0.920   0.655  0.00  0.00    -0.016 A 
ATOM      8  C8  IND d   1       0.558  -0.525   0.396  0.00  0.00    -0.047 A 
ATOM      9  C9  IND d   1       1.620  -1.439   0.383  0.00  0.00    -0.096 A 
ATOM     10  HN1 IND d   1       0.644   1.459   0.122  0.00  0.00     0.298 HD
ENDROOT
TORSDOF 0
ENDMDL
