MODEL 1
REMARK minimizedAffinity -4.76732969
REMARK minimizedRMSD -1
REMARK  0 active torsions:
REMARK  status: ('A' for Active; 'I' for Inactive)
ROOT
ATOM      1  N1  IND d   1      -1.007  -0.791  -0.044  0.00  0.00    -0.196 N 
ATOM      2  C2  IND d   1      -0.883   0.542  -0.321  0.00  0.00     0.054 A 
ATOM      3  C3  IND d   1       0.404   0.934  -0.181  0.00  0.00    -0.031 A 
ATOM      4  C4  IND d   1       2.486  -0.466   0.395  0.00  0.00     0.051 A 
ATOM      5  C5  IND d   1       2.869  -1.724   0.768  0.00  0.00    -0.031 A 
ATOM      6  C6  IND d   1       1.962  -2.756   0.889  0.00  0.00     0.015 A 
ATOM      7  C7  IND d   1       0.634  -2.571   0.630  0.00  0.00    -0.016 A 
ATOM      8  C8  IND d   1       0.240  -1.294   0.258  0.00  0.00    -0.047 A 
ATOM      9  C9  IND d   1       1.150  -0.232   0.174  0.00  0.00    -0.096 A 
ATOM     10  HN1 IND d   1      -1.740  -1.240  -0.056  0.00  0.00     0.298 HD
ENDROOT
TORSDOF 0
ENDMDL
