MODEL 1
REMARK minimizedAffinity 0.168696418
REMARK minimizedRMSD -1
REMARK  0 active torsions:
REMARK  status: ('A' for Active; 'I' for Inactive)
ROOT
ATOM      1  N1  IND d   1      -0.447   0.389  -0.382  0.00  0.00    -0.196 N 
ATOM      2  C2  IND d   1      -1.088  -0.774  -0.058  0.00  0.00     0.054 A 
ATOM      3  C3  IND d   1      -0.222  -1.649   0.501  0.00  0.00    -0.031 A 
ATOM      4  C4  IND d   1       2.270  -1.345   1.070  0.00  0.00     0.051 A 
ATOM      5  C5  IND d   1       3.308  -0.467   0.929  0.00  0.00    -0.031 A 
ATOM      6  C6  IND d   1       3.144   0.767   0.335  0.00  0.00     0.015 A 
ATOM      7  C7  IND d   1       1.927   1.176  -0.133  0.00  0.00    -0.016 A 
ATOM      8  C8  IND d   1       0.872   0.284   0.001  0.00  0.00    -0.047 A 
ATOM      9  C9  IND d   1       1.043  -0.987   0.566  0.00  0.00    -0.096 A 
ATOM     10  HN1 IND d   1      -0.806   1.071  -0.762  0.00  0.00     0.298 HD
ENDROOT
TORSDOF 0
ENDMDL
