MODEL 1
REMARK minimizedAffinity -4.04837322
REMARK minimizedRMSD -1
REMARK  0 active torsions:
REMARK  status: ('A' for Active; 'I' for Inactive)
ROOT
ATOM      1  N1  IND d   1       0.248   1.252  -0.426  0.00  0.00    -0.196 N 
ATOM      2  C2  IND d   1      -1.078   0.984  -0.230  0.00  0.00     0.054 A 
ATOM      3  C3  IND d   1      -1.238  -0.262   0.269  0.00  0.00    -0.031 A 
ATOM      4  C4  IND d   1       0.543  -1.996   0.938  0.00  0.00     0.051 A 
ATOM      5  C5  IND d   1       1.891  -2.222   0.911  0.00  0.00    -0.031 A 
ATOM      6  C6  IND d   1       2.778  -1.281   0.430  0.00  0.00     0.015 A 
ATOM      7  C7  IND d   1       2.349  -0.069  -0.034  0.00  0.00    -0.016 A 
ATOM      8  C8  IND d   1       0.981   0.161  -0.014  0.00  0.00    -0.047 A 
ATOM      9  C9  IND d   1       0.072  -0.807   0.433  0.00  0.00    -0.096 A 
ATOM     10  HN1 IND d   1       0.570   1.980  -0.751  0.00  0.00     0.298 HD
ENDROOT
TORSDOF 0
ENDMDL
