MODEL 1
REMARK minimizedAffinity -4.23436499
REMARK minimizedRMSD -1
REMARK  0 active torsions:
REMARK  status: ('A' for Active; 'I' for Inactive)
ROOT
ATOM      1  C1  DEN d   1       0.909  -0.564  -0.202  0.00  0.00     0.130 A 
ATOM      2  C2  DEN d   1       1.421   0.556  -0.987  0.00  0.00    -0.031 A 
ATOM      3  C3  DEN d   1       1.697   0.068  -2.353  0.00  0.00     0.027 A 
ATOM      4  C4  DEN d   1       1.377  -2.299  -3.325  0.00  0.00     0.027 A 
ATOM      5  C5  DEN d   1       0.980  -3.587  -3.038  0.00  0.00    -0.003 A 
ATOM      6  C6  DEN d   1       0.567  -3.961  -1.787  0.00  0.00     0.001 A 
ATOM      7  C7  DEN d   1       0.499  -3.028  -0.786  0.00  0.00     0.017 A 
ATOM      8  C8  DEN d   1       0.905  -1.730  -1.066  0.00  0.00    -0.094 A 
ATOM      9  C9  DEN d   1       1.307  -1.368  -2.341  0.00  0.00    -0.072 A 
ENDROOT
TORSDOF 0
ENDMDL
