MODEL 1
REMARK minimizedAffinity -4.38308001
REMARK minimizedRMSD -1
REMARK  0 active torsions:
REMARK  status: ('A' for Active; 'I' for Inactive)
ROOT
ATOM      1  C1  DEN d   1       2.030   1.453  -1.968  0.00  0.00     0.130 A 
ATOM      2  C2  DEN d   1       1.526   0.846  -3.197  0.00  0.00    -0.031 A 
ATOM      3  C3  DEN d   1       0.291   0.106  -2.867  0.00  0.00     0.027 A 
ATOM      4  C4  DEN d   1      -0.886  -0.152  -0.587  0.00  0.00     0.027 A 
ATOM      5  C5  DEN d   1      -0.827   0.174   0.750  0.00  0.00    -0.003 A 
ATOM      6  C6  DEN d   1       0.199   0.914   1.277  0.00  0.00     0.001 A 
ATOM      7  C7  DEN d   1       1.183   1.391   0.453  0.00  0.00     0.017 A 
ATOM      8  C8  DEN d   1       1.134   1.061  -0.895  0.00  0.00    -0.094 A 
ATOM      9  C9  DEN d   1       0.083   0.322  -1.410  0.00  0.00    -0.072 A 
ENDROOT
TORSDOF 0
ENDMDL
