MODEL 1
REMARK minimizedAffinity -1.76635611
REMARK minimizedRMSD -1
REMARK  0 active torsions:
REMARK  status: ('A' for Active; 'I' for Inactive)
ROOT
ATOM      1  C1  DEN d   1      -0.987  -0.651   2.254  0.00  0.00     0.130 A 
ATOM      2  C2  DEN d   1      -0.253  -0.371   3.485  0.00  0.00    -0.031 A 
ATOM      3  C3  DEN d   1       0.913   0.466   3.140  0.00  0.00     0.027 A 
ATOM      4  C4  DEN d   1       1.646   1.357   0.833  0.00  0.00     0.027 A 
ATOM      5  C5  DEN d   1       1.346   1.374  -0.511  0.00  0.00    -0.003 A 
ATOM      6  C6  DEN d   1       0.275   0.694  -1.028  0.00  0.00     0.001 A 
ATOM      7  C7  DEN d   1      -0.561   0.006  -0.190  0.00  0.00     0.017 A 
ATOM      8  C8  DEN d   1      -0.261  -0.022   1.166  0.00  0.00    -0.094 A 
ATOM      9  C9  DEN d   1       0.820   0.682   1.671  0.00  0.00    -0.072 A 
ENDROOT
TORSDOF 0
ENDMDL
