MODEL 1
REMARK minimizedAffinity -3.43581152
REMARK minimizedRMSD -1
REMARK  0 active torsions:
REMARK  status: ('A' for Active; 'I' for Inactive)
ROOT
ATOM      1  C1  DEN d   1       1.520   0.987  -1.972  0.00  0.00     0.130 A 
ATOM      2  C2  DEN d   1       0.589   0.754  -3.073  0.00  0.00    -0.031 A 
ATOM      3  C3  DEN d   1      -0.769   0.633  -2.504  0.00  0.00     0.027 A 
ATOM      4  C4  DEN d   1      -1.516   0.789  -0.041  0.00  0.00     0.027 A 
ATOM      5  C5  DEN d   1      -1.083   0.966   1.255  0.00  0.00    -0.003 A 
ATOM      6  C6  DEN d   1       0.241   1.127   1.566  0.00  0.00     0.001 A 
ATOM      7  C7  DEN d   1       1.175   1.160   0.564  0.00  0.00     0.017 A 
ATOM      8  C8  DEN d   1       0.747   0.975  -0.744  0.00  0.00    -0.094 A 
ATOM      9  C9  DEN d   1      -0.598   0.826  -1.039  0.00  0.00    -0.072 A 
ENDROOT
TORSDOF 0
ENDMDL
