MODEL 1
REMARK minimizedAffinity -4.33764172
REMARK minimizedRMSD -1
REMARK  0 active torsions:
REMARK  status: ('A' for Active; 'I' for Inactive)
ROOT
ATOM      1  C1  DEN d   1       0.451  -0.858  -3.273  0.00  0.00     0.130 A 
ATOM      2  C2  DEN d   1       0.519  -2.267  -3.650  0.00  0.00    -0.031 A 
ATOM      3  C3  DEN d   1       1.886  -2.543  -4.138  0.00  0.00     0.027 A 
ATOM      4  C4  DEN d   1       3.892  -0.934  -4.341  0.00  0.00     0.027 A 
ATOM      5  C5  DEN d   1       4.313   0.364  -4.155  0.00  0.00    -0.003 A 
ATOM      6  C6  DEN d   1       3.474   1.345  -3.697  0.00  0.00     0.001 A 
ATOM      7  C7  DEN d   1       2.182   1.034  -3.367  0.00  0.00     0.017 A 
ATOM      8  C8  DEN d   1       1.747  -0.271  -3.560  0.00  0.00    -0.094 A 
ATOM      9  C9  DEN d   1       2.614  -1.252  -4.012  0.00  0.00    -0.072 A 
ENDROOT
TORSDOF 0
ENDMDL
