MODEL 1
REMARK minimizedAffinity -4.27572966
REMARK minimizedRMSD -1
REMARK  0 active torsions:
REMARK  status: ('A' for Active; 'I' for Inactive)
ROOT
ATOM      1  C1  DEN d   1       0.758   0.383  -1.082  0.00  0.00     0.130 A 
ATOM      2  C2  DEN d   1      -0.678   0.270  -1.319  0.00  0.00    -0.031 A 
ATOM      3  C3  DEN d   1      -1.323  -0.107  -0.045  0.00  0.00     0.027 A 
ATOM      4  C4  DEN d   1      -0.243  -0.520   2.260  0.00  0.00     0.027 A 
ATOM      5  C5  DEN d   1       0.947  -0.555   2.952  0.00  0.00    -0.003 A 
ATOM      6  C6  DEN d   1       2.152  -0.315   2.346  0.00  0.00     0.001 A 
ATOM      7  C7  DEN d   1       2.189   0.015   1.017  0.00  0.00     0.017 A 
ATOM      8  C8  DEN d   1       0.993   0.045   0.311  0.00  0.00    -0.094 A 
ATOM      9  C9  DEN d   1      -0.215  -0.188   0.945  0.00  0.00    -0.072 A 
ENDROOT
TORSDOF 0
ENDMDL
