MODEL 1
REMARK minimizedAffinity -3.15171766
REMARK minimizedRMSD -1
REMARK  0 active torsions:
REMARK  status: ('A' for Active; 'I' for Inactive)
ROOT
ATOM      1  C1  DEN d   1      -0.059   1.140  -0.930  0.00  0.00     0.130 A 
ATOM      2  C2  DEN d   1      -1.519   1.113  -0.960  0.00  0.00    -0.031 A 
ATOM      3  C3  DEN d   1      -1.990   0.541   0.318  0.00  0.00     0.027 A 
ATOM      4  C4  DEN d   1      -0.609  -0.295   2.329  0.00  0.00     0.027 A 
ATOM      5  C5  DEN d   1       0.667  -0.484   2.814  0.00  0.00    -0.003 A 
ATOM      6  C6  DEN d   1       1.781  -0.179   2.078  0.00  0.00     0.001 A 
ATOM      7  C7  DEN d   1       1.640   0.374   0.833  0.00  0.00     0.017 A 
ATOM      8  C8  DEN d   1       0.358   0.561   0.334  0.00  0.00    -0.094 A 
ATOM      9  C9  DEN d   1      -0.756   0.257   1.098  0.00  0.00    -0.072 A 
ENDROOT
TORSDOF 0
ENDMDL
