MODEL 1
REMARK minimizedAffinity -4.71526337
REMARK minimizedRMSD -1
REMARK  0 active torsions:
REMARK  status: ('A' for Active; 'I' for Inactive)
ROOT
ATOM      1  C1  DEN d   1      -0.775   0.085   2.226  0.00  0.00     0.130 A 
ATOM      2  C2  DEN d   1       0.620   0.262   2.619  0.00  0.00    -0.031 A 
ATOM      3  C3  DEN d   1       1.411   0.508   1.397  0.00  0.00     0.027 A 
ATOM      4  C4  DEN d   1       0.614   0.638  -1.053  0.00  0.00     0.027 A 
ATOM      5  C5  DEN d   1      -0.480   0.540  -1.884  0.00  0.00    -0.003 A 
ATOM      6  C6  DEN d   1      -1.733   0.253  -1.411  0.00  0.00     0.001 A 
ATOM      7  C7  DEN d   1      -1.931   0.098  -0.064  0.00  0.00     0.017 A 
ATOM      8  C8  DEN d   1      -0.832   0.187   0.779  0.00  0.00    -0.094 A 
ATOM      9  C9  DEN d   1       0.425   0.490   0.283  0.00  0.00    -0.072 A 
ENDROOT
TORSDOF 0
ENDMDL
