MODEL 1
REMARK minimizedAffinity -4.07528687
REMARK minimizedRMSD -1
REMARK  0 active torsions:
REMARK  status: ('A' for Active; 'I' for Inactive)
ROOT
ATOM      1  C1  DEN d   1       1.090  -0.013   1.786  0.00  0.00     0.130 A 
ATOM      2  C2  DEN d   1       0.268  -0.428   2.919  0.00  0.00    -0.031 A 
ATOM      3  C3  DEN d   1      -1.144  -0.413   2.489  0.00  0.00     0.027 A 
ATOM      4  C4  DEN d   1      -2.134   0.204   0.189  0.00  0.00     0.027 A 
ATOM      5  C5  DEN d   1      -1.831   0.630  -1.086  0.00  0.00    -0.003 A 
ATOM      6  C6  DEN d   1      -0.548   0.902  -1.479  0.00  0.00     0.001 A 
ATOM      7  C7  DEN d   1       0.487   0.708  -0.602  0.00  0.00     0.017 A 
ATOM      8  C8  DEN d   1       0.189   0.285   0.687  0.00  0.00    -0.094 A 
ATOM      9  C9  DEN d   1      -1.114   0.004   1.062  0.00  0.00    -0.072 A 
ENDROOT
TORSDOF 0
ENDMDL
