MODEL 1
REMARK minimizedAffinity 3.95101166
REMARK minimizedRMSD -1
REMARK  1 active torsions:
REMARK  status: ('A' for Active; 'I' for Inactive)
REMARK    1  A    between atoms: C3_4  and  O_7 
ROOT
ATOM      1  C   UNL d   1       2.369   0.796   1.596  0.00  0.00    -0.033 A 
ATOM      2  C1  UNL d   1       2.334  -0.538   1.185  0.00  0.00     0.039 A 
ATOM      3  C2  UNL d   1       1.511  -1.452   1.845  0.00  0.00    -0.080 A 
ATOM      4  C3  UNL d   1       0.727  -1.019   2.912  0.00  0.00     0.150 A 
ATOM      5  C4  UNL d   1       0.754   0.309   3.324  0.00  0.00    -0.007 A 
ATOM      6  C5  UNL d   1       1.578   1.220   2.664  0.00  0.00     0.039 A 
ENDROOT
BRANCH   4   7
ATOM      7  O   UNL d   1      -0.089  -1.876   3.590  0.00  0.00    -0.526 OA
ATOM      8  H5  UNL d   1       0.018  -2.765   3.214  0.00  0.00     0.418 HD
ENDBRANCH   4   7
TORSDOF 1
ENDMDL
