MODEL 1
REMARK minimizedAffinity -0.432334274
REMARK minimizedRMSD -1
REMARK  1 active torsions:
REMARK  status: ('A' for Active; 'I' for Inactive)
REMARK    1  A    between atoms: C3_4  and  O_7 
ROOT
ATOM      1  C   UNL d   1      -5.221  -5.992  -5.720  0.00  0.00    -0.033 A 
ATOM      2  C1  UNL d   1      -5.998  -4.866  -5.998  0.00  0.00     0.039 A 
ATOM      3  C2  UNL d   1      -5.548  -3.597  -5.629  0.00  0.00    -0.080 A 
ATOM      4  C3  UNL d   1      -4.321  -3.467  -4.984  0.00  0.00     0.150 A 
ATOM      5  C4  UNL d   1      -3.540  -4.584  -4.707  0.00  0.00    -0.007 A 
ATOM      6  C5  UNL d   1      -3.991  -5.851  -5.076  0.00  0.00     0.039 A 
ENDROOT
BRANCH   4   7
ATOM      7  O   UNL d   1      -3.843  -2.250  -4.601  0.00  0.00    -0.526 OA
ATOM      8  H5  UNL d   1      -4.502  -1.574  -4.831  0.00  0.00     0.418 HD
ENDBRANCH   4   7
TORSDOF 1
ENDMDL
