MODEL 1
REMARK minimizedAffinity 7.67629385
REMARK minimizedRMSD -1
REMARK  1 active torsions:
REMARK  status: ('A' for Active; 'I' for Inactive)
REMARK    1  A    between atoms: C3_4  and  O_7 
ROOT
ATOM      1  C   UNL d   1      -4.155  -6.000  -5.377  0.00  0.00    -0.033 A 
ATOM      2  C1  UNL d   1      -5.313  -5.528  -5.999  0.00  0.00     0.039 A 
ATOM      3  C2  UNL d   1      -5.743  -4.219  -5.776  0.00  0.00    -0.080 A 
ATOM      4  C3  UNL d   1      -5.007  -3.392  -4.932  0.00  0.00     0.150 A 
ATOM      5  C4  UNL d   1      -3.851  -3.854  -4.312  0.00  0.00    -0.007 A 
ATOM      6  C5  UNL d   1      -3.423  -5.162  -4.535  0.00  0.00     0.039 A 
ENDROOT
BRANCH   4   7
ATOM      7  O   UNL d   1      -5.391  -2.108  -4.680  0.00  0.00    -0.526 OA
ATOM      8  H5  UNL d   1      -6.222  -1.937  -5.153  0.00  0.00     0.418 HD
ENDBRANCH   4   7
TORSDOF 1
ENDMDL
