MODEL 1
REMARK minimizedAffinity 0.708238542
REMARK minimizedRMSD -1
REMARK  1 active torsions:
REMARK  status: ('A' for Active; 'I' for Inactive)
REMARK    1  A    between atoms: C3_4  and  O_7 
ROOT
ATOM      1  C   UNL d   1      -5.251  -5.619  -5.992  0.00  0.00    -0.033 A 
ATOM      2  C1  UNL d   1      -5.989  -4.434  -6.000  0.00  0.00     0.039 A 
ATOM      3  C2  UNL d   1      -5.606  -3.365  -5.188  0.00  0.00    -0.080 A 
ATOM      4  C3  UNL d   1      -4.483  -3.492  -4.376  0.00  0.00     0.150 A 
ATOM      5  C4  UNL d   1      -3.740  -4.668  -4.366  0.00  0.00    -0.007 A 
ATOM      6  C5  UNL d   1      -4.125  -5.735  -5.176  0.00  0.00     0.039 A 
ENDROOT
BRANCH   4   7
ATOM      7  O   UNL d   1      -4.072  -2.477  -3.563  0.00  0.00    -0.526 OA
ATOM      8  H5  UNL d   1      -4.697  -1.739  -3.654  0.00  0.00     0.418 HD
ENDBRANCH   4   7
TORSDOF 1
ENDMDL
