MODEL 1
REMARK minimizedAffinity 10.551302
REMARK minimizedRMSD -1
REMARK  1 active torsions:
REMARK  status: ('A' for Active; 'I' for Inactive)
REMARK    1  A    between atoms: C3_4  and  O_7 
ROOT
ATOM      1  C   UNL d   1       0.741  -0.744   2.300  0.00  0.00    -0.033 A 
ATOM      2  C1  UNL d   1       1.115   0.598   2.207  0.00  0.00     0.039 A 
ATOM      3  C2  UNL d   1       2.278   0.955   1.523  0.00  0.00    -0.080 A 
ATOM      4  C3  UNL d   1       3.057  -0.038   0.935  0.00  0.00     0.150 A 
ATOM      5  C4  UNL d   1       2.689  -1.377   1.020  0.00  0.00    -0.007 A 
ATOM      6  C5  UNL d   1       1.527  -1.731   1.705  0.00  0.00     0.039 A 
ENDROOT
BRANCH   4   7
ATOM      7  O   UNL d   1       4.203   0.261   0.260  0.00  0.00    -0.526 OA
ATOM      8  H5  UNL d   1       4.347   1.221   0.308  0.00  0.00     0.418 HD
ENDBRANCH   4   7
TORSDOF 1
ENDMDL
