MODEL 1
REMARK minimizedAffinity 5.65565491
REMARK minimizedRMSD -1
REMARK  1 active torsions:
REMARK  status: ('A' for Active; 'I' for Inactive)
REMARK    1  A    between atoms: C3_4  and  O_7 
ROOT
ATOM      1  C   UNL d   1       4.690   5.921  -5.316  0.00  0.00    -0.033 A 
ATOM      2  C1  UNL d   1       5.930   5.977  -4.678  0.00  0.00     0.039 A 
ATOM      3  C2  UNL d   1       5.999   5.999  -3.284  0.00  0.00    -0.080 A 
ATOM      4  C3  UNL d   1       4.822   5.964  -2.541  0.00  0.00     0.150 A 
ATOM      5  C4  UNL d   1       3.583   5.904  -3.170  0.00  0.00    -0.007 A 
ATOM      6  C5  UNL d   1       3.516   5.883  -4.563  0.00  0.00     0.039 A 
ENDROOT
BRANCH   4   7
ATOM      7  O   UNL d   1       4.839   5.988  -1.178  0.00  0.00    -0.526 OA
ATOM      8  H5  UNL d   1       5.762   6.059  -0.882  0.00  0.00     0.418 HD
ENDBRANCH   4   7
TORSDOF 1
ENDMDL
