MODEL 1
REMARK minimizedAffinity 8.48598766
REMARK minimizedRMSD -1
REMARK  1 active torsions:
REMARK  status: ('A' for Active; 'I' for Inactive)
REMARK    1  A    between atoms: C3_4  and  O_7 
ROOT
ATOM      1  C   UNL d   1      -5.290  -5.998  -5.454  0.00  0.00    -0.033 A 
ATOM      2  C1  UNL d   1      -5.754  -4.799  -5.999  0.00  0.00     0.039 A 
ATOM      3  C2  UNL d   1      -5.581  -3.601  -5.305  0.00  0.00    -0.080 A 
ATOM      4  C3  UNL d   1      -4.942  -3.614  -4.068  0.00  0.00     0.150 A 
ATOM      5  C4  UNL d   1      -4.473  -4.804  -3.521  0.00  0.00    -0.007 A 
ATOM      6  C5  UNL d   1      -4.647  -6.000  -4.215  0.00  0.00     0.039 A 
ENDROOT
BRANCH   4   7
ATOM      7  O   UNL d   1      -4.754  -2.470  -3.351  0.00  0.00    -0.526 OA
ATOM      8  H5  UNL d   1      -5.154  -1.731  -3.839  0.00  0.00     0.418 HD
ENDBRANCH   4   7
TORSDOF 1
ENDMDL
