MODEL 1
REMARK minimizedAffinity -0.625720918
REMARK minimizedRMSD -1
REMARK  1 active torsions:
REMARK  status: ('A' for Active; 'I' for Inactive)
REMARK    1  A    between atoms: C3_4  and  O_7 
ROOT
ATOM      1  C   UNL d   1      -5.545  -4.012  -5.922  0.00  0.00    -0.033 A 
ATOM      2  C1  UNL d   1      -5.187  -3.279  -4.788  0.00  0.00     0.039 A 
ATOM      3  C2  UNL d   1      -4.531  -3.906  -3.728  0.00  0.00    -0.080 A 
ATOM      4  C3  UNL d   1      -4.237  -5.264  -3.813  0.00  0.00     0.150 A 
ATOM      5  C4  UNL d   1      -4.587  -6.000  -4.941  0.00  0.00    -0.007 A 
ATOM      6  C5  UNL d   1      -5.243  -5.372  -5.999  0.00  0.00     0.039 A 
ENDROOT
BRANCH   4   7
ATOM      7  O   UNL d   1      -3.602  -5.921  -2.801  0.00  0.00    -0.526 OA
ATOM      8  H5  UNL d   1      -3.448  -5.293  -2.076  0.00  0.00     0.418 HD
ENDBRANCH   4   7
TORSDOF 1
ENDMDL
