MODEL 1
REMARK minimizedAffinity 5.81341171
REMARK minimizedRMSD -1
REMARK  1 active torsions:
REMARK  status: ('A' for Active; 'I' for Inactive)
REMARK    1  A    between atoms: C3_4  and  O_7 
ROOT
ATOM      1  C   UNL d   1      -0.294  -0.507   1.752  0.00  0.00    -0.033 A 
ATOM      2  C1  UNL d   1       1.038  -0.586   1.342  0.00  0.00     0.039 A 
ATOM      3  C2  UNL d   1       1.732  -1.794   1.445  0.00  0.00    -0.080 A 
ATOM      4  C3  UNL d   1       1.082  -2.913   1.958  0.00  0.00     0.150 A 
ATOM      5  C4  UNL d   1      -0.247  -2.843   2.364  0.00  0.00    -0.007 A 
ATOM      6  C5  UNL d   1      -0.937  -1.636   2.262  0.00  0.00     0.039 A 
ENDROOT
BRANCH   4   7
ATOM      7  O   UNL d   1       1.719  -4.112   2.082  0.00  0.00    -0.526 OA
ATOM      8  H5  UNL d   1       2.639  -4.004   1.789  0.00  0.00     0.418 HD
ENDBRANCH   4   7
TORSDOF 1
ENDMDL
