MODEL 1
REMARK minimizedAffinity -2.19008446
REMARK minimizedRMSD -1
REMARK  0 active torsions:
REMARK  status: ('A' for Active; 'I' for Inactive)
ROOT
ATOM      1  C   UNL d   1      -0.422   1.949  -0.826  0.00  0.00     0.172 C 
ATOM      2  N   UNL d   1      -0.260   0.527  -0.629  0.00  0.00    -0.070 N 
ATOM      3  C1  UNL d   1      -1.211  -0.323  -0.132  0.00  0.00    -0.004 A 
ATOM      4  C2  UNL d   1      -0.670  -1.590  -0.101  0.00  0.00    -0.047 A 
ATOM      5  C3  UNL d   1       0.653  -1.498  -0.596  0.00  0.00    -0.047 A 
ATOM      6  C4  UNL d   1       0.880  -0.176  -0.915  0.00  0.00    -0.004 A 
ENDROOT
TORSDOF 0
ENDMDL
