MODEL 1
REMARK minimizedAffinity -2.75680685
REMARK minimizedRMSD -1
REMARK  0 active torsions:
REMARK  status: ('A' for Active; 'I' for Inactive)
ROOT
ATOM      1  C   UNL d   1      -1.483   1.129   2.641  0.00  0.00     0.172 C 
ATOM      2  N   UNL d   1      -0.891   0.395   1.548  0.00  0.00    -0.070 N 
ATOM      3  C1  UNL d   1      -1.527   0.040   0.388  0.00  0.00    -0.004 A 
ATOM      4  C2  UNL d   1      -0.623  -0.646  -0.396  0.00  0.00    -0.047 A 
ATOM      5  C3  UNL d   1       0.597  -0.705   0.319  0.00  0.00    -0.047 A 
ATOM      6  C4  UNL d   1       0.403  -0.054   1.518  0.00  0.00    -0.004 A 
ENDROOT
TORSDOF 0
ENDMDL
