MODEL 1
REMARK minimizedAffinity -1.17151141
REMARK minimizedRMSD -1
REMARK  0 active torsions:
REMARK  status: ('A' for Active; 'I' for Inactive)
ROOT
ATOM      1  C   UNL d   1      -0.523   0.807   0.547  0.00  0.00     0.172 C 
ATOM      2  N   UNL d   1      -1.188   1.006   1.814  0.00  0.00    -0.070 N 
ATOM      3  C1  UNL d   1      -1.007   2.073   2.652  0.00  0.00    -0.004 A 
ATOM      4  C2  UNL d   1      -1.820   1.891   3.750  0.00  0.00    -0.047 A 
ATOM      5  C3  UNL d   1      -2.512   0.670   3.566  0.00  0.00    -0.047 A 
ATOM      6  C4  UNL d   1      -2.103   0.143   2.359  0.00  0.00    -0.004 A 
ENDROOT
TORSDOF 0
ENDMDL
