MODEL 1
REMARK minimizedAffinity -4.09819698
REMARK minimizedRMSD -1
REMARK  0 active torsions:
REMARK  status: ('A' for Active; 'I' for Inactive)
ROOT
ATOM      1  C   UNL d   1       0.206   0.020  -0.078  0.00  0.00     0.172 C 
ATOM      2  N   UNL d   1       1.178   0.438  -1.061  0.00  0.00    -0.070 N 
ATOM      3  C1  UNL d   1       1.045   1.502  -1.913  0.00  0.00    -0.004 A 
ATOM      4  C2  UNL d   1       2.182   1.566  -2.689  0.00  0.00    -0.047 A 
ATOM      5  C3  UNL d   1       3.027   0.502  -2.291  0.00  0.00    -0.047 A 
ATOM      6  C4  UNL d   1       2.380  -0.180  -1.282  0.00  0.00    -0.004 A 
ENDROOT
TORSDOF 0
ENDMDL
