MODEL 1
REMARK minimizedAffinity -3.13700962
REMARK minimizedRMSD -1
REMARK  0 active torsions:
REMARK  status: ('A' for Active; 'I' for Inactive)
ROOT
ATOM      1  C   UNL d   1       2.131   1.497  -3.622  0.00  0.00     0.172 C 
ATOM      2  N   UNL d   1       2.239   0.510  -2.573  0.00  0.00    -0.070 N 
ATOM      3  C1  UNL d   1       1.426   0.420  -1.475  0.00  0.00    -0.004 A 
ATOM      4  C2  UNL d   1       1.855  -0.650  -0.719  0.00  0.00    -0.047 A 
ATOM      5  C3  UNL d   1       2.964  -1.222  -1.386  0.00  0.00    -0.047 A 
ATOM      6  C4  UNL d   1       3.180  -0.485  -2.531  0.00  0.00    -0.004 A 
ENDROOT
TORSDOF 0
ENDMDL
