MODEL 1
REMARK minimizedAffinity -3.85093927
REMARK minimizedRMSD -1
REMARK  0 active torsions:
REMARK  status: ('A' for Active; 'I' for Inactive)
ROOT
ATOM      1  C   UNL d   1      -0.363   0.122   0.062  0.00  0.00     0.172 C 
ATOM      2  N   UNL d   1       0.923   0.292  -0.573  0.00  0.00    -0.070 N 
ATOM      3  C1  UNL d   1       1.155   0.984  -1.732  0.00  0.00    -0.004 A 
ATOM      4  C2  UNL d   1       2.505   0.913  -2.002  0.00  0.00    -0.047 A 
ATOM      5  C3  UNL d   1       3.104   0.152  -0.970  0.00  0.00    -0.047 A 
ATOM      6  C4  UNL d   1       2.102  -0.220  -0.099  0.00  0.00    -0.004 A 
ENDROOT
TORSDOF 0
ENDMDL
