MODEL 1
REMARK minimizedAffinity -3.25827479
REMARK minimizedRMSD -1
REMARK  0 active torsions:
REMARK  status: ('A' for Active; 'I' for Inactive)
ROOT
ATOM      1  C   UNL d   1       0.659   1.527  -2.389  0.00  0.00     0.172 C 
ATOM      2  N   UNL d   1       0.768   0.312  -1.616  0.00  0.00    -0.070 N 
ATOM      3  C1  UNL d   1       0.017  -0.004  -0.516  0.00  0.00    -0.004 A 
ATOM      4  C2  UNL d   1       0.424  -1.243  -0.070  0.00  0.00    -0.047 A 
ATOM      5  C3  UNL d   1       1.455  -1.686  -0.932  0.00  0.00    -0.047 A 
ATOM      6  C4  UNL d   1       1.648  -0.704  -1.880  0.00  0.00    -0.004 A 
ENDROOT
TORSDOF 0
ENDMDL
