MODEL 1
REMARK minimizedAffinity -2.87417793
REMARK minimizedRMSD -1
REMARK  0 active torsions:
REMARK  status: ('A' for Active; 'I' for Inactive)
ROOT
ATOM      1  C   UNL d   1      -0.848   0.325  -0.020  0.00  0.00     0.172 C 
ATOM      2  N   UNL d   1       0.290   0.083  -0.875  0.00  0.00    -0.070 N 
ATOM      3  C1  UNL d   1       0.720   0.904  -1.884  0.00  0.00    -0.004 A 
ATOM      4  C2  UNL d   1       1.830   0.323  -2.457  0.00  0.00    -0.047 A 
ATOM      5  C3  UNL d   1       2.075  -0.890  -1.771  0.00  0.00    -0.047 A 
ATOM      6  C4  UNL d   1       1.107  -1.014  -0.797  0.00  0.00    -0.004 A 
ENDROOT
TORSDOF 0
ENDMDL
