MODEL 1
REMARK minimizedAffinity -3.40699458
REMARK minimizedRMSD -1
REMARK  0 active torsions:
REMARK  status: ('A' for Active; 'I' for Inactive)
ROOT
ATOM      1  C   UNL d   1      -0.719   0.276   0.507  0.00  0.00     0.172 C 
ATOM      2  N   UNL d   1       0.370  -0.335  -0.219  0.00  0.00    -0.070 N 
ATOM      3  C1  UNL d   1       0.602  -1.680  -0.327  0.00  0.00    -0.004 A 
ATOM      4  C2  UNL d   1       1.731  -1.853  -1.098  0.00  0.00    -0.047 A 
ATOM      5  C3  UNL d   1       2.195  -0.567  -1.464  0.00  0.00    -0.047 A 
ATOM      6  C4  UNL d   1       1.334   0.354  -0.906  0.00  0.00    -0.004 A 
ENDROOT
TORSDOF 0
ENDMDL
