MODEL 1
REMARK minimizedAffinity -1.39563906
REMARK minimizedRMSD -1
REMARK  0 active torsions:
REMARK  status: ('A' for Active; 'I' for Inactive)
ROOT
ATOM      1  C   UNL d   1      -1.670   1.433  -0.179  0.00  0.00     0.172 C 
ATOM      2  N   UNL d   1      -1.964   1.264   1.224  0.00  0.00    -0.070 N 
ATOM      3  C1  UNL d   1      -1.254   1.810   2.260  0.00  0.00    -0.004 A 
ATOM      4  C2  UNL d   1      -1.853   1.414   3.437  0.00  0.00    -0.047 A 
ATOM      5  C3  UNL d   1      -2.960   0.601   3.096  0.00  0.00    -0.047 A 
ATOM      6  C4  UNL d   1      -3.006   0.525   1.720  0.00  0.00    -0.004 A 
ENDROOT
TORSDOF 0
ENDMDL
