MODEL 1
REMARK minimizedAffinity -1.46826768
REMARK minimizedRMSD -1
REMARK  0 active torsions:
REMARK  status: ('A' for Active; 'I' for Inactive)
ROOT
ATOM      1  C   UNL d   1       1.891  -1.155  -1.504  0.00  0.00     0.172 C 
ATOM      2  N   UNL d   1       0.824  -0.812  -0.593  0.00  0.00    -0.070 N 
ATOM      3  C1  UNL d   1       0.315  -1.626   0.383  0.00  0.00    -0.004 A 
ATOM      4  C2  UNL d   1      -0.684  -0.934   1.032  0.00  0.00    -0.047 A 
ATOM      5  C3  UNL d   1      -0.780   0.340   0.423  0.00  0.00    -0.047 A 
ATOM      6  C4  UNL d   1       0.165   0.389  -0.580  0.00  0.00    -0.004 A 
ENDROOT
TORSDOF 0
ENDMDL
