MODEL 1
REMARK minimizedAffinity -3.19638634
REMARK minimizedRMSD -1
REMARK  0 active torsions:
REMARK  status: ('A' for Active; 'I' for Inactive)
ROOT
ATOM      1  C   UNL d   1      -1.706  -0.091   0.850  0.00  0.00     0.172 C 
ATOM      2  N   UNL d   1      -0.655  -0.747   0.109  0.00  0.00    -0.070 N 
ATOM      3  C1  UNL d   1      -0.515  -2.100  -0.053  0.00  0.00    -0.004 A 
ATOM      4  C2  UNL d   1       0.607  -2.319  -0.821  0.00  0.00    -0.047 A 
ATOM      5  C3  UNL d   1       1.162  -1.055  -1.131  0.00  0.00    -0.047 A 
ATOM      6  C4  UNL d   1       0.361  -0.099  -0.543  0.00  0.00    -0.004 A 
ENDROOT
TORSDOF 0
ENDMDL
