MODEL 1
REMARK minimizedAffinity -3.16159368
REMARK minimizedRMSD -1
REMARK  0 active torsions:
REMARK  status: ('A' for Active; 'I' for Inactive)
ROOT
ATOM      1  C   UNL d   1       1.725   2.238  -2.427  0.00  0.00     0.172 C 
ATOM      2  N   UNL d   1       2.075   0.904  -2.001  0.00  0.00    -0.070 N 
ATOM      3  C1  UNL d   1       3.134   0.170  -2.465  0.00  0.00    -0.004 A 
ATOM      4  C2  UNL d   1       3.124  -1.044  -1.812  0.00  0.00    -0.047 A 
ATOM      5  C3  UNL d   1       2.021  -1.039  -0.926  0.00  0.00    -0.047 A 
ATOM      6  C4  UNL d   1       1.389   0.178  -1.063  0.00  0.00    -0.004 A 
ENDROOT
TORSDOF 0
ENDMDL
