MODEL 1
REMARK minimizedAffinity -4.07345009
REMARK minimizedRMSD -1
REMARK  0 active torsions:
REMARK  status: ('A' for Active; 'I' for Inactive)
ROOT
ATOM      1  C   UNL d   1       0.823  -0.671  -0.107  0.00  0.00     0.172 C 
ATOM      2  N   UNL d   1       1.746  -0.070  -1.041  0.00  0.00    -0.070 N 
ATOM      3  C1  UNL d   1       1.577   1.137  -1.665  0.00  0.00    -0.004 A 
ATOM      4  C2  UNL d   1       2.674   1.352  -2.472  0.00  0.00    -0.047 A 
ATOM      5  C3  UNL d   1       3.531   0.235  -2.328  0.00  0.00    -0.047 A 
ATOM      6  C4  UNL d   1       2.932  -0.630  -1.436  0.00  0.00    -0.004 A 
ENDROOT
TORSDOF 0
ENDMDL
