MODEL 1
REMARK minimizedAffinity -4.02449036
REMARK minimizedRMSD -1
REMARK  0 active torsions:
REMARK  status: ('A' for Active; 'I' for Inactive)
ROOT
ATOM      1  C   UNL d   1      -0.164  -0.106   0.095  0.00  0.00     0.172 C 
ATOM      2  N   UNL d   1       1.037   0.032  -0.694  0.00  0.00    -0.070 N 
ATOM      3  C1  UNL d   1       1.222   0.924  -1.716  0.00  0.00    -0.004 A 
ATOM      4  C2  UNL d   1       2.495   0.741  -2.212  0.00  0.00    -0.047 A 
ATOM      5  C3  UNL d   1       3.095  -0.299  -1.462  0.00  0.00    -0.047 A 
ATOM      6  C4  UNL d   1       2.171  -0.719  -0.529  0.00  0.00    -0.004 A 
ENDROOT
TORSDOF 0
ENDMDL
