MODEL 1
REMARK minimizedAffinity -3.80753899
REMARK minimizedRMSD -1
REMARK  0 active torsions:
REMARK  status: ('A' for Active; 'I' for Inactive)
ROOT
ATOM      1  C4' PXY d   1      -1.189  -5.247  -5.233  0.00  0.00     0.077 C 
ATOM      2  C1' PXY d   1      -5.998  -2.235  -4.129  0.00  0.00     0.077 C 
ATOM      3  C1  PXY d   1      -4.740  -3.026  -4.431  0.00  0.00    -0.082 A 
ATOM      4  C2  PXY d   1      -4.127  -3.677  -3.456  0.00  0.00     0.003 A 
ATOM      5  C3  PXY d   1      -2.971  -4.371  -3.705  0.00  0.00     0.003 A 
ATOM      6  C4  PXY d   1      -2.467  -4.443  -4.976  0.00  0.00    -0.082 A 
ATOM      7  C5  PXY d   1      -3.093  -3.791  -5.979  0.00  0.00     0.003 A 
ATOM      8  C6  PXY d   1      -4.242  -3.058  -5.697  0.00  0.00     0.003 A 
ENDROOT
TORSDOF 0
ENDMDL
