MODEL 1
REMARK minimizedAffinity -3.60737324
REMARK minimizedRMSD -1
REMARK  0 active torsions:
REMARK  status: ('A' for Active; 'I' for Inactive)
ROOT
ATOM      1  C4' PXY d   1      -1.269  -5.224  -3.030  0.00  0.00     0.077 C 
ATOM      2  C1' PXY d   1      -6.000  -3.734  -6.000  0.00  0.00     0.077 C 
ATOM      3  C1  PXY d   1      -4.766  -4.132  -5.213  0.00  0.00    -0.082 A 
ATOM      4  C2  PXY d   1      -3.688  -3.367  -5.256  0.00  0.00     0.003 A 
ATOM      5  C3  PXY d   1      -2.553  -3.728  -4.576  0.00  0.00     0.003 A 
ATOM      6  C4  PXY d   1      -2.540  -4.857  -3.801  0.00  0.00    -0.082 A 
ATOM      7  C5  PXY d   1      -3.640  -5.637  -3.743  0.00  0.00     0.003 A 
ATOM      8  C6  PXY d   1      -4.768  -5.274  -4.473  0.00  0.00     0.003 A 
ENDROOT
TORSDOF 0
ENDMDL
