MODEL 1
REMARK minimizedAffinity -3.34409118
REMARK minimizedRMSD -1
REMARK  0 active torsions:
REMARK  status: ('A' for Active; 'I' for Inactive)
ROOT
ATOM      1  C4' PXY d   1      -5.870  -1.144  -3.791  0.00  0.00     0.077 C 
ATOM      2  C1' PXY d   1      -1.579  -4.643  -5.452  0.00  0.00     0.077 C 
ATOM      3  C1  PXY d   1      -2.710  -3.735  -5.010  0.00  0.00    -0.082 A 
ATOM      4  C2  PXY d   1      -2.997  -2.655  -5.718  0.00  0.00     0.003 A 
ATOM      5  C3  PXY d   1      -3.995  -1.806  -5.315  0.00  0.00     0.003 A 
ATOM      6  C4  PXY d   1      -4.743  -2.094  -4.205  0.00  0.00    -0.082 A 
ATOM      7  C5  PXY d   1      -4.463  -3.200  -3.483  0.00  0.00     0.003 A 
ATOM      8  C6  PXY d   1      -3.419  -4.027  -3.886  0.00  0.00     0.003 A 
ENDROOT
TORSDOF 0
ENDMDL
