MODEL 1
REMARK minimizedAffinity -2.42366076
REMARK minimizedRMSD -1
REMARK  0 active torsions:
REMARK  status: ('A' for Active; 'I' for Inactive)
ROOT
ATOM      1  C4' PXY d   1      -0.428  -5.629  -5.399  0.00  0.00     0.077 C 
ATOM      2  C1' PXY d   1      -6.000  -4.091  -5.479  0.00  0.00     0.077 C 
ATOM      3  C1  PXY d   1      -4.536  -4.487  -5.468  0.00  0.00    -0.082 A 
ATOM      4  C2  PXY d   1      -4.175  -5.641  -4.933  0.00  0.00     0.003 A 
ATOM      5  C3  PXY d   1      -2.852  -6.000  -4.886  0.00  0.00     0.003 A 
ATOM      6  C4  PXY d   1      -1.895  -5.193  -5.441  0.00  0.00    -0.082 A 
ATOM      7  C5  PXY d   1      -2.257  -4.018  -5.998  0.00  0.00     0.003 A 
ATOM      8  C6  PXY d   1      -3.601  -3.653  -5.999  0.00  0.00     0.003 A 
ENDROOT
TORSDOF 0
ENDMDL
