MODEL 1
REMARK minimizedAffinity -4.62170649
REMARK minimizedRMSD -1
REMARK  0 active torsions:
REMARK  status: ('A' for Active; 'I' for Inactive)
ROOT
ATOM      1  C4' PXY d   1      -2.064  -5.562  -6.000  0.00  0.00     0.077 C 
ATOM      2  C1' PXY d   1      -6.000  -2.416  -3.166  0.00  0.00     0.077 C 
ATOM      3  C1  PXY d   1      -4.977  -3.244  -3.919  0.00  0.00    -0.082 A 
ATOM      4  C2  PXY d   1      -3.959  -3.778  -3.264  0.00  0.00     0.003 A 
ATOM      5  C3  PXY d   1      -3.007  -4.503  -3.934  0.00  0.00     0.003 A 
ATOM      6  C4  PXY d   1      -3.126  -4.727  -5.279  0.00  0.00    -0.082 A 
ATOM      7  C5  PXY d   1      -4.168  -4.194  -5.953  0.00  0.00     0.003 A 
ATOM      8  C6  PXY d   1      -5.101  -3.427  -5.261  0.00  0.00     0.003 A 
ENDROOT
TORSDOF 0
ENDMDL
