MODEL 1
REMARK minimizedAffinity -2.62106419
REMARK minimizedRMSD -1
REMARK  0 active torsions:
REMARK  status: ('A' for Active; 'I' for Inactive)
ROOT
ATOM      1  C4' PXY d   1      -6.000  -2.329  -4.638  0.00  0.00     0.077 C 
ATOM      2  C1' PXY d   1      -1.721  -5.999  -5.916  0.00  0.00     0.077 C 
ATOM      3  C1  PXY d   1      -2.851  -5.047  -5.580  0.00  0.00    -0.082 A 
ATOM      4  C2  PXY d   1      -2.798  -3.794  -6.000  0.00  0.00     0.003 A 
ATOM      5  C3  PXY d   1      -3.796  -2.910  -5.677  0.00  0.00     0.003 A 
ATOM      6  C4  PXY d   1      -4.886  -3.328  -4.962  0.00  0.00    -0.082 A 
ATOM      7  C5  PXY d   1      -4.953  -4.608  -4.539  0.00  0.00     0.003 A 
ATOM      8  C6  PXY d   1      -3.910  -5.478  -4.842  0.00  0.00     0.003 A 
ENDROOT
TORSDOF 0
ENDMDL
