MODEL 1
REMARK minimizedAffinity 0.185687229
REMARK minimizedRMSD -1
REMARK  0 active torsions:
REMARK  status: ('A' for Active; 'I' for Inactive)
ROOT
ATOM      1  C4' PXY d   1      -6.000  -1.327  -3.797  0.00  0.00     0.077 C 
ATOM      2  C1' PXY d   1      -3.082  -5.998  -5.552  0.00  0.00     0.077 C 
ATOM      3  C1  PXY d   1      -3.847  -4.769  -5.104  0.00  0.00    -0.082 A 
ATOM      4  C2  PXY d   1      -3.795  -4.392  -3.837  0.00  0.00     0.003 A 
ATOM      5  C3  PXY d   1      -4.506  -3.300  -3.408  0.00  0.00     0.003 A 
ATOM      6  C4  PXY d   1      -5.236  -2.556  -4.296  0.00  0.00    -0.082 A 
ATOM      7  C5  PXY d   1      -5.286  -2.929  -5.593  0.00  0.00     0.003 A 
ATOM      8  C6  PXY d   1      -4.590  -4.063  -6.000  0.00  0.00     0.003 A 
ENDROOT
TORSDOF 0
ENDMDL
