MODEL 1
REMARK minimizedAffinity -1.55284226
REMARK minimizedRMSD -1
REMARK  0 active torsions:
REMARK  status: ('A' for Active; 'I' for Inactive)
ROOT
ATOM      1  C4' PXY d   1      -1.007  -5.927  -6.000  0.00  0.00     0.077 C 
ATOM      2  C1' PXY d   1      -5.998  -3.621  -4.216  0.00  0.00     0.077 C 
ATOM      3  C1  PXY d   1      -4.695  -4.237  -4.684  0.00  0.00    -0.082 A 
ATOM      4  C2  PXY d   1      -3.554  -3.609  -4.452  0.00  0.00     0.003 A 
ATOM      5  C3  PXY d   1      -2.369  -4.137  -4.896  0.00  0.00     0.003 A 
ATOM      6  C4  PXY d   1      -2.346  -5.346  -5.537  0.00  0.00    -0.082 A 
ATOM      7  C5  PXY d   1      -3.505  -5.999  -5.768  0.00  0.00     0.003 A 
ATOM      8  C6  PXY d   1      -4.701  -5.426  -5.346  0.00  0.00     0.003 A 
ENDROOT
TORSDOF 0
ENDMDL
