MODEL 1
REMARK minimizedAffinity 2.10471082
REMARK minimizedRMSD -1
REMARK  0 active torsions:
REMARK  status: ('A' for Active; 'I' for Inactive)
ROOT
ATOM      1  C4' PXY d   1      -0.992  -5.974  -5.999  0.00  0.00     0.077 C 
ATOM      2  C1' PXY d   1      -5.997  -3.273  -4.966  0.00  0.00     0.077 C 
ATOM      3  C1  PXY d   1      -4.690  -3.992  -5.234  0.00  0.00    -0.082 A 
ATOM      4  C2  PXY d   1      -3.550  -3.323  -5.174  0.00  0.00     0.003 A 
ATOM      5  C3  PXY d   1      -2.362  -3.951  -5.445  0.00  0.00     0.003 A 
ATOM      6  C4  PXY d   1      -2.335  -5.290  -5.727  0.00  0.00    -0.082 A 
ATOM      7  C5  PXY d   1      -3.492  -5.983  -5.779  0.00  0.00     0.003 A 
ATOM      8  C6  PXY d   1      -4.692  -5.318  -5.542  0.00  0.00     0.003 A 
ENDROOT
TORSDOF 0
ENDMDL
