MODEL 1
REMARK minimizedAffinity -2.17429399
REMARK minimizedRMSD -1
REMARK  0 active torsions:
REMARK  status: ('A' for Active; 'I' for Inactive)
ROOT
ATOM      1  C4' PXY d   1      -5.984  -1.017  -5.521  0.00  0.00     0.077 C 
ATOM      2  C1' PXY d   1      -3.092  -6.000  -6.000  0.00  0.00     0.077 C 
ATOM      3  C1  PXY d   1      -3.861  -4.699  -5.878  0.00  0.00    -0.082 A 
ATOM      4  C2  PXY d   1      -3.219  -3.547  -5.981  0.00  0.00     0.003 A 
ATOM      5  C3  PXY d   1      -3.894  -2.362  -5.842  0.00  0.00     0.003 A 
ATOM      6  C4  PXY d   1      -5.249  -2.355  -5.647  0.00  0.00    -0.082 A 
ATOM      7  C5  PXY d   1      -5.913  -3.526  -5.551  0.00  0.00     0.003 A 
ATOM      8  C6  PXY d   1      -5.203  -4.719  -5.655  0.00  0.00     0.003 A 
ENDROOT
TORSDOF 0
ENDMDL
