MODEL 1
REMARK minimizedAffinity -1.53390551
REMARK minimizedRMSD -1
REMARK  0 active torsions:
REMARK  status: ('A' for Active; 'I' for Inactive)
ROOT
ATOM      1  C4' PXY d   1      -0.490  -5.737  -5.268  0.00  0.00     0.077 C 
ATOM      2  C1' PXY d   1      -5.989  -3.977  -5.543  0.00  0.00     0.077 C 
ATOM      3  C1  PXY d   1      -4.544  -4.431  -5.481  0.00  0.00    -0.082 A 
ATOM      4  C2  PXY d   1      -4.245  -5.588  -4.913  0.00  0.00     0.003 A 
ATOM      5  C3  PXY d   1      -2.941  -5.999  -4.820  0.00  0.00     0.003 A 
ATOM      6  C4  PXY d   1      -1.936  -5.243  -5.362  0.00  0.00    -0.082 A 
ATOM      7  C5  PXY d   1      -2.233  -4.066  -5.952  0.00  0.00     0.003 A 
ATOM      8  C6  PXY d   1      -3.560  -3.647  -6.000  0.00  0.00     0.003 A 
ENDROOT
TORSDOF 0
ENDMDL
