MODEL 1
REMARK minimizedAffinity -3.58881354
REMARK minimizedRMSD -1
REMARK  0 active torsions:
REMARK  status: ('A' for Active; 'I' for Inactive)
ROOT
ATOM      1  C4' PXY d   1      -1.699  -5.970  -4.227  0.00  0.00     0.077 C 
ATOM      2  C1' PXY d   1      -6.000  -2.371  -5.630  0.00  0.00     0.077 C 
ATOM      3  C1  PXY d   1      -4.876  -3.315  -5.249  0.00  0.00    -0.082 A 
ATOM      4  C2  PXY d   1      -3.787  -3.371  -5.999  0.00  0.00     0.003 A 
ATOM      5  C3  PXY d   1      -2.775  -4.242  -5.688  0.00  0.00     0.003 A 
ATOM      6  C4  PXY d   1      -2.855  -5.025  -4.568  0.00  0.00    -0.082 A 
ATOM      7  C5  PXY d   1      -3.958  -4.966  -3.792  0.00  0.00     0.003 A 
ATOM      8  C6  PXY d   1      -4.992  -4.105  -4.148  0.00  0.00     0.003 A 
ENDROOT
TORSDOF 0
ENDMDL
