MODEL 1
REMARK minimizedAffinity -2.74584842
REMARK minimizedRMSD -1
REMARK  0 active torsions:
REMARK  status: ('A' for Active; 'I' for Inactive)
ROOT
ATOM      1  C4' PXY d   1      -5.999  -2.358  -4.130  0.00  0.00     0.077 C 
ATOM      2  C1' PXY d   1      -1.911  -5.993  -5.997  0.00  0.00     0.077 C 
ATOM      3  C1  PXY d   1      -2.990  -5.042  -5.518  0.00  0.00    -0.082 A 
ATOM      4  C2  PXY d   1      -2.677  -4.062  -4.686  0.00  0.00     0.003 A 
ATOM      5  C3  PXY d   1      -3.646  -3.213  -4.218  0.00  0.00     0.003 A 
ATOM      6  C4  PXY d   1      -4.941  -3.335  -4.647  0.00  0.00    -0.082 A 
ATOM      7  C5  PXY d   1      -5.267  -4.326  -5.504  0.00  0.00     0.003 A 
ATOM      8  C6  PXY d   1      -4.276  -5.203  -5.935  0.00  0.00     0.003 A 
ENDROOT
TORSDOF 0
ENDMDL
