MODEL 1
REMARK minimizedAffinity -3.93456888
REMARK minimizedRMSD -1
REMARK  0 active torsions:
REMARK  status: ('A' for Active; 'I' for Inactive)
ROOT
ATOM      1  C4' PXY d   1      -2.241  -6.000  -5.988  0.00  0.00     0.077 C 
ATOM      2  C1' PXY d   1      -6.000  -2.256  -3.693  0.00  0.00     0.077 C 
ATOM      3  C1  PXY d   1      -5.023  -3.248  -4.292  0.00  0.00    -0.082 A 
ATOM      4  C2  PXY d   1      -3.732  -2.958  -4.320  0.00  0.00     0.003 A 
ATOM      5  C3  PXY d   1      -2.838  -3.829  -4.888  0.00  0.00     0.003 A 
ATOM      6  C4  PXY d   1      -3.263  -5.033  -5.383  0.00  0.00    -0.082 A 
ATOM      7  C5  PXY d   1      -4.577  -5.340  -5.349  0.00  0.00     0.003 A 
ATOM      8  C6  PXY d   1      -5.473  -4.424  -4.806  0.00  0.00     0.003 A 
ENDROOT
TORSDOF 0
ENDMDL
