MODEL 1
REMARK minimizedAffinity 0.396332264
REMARK minimizedRMSD -1
REMARK  0 active torsions:
REMARK  status: ('A' for Active; 'I' for Inactive)
ROOT
ATOM      1  C4' PXY d   1      -0.978  -6.000  -4.669  0.00  0.00     0.077 C 
ATOM      2  C1' PXY d   1      -5.999  -3.146  -4.897  0.00  0.00     0.077 C 
ATOM      3  C1  PXY d   1      -4.684  -3.898  -4.850  0.00  0.00    -0.082 A 
ATOM      4  C2  PXY d   1      -4.198  -4.293  -3.684  0.00  0.00     0.003 A 
ATOM      5  C3  PXY d   1      -2.994  -4.946  -3.620  0.00  0.00     0.003 A 
ATOM      6  C4  PXY d   1      -2.307  -5.246  -4.766  0.00  0.00    -0.082 A 
ATOM      7  C5  PXY d   1      -2.802  -4.856  -5.960  0.00  0.00     0.003 A 
ATOM      8  C6  PXY d   1      -4.005  -4.158  -6.000  0.00  0.00     0.003 A 
ENDROOT
TORSDOF 0
ENDMDL
