MODEL 1
REMARK minimizedAffinity -3.52808571
REMARK minimizedRMSD -1
REMARK  0 active torsions:
REMARK  status: ('A' for Active; 'I' for Inactive)
ROOT
ATOM      1  C4' PXY d   1      -5.654  -3.824  -4.378  0.00  0.00     0.077 C 
ATOM      2  C1' PXY d   1      -0.448  -5.999  -5.637  0.00  0.00     0.077 C 
ATOM      3  C1  PXY d   1      -1.818  -5.433  -5.318  0.00  0.00    -0.082 A 
ATOM      4  C2  PXY d   1      -1.930  -4.439  -4.451  0.00  0.00     0.003 A 
ATOM      5  C3  PXY d   1      -3.164  -3.937  -4.127  0.00  0.00     0.003 A 
ATOM      6  C4  PXY d   1      -4.290  -4.421  -4.737  0.00  0.00    -0.082 A 
ATOM      7  C5  PXY d   1      -4.184  -5.427  -5.631  0.00  0.00     0.003 A 
ATOM      8  C6  PXY d   1      -2.926  -5.950  -5.915  0.00  0.00     0.003 A 
ENDROOT
TORSDOF 0
ENDMDL
