MODEL 1
REMARK minimizedAffinity -2.52626252
REMARK minimizedRMSD -1
REMARK  0 active torsions:
REMARK  status: ('A' for Active; 'I' for Inactive)
ROOT
ATOM      1  C4' PXY d   1      -1.813  -5.999  -5.970  0.00  0.00     0.077 C 
ATOM      2  C1' PXY d   1      -5.999  -2.393  -4.272  0.00  0.00     0.077 C 
ATOM      3  C1  PXY d   1      -4.910  -3.349  -4.717  0.00  0.00    -0.082 A 
ATOM      4  C2  PXY d   1      -3.642  -3.049  -4.486  0.00  0.00     0.003 A 
ATOM      5  C3  PXY d   1      -2.643  -3.886  -4.910  0.00  0.00     0.003 A 
ATOM      6  C4  PXY d   1      -2.946  -5.068  -5.530  0.00  0.00    -0.082 A 
ATOM      7  C5  PXY d   1      -4.238  -5.387  -5.760  0.00  0.00     0.003 A 
ATOM      8  C6  PXY d   1      -5.236  -4.503  -5.359  0.00  0.00     0.003 A 
ENDROOT
TORSDOF 0
ENDMDL
