MODEL 1
REMARK minimizedAffinity -4.37889147
REMARK minimizedRMSD -1
REMARK  0 active torsions:
REMARK  status: ('A' for Active; 'I' for Inactive)
ROOT
ATOM      1  C4' PXY d   1      -6.000  -1.713  -4.114  0.00  0.00     0.077 C 
ATOM      2  C1' PXY d   1      -1.973  -5.564  -5.652  0.00  0.00     0.077 C 
ATOM      3  C1  PXY d   1      -3.035  -4.563  -5.242  0.00  0.00    -0.082 A 
ATOM      4  C2  PXY d   1      -3.262  -3.503  -5.999  0.00  0.00     0.003 A 
ATOM      5  C3  PXY d   1      -4.197  -2.571  -5.627  0.00  0.00     0.003 A 
ATOM      6  C4  PXY d   1      -4.944  -2.754  -4.494  0.00  0.00    -0.082 A 
ATOM      7  C5  PXY d   1      -4.726  -3.839  -3.721  0.00  0.00     0.003 A 
ATOM      8  C6  PXY d   1      -3.744  -4.752  -4.096  0.00  0.00     0.003 A 
ENDROOT
TORSDOF 0
ENDMDL
