MODEL 1
REMARK minimizedAffinity -3.43078613
REMARK minimizedRMSD -1
REMARK  0 active torsions:
REMARK  status: ('A' for Active; 'I' for Inactive)
ROOT
ATOM      1  C4' PXY d   1      -6.000  -1.746  -4.960  0.00  0.00     0.077 C 
ATOM      2  C1' PXY d   1      -1.923  -5.844  -4.955  0.00  0.00     0.077 C 
ATOM      3  C1  PXY d   1      -2.999  -4.776  -4.948  0.00  0.00    -0.082 A 
ATOM      4  C2  PXY d   1      -3.144  -3.987  -6.000  0.00  0.00     0.003 A 
ATOM      5  C3  PXY d   1      -4.091  -2.995  -5.997  0.00  0.00     0.003 A 
ATOM      6  C4  PXY d   1      -4.933  -2.844  -4.928  0.00  0.00    -0.082 A 
ATOM      7  C5  PXY d   1      -4.798  -3.652  -3.855  0.00  0.00     0.003 A 
ATOM      8  C6  PXY d   1      -3.804  -4.626  -3.861  0.00  0.00     0.003 A 
ENDROOT
TORSDOF 0
ENDMDL
