MODEL 1
REMARK minimizedAffinity -2.72775221
REMARK minimizedRMSD -1
REMARK  0 active torsions:
REMARK  status: ('A' for Active; 'I' for Inactive)
ROOT
ATOM      1  C4' PXY d   1      -0.882  -6.000  -5.564  0.00  0.00     0.077 C 
ATOM      2  C1' PXY d   1      -5.831  -3.017  -5.691  0.00  0.00     0.077 C 
ATOM      3  C1  PXY d   1      -4.538  -3.807  -5.649  0.00  0.00    -0.082 A 
ATOM      4  C2  PXY d   1      -3.403  -3.224  -5.999  0.00  0.00     0.003 A 
ATOM      5  C3  PXY d   1      -2.230  -3.933  -5.997  0.00  0.00     0.003 A 
ATOM      6  C4  PXY d   1      -2.209  -5.238  -5.582  0.00  0.00    -0.082 A 
ATOM      7  C5  PXY d   1      -3.362  -5.837  -5.213  0.00  0.00     0.003 A 
ATOM      8  C6  PXY d   1      -4.549  -5.111  -5.261  0.00  0.00     0.003 A 
ENDROOT
TORSDOF 0
ENDMDL
