MODEL 1
REMARK minimizedAffinity 17.2552357
REMARK minimizedRMSD -1
REMARK  0 active torsions:
REMARK  status: ('A' for Active; 'I' for Inactive)
ROOT
ATOM      1  C   UNL d   1       3.106  -0.161   1.881  0.00  0.00     0.023 A 
ATOM      2  C1  UNL d   1       4.153  -0.599   1.069  0.00  0.00     0.003 A 
ATOM      3  C2  UNL d   1       4.418   0.047  -0.140  0.00  0.00     0.048 A 
ATOM      4  C3  UNL d   1       3.633   1.131  -0.531  0.00  0.00     0.023 A 
ATOM      5  C4  UNL d   1       2.586   1.574   0.278  0.00  0.00     0.048 A 
ATOM      6  C5  UNL d   1       2.323   0.924   1.486  0.00  0.00     0.003 A 
ATOM      7  I   UNL d   1       4.026   2.095  -2.330  0.00  0.00    -0.146 I 
ENDROOT
TORSDOF 0
ENDMDL
