MODEL 1
REMARK minimizedAffinity 15.1888847
REMARK minimizedRMSD -1
REMARK  0 active torsions:
REMARK  status: ('A' for Active; 'I' for Inactive)
ROOT
ATOM      1  C   UNL d   1      -1.544  -6.000   2.231  0.00  0.00     0.023 A 
ATOM      2  C1  UNL d   1      -0.745  -4.862   2.345  0.00  0.00     0.003 A 
ATOM      3  C2  UNL d   1      -1.045  -3.719   1.600  0.00  0.00     0.048 A 
ATOM      4  C3  UNL d   1      -2.146  -3.722   0.744  0.00  0.00     0.023 A 
ATOM      5  C4  UNL d   1      -2.949  -4.858   0.628  0.00  0.00     0.048 A 
ATOM      6  C5  UNL d   1      -2.644  -5.998   1.374  0.00  0.00     0.003 A 
ATOM      7  I   UNL d   1      -2.595  -2.022  -0.365  0.00  0.00    -0.146 I 
ENDROOT
TORSDOF 0
ENDMDL
