MODEL 1
REMARK minimizedAffinity 17.5283813
REMARK minimizedRMSD -1
REMARK  0 active torsions:
REMARK  status: ('A' for Active; 'I' for Inactive)
ROOT
ATOM      1  C   UNL d   1       0.015  -0.277   5.160  0.00  0.00     0.023 A 
ATOM      2  C1  UNL d   1      -0.825  -1.390   5.145  0.00  0.00     0.003 A 
ATOM      3  C2  UNL d   1      -1.292  -1.898   3.930  0.00  0.00     0.048 A 
ATOM      4  C3  UNL d   1      -0.914  -1.288   2.735  0.00  0.00     0.023 A 
ATOM      5  C4  UNL d   1      -0.072  -0.174   2.745  0.00  0.00     0.048 A 
ATOM      6  C5  UNL d   1       0.391   0.330   3.962  0.00  0.00     0.003 A 
ATOM      7  I   UNL d   1      -1.607  -2.041   0.926  0.00  0.00    -0.146 I 
ENDROOT
TORSDOF 0
ENDMDL
