MODEL 1
REMARK minimizedAffinity 11.2097931
REMARK minimizedRMSD -1
REMARK  0 active torsions:
REMARK  status: ('A' for Active; 'I' for Inactive)
ROOT
ATOM      1  C   UNL d   1       1.996   5.999  -5.828  0.00  0.00     0.023 A 
ATOM      2  C1  UNL d   1       1.122   5.065  -5.271  0.00  0.00     0.003 A 
ATOM      3  C2  UNL d   1       1.593   4.129  -4.349  0.00  0.00     0.048 A 
ATOM      4  C3  UNL d   1       2.940   4.132  -3.987  0.00  0.00     0.023 A 
ATOM      5  C4  UNL d   1       3.818   5.065  -4.541  0.00  0.00     0.048 A 
ATOM      6  C5  UNL d   1       3.342   5.999  -5.463  0.00  0.00     0.003 A 
ATOM      7  I   UNL d   1       3.644   2.739  -2.615  0.00  0.00    -0.146 I 
ENDROOT
TORSDOF 0
ENDMDL
