MODEL 1
REMARK minimizedAffinity 10.3033924
REMARK minimizedRMSD -1
REMARK  0 active torsions:
REMARK  status: ('A' for Active; 'I' for Inactive)
ROOT
ATOM      1  C   UNL d   1       4.608  -1.142   1.498  0.00  0.00     0.023 A 
ATOM      2  C1  UNL d   1       3.476  -0.710   0.806  0.00  0.00     0.003 A 
ATOM      3  C2  UNL d   1       2.236  -0.677   1.447  0.00  0.00     0.048 A 
ATOM      4  C3  UNL d   1       2.135  -1.075   2.779  0.00  0.00     0.023 A 
ATOM      5  C4  UNL d   1       3.265  -1.506   3.476  0.00  0.00     0.048 A 
ATOM      6  C5  UNL d   1       4.503  -1.539   2.831  0.00  0.00     0.003 A 
ATOM      7  I   UNL d   1       0.290  -1.026   3.735  0.00  0.00    -0.146 I 
ENDROOT
TORSDOF 0
ENDMDL
