MODEL 1
REMARK minimizedAffinity 10.4352112
REMARK minimizedRMSD -1
REMARK  0 active torsions:
REMARK  status: ('A' for Active; 'I' for Inactive)
ROOT
ATOM      1  C   UNL d   1      -2.391  -2.181   1.177  0.00  0.00     0.023 A 
ATOM      2  C1  UNL d   1      -3.364  -2.014   0.191  0.00  0.00     0.003 A 
ATOM      3  C2  UNL d   1      -3.019  -2.121  -1.157  0.00  0.00     0.048 A 
ATOM      4  C3  UNL d   1      -1.699  -2.397  -1.514  0.00  0.00     0.023 A 
ATOM      5  C4  UNL d   1      -0.723  -2.567  -0.531  0.00  0.00     0.048 A 
ATOM      6  C5  UNL d   1      -1.072  -2.457   0.816  0.00  0.00     0.003 A 
ATOM      7  I   UNL d   1      -1.184  -2.558  -3.521  0.00  0.00    -0.146 I 
ENDROOT
TORSDOF 0
ENDMDL
