MODEL 1
REMARK minimizedAffinity 9.21169567
REMARK minimizedRMSD -1
REMARK  0 active torsions:
REMARK  status: ('A' for Active; 'I' for Inactive)
ROOT
ATOM      1  C   UNL d   1       5.681   0.725  -4.476  0.00  0.00     0.023 A 
ATOM      2  C1  UNL d   1       4.380   1.048  -4.089  0.00  0.00     0.003 A 
ATOM      3  C2  UNL d   1       3.380   0.074  -4.115  0.00  0.00     0.048 A 
ATOM      4  C3  UNL d   1       3.688  -1.222  -4.529  0.00  0.00     0.023 A 
ATOM      5  C4  UNL d   1       4.988  -1.550  -4.916  0.00  0.00     0.048 A 
ATOM      6  C5  UNL d   1       5.984  -0.573  -4.889  0.00  0.00     0.003 A 
ATOM      7  I   UNL d   1       2.201  -2.674  -4.569  0.00  0.00    -0.146 I 
ENDROOT
TORSDOF 0
ENDMDL
