MODEL 1
REMARK minimizedAffinity 5.8052516
REMARK minimizedRMSD -1
REMARK  0 active torsions:
REMARK  status: ('A' for Active; 'I' for Inactive)
ROOT
ATOM      1  C   UNL d   1       5.135   0.107   1.192  0.00  0.00     0.023 A 
ATOM      2  C1  UNL d   1       4.407   1.204   0.731  0.00  0.00     0.003 A 
ATOM      3  C2  UNL d   1       3.130   1.457   1.235  0.00  0.00     0.048 A 
ATOM      4  C3  UNL d   1       2.586   0.610   2.199  0.00  0.00     0.023 A 
ATOM      5  C4  UNL d   1       3.311  -0.489   2.664  0.00  0.00     0.048 A 
ATOM      6  C5  UNL d   1       4.587  -0.739   2.157  0.00  0.00     0.003 A 
ATOM      7  I   UNL d   1       0.685   0.985   2.950  0.00  0.00    -0.146 I 
ENDROOT
TORSDOF 0
ENDMDL
