MODEL 1
REMARK minimizedAffinity 13.4800539
REMARK minimizedRMSD -1
REMARK  0 active torsions:
REMARK  status: ('A' for Active; 'I' for Inactive)
ROOT
ATOM      1  C   UNL d   1       2.758   5.479  -5.994  0.00  0.00     0.023 A 
ATOM      2  C1  UNL d   1       3.480   5.994  -4.918  0.00  0.00     0.003 A 
ATOM      3  C2  UNL d   1       3.819   5.168  -3.844  0.00  0.00     0.048 A 
ATOM      4  C3  UNL d   1       3.434   3.828  -3.854  0.00  0.00     0.023 A 
ATOM      5  C4  UNL d   1       2.711   3.309  -4.929  0.00  0.00     0.048 A 
ATOM      6  C5  UNL d   1       2.374   4.138  -6.000  0.00  0.00     0.003 A 
ATOM      7  I   UNL d   1       3.938   2.597  -2.257  0.00  0.00    -0.146 I 
ENDROOT
TORSDOF 0
ENDMDL
