MODEL 1
REMARK minimizedAffinity 6.84688663
REMARK minimizedRMSD -1
REMARK  0 active torsions:
REMARK  status: ('A' for Active; 'I' for Inactive)
ROOT
ATOM      1  C   UNL d   1       6.000   0.374  -0.068  0.00  0.00     0.023 A 
ATOM      2  C1  UNL d   1       5.313  -0.156   1.025  0.00  0.00     0.003 A 
ATOM      3  C2  UNL d   1       4.134   0.447   1.469  0.00  0.00     0.048 A 
ATOM      4  C3  UNL d   1       3.647   1.578   0.815  0.00  0.00     0.023 A 
ATOM      5  C4  UNL d   1       4.330   2.111  -0.279  0.00  0.00     0.048 A 
ATOM      6  C5  UNL d   1       5.509   1.505  -0.719  0.00  0.00     0.003 A 
ATOM      7  I   UNL d   1       1.893   2.477   1.474  0.00  0.00    -0.146 I 
ENDROOT
TORSDOF 0
ENDMDL
