MODEL 1
REMARK minimizedAffinity 17.8315964
REMARK minimizedRMSD -1
REMARK  0 active torsions:
REMARK  status: ('A' for Active; 'I' for Inactive)
ROOT
ATOM      1  C   UNL d   1      -0.070   2.053   3.395  0.00  0.00     0.023 A 
ATOM      2  C1  UNL d   1       0.373   2.496   2.149  0.00  0.00     0.003 A 
ATOM      3  C2  UNL d   1       1.518   1.939   1.574  0.00  0.00     0.048 A 
ATOM      4  C3  UNL d   1       2.214   0.939   2.252  0.00  0.00     0.023 A 
ATOM      5  C4  UNL d   1       1.774   0.491   3.498  0.00  0.00     0.048 A 
ATOM      6  C5  UNL d   1       0.630   1.052   4.069  0.00  0.00     0.003 A 
ATOM      7  I   UNL d   1       3.917   0.108   1.399  0.00  0.00    -0.146 I 
ENDROOT
TORSDOF 0
ENDMDL
