MODEL 1
REMARK minimizedAffinity 15.010622
REMARK minimizedRMSD -1
REMARK  0 active torsions:
REMARK  status: ('A' for Active; 'I' for Inactive)
ROOT
ATOM      1  C   UNL d   1       4.239   1.249  -2.778  0.00  0.00     0.023 A 
ATOM      2  C1  UNL d   1       4.024   1.100  -4.148  0.00  0.00     0.003 A 
ATOM      3  C2  UNL d   1       3.337   2.086  -4.860  0.00  0.00     0.048 A 
ATOM      4  C3  UNL d   1       2.870   3.219  -4.195  0.00  0.00     0.023 A 
ATOM      5  C4  UNL d   1       3.084   3.373  -2.825  0.00  0.00     0.048 A 
ATOM      6  C5  UNL d   1       3.770   2.385  -2.117  0.00  0.00     0.003 A 
ATOM      7  I   UNL d   1       1.848   4.688  -5.253  0.00  0.00    -0.146 I 
ENDROOT
TORSDOF 0
ENDMDL
