MODEL 1
REMARK minimizedAffinity 13.5822334
REMARK minimizedRMSD -1
REMARK  0 active torsions:
REMARK  status: ('A' for Active; 'I' for Inactive)
ROOT
ATOM      1  C   UNL d   1       5.664   0.624  -4.371  0.00  0.00     0.023 A 
ATOM      2  C1  UNL d   1       4.355   0.774  -4.831  0.00  0.00     0.003 A 
ATOM      3  C2  UNL d   1       3.378   1.320  -3.996  0.00  0.00     0.048 A 
ATOM      4  C3  UNL d   1       3.717   1.716  -2.702  0.00  0.00     0.023 A 
ATOM      5  C4  UNL d   1       5.026   1.569  -2.238  0.00  0.00     0.048 A 
ATOM      6  C5  UNL d   1       5.998   1.021  -3.077  0.00  0.00     0.003 A 
ATOM      7  I   UNL d   1       2.265   2.529  -1.457  0.00  0.00    -0.146 I 
ENDROOT
TORSDOF 0
ENDMDL
