MODEL 1
REMARK minimizedAffinity -0.322592646
REMARK minimizedRMSD -1
REMARK  0 active torsions:
REMARK  status: ('A' for Active; 'I' for Inactive)
ROOT
ATOM      1  C   UNL d   1       5.181   2.641  -2.990  0.00  0.00     0.023 A 
ATOM      2  C1  UNL d   1       4.933   2.173  -4.281  0.00  0.00     0.003 A 
ATOM      3  C2  UNL d   1       4.082   2.883  -5.130  0.00  0.00     0.048 A 
ATOM      4  C3  UNL d   1       3.484   4.061  -4.683  0.00  0.00     0.023 A 
ATOM      5  C4  UNL d   1       3.731   4.533  -3.393  0.00  0.00     0.048 A 
ATOM      6  C5  UNL d   1       4.581   3.819  -2.547  0.00  0.00     0.003 A 
ATOM      7  I   UNL d   1       2.217   5.120  -5.946  0.00  0.00    -0.146 I 
ENDROOT
TORSDOF 0
ENDMDL
