MODEL 1
REMARK minimizedAffinity 14.5993481
REMARK minimizedRMSD -1
REMARK  0 active torsions:
REMARK  status: ('A' for Active; 'I' for Inactive)
ROOT
ATOM      1  C   UNL d   1       0.686   3.643  -0.170  0.00  0.00     0.124 A 
ATOM      2  C1  UNL d   1       0.048   2.417  -0.038  0.00  0.00     0.062 A 
ATOM      3  C2  UNL d   1       0.636   1.398   0.705  0.00  0.00     0.162 A 
ATOM      4  C3  UNL d   1       1.870   1.600   1.323  0.00  0.00    -0.034 A 
ATOM      5  C4  UNL d   1       2.506   2.835   1.186  0.00  0.00     0.162 A 
ATOM      6  C5  UNL d   1       1.914   3.850   0.442  0.00  0.00     0.062 A 
ATOM      7  F   UNL d   1       2.532   5.034   0.316  0.00  0.00    -0.097 F 
ATOM      8  F1  UNL d   1       3.693   3.063   1.767  0.00  0.00    -0.096 F 
ATOM      9  I   UNL d   1       2.753   0.078   2.435  0.00  0.00    -0.060 I 
ATOM     10  F2  UNL d   1      -0.003   0.224   0.815  0.00  0.00    -0.096 F 
ATOM     11  F3  UNL d   1      -1.139   2.214  -0.629  0.00  0.00    -0.097 F 
ATOM     12  F4  UNL d   1       0.118   4.621  -0.886  0.00  0.00    -0.092 F 
ENDROOT
TORSDOF 0
ENDMDL
