MODEL 1
REMARK minimizedAffinity 18.9422379
REMARK minimizedRMSD -1
REMARK  0 active torsions:
REMARK  status: ('A' for Active; 'I' for Inactive)
ROOT
ATOM      1  C   UNL d   1      -2.533   0.757  -4.119  0.00  0.00     0.124 A 
ATOM      2  C1  UNL d   1      -3.125   1.585  -3.175  0.00  0.00     0.062 A 
ATOM      3  C2  UNL d   1      -2.358   2.155  -2.163  0.00  0.00     0.162 A 
ATOM      4  C3  UNL d   1      -0.989   1.900  -2.090  0.00  0.00    -0.034 A 
ATOM      5  C4  UNL d   1      -0.400   1.065  -3.041  0.00  0.00     0.162 A 
ATOM      6  C5  UNL d   1      -1.171   0.498  -4.051  0.00  0.00     0.062 A 
ATOM      7  F   UNL d   1      -0.597  -0.301  -4.961  0.00  0.00    -0.097 F 
ATOM      8  F1  UNL d   1       0.914   0.799  -3.000  0.00  0.00    -0.096 F 
ATOM      9  I   UNL d   1       0.162   2.750  -0.578  0.00  0.00    -0.060 I 
ATOM     10  F2  UNL d   1      -2.958   2.951  -1.265  0.00  0.00    -0.096 F 
ATOM     11  F3  UNL d   1      -4.441   1.836  -3.238  0.00  0.00    -0.097 F 
ATOM     12  F4  UNL d   1      -3.273   0.210  -5.091  0.00  0.00    -0.092 F 
ENDROOT
TORSDOF 0
ENDMDL
