MODEL 1
REMARK minimizedAffinity 10.568141
REMARK minimizedRMSD -1
REMARK  0 active torsions:
REMARK  status: ('A' for Active; 'I' for Inactive)
ROOT
ATOM      1  C   UNL d   1      -1.207   3.377  -0.339  0.00  0.00     0.124 A 
ATOM      2  C1  UNL d   1      -1.859   4.449  -0.932  0.00  0.00     0.062 A 
ATOM      3  C2  UNL d   1      -3.022   4.962  -0.365  0.00  0.00     0.162 A 
ATOM      4  C3  UNL d   1      -3.540   4.404   0.804  0.00  0.00    -0.034 A 
ATOM      5  C4  UNL d   1      -2.879   3.325   1.394  0.00  0.00     0.162 A 
ATOM      6  C5  UNL d   1      -1.717   2.816   0.823  0.00  0.00     0.062 A 
ATOM      7  F   UNL d   1      -1.089   1.780   1.397  0.00  0.00    -0.097 F 
ATOM      8  F1  UNL d   1      -3.350   2.764   2.518  0.00  0.00    -0.096 F 
ATOM      9  I   UNL d   1      -5.279   5.168   1.655  0.00  0.00    -0.060 I 
ATOM     10  F2  UNL d   1      -3.631   5.999  -0.959  0.00  0.00    -0.096 F 
ATOM     11  F3  UNL d   1      -1.368   4.993  -2.055  0.00  0.00    -0.097 F 
ATOM     12  F4  UNL d   1      -0.089   2.885  -0.888  0.00  0.00    -0.092 F 
ENDROOT
TORSDOF 0
ENDMDL
