MODEL 1
REMARK minimizedAffinity 27.8206081
REMARK minimizedRMSD -1
REMARK  0 active torsions:
REMARK  status: ('A' for Active; 'I' for Inactive)
ROOT
ATOM      1  C   UNL d   1      -2.737   0.504  -4.726  0.00  0.00     0.124 A 
ATOM      2  C1  UNL d   1      -3.444   1.245  -3.789  0.00  0.00     0.062 A 
ATOM      3  C2  UNL d   1      -2.773   1.886  -2.752  0.00  0.00     0.162 A 
ATOM      4  C3  UNL d   1      -1.385   1.790  -2.647  0.00  0.00    -0.034 A 
ATOM      5  C4  UNL d   1      -0.681   1.043  -3.593  0.00  0.00     0.162 A 
ATOM      6  C5  UNL d   1      -1.357   0.404  -4.627  0.00  0.00     0.062 A 
ATOM      7  F   UNL d   1      -0.672  -0.311  -5.532  0.00  0.00    -0.097 F 
ATOM      8  F1  UNL d   1       0.654   0.929  -3.521  0.00  0.00    -0.096 F 
ATOM      9  I   UNL d   1      -0.377   2.747  -1.098  0.00  0.00    -0.060 I 
ATOM     10  F2  UNL d   1      -3.481   2.595  -1.860  0.00  0.00    -0.096 F 
ATOM     11  F3  UNL d   1      -4.778   1.343  -3.881  0.00  0.00    -0.097 F 
ATOM     12  F4  UNL d   1      -3.387  -0.112  -5.722  0.00  0.00    -0.092 F 
ENDROOT
TORSDOF 0
ENDMDL
