MODEL 1
REMARK minimizedAffinity 24.990221
REMARK minimizedRMSD -1
REMARK  0 active torsions:
REMARK  status: ('A' for Active; 'I' for Inactive)
ROOT
ATOM      1  C   UNL d   1       0.865   3.613  -1.007  0.00  0.00     0.124 A 
ATOM      2  C1  UNL d   1       0.249   2.642  -0.230  0.00  0.00     0.062 A 
ATOM      3  C2  UNL d   1      -1.111   2.385  -0.378  0.00  0.00     0.162 A 
ATOM      4  C3  UNL d   1      -1.864   3.099  -1.310  0.00  0.00    -0.034 A 
ATOM      5  C4  UNL d   1      -1.238   4.075  -2.088  0.00  0.00     0.162 A 
ATOM      6  C5  UNL d   1       0.121   4.328  -1.935  0.00  0.00     0.062 A 
ATOM      7  F   UNL d   1       0.714   5.267  -2.687  0.00  0.00    -0.097 F 
ATOM      8  F1  UNL d   1      -1.933   4.780  -2.993  0.00  0.00    -0.096 F 
ATOM      9  I   UNL d   1      -3.898   2.717  -1.535  0.00  0.00    -0.060 I 
ATOM     10  F2  UNL d   1      -1.679   1.441   0.386  0.00  0.00    -0.096 F 
ATOM     11  F3  UNL d   1       0.966   1.951   0.668  0.00  0.00    -0.097 F 
ATOM     12  F4  UNL d   1       2.173   3.860  -0.861  0.00  0.00    -0.092 F 
ENDROOT
TORSDOF 0
ENDMDL
