MODEL 1
REMARK minimizedAffinity 12.4922676
REMARK minimizedRMSD -1
REMARK  0 active torsions:
REMARK  status: ('A' for Active; 'I' for Inactive)
ROOT
ATOM      1  C   UNL d   1       3.173  -2.000  -0.218  0.00  0.00     0.124 A 
ATOM      2  C1  UNL d   1       4.346  -2.276   0.471  0.00  0.00     0.062 A 
ATOM      3  C2  UNL d   1       4.393  -2.142   1.855  0.00  0.00     0.162 A 
ATOM      4  C3  UNL d   1       3.262  -1.730   2.561  0.00  0.00    -0.034 A 
ATOM      5  C4  UNL d   1       2.086  -1.453   1.861  0.00  0.00     0.162 A 
ATOM      6  C5  UNL d   1       2.045  -1.589   0.477  0.00  0.00     0.062 A 
ATOM      7  F   UNL d   1       0.911  -1.322  -0.187  0.00  0.00    -0.097 F 
ATOM      8  F1  UNL d   1       0.981  -1.055   2.508  0.00  0.00    -0.096 F 
ATOM      9  I   UNL d   1       3.328  -1.529   4.631  0.00  0.00    -0.060 I 
ATOM     10  F2  UNL d   1       5.539  -2.416   2.495  0.00  0.00    -0.096 F 
ATOM     11  F3  UNL d   1       5.438  -2.673  -0.199  0.00  0.00    -0.097 F 
ATOM     12  F4  UNL d   1       3.131  -2.129  -1.551  0.00  0.00    -0.092 F 
ENDROOT
TORSDOF 0
ENDMDL
