MODEL 1
REMARK minimizedAffinity 19.7630749
REMARK minimizedRMSD -1
REMARK  0 active torsions:
REMARK  status: ('A' for Active; 'I' for Inactive)
ROOT
ATOM      1  C   UNL d   1      -1.383   2.470  -1.543  0.00  0.00     0.124 A 
ATOM      2  C1  UNL d   1      -0.075   2.191  -1.172  0.00  0.00     0.062 A 
ATOM      3  C2  UNL d   1       0.887   3.197  -1.187  0.00  0.00     0.162 A 
ATOM      4  C3  UNL d   1       0.545   4.492  -1.575  0.00  0.00    -0.034 A 
ATOM      5  C4  UNL d   1      -0.773   4.765  -1.948  0.00  0.00     0.162 A 
ATOM      6  C5  UNL d   1      -1.730   3.756  -1.930  0.00  0.00     0.062 A 
ATOM      7  F   UNL d   1      -2.994   4.028  -2.289  0.00  0.00    -0.097 F 
ATOM      8  F1  UNL d   1      -1.137   6.000  -2.326  0.00  0.00    -0.096 F 
ATOM      9  I   UNL d   1       1.980   5.999  -1.599  0.00  0.00    -0.060 I 
ATOM     10  F2  UNL d   1       2.143   2.899  -0.823  0.00  0.00    -0.096 F 
ATOM     11  F3  UNL d   1       0.264   0.949  -0.798  0.00  0.00    -0.097 F 
ATOM     12  F4  UNL d   1      -2.306   1.500  -1.528  0.00  0.00    -0.092 F 
ENDROOT
TORSDOF 0
ENDMDL
