MODEL 1
REMARK minimizedAffinity 16.4587345
REMARK minimizedRMSD -1
REMARK  0 active torsions:
REMARK  status: ('A' for Active; 'I' for Inactive)
ROOT
ATOM      1  C   UNL d   1       0.297   5.104  -2.253  0.00  0.00     0.124 A 
ATOM      2  C1  UNL d   1      -0.647   4.179  -1.828  0.00  0.00     0.062 A 
ATOM      3  C2  UNL d   1      -0.326   3.255  -0.838  0.00  0.00     0.162 A 
ATOM      4  C3  UNL d   1       0.946   3.252  -0.265  0.00  0.00    -0.034 A 
ATOM      5  C4  UNL d   1       1.890   4.185  -0.698  0.00  0.00     0.162 A 
ATOM      6  C5  UNL d   1       1.564   5.106  -1.687  0.00  0.00     0.062 A 
ATOM      7  F   UNL d   1       2.477   5.999  -2.096  0.00  0.00    -0.097 F 
ATOM      8  F1  UNL d   1       3.122   4.210  -0.168  0.00  0.00    -0.096 F 
ATOM      9  I   UNL d   1       1.431   1.872   1.216  0.00  0.00    -0.060 I 
ATOM     10  F2  UNL d   1      -1.257   2.373  -0.447  0.00  0.00    -0.096 F 
ATOM     11  F3  UNL d   1      -1.872   4.175  -2.373  0.00  0.00    -0.097 F 
ATOM     12  F4  UNL d   1      -0.015   5.991  -3.206  0.00  0.00    -0.092 F 
ENDROOT
TORSDOF 0
ENDMDL
