MODEL 1
REMARK minimizedAffinity 21.1859131
REMARK minimizedRMSD -1
REMARK  0 active torsions:
REMARK  status: ('A' for Active; 'I' for Inactive)
ROOT
ATOM      1  C   UNL d   1      -2.058   2.924  -0.087  0.00  0.00     0.124 A 
ATOM      2  C1  UNL d   1      -0.848   2.443  -0.566  0.00  0.00     0.062 A 
ATOM      3  C2  UNL d   1      -0.788   1.801  -1.799  0.00  0.00     0.162 A 
ATOM      4  C3  UNL d   1      -1.943   1.637  -2.564  0.00  0.00    -0.034 A 
ATOM      5  C4  UNL d   1      -3.158   2.123  -2.075  0.00  0.00     0.162 A 
ATOM      6  C5  UNL d   1      -3.212   2.764  -0.842  0.00  0.00     0.062 A 
ATOM      7  F   UNL d   1      -4.382   3.228  -0.381  0.00  0.00    -0.097 F 
ATOM      8  F1  UNL d   1      -4.287   1.983  -2.785  0.00  0.00    -0.096 F 
ATOM      9  I   UNL d   1      -1.859   0.678  -4.409  0.00  0.00    -0.060 I 
ATOM     10  F2  UNL d   1       0.395   1.346  -2.237  0.00  0.00    -0.096 F 
ATOM     11  F3  UNL d   1       0.268   2.595   0.162  0.00  0.00    -0.097 F 
ATOM     12  F4  UNL d   1      -2.113   3.540   1.101  0.00  0.00    -0.092 F 
ENDROOT
TORSDOF 0
ENDMDL
