MODEL 1
REMARK minimizedAffinity -4.72508192
REMARK minimizedRMSD -1
REMARK  0 active torsions:
REMARK  status: ('A' for Active; 'I' for Inactive)
ROOT
ATOM      1  C   UNL d   1      -1.368   0.490  -1.030  0.00  0.00    -0.002 A 
ATOM      2  C1  UNL d   1      -1.045  -0.377   0.005  0.00  0.00     0.010 A 
ATOM      3  C2  UNL d   1      -0.108  -0.009   0.972  0.00  0.00     0.041 A 
ATOM      4  C3  UNL d   1       0.503   1.257   0.883  0.00  0.00    -0.075 A 
ATOM      5  S   UNL d   1       1.678   1.922   1.955  0.00  0.00     0.015 SA
ATOM      6  C4  UNL d   1       1.777   3.373   1.065  0.00  0.00     0.022 A 
ATOM      7  C5  UNL d   1       0.942   3.367  -0.026  0.00  0.00     0.026 A 
ATOM      8  C6  UNL d   1       0.193   2.147  -0.149  0.00  0.00    -0.082 A 
ATOM      9  C7  UNL d   1      -0.760   1.745  -1.115  0.00  0.00     0.045 A 
ENDROOT
TORSDOF 0
ENDMDL
