MODEL 1
REMARK minimizedAffinity 2.65783548
REMARK minimizedRMSD -1
REMARK  0 active torsions:
REMARK  status: ('A' for Active; 'I' for Inactive)
ROOT
ATOM      1  C   UNL d   1      -0.417  -0.510  -0.806  0.00  0.00    -0.002 A 
ATOM      2  C1  UNL d   1      -1.023  -0.395   0.437  0.00  0.00     0.010 A 
ATOM      3  C2  UNL d   1      -0.440   0.380   1.442  0.00  0.00     0.041 A 
ATOM      4  C3  UNL d   1       0.772   1.046   1.173  0.00  0.00    -0.075 A 
ATOM      5  S   UNL d   1       1.667   2.051   2.250  0.00  0.00     0.015 SA
ATOM      6  C4  UNL d   1       2.874   2.352   1.085  0.00  0.00     0.022 A 
ATOM      7  C5  UNL d   1       2.616   1.709  -0.103  0.00  0.00     0.026 A 
ATOM      8  C6  UNL d   1       1.400   0.946  -0.072  0.00  0.00    -0.082 A 
ATOM      9  C7  UNL d   1       0.785   0.151  -1.069  0.00  0.00     0.045 A 
ENDROOT
TORSDOF 0
ENDMDL
