MODEL 1
REMARK minimizedAffinity 1.23196125
REMARK minimizedRMSD -1
REMARK  0 active torsions:
REMARK  status: ('A' for Active; 'I' for Inactive)
ROOT
ATOM      1  C   UNL d   1      -2.590  -0.388  -0.799  0.00  0.00    -0.002 A 
ATOM      2  C1  UNL d   1      -2.224  -1.486  -0.034  0.00  0.00     0.010 A 
ATOM      3  C2  UNL d   1      -0.968  -1.541   0.574  0.00  0.00     0.041 A 
ATOM      4  C3  UNL d   1      -0.078  -0.463   0.399  0.00  0.00    -0.075 A 
ATOM      5  S   UNL d   1       1.511  -0.311   1.050  0.00  0.00     0.015 SA
ATOM      6  C4  UNL d   1       1.742   1.216   0.328  0.00  0.00     0.022 A 
ATOM      7  C5  UNL d   1       0.643   1.615  -0.396  0.00  0.00     0.026 A 
ATOM      8  C6  UNL d   1      -0.424   0.654  -0.366  0.00  0.00    -0.082 A 
ATOM      9  C7  UNL d   1      -1.704   0.680  -0.970  0.00  0.00     0.045 A 
ENDROOT
TORSDOF 0
ENDMDL
