MODEL 1
REMARK minimizedAffinity -2.00509167
REMARK minimizedRMSD -1
REMARK  0 active torsions:
REMARK  status: ('A' for Active; 'I' for Inactive)
ROOT
ATOM      1  C   UNL d   1      -1.223  -0.203  -0.817  0.00  0.00    -0.002 A 
ATOM      2  C1  UNL d   1      -0.439  -1.107  -0.114  0.00  0.00     0.010 A 
ATOM      3  C2  UNL d   1       0.597  -0.659   0.708  0.00  0.00     0.041 A 
ATOM      4  C3  UNL d   1       0.832   0.726   0.814  0.00  0.00    -0.075 A 
ATOM      5  S   UNL d   1       2.044   1.505   1.761  0.00  0.00     0.015 SA
ATOM      6  C4  UNL d   1       1.548   3.055   1.256  0.00  0.00     0.022 A 
ATOM      7  C5  UNL d   1       0.486   2.999   0.385  0.00  0.00     0.026 A 
ATOM      8  C6  UNL d   1       0.055   1.656   0.117  0.00  0.00    -0.082 A 
ATOM      9  C7  UNL d   1      -0.987   1.170  -0.709  0.00  0.00     0.045 A 
ENDROOT
TORSDOF 0
ENDMDL
