MODEL 1
REMARK minimizedAffinity -1.48189616
REMARK minimizedRMSD -1
REMARK  0 active torsions:
REMARK  status: ('A' for Active; 'I' for Inactive)
ROOT
ATOM      1  C   UNL d   1      -3.285  -1.010  -1.149  0.00  0.00    -0.002 A 
ATOM      2  C1  UNL d   1      -2.480  -1.325  -2.235  0.00  0.00     0.010 A 
ATOM      3  C2  UNL d   1      -1.133  -0.956  -2.252  0.00  0.00     0.041 A 
ATOM      4  C3  UNL d   1      -0.604  -0.260  -1.147  0.00  0.00    -0.075 A 
ATOM      5  S   UNL d   1       1.017   0.293  -0.947  0.00  0.00     0.015 SA
ATOM      6  C4  UNL d   1       0.680   0.960   0.585  0.00  0.00     0.022 A 
ATOM      7  C5  UNL d   1      -0.633   0.774   0.950  0.00  0.00     0.026 A 
ATOM      8  C6  UNL d   1      -1.394   0.068  -0.042  0.00  0.00    -0.082 A 
ATOM      9  C7  UNL d   1      -2.756  -0.319  -0.056  0.00  0.00     0.045 A 
ENDROOT
TORSDOF 0
ENDMDL
