MODEL 1
REMARK minimizedAffinity -3.17084289
REMARK minimizedRMSD -1
REMARK  0 active torsions:
REMARK  status: ('A' for Active; 'I' for Inactive)
ROOT
ATOM      1  C   UNL d   1      -2.336  -0.017  -0.884  0.00  0.00    -0.002 A 
ATOM      2  C1  UNL d   1      -2.382  -1.006   0.089  0.00  0.00     0.010 A 
ATOM      3  C2  UNL d   1      -1.237  -1.344   0.813  0.00  0.00     0.041 A 
ATOM      4  C3  UNL d   1      -0.034  -0.663   0.543  0.00  0.00    -0.075 A 
ATOM      5  S   UNL d   1       1.493  -0.908   1.305  0.00  0.00     0.015 SA
ATOM      6  C4  UNL d   1       2.242   0.295   0.359  0.00  0.00     0.022 A 
ATOM      7  C5  UNL d   1       1.364   0.880  -0.522  0.00  0.00     0.026 A 
ATOM      8  C6  UNL d   1       0.037   0.337  -0.431  0.00  0.00    -0.082 A 
ATOM      9  C7  UNL d   1      -1.140   0.656  -1.149  0.00  0.00     0.045 A 
ENDROOT
TORSDOF 0
ENDMDL
