MODEL 1
REMARK minimizedAffinity -0.785999596
REMARK minimizedRMSD -1
REMARK  0 active torsions:
REMARK  status: ('A' for Active; 'I' for Inactive)
ROOT
ATOM      1  C   UNL d   1      -2.197  -1.880   1.063  0.00  0.00    -0.002 A 
ATOM      2  C1  UNL d   1      -2.890  -1.514  -0.082  0.00  0.00     0.010 A 
ATOM      3  C2  UNL d   1      -2.236  -0.867  -1.133  0.00  0.00     0.041 A 
ATOM      4  C3  UNL d   1      -0.859  -0.593  -1.012  0.00  0.00    -0.075 A 
ATOM      5  S   UNL d   1       0.151   0.188  -2.171  0.00  0.00     0.015 SA
ATOM      6  C4  UNL d   1       1.526   0.054  -1.173  0.00  0.00     0.022 A 
ATOM      7  C5  UNL d   1       1.240  -0.569   0.018  0.00  0.00     0.026 A 
ATOM      8  C6  UNL d   1      -0.139  -0.953   0.131  0.00  0.00    -0.082 A 
ATOM      9  C7  UNL d   1      -0.831  -1.606   1.179  0.00  0.00     0.045 A 
ENDROOT
TORSDOF 0
ENDMDL
