MODEL 1
REMARK minimizedAffinity 3.1082406
REMARK minimizedRMSD -1
REMARK  0 active torsions:
REMARK  status: ('A' for Active; 'I' for Inactive)
ROOT
ATOM      1  C   UNL d   1      -2.434  -0.833   2.146  0.00  0.00    -0.002 A 
ATOM      2  C1  UNL d   1      -1.355  -1.505   2.703  0.00  0.00     0.010 A 
ATOM      3  C2  UNL d   1      -0.126  -1.548   2.042  0.00  0.00     0.041 A 
ATOM      4  C3  UNL d   1       0.003  -0.895   0.800  0.00  0.00    -0.075 A 
ATOM      5  S   UNL d   1       1.412  -0.813  -0.190  0.00  0.00     0.015 SA
ATOM      6  C4  UNL d   1       0.616   0.118  -1.375  0.00  0.00     0.022 A 
ATOM      7  C5  UNL d   1      -0.693   0.369  -1.040  0.00  0.00     0.026 A 
ATOM      8  C6  UNL d   1      -1.068  -0.210   0.219  0.00  0.00    -0.082 A 
ATOM      9  C7  UNL d   1      -2.302  -0.186   0.914  0.00  0.00     0.045 A 
ENDROOT
TORSDOF 0
ENDMDL
