MODEL 1
REMARK minimizedAffinity -4.80477762
REMARK minimizedRMSD -1
REMARK  0 active torsions:
REMARK  status: ('A' for Active; 'I' for Inactive)
ROOT
ATOM      1  C   UNL d   1      -1.945  -0.299  -0.412  0.00  0.00    -0.002 A 
ATOM      2  C1  UNL d   1      -2.097   1.039  -0.748  0.00  0.00     0.010 A 
ATOM      3  C2  UNL d   1      -1.038   1.935  -0.589  0.00  0.00     0.041 A 
ATOM      4  C3  UNL d   1       0.188   1.460  -0.083  0.00  0.00    -0.075 A 
ATOM      5  S   UNL d   1       1.622   2.375   0.195  0.00  0.00     0.015 SA
ATOM      6  C4  UNL d   1       2.470   1.011   0.766  0.00  0.00     0.022 A 
ATOM      7  C5  UNL d   1       1.693  -0.123   0.752  0.00  0.00     0.026 A 
ATOM      8  C6  UNL d   1       0.365   0.117   0.262  0.00  0.00    -0.082 A 
ATOM      9  C7  UNL d   1      -0.727  -0.767   0.090  0.00  0.00     0.045 A 
ENDROOT
TORSDOF 0
ENDMDL
