MODEL 1
REMARK minimizedAffinity -5.17272997
REMARK minimizedRMSD -1
REMARK  0 active torsions:
REMARK  status: ('A' for Active; 'I' for Inactive)
ROOT
ATOM      1  C   UNL d   1      -3.483  -0.391  -1.266  0.00  0.00    -0.002 A 
ATOM      2  C1  UNL d   1      -2.628   0.194  -2.190  0.00  0.00     0.010 A 
ATOM      3  C2  UNL d   1      -1.261   0.298  -1.926  0.00  0.00     0.041 A 
ATOM      4  C3  UNL d   1      -0.763  -0.201  -0.707  0.00  0.00    -0.075 A 
ATOM      5  S   UNL d   1       0.875  -0.184  -0.168  0.00  0.00     0.015 SA
ATOM      6  C4  UNL d   1       0.479  -0.953   1.300  0.00  0.00     0.022 A 
ATOM      7  C5  UNL d   1      -0.866  -1.223   1.394  0.00  0.00     0.026 A 
ATOM      8  C6  UNL d   1      -1.603  -0.795   0.239  0.00  0.00    -0.082 A 
ATOM      9  C7  UNL d   1      -2.985  -0.885  -0.058  0.00  0.00     0.045 A 
ENDROOT
TORSDOF 0
ENDMDL
