MODEL 1
REMARK minimizedAffinity -0.487883061
REMARK minimizedRMSD -1
REMARK  0 active torsions:
REMARK  status: ('A' for Active; 'I' for Inactive)
ROOT
ATOM      1  C   UNL d   1       0.216   2.480   0.010  0.00  0.00    -0.002 A 
ATOM      2  C1  UNL d   1       0.991   1.443   0.510  0.00  0.00     0.010 A 
ATOM      3  C2  UNL d   1       0.632   0.113   0.281  0.00  0.00     0.041 A 
ATOM      4  C3  UNL d   1      -0.529  -0.160  -0.468  0.00  0.00    -0.075 A 
ATOM      5  S   UNL d   1      -1.163  -1.710  -0.876  0.00  0.00     0.015 SA
ATOM      6  C4  UNL d   1      -2.477  -1.033  -1.724  0.00  0.00     0.022 A 
ATOM      7  C5  UNL d   1      -2.449   0.341  -1.706  0.00  0.00     0.026 A 
ATOM      8  C6  UNL d   1      -1.326   0.867  -0.983  0.00  0.00    -0.082 A 
ATOM      9  C7  UNL d   1      -0.935   2.205  -0.733  0.00  0.00     0.045 A 
ENDROOT
TORSDOF 0
ENDMDL
