MODEL 1
REMARK minimizedAffinity -3.61340094
REMARK minimizedRMSD -1
REMARK  0 active torsions:
REMARK  status: ('A' for Active; 'I' for Inactive)
ROOT
ATOM      1  C   UNL d   1       0.682   1.417   0.967  0.00  0.00    -0.002 A 
ATOM      2  C1  UNL d   1       1.180   0.735  -0.134  0.00  0.00     0.010 A 
ATOM      3  C2  UNL d   1       0.331  -0.018  -0.948  0.00  0.00     0.041 A 
ATOM      4  C3  UNL d   1      -1.042  -0.072  -0.635  0.00  0.00    -0.075 A 
ATOM      5  S   UNL d   1      -2.270  -0.928  -1.490  0.00  0.00     0.015 SA
ATOM      6  C4  UNL d   1      -3.485  -0.408  -0.414  0.00  0.00     0.022 A 
ATOM      7  C5  UNL d   1      -2.984   0.400   0.579  0.00  0.00     0.026 A 
ATOM      8  C6  UNL d   1      -1.568   0.608   0.468  0.00  0.00    -0.082 A 
ATOM      9  C7  UNL d   1      -0.681   1.361   1.274  0.00  0.00     0.045 A 
ENDROOT
TORSDOF 0
ENDMDL
