MODEL 1
REMARK minimizedAffinity -3.66333532
REMARK minimizedRMSD -1
REMARK  0 active torsions:
REMARK  status: ('A' for Active; 'I' for Inactive)
ROOT
ATOM      1  C   UNL d   1       3.026   3.063   0.343  0.00  0.00    -0.002 A 
ATOM      2  C1  UNL d   1       2.291   3.668   1.352  0.00  0.00     0.010 A 
ATOM      3  C2  UNL d   1       1.351   2.937   2.082  0.00  0.00     0.041 A 
ATOM      4  C3  UNL d   1       1.162   1.574   1.778  0.00  0.00    -0.075 A 
ATOM      5  S   UNL d   1       0.068   0.481   2.540  0.00  0.00     0.015 SA
ATOM      6  C4  UNL d   1       0.551  -0.814   1.543  0.00  0.00     0.022 A 
ATOM      7  C5  UNL d   1       1.522  -0.440   0.646  0.00  0.00     0.026 A 
ATOM      8  C6  UNL d   1       1.891   0.943   0.767  0.00  0.00    -0.082 A 
ATOM      9  C7  UNL d   1       2.836   1.711   0.044  0.00  0.00     0.045 A 
ENDROOT
TORSDOF 0
ENDMDL
