MODEL 1
REMARK minimizedAffinity 3.93863201
REMARK minimizedRMSD -1
REMARK  1 active torsions:
REMARK  status: ('A' for Active; 'I' for Inactive)
REMARK    1  A    between atoms: C1_2  and  C2_3 
ROOT
ATOM      1  C2  UNL d   1       3.517  -0.610  -0.070  0.00  0.00    -0.081 A 
ATOM      2  C3  UNL d   1       3.134  -1.948  -0.226  0.00  0.00     0.006 A 
ATOM      3  C4  UNL d   1       2.477  -2.366  -1.385  0.00  0.00     0.002 A 
ATOM      4  C5  UNL d   1       2.200  -1.456  -2.411  0.00  0.00    -0.080 A 
ATOM      5  C6  UNL d   1       1.522  -1.898  -3.674  0.00  0.00     0.076 C 
ATOM      6  C7  UNL d   1       2.567  -0.116  -2.249  0.00  0.00     0.002 A 
ATOM      7  C8  UNL d   1       3.223   0.303  -1.089  0.00  0.00     0.006 A 
ENDROOT
BRANCH   1   8
ATOM      8  C1  UNL d   1       4.283  -0.169   1.151  0.00  0.00     0.054 C 
ATOM      9  C   UNL d   1       3.482  -0.408   2.423  0.00  0.00     0.018 C 
ENDBRANCH   1   8
TORSDOF 1
ENDMDL
