MODEL 1
REMARK minimizedAffinity 5.44896889
REMARK minimizedRMSD -1
REMARK  1 active torsions:
REMARK  status: ('A' for Active; 'I' for Inactive)
REMARK    1  A    between atoms: C1_2  and  C2_3 
ROOT
ATOM      1  C2  UNL d   1       1.120   1.605  -0.817  0.00  0.00    -0.081 A 
ATOM      2  C3  UNL d   1       1.456   1.987   0.488  0.00  0.00     0.006 A 
ATOM      3  C4  UNL d   1       0.469   2.421   1.375  0.00  0.00     0.002 A 
ATOM      4  C5  UNL d   1      -0.871   2.474   0.975  0.00  0.00    -0.080 A 
ATOM      5  C6  UNL d   1      -1.945   2.910   1.927  0.00  0.00     0.076 C 
ATOM      6  C7  UNL d   1      -1.204   2.110  -0.333  0.00  0.00     0.002 A 
ATOM      7  C8  UNL d   1      -0.217   1.676  -1.221  0.00  0.00     0.006 A 
ENDROOT
BRANCH   1   8
ATOM      8  C1  UNL d   1       2.174   1.075  -1.756  0.00  0.00     0.054 C 
ATOM      9  C   UNL d   1       2.024  -0.425  -1.965  0.00  0.00     0.018 C 
ENDBRANCH   1   8
TORSDOF 1
ENDMDL
