MODEL 1
REMARK minimizedAffinity 8.98463154
REMARK minimizedRMSD -1
REMARK  1 active torsions:
REMARK  status: ('A' for Active; 'I' for Inactive)
REMARK    1  A    between atoms: C1_2  and  C2_3 
ROOT
ATOM      1  C2  UNL d   1       1.985   3.225   0.240  0.00  0.00    -0.081 A 
ATOM      2  C3  UNL d   1       1.513   1.914   0.379  0.00  0.00     0.006 A 
ATOM      3  C4  UNL d   1       1.116   1.182  -0.743  0.00  0.00     0.002 A 
ATOM      4  C5  UNL d   1       1.192   1.745  -2.021  0.00  0.00    -0.080 A 
ATOM      5  C6  UNL d   1       0.797   0.959  -3.237  0.00  0.00     0.076 C 
ATOM      6  C7  UNL d   1       1.647   3.061  -2.158  0.00  0.00     0.002 A 
ATOM      7  C8  UNL d   1       2.043   3.794  -1.037  0.00  0.00     0.006 A 
ENDROOT
BRANCH   1   8
ATOM      8  C1  UNL d   1       2.475   3.994   1.440  0.00  0.00     0.054 C 
ATOM      9  C   UNL d   1       3.469   3.177   2.253  0.00  0.00     0.018 C 
ENDBRANCH   1   8
TORSDOF 1
ENDMDL
