MODEL 1
REMARK minimizedAffinity 2.14149904
REMARK minimizedRMSD -1
REMARK  1 active torsions:
REMARK  status: ('A' for Active; 'I' for Inactive)
REMARK    1  A    between atoms: C1_2  and  C2_3 
ROOT
ATOM      1  C2  UNL d   1       1.940  -0.484  -1.669  0.00  0.00    -0.081 A 
ATOM      2  C3  UNL d   1       0.627  -0.838  -1.335  0.00  0.00     0.006 A 
ATOM      3  C4  UNL d   1       0.377  -1.949  -0.525  0.00  0.00     0.002 A 
ATOM      4  C5  UNL d   1       1.435  -2.718  -0.030  0.00  0.00    -0.080 A 
ATOM      5  C6  UNL d   1       1.182  -3.895   0.865  0.00  0.00     0.076 C 
ATOM      6  C7  UNL d   1       2.746  -2.375  -0.378  0.00  0.00     0.002 A 
ATOM      7  C8  UNL d   1       2.997  -1.265  -1.188  0.00  0.00     0.006 A 
ENDROOT
BRANCH   1   8
ATOM      8  C1  UNL d   1       2.216   0.751  -2.488  0.00  0.00     0.054 C 
ATOM      9  C   UNL d   1       1.459   1.955  -1.947  0.00  0.00     0.018 C 
ENDBRANCH   1   8
TORSDOF 1
ENDMDL
