MODEL 1
REMARK minimizedAffinity -0.06391339
REMARK minimizedRMSD -1
REMARK  1 active torsions:
REMARK  status: ('A' for Active; 'I' for Inactive)
REMARK    1  A    between atoms: C1_2  and  C2_3 
ROOT
ATOM      1  C2  UNL d   1       2.359  -0.221  -1.641  0.00  0.00    -0.081 A 
ATOM      2  C3  UNL d   1       1.344  -1.105  -2.030  0.00  0.00     0.006 A 
ATOM      3  C4  UNL d   1       1.042  -2.223  -1.249  0.00  0.00     0.002 A 
ATOM      4  C5  UNL d   1       1.743  -2.472  -0.064  0.00  0.00    -0.080 A 
ATOM      5  C6  UNL d   1       1.408  -3.652   0.799  0.00  0.00     0.076 C 
ATOM      6  C7  UNL d   1       2.768  -1.598   0.315  0.00  0.00     0.002 A 
ATOM      7  C8  UNL d   1       3.071  -0.480  -0.465  0.00  0.00     0.006 A 
ENDROOT
BRANCH   1   8
ATOM      8  C1  UNL d   1       2.643   1.021  -2.447  0.00  0.00     0.054 C 
ATOM      9  C   UNL d   1       1.429   1.441  -3.263  0.00  0.00     0.018 C 
ENDBRANCH   1   8
TORSDOF 1
ENDMDL
