MODEL 1
REMARK minimizedAffinity 4.94375515
REMARK minimizedRMSD -1
REMARK  1 active torsions:
REMARK  status: ('A' for Active; 'I' for Inactive)
REMARK    1  A    between atoms: C1_2  and  C2_3 
ROOT
ATOM      1  C2  UNL d   1       3.421  -1.092  -2.110  0.00  0.00    -0.081 A 
ATOM      2  C3  UNL d   1       2.264  -1.866  -2.262  0.00  0.00     0.006 A 
ATOM      3  C4  UNL d   1       2.007  -2.931  -1.395  0.00  0.00     0.002 A 
ATOM      4  C5  UNL d   1       2.897  -3.235  -0.359  0.00  0.00    -0.080 A 
ATOM      5  C6  UNL d   1       2.617  -4.357   0.596  0.00  0.00     0.076 C 
ATOM      6  C7  UNL d   1       4.061  -2.472  -0.219  0.00  0.00     0.002 A 
ATOM      7  C8  UNL d   1       4.319  -1.407  -1.085  0.00  0.00     0.006 A 
ENDROOT
BRANCH   1   8
ATOM      8  C1  UNL d   1       3.669   0.098  -3.002  0.00  0.00     0.054 C 
ATOM      9  C   UNL d   1       5.136   0.504  -2.987  0.00  0.00     0.018 C 
ENDBRANCH   1   8
TORSDOF 1
ENDMDL
