MODEL 1
REMARK minimizedAffinity 8.48887539
REMARK minimizedRMSD -1
REMARK  1 active torsions:
REMARK  status: ('A' for Active; 'I' for Inactive)
REMARK    1  A    between atoms: C1_2  and  C2_3 
ROOT
ATOM      1  C2  UNL d   1      -5.128  -2.372   1.644  0.00  0.00    -0.081 A 
ATOM      2  C3  UNL d   1      -5.668  -1.893   0.444  0.00  0.00     0.006 A 
ATOM      3  C4  UNL d   1      -4.847  -1.286  -0.509  0.00  0.00     0.002 A 
ATOM      4  C5  UNL d   1      -3.473  -1.155  -0.283  0.00  0.00    -0.080 A 
ATOM      5  C6  UNL d   1      -2.576  -0.533  -1.311  0.00  0.00     0.076 C 
ATOM      6  C7  UNL d   1      -2.936  -1.618   0.923  0.00  0.00     0.002 A 
ATOM      7  C8  UNL d   1      -3.756  -2.224   1.877  0.00  0.00     0.006 A 
ENDROOT
BRANCH   1   8
ATOM      8  C1  UNL d   1      -5.999  -3.085   2.646  0.00  0.00     0.054 C 
ATOM      9  C   UNL d   1      -6.000  -4.588   2.409  0.00  0.00     0.018 C 
ENDBRANCH   1   8
TORSDOF 1
ENDMDL
