MODEL 1
REMARK minimizedAffinity 3.75393152
REMARK minimizedRMSD -1
REMARK  1 active torsions:
REMARK  status: ('A' for Active; 'I' for Inactive)
REMARK    1  A    between atoms: C1_2  and  C2_3 
ROOT
ATOM      1  C2  UNL d   1       2.473  -1.101  -2.011  0.00  0.00    -0.081 A 
ATOM      2  C3  UNL d   1       1.554  -0.129  -2.425  0.00  0.00     0.006 A 
ATOM      3  C4  UNL d   1       1.868   1.229  -2.331  0.00  0.00     0.002 A 
ATOM      4  C5  UNL d   1       3.108   1.637  -1.829  0.00  0.00    -0.080 A 
ATOM      5  C6  UNL d   1       3.470   3.091  -1.751  0.00  0.00     0.076 C 
ATOM      6  C7  UNL d   1       4.020   0.667  -1.399  0.00  0.00     0.002 A 
ATOM      7  C8  UNL d   1       3.706  -0.691  -1.492  0.00  0.00     0.006 A 
ENDROOT
BRANCH   1   8
ATOM      8  C1  UNL d   1       2.162  -2.567  -2.171  0.00  0.00     0.054 C 
ATOM      9  C   UNL d   1       1.730  -2.889  -3.594  0.00  0.00     0.018 C 
ENDBRANCH   1   8
TORSDOF 1
ENDMDL
