MODEL 1
REMARK minimizedAffinity 3.11487556
REMARK minimizedRMSD -1
REMARK  1 active torsions:
REMARK  status: ('A' for Active; 'I' for Inactive)
REMARK    1  A    between atoms: C1_2  and  C2_3 
ROOT
ATOM      1  C2  UNL d   1       0.732   1.561  -0.569  0.00  0.00    -0.081 A 
ATOM      2  C3  UNL d   1       0.779   1.836   0.803  0.00  0.00     0.006 A 
ATOM      3  C4  UNL d   1       0.136   2.963   1.322  0.00  0.00     0.002 A 
ATOM      4  C5  UNL d   1      -0.570   3.828   0.479  0.00  0.00    -0.080 A 
ATOM      5  C6  UNL d   1      -1.290   5.024   1.027  0.00  0.00     0.076 C 
ATOM      6  C7  UNL d   1      -0.602   3.563  -0.894  0.00  0.00     0.002 A 
ATOM      7  C8  UNL d   1       0.042   2.437  -1.413  0.00  0.00     0.006 A 
ENDROOT
BRANCH   1   8
ATOM      8  C1  UNL d   1       1.370   0.312  -1.122  0.00  0.00     0.054 C 
ATOM      9  C   UNL d   1       1.365   0.316  -2.644  0.00  0.00     0.018 C 
ENDBRANCH   1   8
TORSDOF 1
ENDMDL
