MODEL 1
REMARK minimizedAffinity 6.39924335
REMARK minimizedRMSD -1
REMARK  1 active torsions:
REMARK  status: ('A' for Active; 'I' for Inactive)
REMARK    1  A    between atoms: N_2  and  C1_3 
ROOT
ATOM      1  C1  UNL d   1      -4.796   1.837  -4.474  0.00  0.00     0.143 A 
ATOM      2  C2  UNL d   1      -5.772   2.666  -5.038  0.00  0.00    -0.057 A 
ATOM      3  C3  UNL d   1      -5.424   3.841  -5.715  0.00  0.00     0.033 A 
ATOM      4  C4  UNL d   1      -4.090   4.224  -5.815  0.00  0.00    -0.042 A 
ATOM      5  C5  UNL d   1      -3.105   3.429  -5.240  0.00  0.00     0.033 A 
ATOM      6  C6  UNL d   1      -3.459   2.254  -4.571  0.00  0.00    -0.057 A 
ENDROOT
BRANCH   1   7
ATOM      7  N   UNL d   1      -5.085   0.708  -3.704  0.00  0.00    -0.732 N 
ATOM      8  C   UNL d   1      -4.429   0.497  -2.431  0.00  0.00     0.284 C 
ATOM      9  H3  UNL d   1      -6.076   0.482  -3.703  0.00  0.00     0.395 HD
ENDBRANCH   1   7
TORSDOF 1
ENDMDL
