MODEL 1
REMARK minimizedAffinity 2.60086513
REMARK minimizedRMSD -1
REMARK  1 active torsions:
REMARK  status: ('A' for Active; 'I' for Inactive)
REMARK    1  A    between atoms: N_2  and  C1_3 
ROOT
ATOM      1  C1  UNL d   1       1.633   3.956  -0.106  0.00  0.00     0.143 A 
ATOM      2  C2  UNL d   1       1.598   2.740   0.584  0.00  0.00    -0.057 A 
ATOM      3  C3  UNL d   1       0.387   2.080   0.830  0.00  0.00     0.033 A 
ATOM      4  C4  UNL d   1      -0.815   2.642   0.414  0.00  0.00    -0.042 A 
ATOM      5  C5  UNL d   1      -0.806   3.863  -0.251  0.00  0.00     0.033 A 
ATOM      6  C6  UNL d   1       0.407   4.513  -0.500  0.00  0.00    -0.057 A 
ENDROOT
BRANCH   1   7
ATOM      7  N   UNL d   1       2.795   4.709  -0.295  0.00  0.00    -0.732 N 
ATOM      8  C   UNL d   1       2.739   5.998  -0.951  0.00  0.00     0.284 C 
ATOM      9  H3  UNL d   1       3.413   4.680   0.513  0.00  0.00     0.395 HD
ENDBRANCH   1   7
TORSDOF 1
ENDMDL
