MODEL 1
REMARK minimizedAffinity 9.26960278
REMARK minimizedRMSD -1
REMARK  1 active torsions:
REMARK  status: ('A' for Active; 'I' for Inactive)
REMARK    1  A    between atoms: N_2  and  C1_3 
ROOT
ATOM      1  C1  UNL d   1      -3.715   3.480  -5.189  0.00  0.00     0.143 A 
ATOM      2  C2  UNL d   1      -4.116   2.691  -4.106  0.00  0.00    -0.057 A 
ATOM      3  C3  UNL d   1      -3.475   1.481  -3.814  0.00  0.00     0.033 A 
ATOM      4  C4  UNL d   1      -2.437   1.024  -4.619  0.00  0.00    -0.042 A 
ATOM      5  C5  UNL d   1      -2.038   1.780  -5.716  0.00  0.00     0.033 A 
ATOM      6  C6  UNL d   1      -2.678   2.991  -5.999  0.00  0.00    -0.057 A 
ENDROOT
BRANCH   1   7
ATOM      7  N   UNL d   1      -4.376   4.644  -5.590  0.00  0.00    -0.732 N 
ATOM      8  C   UNL d   1      -3.870   5.946  -5.214  0.00  0.00     0.284 C 
ATOM      9  H3  UNL d   1      -4.712   4.589  -6.549  0.00  0.00     0.395 HD
ENDBRANCH   1   7
TORSDOF 1
ENDMDL
