MODEL 1
REMARK minimizedAffinity 10.1525831
REMARK minimizedRMSD -1
REMARK  1 active torsions:
REMARK  status: ('A' for Active; 'I' for Inactive)
REMARK    1  A    between atoms: N_2  and  C1_3 
ROOT
ATOM      1  C1  UNL d   1       0.393   3.989  -1.042  0.00  0.00     0.143 A 
ATOM      2  C2  UNL d   1       0.332   3.029  -2.058  0.00  0.00    -0.057 A 
ATOM      3  C3  UNL d   1       0.339   1.660  -1.765  0.00  0.00     0.033 A 
ATOM      4  C4  UNL d   1       0.437   1.225  -0.447  0.00  0.00    -0.042 A 
ATOM      5  C5  UNL d   1       0.524   2.161   0.577  0.00  0.00     0.033 A 
ATOM      6  C6  UNL d   1       0.510   3.527   0.278  0.00  0.00    -0.057 A 
ENDROOT
BRANCH   1   7
ATOM      7  N   UNL d   1       0.490   5.363  -1.275  0.00  0.00    -0.732 N 
ATOM      8  C   UNL d   1       1.782   5.996  -1.424  0.00  0.00     0.284 C 
ATOM      9  H3  UNL d   1      -0.214   5.696  -1.929  0.00  0.00     0.395 HD
ENDBRANCH   1   7
TORSDOF 1
ENDMDL
