MODEL 1
REMARK minimizedAffinity 8.32225418
REMARK minimizedRMSD -1
REMARK  1 active torsions:
REMARK  status: ('A' for Active; 'I' for Inactive)
REMARK    1  A    between atoms: N_2  and  C1_3 
ROOT
ATOM      1  C1  UNL d   1       0.856   3.965  -0.826  0.00  0.00     0.143 A 
ATOM      2  C2  UNL d   1       0.953   2.879   0.050  0.00  0.00    -0.057 A 
ATOM      3  C3  UNL d   1      -0.184   2.177   0.466  0.00  0.00     0.033 A 
ATOM      4  C4  UNL d   1      -1.447   2.569   0.034  0.00  0.00    -0.042 A 
ATOM      5  C5  UNL d   1      -1.570   3.661  -0.817  0.00  0.00     0.033 A 
ATOM      6  C6  UNL d   1      -0.430   4.354  -1.234  0.00  0.00    -0.057 A 
ENDROOT
BRANCH   1   7
ATOM      7  N   UNL d   1       1.940   4.764  -1.198  0.00  0.00    -0.732 N 
ATOM      8  C   UNL d   1       1.731   5.997  -1.926  0.00  0.00     0.284 C 
ATOM      9  H3  UNL d   1       2.644   4.828  -0.466  0.00  0.00     0.395 HD
ENDBRANCH   1   7
TORSDOF 1
ENDMDL
