MODEL 1
REMARK minimizedAffinity -4.25375748
REMARK minimizedRMSD -1
REMARK  1 active torsions:
REMARK  status: ('A' for Active; 'I' for Inactive)
REMARK    1  A    between atoms: C1_2  and  C2_3 
ROOT
ATOM      1  C2  UNL d   1      -0.211  -0.672  -0.556  0.00  0.00    -0.081 A 
ATOM      2  C3  UNL d   1       0.926   0.108  -0.801  0.00  0.00     0.006 A 
ATOM      3  C4  UNL d   1       1.145   1.286  -0.083  0.00  0.00     0.002 A 
ATOM      4  C5  UNL d   1       0.236   1.699   0.897  0.00  0.00    -0.080 A 
ATOM      5  C6  UNL d   1       0.474   2.945   1.697  0.00  0.00     0.076 C 
ATOM      6  C7  UNL d   1      -0.909   0.929   1.130  0.00  0.00     0.002 A 
ATOM      7  C8  UNL d   1      -1.128  -0.249   0.411  0.00  0.00     0.006 A 
ENDROOT
BRANCH   1   8
ATOM      8  C1  UNL d   1      -0.417  -1.976  -1.284  0.00  0.00     0.054 C 
ATOM      9  C   UNL d   1      -1.725  -1.975  -2.062  0.00  0.00     0.018 C 
ENDBRANCH   1   8
TORSDOF 1
ENDMDL
