MODEL 1
REMARK minimizedAffinity -5.84474516
REMARK minimizedRMSD -1
REMARK  1 active torsions:
REMARK  status: ('A' for Active; 'I' for Inactive)
REMARK    1  A    between atoms: C1_2  and  C2_3 
ROOT
ATOM      1  C2  UNL d   1      -0.300  -0.556  -0.423  0.00  0.00    -0.081 A 
ATOM      2  C3  UNL d   1      -0.944  -0.072   0.723  0.00  0.00     0.006 A 
ATOM      3  C4  UNL d   1      -0.445   1.045   1.397  0.00  0.00     0.002 A 
ATOM      4  C5  UNL d   1       0.700   1.701   0.933  0.00  0.00    -0.080 A 
ATOM      5  C6  UNL d   1       1.228   2.920   1.629  0.00  0.00     0.076 C 
ATOM      6  C7  UNL d   1       1.353   1.208  -0.202  0.00  0.00     0.002 A 
ATOM      7  C8  UNL d   1       0.855   0.090  -0.876  0.00  0.00     0.006 A 
ENDROOT
BRANCH   1   8
ATOM      8  C1  UNL d   1      -0.872  -1.721  -1.189  0.00  0.00     0.054 C 
ATOM      9  C   UNL d   1      -1.750  -1.250  -2.340  0.00  0.00     0.018 C 
ENDBRANCH   1   8
TORSDOF 1
ENDMDL
