MODEL 1
REMARK minimizedAffinity -3.98533273
REMARK minimizedRMSD -1
REMARK  1 active torsions:
REMARK  status: ('A' for Active; 'I' for Inactive)
REMARK    1  A    between atoms: C1_2  and  C2_3 
ROOT
ATOM      1  C2  UNL d   1       0.809   1.264   0.546  0.00  0.00    -0.081 A 
ATOM      2  C3  UNL d   1       1.191   0.628  -0.642  0.00  0.00     0.006 A 
ATOM      3  C4  UNL d   1       0.482  -0.480  -1.112  0.00  0.00     0.002 A 
ATOM      4  C5  UNL d   1      -0.624  -0.966  -0.407  0.00  0.00    -0.080 A 
ATOM      5  C6  UNL d   1      -1.412  -2.136  -0.917  0.00  0.00     0.076 C 
ATOM      6  C7  UNL d   1      -0.995  -0.342   0.789  0.00  0.00     0.002 A 
ATOM      7  C8  UNL d   1      -0.286   0.765   1.260  0.00  0.00     0.006 A 
ENDROOT
BRANCH   1   8
ATOM      8  C1  UNL d   1       1.532   2.498   1.022  0.00  0.00     0.054 C 
ATOM      9  C   UNL d   1       3.022   2.418   0.720  0.00  0.00     0.018 C 
ENDBRANCH   1   8
TORSDOF 1
ENDMDL
