MODEL 1
REMARK minimizedAffinity -2.8445735
REMARK minimizedRMSD -1
REMARK  1 active torsions:
REMARK  status: ('A' for Active; 'I' for Inactive)
REMARK    1  A    between atoms: C1_2  and  C2_3 
ROOT
ATOM      1  C2  UNL d   1      -0.394  -0.342  -1.176  0.00  0.00    -0.081 A 
ATOM      2  C3  UNL d   1      -1.023  -0.714   0.019  0.00  0.00     0.006 A 
ATOM      3  C4  UNL d   1      -0.732  -0.047   1.210  0.00  0.00     0.002 A 
ATOM      4  C5  UNL d   1       0.186   1.009   1.227  0.00  0.00    -0.080 A 
ATOM      5  C6  UNL d   1       0.484   1.754   2.494  0.00  0.00     0.076 C 
ATOM      6  C7  UNL d   1       0.827   1.370   0.037  0.00  0.00     0.002 A 
ATOM      7  C8  UNL d   1       0.537   0.702  -1.155  0.00  0.00     0.006 A 
ENDROOT
BRANCH   1   8
ATOM      8  C1  UNL d   1      -0.754  -1.017  -2.474  0.00  0.00     0.054 C 
ATOM      9  C   UNL d   1      -2.261  -1.172  -2.619  0.00  0.00     0.018 C 
ENDBRANCH   1   8
TORSDOF 1
ENDMDL
