MODEL 1
REMARK minimizedAffinity -3.03160167
REMARK minimizedRMSD -1
REMARK  1 active torsions:
REMARK  status: ('A' for Active; 'I' for Inactive)
REMARK    1  A    between atoms: C1_2  and  C2_3 
ROOT
ATOM      1  C2  UNL d   1      -0.468  -1.040  -0.348  0.00  0.00    -0.081 A 
ATOM      2  C3  UNL d   1      -0.975  -0.600   0.881  0.00  0.00     0.006 A 
ATOM      3  C4  UNL d   1      -0.409   0.503   1.526  0.00  0.00     0.002 A 
ATOM      4  C5  UNL d   1       0.666   1.188   0.950  0.00  0.00    -0.080 A 
ATOM      5  C6  UNL d   1       1.262   2.392   1.617  0.00  0.00     0.076 C 
ATOM      6  C7  UNL d   1       1.183   0.738  -0.270  0.00  0.00     0.002 A 
ATOM      7  C8  UNL d   1       0.619  -0.365  -0.915  0.00  0.00     0.006 A 
ENDROOT
BRANCH   1   8
ATOM      8  C1  UNL d   1      -1.116  -2.189  -1.078  0.00  0.00     0.054 C 
ATOM      9  C   UNL d   1      -1.455  -1.812  -2.513  0.00  0.00     0.018 C 
ENDBRANCH   1   8
TORSDOF 1
ENDMDL
