MODEL 1
REMARK minimizedAffinity -6.48272848
REMARK minimizedRMSD -1
REMARK  1 active torsions:
REMARK  status: ('A' for Active; 'I' for Inactive)
REMARK    1  A    between atoms: C1_2  and  C2_3 
ROOT
ATOM      1  C2  UNL d   1      -0.917  -0.352  -0.813  0.00  0.00    -0.081 A 
ATOM      2  C3  UNL d   1      -1.670   0.590  -0.102  0.00  0.00     0.006 A 
ATOM      3  C4  UNL d   1      -1.087   1.332   0.928  0.00  0.00     0.002 A 
ATOM      4  C5  UNL d   1       0.260   1.149   1.259  0.00  0.00    -0.080 A 
ATOM      5  C6  UNL d   1       0.907   1.960   2.343  0.00  0.00     0.076 C 
ATOM      6  C7  UNL d   1       1.008   0.195   0.561  0.00  0.00     0.002 A 
ATOM      7  C8  UNL d   1       0.425  -0.547  -0.469  0.00  0.00     0.006 A 
ENDROOT
BRANCH   1   8
ATOM      8  C1  UNL d   1      -1.526  -1.107  -1.967  0.00  0.00     0.054 C 
ATOM      9  C   UNL d   1      -1.217  -2.595  -1.879  0.00  0.00     0.018 C 
ENDBRANCH   1   8
TORSDOF 1
ENDMDL
