MODEL 1
REMARK minimizedAffinity -0.773675621
REMARK minimizedRMSD -1
REMARK  1 active torsions:
REMARK  status: ('A' for Active; 'I' for Inactive)
REMARK    1  A    between atoms: C1_2  and  C2_3 
ROOT
ATOM      1  C2  UNL d   1      -0.933  -1.059  -0.528  0.00  0.00    -0.081 A 
ATOM      2  C3  UNL d   1      -1.556  -0.464   0.576  0.00  0.00     0.006 A 
ATOM      3  C4  UNL d   1      -0.884   0.497   1.336  0.00  0.00     0.002 A 
ATOM      4  C5  UNL d   1       0.418   0.883   1.000  0.00  0.00    -0.080 A 
ATOM      5  C6  UNL d   1       1.140   1.935   1.789  0.00  0.00     0.076 C 
ATOM      6  C7  UNL d   1       1.047   0.275  -0.092  0.00  0.00     0.002 A 
ATOM      7  C8  UNL d   1       0.375  -0.685  -0.852  0.00  0.00     0.006 A 
ENDROOT
BRANCH   1   8
ATOM      8  C1  UNL d   1      -1.679  -2.048  -1.387  0.00  0.00     0.054 C 
ATOM      9  C   UNL d   1      -2.397  -1.352  -2.535  0.00  0.00     0.018 C 
ENDBRANCH   1   8
TORSDOF 1
ENDMDL
