MODEL 1
REMARK minimizedAffinity -3.74714756
REMARK minimizedRMSD -1
REMARK  1 active torsions:
REMARK  status: ('A' for Active; 'I' for Inactive)
REMARK    1  A    between atoms: C1_2  and  C2_3 
ROOT
ATOM      1  C2  UNL d   1       0.317  -0.894  -0.390  0.00  0.00    -0.081 A 
ATOM      2  C3  UNL d   1      -0.462  -0.225   0.562  0.00  0.00     0.006 A 
ATOM      3  C4  UNL d   1      -0.045   1.002   1.084  0.00  0.00     0.002 A 
ATOM      4  C5  UNL d   1       1.153   1.584   0.656  0.00  0.00    -0.080 A 
ATOM      5  C6  UNL d   1       1.597   2.915   1.185  0.00  0.00     0.076 C 
ATOM      6  C7  UNL d   1       1.940   0.908  -0.283  0.00  0.00     0.002 A 
ATOM      7  C8  UNL d   1       1.524  -0.319  -0.804  0.00  0.00     0.006 A 
ENDROOT
BRANCH   1   8
ATOM      8  C1  UNL d   1      -0.162  -2.185  -1.002  0.00  0.00     0.054 C 
ATOM      9  C   UNL d   1      -1.624  -2.094  -1.413  0.00  0.00     0.018 C 
ENDBRANCH   1   8
TORSDOF 1
ENDMDL
