MODEL 1
REMARK minimizedAffinity -4.47416067
REMARK minimizedRMSD -1
REMARK  1 active torsions:
REMARK  status: ('A' for Active; 'I' for Inactive)
REMARK    1  A    between atoms: C1_2  and  C2_3 
ROOT
ATOM      1  C2  UNL d   1      -0.303  -0.491  -0.555  0.00  0.00    -0.081 A 
ATOM      2  C3  UNL d   1      -0.997  -0.032   0.571  0.00  0.00     0.006 A 
ATOM      3  C4  UNL d   1      -0.505   1.041   1.317  0.00  0.00     0.002 A 
ATOM      4  C5  UNL d   1       0.684   1.678   0.946  0.00  0.00    -0.080 A 
ATOM      5  C6  UNL d   1       1.207   2.851   1.721  0.00  0.00     0.076 C 
ATOM      6  C7  UNL d   1       1.387   1.208  -0.168  0.00  0.00     0.002 A 
ATOM      7  C8  UNL d   1       0.896   0.135  -0.915  0.00  0.00     0.006 A 
ENDROOT
BRANCH   1   8
ATOM      8  C1  UNL d   1      -0.864  -1.606  -1.400  0.00  0.00     0.054 C 
ATOM      9  C   UNL d   1      -1.476  -1.071  -2.687  0.00  0.00     0.018 C 
ENDBRANCH   1   8
TORSDOF 1
ENDMDL
