MODEL 1
REMARK minimizedAffinity 2.25987267
REMARK minimizedRMSD -1
REMARK  1 active torsions:
REMARK  status: ('A' for Active; 'I' for Inactive)
REMARK    1  A    between atoms: C3_4  and  O_7 
ROOT
ATOM      1  C   UNL d   1       0.941  -0.466   1.885  0.00  0.00    -0.033 A 
ATOM      2  C1  UNL d   1       1.827   0.613   1.914  0.00  0.00     0.039 A 
ATOM      3  C2  UNL d   1       3.136   0.457   1.455  0.00  0.00    -0.080 A 
ATOM      4  C3  UNL d   1       3.546  -0.782   0.969  0.00  0.00     0.150 A 
ATOM      5  C4  UNL d   1       2.668  -1.860   0.934  0.00  0.00    -0.007 A 
ATOM      6  C5  UNL d   1       1.362  -1.702   1.394  0.00  0.00     0.039 A 
ENDROOT
BRANCH   4   7
ATOM      7  O   UNL d   1       4.816  -0.984   0.514  0.00  0.00    -0.526 OA
ATOM      8  H5  UNL d   1       5.318  -0.160   0.626  0.00  0.00     0.418 HD
ENDBRANCH   4   7
TORSDOF 1
ENDMDL
