MODEL 1
REMARK minimizedAffinity 12.0212145
REMARK minimizedRMSD -1
REMARK  1 active torsions:
REMARK  status: ('A' for Active; 'I' for Inactive)
REMARK    1  A    between atoms: C3_4  and  O_7 
ROOT
ATOM      1  C   UNL d   1       6.000   5.260  -2.646  0.00  0.00    -0.033 A 
ATOM      2  C1  UNL d   1       5.719   5.532  -1.306  0.00  0.00     0.039 A 
ATOM      3  C2  UNL d   1       4.463   5.226  -0.778  0.00  0.00    -0.080 A 
ATOM      4  C3  UNL d   1       3.499   4.648  -1.600  0.00  0.00     0.150 A 
ATOM      5  C4  UNL d   1       3.774   4.371  -2.935  0.00  0.00    -0.007 A 
ATOM      6  C5  UNL d   1       5.028   4.678  -3.460  0.00  0.00     0.039 A 
ENDROOT
BRANCH   4   7
ATOM      7  O   UNL d   1       2.257   4.335  -1.131  0.00  0.00    -0.526 OA
ATOM      8  H5  UNL d   1       2.202   4.609  -0.200  0.00  0.00     0.418 HD
ENDBRANCH   4   7
TORSDOF 1
ENDMDL
