MODEL 1
REMARK minimizedAffinity 6.16656351
REMARK minimizedRMSD -1
REMARK  0 active torsions:
REMARK  status: ('A' for Active; 'I' for Inactive)
ROOT
ATOM      1  C   UNL d   1       0.129  -3.911  -1.179  0.00  0.00     0.124 A 
ATOM      2  C1  UNL d   1      -1.069  -3.517  -1.759  0.00  0.00     0.062 A 
ATOM      3  C2  UNL d   1      -1.303  -2.174  -2.040  0.00  0.00     0.162 A 
ATOM      4  C3  UNL d   1      -0.335  -1.215  -1.743  0.00  0.00    -0.034 A 
ATOM      5  C4  UNL d   1       0.867  -1.618  -1.159  0.00  0.00     0.162 A 
ATOM      6  C5  UNL d   1       1.095  -2.962  -0.880  0.00  0.00     0.062 A 
ATOM      7  F   UNL d   1       2.253  -3.340  -0.320  0.00  0.00    -0.097 F 
ATOM      8  F1  UNL d   1       1.819  -0.722  -0.861  0.00  0.00    -0.096 F 
ATOM      9  I   UNL d   1      -0.680   0.795  -2.162  0.00  0.00    -0.060 I 
ATOM     10  F2  UNL d   1      -2.470  -1.822  -2.601  0.00  0.00    -0.096 F 
ATOM     11  F3  UNL d   1      -2.005  -4.433  -2.048  0.00  0.00    -0.097 F 
ATOM     12  F4  UNL d   1       0.350  -5.204  -0.908  0.00  0.00    -0.092 F 
ENDROOT
TORSDOF 0
ENDMDL
