MODEL 1
REMARK minimizedAffinity 11.8122797
REMARK minimizedRMSD -1
REMARK  0 active torsions:
REMARK  status: ('A' for Active; 'I' for Inactive)
ROOT
ATOM      1  C   UNL d   1       0.368   0.118   3.114  0.00  0.00     0.124 A 
ATOM      2  C1  UNL d   1       1.088   1.244   2.738  0.00  0.00     0.062 A 
ATOM      3  C2  UNL d   1       0.426   2.369   2.256  0.00  0.00     0.162 A 
ATOM      4  C3  UNL d   1      -0.965   2.376   2.149  0.00  0.00    -0.034 A 
ATOM      5  C4  UNL d   1      -1.682   1.240   2.529  0.00  0.00     0.162 A 
ATOM      6  C5  UNL d   1      -1.016   0.117   3.009  0.00  0.00     0.062 A 
ATOM      7  F   UNL d   1      -1.713  -0.969   3.372  0.00  0.00    -0.097 F 
ATOM      8  F1  UNL d   1      -3.020   1.212   2.438  0.00  0.00    -0.096 F 
ATOM      9  I   UNL d   1      -1.958   4.057   1.429  0.00  0.00    -0.060 I 
ATOM     10  F2  UNL d   1       1.147   3.443   1.900  0.00  0.00    -0.096 F 
ATOM     11  F3  UNL d   1       2.425   1.247   2.838  0.00  0.00    -0.097 F 
ATOM     12  F4  UNL d   1       1.008  -0.964   3.577  0.00  0.00    -0.092 F 
ENDROOT
TORSDOF 0
ENDMDL
