MODEL 1
REMARK minimizedAffinity 17.0653229
REMARK minimizedRMSD -1
REMARK  0 active torsions:
REMARK  status: ('A' for Active; 'I' for Inactive)
ROOT
ATOM      1  C   UNL d   1      -1.966  -0.795  -3.011  0.00  0.00     0.124 A 
ATOM      2  C1  UNL d   1      -0.844  -0.001  -3.203  0.00  0.00     0.062 A 
ATOM      3  C2  UNL d   1      -0.390   0.827  -2.181  0.00  0.00     0.162 A 
ATOM      4  C3  UNL d   1      -1.057   0.865  -0.957  0.00  0.00    -0.034 A 
ATOM      5  C4  UNL d   1      -2.186   0.065  -0.772  0.00  0.00     0.162 A 
ATOM      6  C5  UNL d   1      -2.636  -0.761  -1.797  0.00  0.00     0.062 A 
ATOM      7  F   UNL d   1      -3.721  -1.527  -1.610  0.00  0.00    -0.097 F 
ATOM      8  F1  UNL d   1      -2.852   0.077   0.393  0.00  0.00    -0.096 F 
ATOM      9  I   UNL d   1      -0.381   2.102   0.575  0.00  0.00    -0.060 I 
ATOM     10  F2  UNL d   1       0.698   1.583  -2.393  0.00  0.00    -0.096 F 
ATOM     11  F3  UNL d   1      -0.195  -0.031  -4.376  0.00  0.00    -0.097 F 
ATOM     12  F4  UNL d   1      -2.402  -1.590  -3.997  0.00  0.00    -0.092 F 
ENDROOT
TORSDOF 0
ENDMDL
