MODEL 1
REMARK minimizedAffinity 14.8872652
REMARK minimizedRMSD -1
REMARK  0 active torsions:
REMARK  status: ('A' for Active; 'I' for Inactive)
ROOT
ATOM      1  C   UNL d   1       1.097  -4.044  -0.645  0.00  0.00     0.124 A 
ATOM      2  C1  UNL d   1       2.088  -3.137  -0.296  0.00  0.00     0.062 A 
ATOM      3  C2  UNL d   1       1.844  -1.769  -0.376  0.00  0.00     0.162 A 
ATOM      4  C3  UNL d   1       0.603  -1.299  -0.805  0.00  0.00    -0.034 A 
ATOM      5  C4  UNL d   1      -0.389  -2.217  -1.155  0.00  0.00     0.162 A 
ATOM      6  C5  UNL d   1      -0.140  -3.584  -1.073  0.00  0.00     0.062 A 
ATOM      7  F   UNL d   1      -1.099  -4.458  -1.410  0.00  0.00    -0.097 F 
ATOM      8  F1  UNL d   1      -1.593  -1.800  -1.571  0.00  0.00    -0.096 F 
ATOM      9  I   UNL d   1       0.235   0.746  -0.925  0.00  0.00    -0.060 I 
ATOM     10  F2  UNL d   1       2.821  -0.916  -0.033  0.00  0.00    -0.096 F 
ATOM     11  F3  UNL d   1       3.284  -3.580   0.117  0.00  0.00    -0.097 F 
ATOM     12  F4  UNL d   1       1.334  -5.360  -0.568  0.00  0.00    -0.092 F 
ENDROOT
TORSDOF 0
ENDMDL
