MODEL 1
REMARK minimizedAffinity 5.4644146
REMARK minimizedRMSD -1
REMARK  0 active torsions:
REMARK  status: ('A' for Active; 'I' for Inactive)
ROOT
ATOM      1  C   UNL d   1       1.440   2.473   2.642  0.00  0.00     0.124 A 
ATOM      2  C1  UNL d   1       1.196   2.983   1.374  0.00  0.00     0.062 A 
ATOM      3  C2  UNL d   1       0.699   2.155   0.371  0.00  0.00     0.162 A 
ATOM      4  C3  UNL d   1       0.443   0.809   0.632  0.00  0.00    -0.034 A 
ATOM      5  C4  UNL d   1       0.692   0.304   1.909  0.00  0.00     0.162 A 
ATOM      6  C5  UNL d   1       1.188   1.135   2.908  0.00  0.00     0.062 A 
ATOM      7  F   UNL d   1       1.423   0.641   4.132  0.00  0.00    -0.097 F 
ATOM      8  F1  UNL d   1       0.456  -0.985   2.194  0.00  0.00    -0.096 F 
ATOM      9  I   UNL d   1      -0.300  -0.431  -0.866  0.00  0.00    -0.060 I 
ATOM     10  F2  UNL d   1       0.472   2.674  -0.845  0.00  0.00    -0.096 F 
ATOM     11  F3  UNL d   1       1.439   4.275   1.114  0.00  0.00    -0.097 F 
ATOM     12  F4  UNL d   1       1.918   3.272   3.605  0.00  0.00    -0.092 F 
ENDROOT
TORSDOF 0
ENDMDL
