MODEL 1
REMARK minimizedAffinity 10.4550362
REMARK minimizedRMSD -1
REMARK  2 active torsions:
REMARK  status: ('A' for Active; 'I' for Inactive)
REMARK    1  A    between atoms: C1_2  and  C2_3 
REMARK    2  A    between atoms: C2_3  and  C3_4 
ROOT
ATOM      1  C3  UNL d   1      -5.167   3.962   3.495  0.00  0.00    -0.075 A 
ATOM      2  C4  UNL d   1      -5.997   3.962   4.626  0.00  0.00     0.002 A 
ATOM      3  C5  UNL d   1      -5.896   4.976   5.579  0.00  0.00     0.002 A 
ATOM      4  C6  UNL d   1      -4.960   5.995   5.420  0.00  0.00    -0.004 A 
ATOM      5  C7  UNL d   1      -4.119   5.996   4.309  0.00  0.00     0.002 A 
ATOM      6  C8  UNL d   1      -4.221   4.985   3.351  0.00  0.00     0.002 A 
ENDROOT
BRANCH   1   7
ATOM      7  C2  UNL d   1      -5.292   2.884   2.445  0.00  0.00     0.056 C 
BRANCH   7   8
ATOM      8  C1  UNL d   1      -5.202   3.402   1.006  0.00  0.00     0.007 C 
ATOM      9  C   UNL d   1      -5.062   2.289  -0.025  0.00  0.00     0.009 C 
ENDBRANCH   7   8
ENDBRANCH   1   7
TORSDOF 2
ENDMDL
