MODEL 1
REMARK minimizedAffinity 1.67650723
REMARK minimizedRMSD -1
REMARK  2 active torsions:
REMARK  status: ('A' for Active; 'I' for Inactive)
REMARK    1  A    between atoms: C1_2  and  C2_3 
REMARK    2  A    between atoms: C2_3  and  C3_4 
ROOT
ATOM      1  C3  UNL d   1       3.994   4.044   4.146  0.00  0.00    -0.075 A 
ATOM      2  C4  UNL d   1       4.383   4.042   5.493  0.00  0.00     0.002 A 
ATOM      3  C5  UNL d   1       5.254   5.017   5.981  0.00  0.00     0.002 A 
ATOM      4  C6  UNL d   1       5.753   5.998   5.128  0.00  0.00    -0.004 A 
ATOM      5  C7  UNL d   1       5.387   6.000   3.783  0.00  0.00     0.002 A 
ATOM      6  C8  UNL d   1       4.513   5.028   3.294  0.00  0.00     0.002 A 
ENDROOT
BRANCH   1   7
ATOM      7  C2  UNL d   1       3.030   3.009   3.619  0.00  0.00     0.056 C 
BRANCH   7   8
ATOM      8  C1  UNL d   1       1.572   3.252   4.023  0.00  0.00     0.007 C 
ATOM      9  C   UNL d   1       1.149   2.457   5.251  0.00  0.00     0.009 C 
ENDBRANCH   7   8
ENDBRANCH   1   7
TORSDOF 2
ENDMDL
