MODEL 1
REMARK minimizedAffinity 7.29175091
REMARK minimizedRMSD -1
REMARK  2 active torsions:
REMARK  status: ('A' for Active; 'I' for Inactive)
REMARK    1  A    between atoms: C1_2  and  C2_3 
REMARK    2  A    between atoms: C2_3  and  C3_4 
ROOT
ATOM      1  C3  UNL d   1       2.809  -1.785  -0.568  0.00  0.00    -0.075 A 
ATOM      2  C4  UNL d   1       3.625  -2.035  -1.682  0.00  0.00     0.002 A 
ATOM      3  C5  UNL d   1       4.527  -1.070  -2.129  0.00  0.00     0.002 A 
ATOM      4  C6  UNL d   1       4.619   0.158  -1.478  0.00  0.00    -0.004 A 
ATOM      5  C7  UNL d   1       3.802   0.423  -0.381  0.00  0.00     0.002 A 
ATOM      6  C8  UNL d   1       2.901  -0.542   0.072  0.00  0.00     0.002 A 
ENDROOT
BRANCH   1   7
ATOM      7  C2  UNL d   1       1.852  -2.836  -0.060  0.00  0.00     0.056 C 
BRANCH   7   8
ATOM      8  C1  UNL d   1       0.543  -2.922  -0.852  0.00  0.00     0.007 C 
ATOM      9  C   UNL d   1      -0.305  -4.132  -0.482  0.00  0.00     0.009 C 
ENDBRANCH   7   8
ENDBRANCH   1   7
TORSDOF 2
ENDMDL
