MODEL 1
REMARK minimizedAffinity 8.75277424
REMARK minimizedRMSD -1
REMARK  2 active torsions:
REMARK  status: ('A' for Active; 'I' for Inactive)
REMARK    1  A    between atoms: C1_2  and  C2_3 
REMARK    2  A    between atoms: C2_3  and  C3_4 
ROOT
ATOM      1  C3  UNL d   1       3.612   0.129  -0.235  0.00  0.00    -0.075 A 
ATOM      2  C4  UNL d   1       2.822   1.083   0.422  0.00  0.00     0.002 A 
ATOM      3  C5  UNL d   1       3.363   2.311   0.804  0.00  0.00     0.002 A 
ATOM      4  C6  UNL d   1       4.702   2.596   0.543  0.00  0.00    -0.004 A 
ATOM      5  C7  UNL d   1       5.501   1.649  -0.094  0.00  0.00     0.002 A 
ATOM      6  C8  UNL d   1       4.960   0.422  -0.481  0.00  0.00     0.002 A 
ENDROOT
BRANCH   1   7
ATOM      7  C2  UNL d   1       3.024  -1.189  -0.677  0.00  0.00     0.056 C 
BRANCH   7   8
ATOM      8  C1  UNL d   1       2.816  -2.193   0.462  0.00  0.00     0.007 C 
ATOM      9  C   UNL d   1       1.595  -3.081   0.264  0.00  0.00     0.009 C 
ENDBRANCH   7   8
ENDBRANCH   1   7
TORSDOF 2
ENDMDL
