MODEL 1
REMARK minimizedAffinity 0.221220523
REMARK minimizedRMSD -1
REMARK  2 active torsions:
REMARK  status: ('A' for Active; 'I' for Inactive)
REMARK    1  A    between atoms: C1_2  and  C2_3 
REMARK    2  A    between atoms: C2_3  and  C3_4 
ROOT
ATOM      1  C3  UNL d   1       1.471  -2.063  -0.710  0.00  0.00    -0.075 A 
ATOM      2  C4  UNL d   1       0.484  -1.522  -1.547  0.00  0.00     0.002 A 
ATOM      3  C5  UNL d   1      -0.693  -2.226  -1.800  0.00  0.00     0.002 A 
ATOM      4  C6  UNL d   1      -0.895  -3.481  -1.230  0.00  0.00    -0.004 A 
ATOM      5  C7  UNL d   1       0.086  -4.035  -0.410  0.00  0.00     0.002 A 
ATOM      6  C8  UNL d   1       1.263  -3.331  -0.151  0.00  0.00     0.002 A 
ENDROOT
BRANCH   1   7
ATOM      7  C2  UNL d   1       2.735  -1.294  -0.408  0.00  0.00     0.056 C 
BRANCH   7   8
ATOM      8  C1  UNL d   1       2.576   0.228  -0.498  0.00  0.00     0.007 C 
ATOM      9  C   UNL d   1       3.866   0.945  -0.872  0.00  0.00     0.009 C 
ENDBRANCH   7   8
ENDBRANCH   1   7
TORSDOF 2
ENDMDL
