MODEL 1
REMARK minimizedAffinity 16.1657734
REMARK minimizedRMSD -1
REMARK  2 active torsions:
REMARK  status: ('A' for Active; 'I' for Inactive)
REMARK    1  A    between atoms: C1_2  and  C2_3 
REMARK    2  A    between atoms: C2_3  and  C3_4 
ROOT
ATOM      1  C3  UNL d   1      -3.511   5.389   4.491  0.00  0.00    -0.075 A 
ATOM      2  C4  UNL d   1      -3.998   4.227   3.874  0.00  0.00     0.002 A 
ATOM      3  C5  UNL d   1      -5.235   3.697   4.239  0.00  0.00     0.002 A 
ATOM      4  C6  UNL d   1      -5.996   4.314   5.230  0.00  0.00    -0.004 A 
ATOM      5  C7  UNL d   1      -5.515   5.459   5.861  0.00  0.00     0.002 A 
ATOM      6  C8  UNL d   1      -4.279   5.994   5.494  0.00  0.00     0.002 A 
ENDROOT
BRANCH   1   7
ATOM      7  C2  UNL d   1      -2.186   5.985   4.080  0.00  0.00     0.056 C 
BRANCH   7   8
ATOM      8  C1  UNL d   1      -1.795   5.695   2.627  0.00  0.00     0.007 C 
ATOM      9  C   UNL d   1      -0.370   5.178   2.480  0.00  0.00     0.009 C 
ENDBRANCH   7   8
ENDBRANCH   1   7
TORSDOF 2
ENDMDL
