MODEL 1
REMARK minimizedAffinity 8.91487217
REMARK minimizedRMSD -1
REMARK  3 active torsions:
REMARK  status: ('A' for Active; 'I' for Inactive)
REMARK    1  A    between atoms: C3'_2  and  C2'_3 
REMARK    2  A    between atoms: C2'_3  and  C1'_4 
REMARK    3  A    between atoms: C1'_4  and  C1_5 
ROOT
ATOM      1  C1  N4B d   1       0.727  -1.900  -2.254  0.00  0.00    -0.075 A 
ATOM      2  C2  N4B d   1       0.169  -0.886  -3.062  0.00  0.00     0.002 A 
ATOM      3  C3  N4B d   1       0.214   0.423  -2.649  0.00  0.00     0.002 A 
ATOM      4  C4  N4B d   1       0.793   0.738  -1.429  0.00  0.00    -0.004 A 
ATOM      5  C5  N4B d   1       1.353  -0.244  -0.667  0.00  0.00     0.002 A 
ATOM      6  C6  N4B d   1       1.318  -1.564  -1.070  0.00  0.00     0.002 A 
ENDROOT
BRANCH   1   7
ATOM      7  C1' N4B d   1       0.626  -3.355  -2.622  0.00  0.00     0.057 C 
BRANCH   7   8
ATOM      8  C2' N4B d   1       1.991  -3.848  -3.095  0.00  0.00     0.009 C 
BRANCH   8   9
ATOM      9  C3' N4B d   1       2.681  -4.702  -2.045  0.00  0.00     0.004 C 
ATOM     10  C4' N4B d   1       4.127  -4.950  -2.357  0.00  0.00     0.003 C 
ENDBRANCH   8   9
ENDBRANCH   7   8
ENDBRANCH   1   7
TORSDOF 3
ENDMDL
