MODEL 1
REMARK minimizedAffinity -0.0435635038
REMARK minimizedRMSD -1
REMARK  3 active torsions:
REMARK  status: ('A' for Active; 'I' for Inactive)
REMARK    1  A    between atoms: C3'_2  and  C2'_3 
REMARK    2  A    between atoms: C2'_3  and  C1'_4 
REMARK    3  A    between atoms: C1'_4  and  C1_5 
ROOT
ATOM      1  C1  N4B d   1       1.366   0.777  -0.180  0.00  0.00    -0.075 A 
ATOM      2  C2  N4B d   1       0.804   1.092   1.077  0.00  0.00     0.002 A 
ATOM      3  C3  N4B d   1       0.033   0.166   1.735  0.00  0.00     0.002 A 
ATOM      4  C4  N4B d   1      -0.205  -1.069   1.151  0.00  0.00    -0.004 A 
ATOM      5  C5  N4B d   1       0.363  -1.375  -0.051  0.00  0.00     0.002 A 
ATOM      6  C6  N4B d   1       1.143  -0.456  -0.723  0.00  0.00     0.002 A 
ENDROOT
BRANCH   1   7
ATOM      7  C1' N4B d   1       2.145   1.787  -0.978  0.00  0.00     0.057 C 
BRANCH   7   8
ATOM      8  C2' N4B d   1       1.388   2.101  -2.265  0.00  0.00     0.009 C 
BRANCH   8   9
ATOM      9  C3' N4B d   1      -0.028   2.578  -1.989  0.00  0.00     0.004 C 
ATOM     10  C4' N4B d   1      -0.864   2.663  -3.231  0.00  0.00     0.003 C 
ENDBRANCH   8   9
ENDBRANCH   7   8
ENDBRANCH   1   7
TORSDOF 3
ENDMDL
