MODEL 1
REMARK minimizedAffinity 0.18961814
REMARK minimizedRMSD -1
REMARK  3 active torsions:
REMARK  status: ('A' for Active; 'I' for Inactive)
REMARK    1  A    between atoms: C3'_2  and  C2'_3 
REMARK    2  A    between atoms: C2'_3  and  C1'_4 
REMARK    3  A    between atoms: C1'_4  and  C1_5 
ROOT
ATOM      1  C1  N4B d   1       0.233  -0.258  -0.467  0.00  0.00    -0.075 A 
ATOM      2  C2  N4B d   1      -0.113  -1.041  -1.589  0.00  0.00     0.002 A 
ATOM      3  C3  N4B d   1       0.280  -0.652  -2.846  0.00  0.00     0.002 A 
ATOM      4  C4  N4B d   1       1.002   0.521  -3.006  0.00  0.00    -0.004 A 
ATOM      5  C5  N4B d   1       1.354   1.259  -1.914  0.00  0.00     0.002 A 
ATOM      6  C6  N4B d   1       0.968   0.878  -0.645  0.00  0.00     0.002 A 
ENDROOT
BRANCH   1   7
ATOM      7  C1' N4B d   1      -0.248  -0.597   0.917  0.00  0.00     0.057 C 
BRANCH   7   8
ATOM      8  C2' N4B d   1      -0.328   0.681   1.747  0.00  0.00     0.009 C 
BRANCH   8   9
ATOM      9  C3' N4B d   1      -1.060   0.462   3.060  0.00  0.00     0.004 C 
ATOM     10  C4' N4B d   1      -1.363   1.743   3.777  0.00  0.00     0.003 C 
ENDBRANCH   8   9
ENDBRANCH   7   8
ENDBRANCH   1   7
TORSDOF 3
ENDMDL
