MODEL 1
REMARK minimizedAffinity 8.42975426
REMARK minimizedRMSD -1
REMARK  3 active torsions:
REMARK  status: ('A' for Active; 'I' for Inactive)
REMARK    1  A    between atoms: C3'_2  and  C2'_3 
REMARK    2  A    between atoms: C2'_3  and  C1'_4 
REMARK    3  A    between atoms: C1'_4  and  C1_5 
ROOT
ATOM      1  C1  N4B d   1       1.149  -0.479  -0.889  0.00  0.00    -0.075 A 
ATOM      2  C2  N4B d   1       0.403  -0.113  -2.031  0.00  0.00     0.002 A 
ATOM      3  C3  N4B d   1       0.043  -1.068  -2.951  0.00  0.00     0.002 A 
ATOM      4  C4  N4B d   1       0.433  -2.385  -2.760  0.00  0.00    -0.004 A 
ATOM      5  C5  N4B d   1       1.131  -2.734  -1.642  0.00  0.00     0.002 A 
ATOM      6  C6  N4B d   1       1.496  -1.786  -0.707  0.00  0.00     0.002 A 
ENDROOT
BRANCH   1   7
ATOM      7  C1' N4B d   1       1.639   0.543   0.100  0.00  0.00     0.057 C 
BRANCH   7   8
ATOM      8  C2' N4B d   1       0.460   1.039   0.933  0.00  0.00     0.009 C 
BRANCH   8   9
ATOM      9  C3' N4B d   1       0.877   2.108   1.928  0.00  0.00     0.004 C 
ATOM     10  C4' N4B d   1       0.490   1.773   3.337  0.00  0.00     0.003 C 
ENDBRANCH   8   9
ENDBRANCH   7   8
ENDBRANCH   1   7
TORSDOF 3
ENDMDL
