MODEL 1
REMARK minimizedAffinity 9.13323975
REMARK minimizedRMSD -1
REMARK  3 active torsions:
REMARK  status: ('A' for Active; 'I' for Inactive)
REMARK    1  A    between atoms: C3'_2  and  C2'_3 
REMARK    2  A    between atoms: C2'_3  and  C1'_4 
REMARK    3  A    between atoms: C1'_4  and  C1_5 
ROOT
ATOM      1  C1  N4B d   1       1.155  -2.437  -1.075  0.00  0.00    -0.075 A 
ATOM      2  C2  N4B d   1       1.538  -1.473  -0.117  0.00  0.00     0.002 A 
ATOM      3  C3  N4B d   1       1.325  -0.138  -0.362  0.00  0.00     0.002 A 
ATOM      4  C4  N4B d   1       0.751   0.255  -1.562  0.00  0.00    -0.004 A 
ATOM      5  C5  N4B d   1       0.360  -0.684  -2.471  0.00  0.00     0.002 A 
ATOM      6  C6  N4B d   1       0.564  -2.028  -2.236  0.00  0.00     0.002 A 
ENDROOT
BRANCH   1   7
ATOM      7  C1' N4B d   1       1.445  -3.901  -0.888  0.00  0.00     0.057 C 
BRANCH   7   8
ATOM      8  C2' N4B d   1       2.127  -4.440  -2.142  0.00  0.00     0.009 C 
BRANCH   8   9
ATOM      9  C3' N4B d   1       3.256  -5.399  -1.807  0.00  0.00     0.004 C 
ATOM     10  C4' N4B d   1       4.553  -5.021  -2.459  0.00  0.00     0.003 C 
ENDBRANCH   8   9
ENDBRANCH   7   8
ENDBRANCH   1   7
TORSDOF 3
ENDMDL
