MODEL 1
REMARK minimizedAffinity 4.32146025
REMARK minimizedRMSD -1
REMARK  3 active torsions:
REMARK  status: ('A' for Active; 'I' for Inactive)
REMARK    1  A    between atoms: C3'_2  and  C2'_3 
REMARK    2  A    between atoms: C2'_3  and  C1'_4 
REMARK    3  A    between atoms: C1'_4  and  C1_5 
ROOT
ATOM      1  C1  N4B d   1       0.707   2.971  -0.617  0.00  0.00    -0.075 A 
ATOM      2  C2  N4B d   1       1.554   1.964  -1.129  0.00  0.00     0.002 A 
ATOM      3  C3  N4B d   1       1.099   1.118  -2.110  0.00  0.00     0.002 A 
ATOM      4  C4  N4B d   1      -0.200   1.246  -2.579  0.00  0.00    -0.004 A 
ATOM      5  C5  N4B d   1      -1.003   2.238  -2.097  0.00  0.00     0.002 A 
ATOM      6  C6  N4B d   1      -0.558   3.098  -1.114  0.00  0.00     0.002 A 
ENDROOT
BRANCH   1   7
ATOM      7  C1' N4B d   1       1.131   3.865   0.516  0.00  0.00     0.057 C 
BRANCH   7   8
ATOM      8  C2' N4B d   1       1.003   5.321   0.080  0.00  0.00     0.009 C 
BRANCH   8   9
ATOM      9  C3' N4B d   1       1.856   5.627  -1.139  0.00  0.00     0.004 C 
ATOM     10  C4' N4B d   1       1.040   5.997  -2.341  0.00  0.00     0.003 C 
ENDBRANCH   8   9
ENDBRANCH   7   8
ENDBRANCH   1   7
TORSDOF 3
ENDMDL
