MODEL 1
REMARK minimizedAffinity 13.169158
REMARK minimizedRMSD -1
REMARK  0 active torsions:
REMARK  status: ('A' for Active; 'I' for Inactive)
ROOT
ATOM      1  C4' PXY d   1      -0.943   2.236  -4.448  0.00  0.00     0.077 C 
ATOM      2  C1' PXY d   1      -0.766  -3.329  -6.000  0.00  0.00     0.077 C 
ATOM      3  C1  PXY d   1      -0.800  -1.869  -5.594  0.00  0.00    -0.082 A 
ATOM      4  C2  PXY d   1      -1.800  -1.418  -4.855  0.00  0.00     0.003 A 
ATOM      5  C3  PXY d   1      -1.862  -0.093  -4.506  0.00  0.00     0.003 A 
ATOM      6  C4  PXY d   1      -0.863   0.768  -4.873  0.00  0.00    -0.082 A 
ATOM      7  C5  PXY d   1       0.166   0.313  -5.619  0.00  0.00     0.003 A 
ATOM      8  C6  PXY d   1       0.190  -1.026  -5.997  0.00  0.00     0.003 A 
ENDROOT
TORSDOF 0
ENDMDL
