MODEL 1
REMARK minimizedAffinity 15.5236597
REMARK minimizedRMSD -1
REMARK  0 active torsions:
REMARK  status: ('A' for Active; 'I' for Inactive)
ROOT
ATOM      1  C4' PXY d   1       1.093   2.636  -5.999  0.00  0.00     0.077 C 
ATOM      2  C1' PXY d   1      -1.547  -2.496  -5.671  0.00  0.00     0.077 C 
ATOM      3  C1  PXY d   1      -0.866  -1.145  -5.760  0.00  0.00    -0.082 A 
ATOM      4  C2  PXY d   1       0.442  -1.083  -5.947  0.00  0.00     0.003 A 
ATOM      5  C3  PXY d   1       1.079   0.131  -5.998  0.00  0.00     0.003 A 
ATOM      6  C4  PXY d   1       0.361   1.293  -5.912  0.00  0.00    -0.082 A 
ATOM      7  C5  PXY d   1      -0.975   1.239  -5.732  0.00  0.00     0.003 A 
ATOM      8  C6  PXY d   1      -1.597  -0.003  -5.641  0.00  0.00     0.003 A 
ENDROOT
TORSDOF 0
ENDMDL
