MODEL 1
REMARK minimizedAffinity 9.14379692
REMARK minimizedRMSD -1
REMARK  0 active torsions:
REMARK  status: ('A' for Active; 'I' for Inactive)
ROOT
ATOM      1  C4' PXY d   1       4.504  -0.706  -0.630  0.00  0.00     0.077 C 
ATOM      2  C1' PXY d   1       5.096  -2.782  -5.992  0.00  0.00     0.077 C 
ATOM      3  C1  PXY d   1       4.929  -2.233  -4.589  0.00  0.00    -0.082 A 
ATOM      4  C2  PXY d   1       6.000  -1.968  -3.858  0.00  0.00     0.003 A 
ATOM      5  C3  PXY d   1       5.866  -1.501  -2.576  0.00  0.00     0.003 A 
ATOM      6  C4  PXY d   1       4.625  -1.253  -2.055  0.00  0.00    -0.082 A 
ATOM      7  C5  PXY d   1       3.528  -1.510  -2.798  0.00  0.00     0.003 A 
ATOM      8  C6  PXY d   1       3.684  -2.023  -4.082  0.00  0.00     0.003 A 
ENDROOT
TORSDOF 0
ENDMDL
