MODEL 1
REMARK minimizedAffinity 2.06781578
REMARK minimizedRMSD -1
REMARK  0 active torsions:
REMARK  status: ('A' for Active; 'I' for Inactive)
ROOT
ATOM      1  C4' PXY d   1      -1.836   0.009   1.981  0.00  0.00     0.077 C 
ATOM      2  C1' PXY d   1       2.703  -2.279   4.734  0.00  0.00     0.077 C 
ATOM      3  C1  PXY d   1       1.520  -1.670   4.007  0.00  0.00    -0.082 A 
ATOM      4  C2  PXY d   1       0.294  -1.886   4.455  0.00  0.00     0.003 A 
ATOM      5  C3  PXY d   1      -0.789  -1.369   3.792  0.00  0.00     0.003 A 
ATOM      6  C4  PXY d   1      -0.612  -0.578   2.688  0.00  0.00    -0.082 A 
ATOM      7  C5  PXY d   1       0.636  -0.344   2.231  0.00  0.00     0.003 A 
ATOM      8  C6  PXY d   1       1.720  -0.912   2.895  0.00  0.00     0.003 A 
ENDROOT
TORSDOF 0
ENDMDL
