MODEL 1
REMARK minimizedAffinity -2.31707692
REMARK minimizedRMSD -1
REMARK  0 active torsions:
REMARK  status: ('A' for Active; 'I' for Inactive)
ROOT
ATOM      1  C4' PXY d   1       2.501  -2.503  -1.307  0.00  0.00     0.077 C 
ATOM      2  C1' PXY d   1      -1.335   0.218  -4.669  0.00  0.00     0.077 C 
ATOM      3  C1  PXY d   1      -0.338  -0.497  -3.778  0.00  0.00    -0.082 A 
ATOM      4  C2  PXY d   1       0.957  -0.284  -3.943  0.00  0.00     0.003 A 
ATOM      5  C3  PXY d   1       1.874  -0.946  -3.167  0.00  0.00     0.003 A 
ATOM      6  C4  PXY d   1       1.458  -1.796  -2.177  0.00  0.00    -0.082 A 
ATOM      7  C5  PXY d   1       0.138  -2.011  -1.996  0.00  0.00     0.003 A 
ATOM      8  C6  PXY d   1      -0.775  -1.360  -2.821  0.00  0.00     0.003 A 
ENDROOT
TORSDOF 0
ENDMDL
