MODEL 1
REMARK minimizedAffinity 1.31531894
REMARK minimizedRMSD -1
REMARK  0 active torsions:
REMARK  status: ('A' for Active; 'I' for Inactive)
ROOT
ATOM      1  C4' PXY d   1      -1.955  -0.927   1.827  0.00  0.00     0.077 C 
ATOM      2  C1' PXY d   1       2.721  -2.305   4.932  0.00  0.00     0.077 C 
ATOM      3  C1  PXY d   1       1.498  -1.931   4.119  0.00  0.00    -0.082 A 
ATOM      4  C2  PXY d   1       0.487  -2.781   4.030  0.00  0.00     0.003 A 
ATOM      5  C3  PXY d   1      -0.613  -2.472   3.272  0.00  0.00     0.003 A 
ATOM      6  C4  PXY d   1      -0.704  -1.259   2.644  0.00  0.00    -0.082 A 
ATOM      7  C5  PXY d   1       0.318  -0.382   2.740  0.00  0.00     0.003 A 
ATOM      8  C6  PXY d   1       1.444  -0.731   3.479  0.00  0.00     0.003 A 
ENDROOT
TORSDOF 0
ENDMDL
