MODEL 1
REMARK minimizedAffinity 6.14548159
REMARK minimizedRMSD -1
REMARK  0 active torsions:
REMARK  status: ('A' for Active; 'I' for Inactive)
ROOT
ATOM      1  C4' PXY d   1       2.774  -2.554   4.991  0.00  0.00     0.077 C 
ATOM      2  C1' PXY d   1      -1.389   0.077   1.964  0.00  0.00     0.077 C 
ATOM      3  C1  PXY d   1      -0.306  -0.618   2.766  0.00  0.00    -0.082 A 
ATOM      4  C2  PXY d   1       0.934  -0.158   2.726  0.00  0.00     0.003 A 
ATOM      5  C3  PXY d   1       1.932  -0.794   3.420  0.00  0.00     0.003 A 
ATOM      6  C4  PXY d   1       1.647  -1.879   4.205  0.00  0.00    -0.082 A 
ATOM      7  C5  PXY d   1       0.382  -2.347   4.260  0.00  0.00     0.003 A 
ATOM      8  C6  PXY d   1      -0.609  -1.712   3.515  0.00  0.00     0.003 A 
ENDROOT
TORSDOF 0
ENDMDL
