MODEL 1
REMARK minimizedAffinity 2.24758363
REMARK minimizedRMSD -1
REMARK  0 active torsions:
REMARK  status: ('A' for Active; 'I' for Inactive)
ROOT
ATOM      1  C4' PXY d   1       2.264  -1.983  -0.738  0.00  0.00     0.077 C 
ATOM      2  C1' PXY d   1      -0.206  -5.996  -4.086  0.00  0.00     0.077 C 
ATOM      3  C1  PXY d   1       0.432  -4.935  -3.211  0.00  0.00    -0.082 A 
ATOM      4  C2  PXY d   1       1.735  -4.971  -2.984  0.00  0.00     0.003 A 
ATOM      5  C3  PXY d   1       2.323  -4.038  -2.169  0.00  0.00     0.003 A 
ATOM      6  C4  PXY d   1       1.578  -3.028  -1.623  0.00  0.00    -0.082 A 
ATOM      7  C5  PXY d   1       0.250  -2.978  -1.857  0.00  0.00     0.003 A 
ATOM      8  C6  PXY d   1      -0.335  -3.958  -2.654  0.00  0.00     0.003 A 
ENDROOT
TORSDOF 0
ENDMDL
