MODEL 1
REMARK minimizedAffinity 7.76799583
REMARK minimizedRMSD -1
REMARK  0 active torsions:
REMARK  status: ('A' for Active; 'I' for Inactive)
ROOT
ATOM      1  C4' PXY d   1      -0.820  -5.994  -5.964  0.00  0.00     0.077 C 
ATOM      2  C1' PXY d   1       2.580  -3.581  -1.960  0.00  0.00     0.077 C 
ATOM      3  C1  PXY d   1       1.684  -4.222  -3.001  0.00  0.00    -0.082 A 
ATOM      4  C2  PXY d   1       1.994  -4.121  -4.283  0.00  0.00     0.003 A 
ATOM      5  C3  PXY d   1       1.178  -4.667  -5.240  0.00  0.00     0.003 A 
ATOM      6  C4  PXY d   1       0.061  -5.371  -4.877  0.00  0.00    -0.082 A 
ATOM      7  C5  PXY d   1      -0.257  -5.488  -3.571  0.00  0.00     0.003 A 
ATOM      8  C6  PXY d   1       0.563  -4.891  -2.617  0.00  0.00     0.003 A 
ENDROOT
TORSDOF 0
ENDMDL
