MODEL 1
REMARK minimizedAffinity 0.901893198
REMARK minimizedRMSD -1
REMARK  0 active torsions:
REMARK  status: ('A' for Active; 'I' for Inactive)
ROOT
ATOM      1  C   UNL d   1      -0.117   1.576   0.528  0.00  0.00     0.172 C 
ATOM      2  N   UNL d   1       0.301   0.314   1.092  0.00  0.00    -0.070 N 
ATOM      3  C1  UNL d   1      -0.450  -0.831   1.130  0.00  0.00    -0.004 A 
ATOM      4  C2  UNL d   1       0.302  -1.808   1.746  0.00  0.00    -0.047 A 
ATOM      5  C3  UNL d   1       1.547  -1.230   2.091  0.00  0.00    -0.047 A 
ATOM      6  C4  UNL d   1       1.519   0.084   1.675  0.00  0.00    -0.004 A 
ENDROOT
TORSDOF 0
ENDMDL
