MODEL 1
REMARK minimizedAffinity 4.77017975
REMARK minimizedRMSD -1
REMARK  0 active torsions:
REMARK  status: ('A' for Active; 'I' for Inactive)
ROOT
ATOM      1  C   UNL d   1       1.359  -2.237   5.282  0.00  0.00     0.172 C 
ATOM      2  N   UNL d   1       1.519  -1.247   4.244  0.00  0.00    -0.070 N 
ATOM      3  C1  UNL d   1       1.785   0.082   4.442  0.00  0.00    -0.004 A 
ATOM      4  C2  UNL d   1       1.864   0.686   3.206  0.00  0.00    -0.047 A 
ATOM      5  C3  UNL d   1       1.636  -0.314   2.231  0.00  0.00    -0.047 A 
ATOM      6  C4  UNL d   1       1.425  -1.501   2.901  0.00  0.00    -0.004 A 
ENDROOT
TORSDOF 0
ENDMDL
