MODEL 1
REMARK minimizedAffinity 3.17903543
REMARK minimizedRMSD -1
REMARK  0 active torsions:
REMARK  status: ('A' for Active; 'I' for Inactive)
ROOT
ATOM      1  C   UNL d   1       0.725  -0.377   2.221  0.00  0.00     0.172 C 
ATOM      2  N   UNL d   1      -0.421   0.143   1.514  0.00  0.00    -0.070 N 
ATOM      3  C1  UNL d   1      -1.586  -0.535   1.273  0.00  0.00    -0.004 A 
ATOM      4  C2  UNL d   1      -2.427   0.304   0.574  0.00  0.00    -0.047 A 
ATOM      5  C3  UNL d   1      -1.743   1.529   0.388  0.00  0.00    -0.047 A 
ATOM      6  C4  UNL d   1      -0.504   1.402   0.980  0.00  0.00    -0.004 A 
ENDROOT
TORSDOF 0
ENDMDL
