MODEL 1
REMARK minimizedAffinity 5.81541157
REMARK minimizedRMSD -1
REMARK  0 active torsions:
REMARK  status: ('A' for Active; 'I' for Inactive)
ROOT
ATOM      1  C   UNL d   1       1.714  -2.823   5.674  0.00  0.00     0.172 C 
ATOM      2  N   UNL d   1       1.793  -2.210   4.369  0.00  0.00    -0.070 N 
ATOM      3  C1  UNL d   1       2.246  -2.817   3.228  0.00  0.00    -0.004 A 
ATOM      4  C2  UNL d   1       2.163  -1.902   2.201  0.00  0.00    -0.047 A 
ATOM      5  C3  UNL d   1       1.643  -0.703   2.744  0.00  0.00    -0.047 A 
ATOM      6  C4  UNL d   1       1.423  -0.921   4.087  0.00  0.00    -0.004 A 
ENDROOT
TORSDOF 0
ENDMDL
