MODEL 1
REMARK minimizedAffinity 7.06286764
REMARK minimizedRMSD -1
REMARK  0 active torsions:
REMARK  status: ('A' for Active; 'I' for Inactive)
ROOT
ATOM      1  C   UNL d   1      -0.479   2.450   0.375  0.00  0.00     0.172 C 
ATOM      2  N   UNL d   1      -0.421   3.892   0.401  0.00  0.00    -0.070 N 
ATOM      3  C1  UNL d   1       0.355   4.675  -0.411  0.00  0.00    -0.004 A 
ATOM      4  C2  UNL d   1       0.125   5.992  -0.074  0.00  0.00    -0.047 A 
ATOM      5  C3  UNL d   1      -0.822   6.000   0.978  0.00  0.00    -0.047 A 
ATOM      6  C4  UNL d   1      -1.143   4.687   1.252  0.00  0.00    -0.004 A 
ENDROOT
TORSDOF 0
ENDMDL
