MODEL 1
REMARK minimizedAffinity 4.84146595
REMARK minimizedRMSD -1
REMARK  0 active torsions:
REMARK  status: ('A' for Active; 'I' for Inactive)
ROOT
ATOM      1  C   UNL d   1       1.266  -1.177   2.453  0.00  0.00     0.172 C 
ATOM      2  N   UNL d   1       1.457  -2.130   3.522  0.00  0.00    -0.070 N 
ATOM      3  C1  UNL d   1       0.895  -2.053   4.768  0.00  0.00    -0.004 A 
ATOM      4  C2  UNL d   1       1.320  -3.147   5.491  0.00  0.00    -0.047 A 
ATOM      5  C3  UNL d   1       2.168  -3.907   4.650  0.00  0.00    -0.047 A 
ATOM      6  C4  UNL d   1       2.235  -3.254   3.437  0.00  0.00    -0.004 A 
ENDROOT
TORSDOF 0
ENDMDL
