MODEL 1
REMARK minimizedAffinity -0.565556049
REMARK minimizedRMSD -1
REMARK  0 active torsions:
REMARK  status: ('A' for Active; 'I' for Inactive)
ROOT
ATOM      1  C   UNL d   1       0.109  -4.519  -2.476  0.00  0.00     0.172 C 
ATOM      2  N   UNL d   1      -1.015  -4.409  -1.577  0.00  0.00    -0.070 N 
ATOM      3  C1  UNL d   1      -1.713  -5.457  -1.039  0.00  0.00    -0.004 A 
ATOM      4  C2  UNL d   1      -2.706  -4.936  -0.237  0.00  0.00    -0.047 A 
ATOM      5  C3  UNL d   1      -2.602  -3.526  -0.297  0.00  0.00    -0.047 A 
ATOM      6  C4  UNL d   1      -1.547  -3.227  -1.133  0.00  0.00    -0.004 A 
ENDROOT
TORSDOF 0
ENDMDL
