MODEL 1
REMARK minimizedAffinity 1.36731219
REMARK minimizedRMSD -1
REMARK  0 active torsions:
REMARK  status: ('A' for Active; 'I' for Inactive)
ROOT
ATOM      1  C   UNL d   1      -0.084  -0.036   1.646  0.00  0.00     0.172 C 
ATOM      2  N   UNL d   1      -1.115  -0.651   0.843  0.00  0.00    -0.070 N 
ATOM      3  C1  UNL d   1      -1.038  -1.884   0.253  0.00  0.00    -0.004 A 
ATOM      4  C2  UNL d   1      -2.220  -2.104  -0.420  0.00  0.00    -0.047 A 
ATOM      5  C3  UNL d   1      -3.035  -0.964  -0.229  0.00  0.00    -0.047 A 
ATOM      6  C4  UNL d   1      -2.327  -0.080   0.557  0.00  0.00    -0.004 A 
ENDROOT
TORSDOF 0
ENDMDL
