MODEL 1
REMARK minimizedAffinity 3.4453907
REMARK minimizedRMSD -1
REMARK  0 active torsions:
REMARK  status: ('A' for Active; 'I' for Inactive)
ROOT
ATOM      1  C   UNL d   1      -5.765   5.996  -4.129  0.00  0.00     0.172 C 
ATOM      2  N   UNL d   1      -5.726   5.375  -2.826  0.00  0.00    -0.070 N 
ATOM      3  C1  UNL d   1      -5.996   5.998  -1.637  0.00  0.00    -0.004 A 
ATOM      4  C2  UNL d   1      -5.851   5.068  -0.630  0.00  0.00    -0.047 A 
ATOM      5  C3  UNL d   1      -5.479   3.844  -1.236  0.00  0.00    -0.047 A 
ATOM      6  C4  UNL d   1      -5.409   4.062  -2.595  0.00  0.00    -0.004 A 
ENDROOT
TORSDOF 0
ENDMDL
