MODEL 1
REMARK minimizedAffinity -0.503281295
REMARK minimizedRMSD -1
REMARK  0 active torsions:
REMARK  status: ('A' for Active; 'I' for Inactive)
ROOT
ATOM      1  C   UNL d   1       4.297   4.115  -0.834  0.00  0.00     0.172 C 
ATOM      2  N   UNL d   1       4.708   3.738  -2.166  0.00  0.00    -0.070 N 
ATOM      3  C1  UNL d   1       5.998   3.704  -2.623  0.00  0.00    -0.004 A 
ATOM      4  C2  UNL d   1       5.969   3.295  -3.939  0.00  0.00    -0.047 A 
ATOM      5  C3  UNL d   1       4.614   3.076  -4.285  0.00  0.00    -0.047 A 
ATOM      6  C4  UNL d   1       3.855   3.359  -3.169  0.00  0.00    -0.004 A 
ENDROOT
TORSDOF 0
ENDMDL
