MODEL 1
REMARK minimizedAffinity -1.82404232
REMARK minimizedRMSD -1
REMARK  0 active torsions:
REMARK  status: ('A' for Active; 'I' for Inactive)
ROOT
ATOM      1  C   UNL d   1       5.999   2.654  -4.144  0.00  0.00     0.172 C 
ATOM      2  N   UNL d   1       5.382   3.243  -2.979  0.00  0.00    -0.070 N 
ATOM      3  C1  UNL d   1       4.102   3.012  -2.551  0.00  0.00    -0.004 A 
ATOM      4  C2  UNL d   1       3.898   3.758  -1.410  0.00  0.00    -0.047 A 
ATOM      5  C3  UNL d   1       5.096   4.462  -1.144  0.00  0.00    -0.047 A 
ATOM      6  C4  UNL d   1       5.998   4.125  -2.131  0.00  0.00    -0.004 A 
ENDROOT
TORSDOF 0
ENDMDL
