MODEL 1
REMARK minimizedAffinity -2.22790623
REMARK minimizedRMSD -1
REMARK  0 active torsions:
REMARK  status: ('A' for Active; 'I' for Inactive)
ROOT
ATOM      1  C   UNL d   1       4.802   0.213  -6.000  0.00  0.00     0.172 C 
ATOM      2  N   UNL d   1       4.687  -1.226  -6.000  0.00  0.00    -0.070 N 
ATOM      3  C1  UNL d   1       3.514  -1.933  -5.998  0.00  0.00    -0.004 A 
ATOM      4  C2  UNL d   1       3.830  -3.275  -5.999  0.00  0.00    -0.047 A 
ATOM      5  C3  UNL d   1       5.241  -3.378  -6.000  0.00  0.00    -0.047 A 
ATOM      6  C4  UNL d   1       5.747  -2.095  -6.000  0.00  0.00    -0.004 A 
ENDROOT
TORSDOF 0
ENDMDL
