MODEL 1
REMARK minimizedAffinity 1.47339106
REMARK minimizedRMSD -1
REMARK  0 active torsions:
REMARK  status: ('A' for Active; 'I' for Inactive)
ROOT
ATOM      1  C   UNL d   1       2.658   2.107   3.740  0.00  0.00     0.172 C 
ATOM      2  N   UNL d   1       2.323   0.728   3.473  0.00  0.00    -0.070 N 
ATOM      3  C1  UNL d   1       2.262   0.146   2.235  0.00  0.00    -0.004 A 
ATOM      4  C2  UNL d   1       1.911  -1.175   2.406  0.00  0.00    -0.047 A 
ATOM      5  C3  UNL d   1       1.753  -1.395   3.795  0.00  0.00    -0.047 A 
ATOM      6  C4  UNL d   1       2.014  -0.200   4.432  0.00  0.00    -0.004 A 
ENDROOT
TORSDOF 0
ENDMDL
