MODEL 1
REMARK minimizedAffinity -7.08159876
REMARK minimizedRMSD -1
REMARK  0 active torsions:
REMARK  status: ('A' for Active; 'I' for Inactive)
ROOT
ATOM      1  C2' OXE d   1       0.535  -0.769  -0.615  0.00  0.00     0.078 C 
ATOM      2  C1' OXE d   1      -2.025   0.243  -0.063  0.00  0.00     0.078 C 
ATOM      3  C1  OXE d   1      -1.007   0.256   1.051  0.00  0.00    -0.078 A 
ATOM      4  C2  OXE d   1       0.228  -0.284   0.785  0.00  0.00    -0.078 A 
ATOM      5  C3  OXE d   1       1.220  -0.246   1.760  0.00  0.00     0.003 A 
ATOM      6  C4  OXE d   1       0.925   0.195   3.056  0.00  0.00    -0.002 A 
ATOM      7  C5  OXE d   1      -0.339   0.712   3.359  0.00  0.00    -0.002 A 
ATOM      8  C6  OXE d   1      -1.301   0.789   2.358  0.00  0.00     0.003 A 
ENDROOT
TORSDOF 0
ENDMDL
