MODEL 1
REMARK minimizedAffinity -3.42786956
REMARK minimizedRMSD -1
REMARK  0 active torsions:
REMARK  status: ('A' for Active; 'I' for Inactive)
ROOT
ATOM      1  C2' OXE d   1       2.097   0.135   1.813  0.00  0.00     0.078 C 
ATOM      2  C1' OXE d   1      -0.351   1.165   2.722  0.00  0.00     0.078 C 
ATOM      3  C1  OXE d   1      -0.327   0.496   1.370  0.00  0.00    -0.078 A 
ATOM      4  C2  OXE d   1       0.884   0.036   0.914  0.00  0.00    -0.078 A 
ATOM      5  C3  OXE d   1       0.952  -0.638  -0.302  0.00  0.00     0.003 A 
ATOM      6  C4  OXE d   1      -0.173  -0.717  -1.133  0.00  0.00    -0.002 A 
ATOM      7  C5  OXE d   1      -1.408  -0.220  -0.704  0.00  0.00    -0.002 A 
ATOM      8  C6  OXE d   1      -1.511   0.350   0.560  0.00  0.00     0.003 A 
ENDROOT
TORSDOF 0
ENDMDL
