MODEL 1
REMARK minimizedAffinity -5.02187681
REMARK minimizedRMSD -1
REMARK  0 active torsions:
REMARK  status: ('A' for Active; 'I' for Inactive)
ROOT
ATOM      1  C2' OXE d   1      -1.557  -0.373  -0.023  0.00  0.00     0.078 C 
ATOM      2  C1' OXE d   1       1.216  -0.806  -0.018  0.00  0.00     0.078 C 
ATOM      3  C1  OXE d   1       0.612  -0.103   1.171  0.00  0.00    -0.078 A 
ATOM      4  C2  OXE d   1      -0.739   0.147   1.139  0.00  0.00    -0.078 A 
ATOM      5  C3  OXE d   1      -1.356   0.744   2.235  0.00  0.00     0.003 A 
ATOM      6  C4  OXE d   1      -0.590   1.231   3.301  0.00  0.00    -0.002 A 
ATOM      7  C5  OXE d   1       0.793   1.023   3.335  0.00  0.00    -0.002 A 
ATOM      8  C6  OXE d   1       1.402   0.322   2.300  0.00  0.00     0.003 A 
ENDROOT
TORSDOF 0
ENDMDL
