MODEL 1
REMARK minimizedAffinity -3.19322968
REMARK minimizedRMSD -1
REMARK  0 active torsions:
REMARK  status: ('A' for Active; 'I' for Inactive)
ROOT
ATOM      1  C2' OXE d   1       2.506   0.349   2.396  0.00  0.00     0.078 C 
ATOM      2  C1' OXE d   1      -0.024   1.473   2.858  0.00  0.00     0.078 C 
ATOM      3  C1  OXE d   1       0.166   0.663   1.601  0.00  0.00    -0.078 A 
ATOM      4  C2  OXE d   1       1.420   0.156   1.359  0.00  0.00    -0.078 A 
ATOM      5  C3  OXE d   1       1.636  -0.645   0.241  0.00  0.00     0.003 A 
ATOM      6  C4  OXE d   1       0.630  -0.810  -0.718  0.00  0.00    -0.002 A 
ATOM      7  C5  OXE d   1      -0.644  -0.269  -0.511  0.00  0.00    -0.002 A 
ATOM      8  C6  OXE d   1      -0.904   0.433   0.661  0.00  0.00     0.003 A 
ENDROOT
TORSDOF 0
ENDMDL
