MODEL 1
REMARK minimizedAffinity -5.55865812
REMARK minimizedRMSD -1
REMARK  0 active torsions:
REMARK  status: ('A' for Active; 'I' for Inactive)
ROOT
ATOM      1  C2' OXE d   1       1.136   0.001  -0.168  0.00  0.00     0.078 C 
ATOM      2  C1' OXE d   1       2.624  -0.502   2.159  0.00  0.00     0.078 C 
ATOM      3  C1  OXE d   1       1.243   0.083   2.319  0.00  0.00    -0.078 A 
ATOM      4  C2  OXE d   1       0.540   0.369   1.173  0.00  0.00    -0.078 A 
ATOM      5  C3  OXE d   1      -0.760   0.858   1.266  0.00  0.00     0.003 A 
ATOM      6  C4  OXE d   1      -1.300   1.204   2.510  0.00  0.00    -0.002 A 
ATOM      7  C5  OXE d   1      -0.586   0.958   3.688  0.00  0.00    -0.002 A 
ATOM      8  C6  OXE d   1       0.667   0.360   3.612  0.00  0.00     0.003 A 
ENDROOT
TORSDOF 0
ENDMDL
