MODEL 1
REMARK minimizedAffinity -4.396245
REMARK minimizedRMSD -1
REMARK  0 active torsions:
REMARK  status: ('A' for Active; 'I' for Inactive)
ROOT
ATOM      1  C2' OXE d   1      -1.903  -2.019   0.153  0.00  0.00     0.078 C 
ATOM      2  C1' OXE d   1       0.295  -0.921  -1.206  0.00  0.00     0.078 C 
ATOM      3  C1  OXE d   1      -0.199  -0.206   0.027  0.00  0.00    -0.078 A 
ATOM      4  C2  OXE d   1      -1.304  -0.724   0.658  0.00  0.00    -0.078 A 
ATOM      5  C3  OXE d   1      -1.767  -0.134   1.831  0.00  0.00     0.003 A 
ATOM      6  C4  OXE d   1      -1.214   1.069   2.286  0.00  0.00    -0.002 A 
ATOM      7  C5  OXE d   1      -0.113   1.635   1.635  0.00  0.00    -0.002 A 
ATOM      8  C6  OXE d   1       0.432   0.989   0.531  0.00  0.00     0.003 A 
ENDROOT
TORSDOF 0
ENDMDL
