MODEL 1
REMARK minimizedAffinity -5.17649937
REMARK minimizedRMSD -1
REMARK  0 active torsions:
REMARK  status: ('A' for Active; 'I' for Inactive)
ROOT
ATOM      1  C2' OXE d   1      -2.341  -0.171  -0.133  0.00  0.00     0.078 C 
ATOM      2  C1' OXE d   1       0.255  -0.702  -1.061  0.00  0.00     0.078 C 
ATOM      3  C1  OXE d   1       0.104  -0.174   0.344  0.00  0.00    -0.078 A 
ATOM      4  C2  OXE d   1      -1.166   0.127   0.774  0.00  0.00    -0.078 A 
ATOM      5  C3  OXE d   1      -1.366   0.565   2.079  0.00  0.00     0.003 A 
ATOM      6  C4  OXE d   1      -0.273   0.848   2.908  0.00  0.00    -0.002 A 
ATOM      7  C5  OXE d   1       1.031   0.586   2.476  0.00  0.00    -0.002 A 
ATOM      8  C6  OXE d   1       1.234   0.036   1.215  0.00  0.00     0.003 A 
ENDROOT
TORSDOF 0
ENDMDL
