MODEL 1
REMARK minimizedAffinity -5.60189629
REMARK minimizedRMSD -1
REMARK  0 active torsions:
REMARK  status: ('A' for Active; 'I' for Inactive)
ROOT
ATOM      1  C2' OXE d   1       0.629  -1.434  -0.655  0.00  0.00     0.078 C 
ATOM      2  C1' OXE d   1      -2.131  -1.057  -0.310  0.00  0.00     0.078 C 
ATOM      3  C1  OXE d   1      -1.202  -0.389   0.673  0.00  0.00    -0.078 A 
ATOM      4  C2  OXE d   1       0.145  -0.617   0.524  0.00  0.00    -0.078 A 
ATOM      5  C3  OXE d   1       1.049   0.019   1.370  0.00  0.00     0.003 A 
ATOM      6  C4  OXE d   1       0.593   0.764   2.464  0.00  0.00    -0.002 A 
ATOM      7  C5  OXE d   1      -0.776   0.976   2.657  0.00  0.00    -0.002 A 
ATOM      8  C6  OXE d   1      -1.683   0.443   1.748  0.00  0.00     0.003 A 
ENDROOT
TORSDOF 0
ENDMDL
