MODEL 1
REMARK minimizedAffinity -3.34983325
REMARK minimizedRMSD -1
REMARK  0 active torsions:
REMARK  status: ('A' for Active; 'I' for Inactive)
ROOT
ATOM      1  C2' OXE d   1      -2.012  -1.500   0.414  0.00  0.00     0.078 C 
ATOM      2  C1' OXE d   1      -1.750  -0.015   2.782  0.00  0.00     0.078 C 
ATOM      3  C1  OXE d   1      -0.575  -0.045   1.837  0.00  0.00    -0.078 A 
ATOM      4  C2  OXE d   1      -0.695  -0.812   0.703  0.00  0.00    -0.078 A 
ATOM      5  C3  OXE d   1       0.338  -0.831  -0.229  0.00  0.00     0.003 A 
ATOM      6  C4  OXE d   1       1.557  -0.200   0.050  0.00  0.00    -0.002 A 
ATOM      7  C5  OXE d   1       1.714   0.554   1.218  0.00  0.00    -0.002 A 
ATOM      8  C6  OXE d   1       0.646   0.676   2.100  0.00  0.00     0.003 A 
ENDROOT
TORSDOF 0
ENDMDL
