MODEL 1
REMARK minimizedAffinity 0.167300522
REMARK minimizedRMSD -1
REMARK  0 active torsions:
REMARK  status: ('A' for Active; 'I' for Inactive)
ROOT
ATOM      1  C2' OXE d   1       1.093  -0.092   2.156  0.00  0.00     0.078 C 
ATOM      2  C1' OXE d   1      -0.930   1.591   3.136  0.00  0.00     0.078 C 
ATOM      3  C1  OXE d   1      -1.260   0.704   1.961  0.00  0.00    -0.078 A 
ATOM      4  C2  OXE d   1      -0.250  -0.082   1.459  0.00  0.00    -0.078 A 
ATOM      5  C3  OXE d   1      -0.516  -0.959   0.411  0.00  0.00     0.003 A 
ATOM      6  C4  OXE d   1      -1.758  -0.936  -0.235  0.00  0.00    -0.002 A 
ATOM      7  C5  OXE d   1      -2.788  -0.114   0.236  0.00  0.00    -0.002 A 
ATOM      8  C6  OXE d   1      -2.569   0.679   1.357  0.00  0.00     0.003 A 
ENDROOT
TORSDOF 0
ENDMDL
