MODEL 1
REMARK minimizedAffinity 6.33763266
REMARK minimizedRMSD -1
REMARK  0 active torsions:
REMARK  status: ('A' for Active; 'I' for Inactive)
ROOT
ATOM      1  C   UNL d   1      -1.764  -1.435   1.491  0.00  0.00     0.020 A 
ATOM      2  C1  UNL d   1      -2.689  -1.066   0.516  0.00  0.00     0.020 A 
ATOM      3  C2  UNL d   1      -2.698  -1.715  -0.720  0.00  0.00     0.034 A 
ATOM      4  C3  UNL d   1      -1.779  -2.737  -0.985  0.00  0.00     0.017 A 
ATOM      5  C4  UNL d   1      -0.850  -3.107  -0.005  0.00  0.00     0.017 A 
ATOM      6  C5  UNL d   1      -0.846  -2.453   1.231  0.00  0.00     0.034 A 
ATOM      7 Cl   UNL d   1       0.315  -4.358  -0.258  0.00  0.00    -0.070 Cl
ATOM      8 Cl1  UNL d   1      -1.846  -3.497  -2.535  0.00  0.00    -0.070 Cl
ENDROOT
TORSDOF 0
ENDMDL
