MODEL 1
REMARK minimizedAffinity -1.0544343
REMARK minimizedRMSD -1
REMARK  0 active torsions:
REMARK  status: ('A' for Active; 'I' for Inactive)
ROOT
ATOM      1  C   UNL d   1       6.000   4.307  -4.108  0.00  0.00     0.020 A 
ATOM      2  C1  UNL d   1       5.565   4.398  -5.429  0.00  0.00     0.020 A 
ATOM      3  C2  UNL d   1       4.823   3.357  -5.993  0.00  0.00     0.034 A 
ATOM      4  C3  UNL d   1       4.515   2.222  -5.235  0.00  0.00     0.017 A 
ATOM      5  C4  UNL d   1       4.952   2.132  -3.909  0.00  0.00     0.017 A 
ATOM      6  C5  UNL d   1       5.694   3.176  -3.350  0.00  0.00     0.034 A 
ATOM      7 Cl   UNL d   1       4.611   0.762  -2.911  0.00  0.00    -0.070 Cl
ATOM      8 Cl1  UNL d   1       3.594   0.973  -5.997  0.00  0.00    -0.070 Cl
ENDROOT
TORSDOF 0
ENDMDL
