MODEL 1
REMARK minimizedAffinity 3.59634519
REMARK minimizedRMSD -1
REMARK  0 active torsions:
REMARK  status: ('A' for Active; 'I' for Inactive)
ROOT
ATOM      1  C   UNL d   1      -1.126  -2.614  -5.565  0.00  0.00     0.020 A 
ATOM      2  C1  UNL d   1      -2.201  -3.389  -6.000  0.00  0.00     0.020 A 
ATOM      3  C2  UNL d   1      -3.101  -3.918  -5.072  0.00  0.00     0.034 A 
ATOM      4  C3  UNL d   1      -2.928  -3.671  -3.705  0.00  0.00     0.017 A 
ATOM      5  C4  UNL d   1      -1.850  -2.892  -3.270  0.00  0.00     0.017 A 
ATOM      6  C5  UNL d   1      -0.951  -2.366  -4.203  0.00  0.00     0.034 A 
ATOM      7 Cl   UNL d   1      -1.571  -2.545  -1.600  0.00  0.00    -0.070 Cl
ATOM      8 Cl1  UNL d   1      -4.080  -4.355  -2.614  0.00  0.00    -0.070 Cl
ENDROOT
TORSDOF 0
ENDMDL
