MODEL 1
REMARK minimizedAffinity 8.69036865
REMARK minimizedRMSD -1
REMARK  0 active torsions:
REMARK  status: ('A' for Active; 'I' for Inactive)
ROOT
ATOM      1  C   UNL d   1      -2.418  -1.874  -2.063  0.00  0.00     0.020 A 
ATOM      2  C1  UNL d   1      -1.858  -2.951  -2.750  0.00  0.00     0.020 A 
ATOM      3  C2  UNL d   1      -0.954  -3.796  -2.103  0.00  0.00     0.034 A 
ATOM      4  C3  UNL d   1      -0.607  -3.567  -0.767  0.00  0.00     0.017 A 
ATOM      5  C4  UNL d   1      -1.170  -2.486  -0.079  0.00  0.00     0.017 A 
ATOM      6  C5  UNL d   1      -2.075  -1.642  -0.731  0.00  0.00     0.034 A 
ATOM      7 Cl   UNL d   1      -0.791  -2.138   1.571  0.00  0.00    -0.070 Cl
ATOM      8 Cl1  UNL d   1       0.517  -4.653  -0.030  0.00  0.00    -0.070 Cl
ENDROOT
TORSDOF 0
ENDMDL
