MODEL 1
REMARK minimizedAffinity -0.0027196873
REMARK minimizedRMSD -1
REMARK  0 active torsions:
REMARK  status: ('A' for Active; 'I' for Inactive)
ROOT
ATOM      1  C   UNL d   1       5.473   1.366  -5.977  0.00  0.00     0.020 A 
ATOM      2  C1  UNL d   1       4.092   1.177  -5.981  0.00  0.00     0.020 A 
ATOM      3  C2  UNL d   1       3.236   2.281  -5.988  0.00  0.00     0.034 A 
ATOM      4  C3  UNL d   1       3.761   3.578  -5.990  0.00  0.00     0.017 A 
ATOM      5  C4  UNL d   1       5.148   3.767  -5.986  0.00  0.00     0.017 A 
ATOM      6  C5  UNL d   1       6.000   2.659  -5.980  0.00  0.00     0.034 A 
ATOM      7 Cl   UNL d   1       5.869   5.338  -5.988  0.00  0.00    -0.070 Cl
ATOM      8 Cl1  UNL d   1       2.644   4.896  -5.998  0.00  0.00    -0.070 Cl
ENDROOT
TORSDOF 0
ENDMDL
