MODEL 1
REMARK minimizedAffinity 5.94826937
REMARK minimizedRMSD -1
REMARK  0 active torsions:
REMARK  status: ('A' for Active; 'I' for Inactive)
ROOT
ATOM      1  C   UNL d   1       0.469  -4.360   0.537  0.00  0.00     0.020 A 
ATOM      2  C1  UNL d   1       0.366  -2.971   0.471  0.00  0.00     0.020 A 
ATOM      3  C2  UNL d   1      -0.298  -2.271   1.481  0.00  0.00     0.034 A 
ATOM      4  C3  UNL d   1      -0.862  -2.961   2.561  0.00  0.00     0.017 A 
ATOM      5  C4  UNL d   1      -0.759  -4.355   2.626  0.00  0.00     0.017 A 
ATOM      6  C5  UNL d   1      -0.092  -5.050   1.612  0.00  0.00     0.034 A 
ATOM      7 Cl   UNL d   1      -1.429  -5.275   3.926  0.00  0.00    -0.070 Cl
ATOM      8 Cl1  UNL d   1      -1.668  -2.032   3.774  0.00  0.00    -0.070 Cl
ENDROOT
TORSDOF 0
ENDMDL
