MODEL 1
REMARK minimizedAffinity 12.7915545
REMARK minimizedRMSD -1
REMARK  0 active torsions:
REMARK  status: ('A' for Active; 'I' for Inactive)
ROOT
ATOM      1  C   UNL d   1       1.901   5.549  -4.896  0.00  0.00     0.020 A 
ATOM      2  C1  UNL d   1       1.736   4.714  -6.000  0.00  0.00     0.020 A 
ATOM      3  C2  UNL d   1       2.302   3.437  -6.000  0.00  0.00     0.034 A 
ATOM      4  C3  UNL d   1       3.035   2.992  -4.894  0.00  0.00     0.017 A 
ATOM      5  C4  UNL d   1       3.199   3.831  -3.786  0.00  0.00     0.017 A 
ATOM      6  C5  UNL d   1       2.631   5.109  -3.791  0.00  0.00     0.034 A 
ATOM      7 Cl   UNL d   1       4.090   3.352  -2.384  0.00  0.00    -0.070 Cl
ATOM      8 Cl1  UNL d   1       3.706   1.401  -4.962  0.00  0.00    -0.070 Cl
ENDROOT
TORSDOF 0
ENDMDL
