MODEL 1
REMARK minimizedAffinity 6.44327545
REMARK minimizedRMSD -1
REMARK  0 active torsions:
REMARK  status: ('A' for Active; 'I' for Inactive)
ROOT
ATOM      1  C   UNL d   1      -1.394  -2.633  -2.733  0.00  0.00     0.020 A 
ATOM      2  C1  UNL d   1      -2.157  -1.736  -1.986  0.00  0.00     0.020 A 
ATOM      3  C2  UNL d   1      -1.957  -1.628  -0.608  0.00  0.00     0.034 A 
ATOM      4  C3  UNL d   1      -0.992  -2.418   0.028  0.00  0.00     0.017 A 
ATOM      5  C4  UNL d   1      -0.227  -3.318  -0.723  0.00  0.00     0.017 A 
ATOM      6  C5  UNL d   1      -0.431  -3.422  -2.102  0.00  0.00     0.034 A 
ATOM      7 Cl   UNL d   1       0.982  -4.326  -0.010  0.00  0.00    -0.070 Cl
ATOM      8 Cl1  UNL d   1      -0.799  -2.233   1.735  0.00  0.00    -0.070 Cl
ENDROOT
TORSDOF 0
ENDMDL
