MODEL 1
REMARK minimizedAffinity 5.69944143
REMARK minimizedRMSD -1
REMARK  0 active torsions:
REMARK  status: ('A' for Active; 'I' for Inactive)
ROOT
ATOM      1  C   UNL d   1      -2.217  -1.886  -2.396  0.00  0.00     0.020 A 
ATOM      2  C1  UNL d   1      -1.741  -3.057  -2.984  0.00  0.00     0.020 A 
ATOM      3  C2  UNL d   1      -0.903  -3.910  -2.262  0.00  0.00     0.034 A 
ATOM      4  C3  UNL d   1      -0.537  -3.592  -0.949  0.00  0.00     0.017 A 
ATOM      5  C4  UNL d   1      -1.015  -2.416  -0.360  0.00  0.00     0.017 A 
ATOM      6  C5  UNL d   1      -1.854  -1.566  -1.087  0.00  0.00     0.034 A 
ATOM      7 Cl   UNL d   1      -0.608  -1.957   1.256  0.00  0.00    -0.070 Cl
ATOM      8 Cl1  UNL d   1       0.503  -4.692  -0.116  0.00  0.00    -0.070 Cl
ENDROOT
TORSDOF 0
ENDMDL
