MODEL 1
REMARK minimizedAffinity 9.60473824
REMARK minimizedRMSD -1
REMARK  0 active torsions:
REMARK  status: ('A' for Active; 'I' for Inactive)
ROOT
ATOM      1  C   UNL d   1      -2.755  -2.845  -6.000  0.00  0.00     0.020 A 
ATOM      2  C1  UNL d   1      -2.110  -4.082  -6.000  0.00  0.00     0.020 A 
ATOM      3  C2  UNL d   1      -1.491  -4.547  -4.838  0.00  0.00     0.034 A 
ATOM      4  C3  UNL d   1      -1.515  -3.775  -3.670  0.00  0.00     0.017 A 
ATOM      5  C4  UNL d   1      -2.163  -2.534  -3.671  0.00  0.00     0.017 A 
ATOM      6  C5  UNL d   1      -2.781  -2.073  -4.838  0.00  0.00     0.034 A 
ATOM      7 Cl   UNL d   1      -2.235  -1.525  -2.269  0.00  0.00    -0.070 Cl
ATOM      8 Cl1  UNL d   1      -0.730  -4.412  -2.269  0.00  0.00    -0.070 Cl
ENDROOT
TORSDOF 0
ENDMDL
