MODEL 1
REMARK minimizedAffinity 10.2991953
REMARK minimizedRMSD -1
REMARK  0 active torsions:
REMARK  status: ('A' for Active; 'I' for Inactive)
ROOT
ATOM      1  C   UNL d   1      -1.568  -1.915   2.166  0.00  0.00     0.020 A 
ATOM      2  C1  UNL d   1      -2.647  -1.593   1.343  0.00  0.00     0.020 A 
ATOM      3  C2  UNL d   1      -2.535  -1.733  -0.042  0.00  0.00     0.034 A 
ATOM      4  C3  UNL d   1      -1.342  -2.195  -0.608  0.00  0.00     0.017 A 
ATOM      5  C4  UNL d   1      -0.260  -2.517   0.218  0.00  0.00     0.017 A 
ATOM      6  C5  UNL d   1      -0.377  -2.376   1.604  0.00  0.00     0.034 A 
ATOM      7 Cl   UNL d   1       1.245  -3.093  -0.408  0.00  0.00    -0.070 Cl
ATOM      8 Cl1  UNL d   1      -1.274  -2.343  -2.329  0.00  0.00    -0.070 Cl
ENDROOT
TORSDOF 0
ENDMDL
