MODEL 1
REMARK minimizedAffinity 9.55833817
REMARK minimizedRMSD -1
REMARK  0 active torsions:
REMARK  status: ('A' for Active; 'I' for Inactive)
ROOT
ATOM      1  C   UNL d   1      -2.432  -2.973  -6.000  0.00  0.00     0.020 A 
ATOM      2  C1  UNL d   1      -1.286  -2.283  -5.606  0.00  0.00     0.020 A 
ATOM      3  C2  UNL d   1      -1.023  -2.083  -4.249  0.00  0.00     0.034 A 
ATOM      4  C3  UNL d   1      -1.908  -2.572  -3.281  0.00  0.00     0.017 A 
ATOM      5  C4  UNL d   1      -3.058  -3.264  -3.678  0.00  0.00     0.017 A 
ATOM      6  C5  UNL d   1      -3.316  -3.462  -5.038  0.00  0.00     0.034 A 
ATOM      7 Cl   UNL d   1      -4.196  -3.898  -2.542  0.00  0.00    -0.070 Cl
ATOM      8 Cl1  UNL d   1      -1.521  -2.288  -1.622  0.00  0.00    -0.070 Cl
ENDROOT
TORSDOF 0
ENDMDL
