MODEL 1
REMARK minimizedAffinity 10.3541422
REMARK minimizedRMSD -1
REMARK  0 active torsions:
REMARK  status: ('A' for Active; 'I' for Inactive)
ROOT
ATOM      1  C   UNL d   1      -3.633  -2.840  -6.000  0.00  0.00     0.020 A 
ATOM      2  C1  UNL d   1      -2.278  -2.568  -5.819  0.00  0.00     0.020 A 
ATOM      3  C2  UNL d   1      -1.701  -2.703  -4.555  0.00  0.00     0.034 A 
ATOM      4  C3  UNL d   1      -2.480  -3.111  -3.466  0.00  0.00     0.017 A 
ATOM      5  C4  UNL d   1      -3.840  -3.385  -3.648  0.00  0.00     0.017 A 
ATOM      6  C5  UNL d   1      -4.413  -3.248  -4.916  0.00  0.00     0.034 A 
ATOM      7 Cl   UNL d   1      -4.865  -3.893  -2.352  0.00  0.00    -0.070 Cl
ATOM      8 Cl1  UNL d   1      -1.700  -3.258  -1.930  0.00  0.00    -0.070 Cl
ENDROOT
TORSDOF 0
ENDMDL
