MODEL 1
REMARK minimizedAffinity 7.05134249
REMARK minimizedRMSD -1
REMARK  0 active torsions:
REMARK  status: ('A' for Active; 'I' for Inactive)
ROOT
ATOM      1  C   UNL d   1      -2.232  -3.960  -5.999  0.00  0.00     0.020 A 
ATOM      2  C1  UNL d   1      -2.448  -2.586  -5.907  0.00  0.00     0.020 A 
ATOM      3  C2  UNL d   1      -2.397  -1.953  -4.664  0.00  0.00     0.034 A 
ATOM      4  C3  UNL d   1      -2.130  -2.694  -3.507  0.00  0.00     0.017 A 
ATOM      5  C4  UNL d   1      -1.913  -4.073  -3.600  0.00  0.00     0.017 A 
ATOM      6  C5  UNL d   1      -1.965  -4.702  -4.848  0.00  0.00     0.034 A 
ATOM      7 Cl   UNL d   1      -1.578  -5.054  -2.217  0.00  0.00    -0.070 Cl
ATOM      8 Cl1  UNL d   1      -2.082  -1.846  -2.002  0.00  0.00    -0.070 Cl
ENDROOT
TORSDOF 0
ENDMDL
