MODEL 1
REMARK minimizedAffinity 2.5552001
REMARK minimizedRMSD -1
REMARK  0 active torsions:
REMARK  status: ('A' for Active; 'I' for Inactive)
ROOT
ATOM      1  C   UNL d   1       5.994  -0.469  -5.275  0.00  0.00     0.020 A 
ATOM      2  C1  UNL d   1       4.989   0.342  -5.800  0.00  0.00     0.020 A 
ATOM      3  C2  UNL d   1       3.707  -0.176  -5.999  0.00  0.00     0.034 A 
ATOM      4  C3  UNL d   1       3.428  -1.508  -5.674  0.00  0.00     0.017 A 
ATOM      5  C4  UNL d   1       4.438  -2.321  -5.148  0.00  0.00     0.017 A 
ATOM      6  C5  UNL d   1       5.719  -1.797  -4.950  0.00  0.00     0.034 A 
ATOM      7 Cl   UNL d   1       4.170  -3.975  -4.722  0.00  0.00    -0.070 Cl
ATOM      8 Cl1  UNL d   1       1.821  -2.082  -5.947  0.00  0.00    -0.070 Cl
ENDROOT
TORSDOF 0
ENDMDL
