MODEL 1
REMARK minimizedAffinity 7.26876688
REMARK minimizedRMSD -1
REMARK  0 active torsions:
REMARK  status: ('A' for Active; 'I' for Inactive)
ROOT
ATOM      1  C   UNL d   1      -0.604   4.613  -0.511  0.00  0.00     0.020 A 
ATOM      2  C1  UNL d   1      -0.589   5.234   0.737  0.00  0.00     0.020 A 
ATOM      3  C2  UNL d   1       0.626   5.488   1.376  0.00  0.00     0.034 A 
ATOM      4  C3  UNL d   1       1.832   5.121   0.767  0.00  0.00     0.017 A 
ATOM      5  C4  UNL d   1       1.816   4.497  -0.485  0.00  0.00     0.017 A 
ATOM      6  C5  UNL d   1       0.596   4.245  -1.121  0.00  0.00     0.034 A 
ATOM      7 Cl   UNL d   1       3.263   4.015  -1.299  0.00  0.00    -0.070 Cl
ATOM      8 Cl1  UNL d   1       3.298   5.466   1.615  0.00  0.00    -0.070 Cl
ENDROOT
TORSDOF 0
ENDMDL
