MODEL 1
REMARK minimizedAffinity 7.22561836
REMARK minimizedRMSD -1
REMARK  0 active torsions:
REMARK  status: ('A' for Active; 'I' for Inactive)
ROOT
ATOM      1  C   UNL d   1      -1.584  -3.715  -5.999  0.00  0.00     0.020 A 
ATOM      2  C1  UNL d   1      -0.580  -2.819  -5.635  0.00  0.00     0.020 A 
ATOM      3  C2  UNL d   1      -0.546  -2.297  -4.340  0.00  0.00     0.034 A 
ATOM      4  C3  UNL d   1      -1.517  -2.672  -3.404  0.00  0.00     0.017 A 
ATOM      5  C4  UNL d   1      -2.525  -3.571  -3.771  0.00  0.00     0.017 A 
ATOM      6  C5  UNL d   1      -2.554  -4.090  -5.069  0.00  0.00     0.034 A 
ATOM      7 Cl   UNL d   1      -3.758  -4.080  -2.671  0.00  0.00    -0.070 Cl
ATOM      8 Cl1  UNL d   1      -1.413  -1.988  -1.821  0.00  0.00    -0.070 Cl
ENDROOT
TORSDOF 0
ENDMDL
