MODEL 1
REMARK minimizedAffinity 0.24016805
REMARK minimizedRMSD -1
REMARK  1 active torsions:
REMARK  status: ('A' for Active; 'I' for Inactive)
REMARK    1  A    between atoms: C3_4  and  O_7 
ROOT
ATOM      1  C   UNL d   1      -2.336  -2.455   2.588  0.00  0.00    -0.033 A 
ATOM      2  C1  UNL d   1      -2.336  -1.965   1.280  0.00  0.00     0.039 A 
ATOM      3  C2  UNL d   1      -1.342  -1.077   0.865  0.00  0.00    -0.080 A 
ATOM      4  C3  UNL d   1      -0.354  -0.688   1.765  0.00  0.00     0.150 A 
ATOM      5  C4  UNL d   1      -0.345  -1.175   3.068  0.00  0.00    -0.007 A 
ATOM      6  C5  UNL d   1      -1.339  -2.061   3.481  0.00  0.00     0.039 A 
ENDROOT
BRANCH   4   7
ATOM      7  O   UNL d   1       0.634   0.180   1.407  0.00  0.00    -0.526 OA
ATOM      8  H5  UNL d   1       0.484   0.455   0.487  0.00  0.00     0.418 HD
ENDBRANCH   4   7
TORSDOF 1
ENDMDL
