MODEL 1
REMARK minimizedAffinity -3.92164469
REMARK minimizedRMSD -1
REMARK  1 active torsions:
REMARK  status: ('A' for Active; 'I' for Inactive)
REMARK    1  A    between atoms: C3_4  and  O_7 
ROOT
ATOM      1  C   UNL d   1      -3.848  -4.975  -4.323  0.00  0.00    -0.033 A 
ATOM      2  C1  UNL d   1      -5.200  -4.668  -4.151  0.00  0.00     0.039 A 
ATOM      3  C2  UNL d   1      -5.729  -3.503  -4.711  0.00  0.00    -0.080 A 
ATOM      4  C3  UNL d   1      -4.898  -2.656  -5.439  0.00  0.00     0.150 A 
ATOM      5  C4  UNL d   1      -3.552  -2.958  -5.617  0.00  0.00    -0.007 A 
ATOM      6  C5  UNL d   1      -3.025  -4.121  -5.057  0.00  0.00     0.039 A 
ENDROOT
BRANCH   4   7
ATOM      7  O   UNL d   1      -5.368  -1.506  -6.000  0.00  0.00    -0.526 OA
ATOM      8  H5  UNL d   1      -6.307  -1.413  -5.770  0.00  0.00     0.418 HD
ENDBRANCH   4   7
TORSDOF 1
ENDMDL
