MODEL 1
REMARK minimizedAffinity -3.7704556
REMARK minimizedRMSD -1
REMARK  1 active torsions:
REMARK  status: ('A' for Active; 'I' for Inactive)
REMARK    1  A    between atoms: C3_4  and  O_7 
ROOT
ATOM      1  C   UNL d   1      -4.125  -4.802  -4.123  0.00  0.00    -0.033 A 
ATOM      2  C1  UNL d   1      -5.354  -4.738  -4.782  0.00  0.00     0.039 A 
ATOM      3  C2  UNL d   1      -5.992  -3.508  -4.956  0.00  0.00    -0.080 A 
ATOM      4  C3  UNL d   1      -5.390  -2.351  -4.467  0.00  0.00     0.150 A 
ATOM      5  C4  UNL d   1      -4.164  -2.407  -3.813  0.00  0.00    -0.007 A 
ATOM      6  C5  UNL d   1      -3.529  -3.637  -3.640  0.00  0.00     0.039 A 
ENDROOT
BRANCH   4   7
ATOM      7  O   UNL d   1      -5.976  -1.129  -4.609  0.00  0.00    -0.526 OA
ATOM      8  H5  UNL d   1      -6.832  -1.247  -5.054  0.00  0.00     0.418 HD
ENDBRANCH   4   7
TORSDOF 1
ENDMDL
