MODEL 1
REMARK minimizedAffinity -3.15702152
REMARK minimizedRMSD -1
REMARK  1 active torsions:
REMARK  status: ('A' for Active; 'I' for Inactive)
REMARK    1  A    between atoms: C3_4  and  O_7 
ROOT
ATOM      1  C   UNL d   1      -5.953  -2.823  -4.491  0.00  0.00    -0.033 A 
ATOM      2  C1  UNL d   1      -5.327  -3.396  -3.382  0.00  0.00     0.039 A 
ATOM      3  C2  UNL d   1      -4.163  -4.149  -3.547  0.00  0.00    -0.080 A 
ATOM      4  C3  UNL d   1      -3.635  -4.320  -4.824  0.00  0.00     0.150 A 
ATOM      5  C4  UNL d   1      -4.251  -3.748  -5.932  0.00  0.00    -0.007 A 
ATOM      6  C5  UNL d   1      -5.414  -2.997  -5.766  0.00  0.00     0.039 A 
ENDROOT
BRANCH   4   7
ATOM      7  O   UNL d   1      -2.504  -5.051  -5.035  0.00  0.00    -0.526 OA
ATOM      8  H5  UNL d   1      -2.205  -5.409  -4.183  0.00  0.00     0.418 HD
ENDBRANCH   4   7
TORSDOF 1
ENDMDL
