MODEL 1
REMARK minimizedAffinity -3.84546995
REMARK minimizedRMSD -1
REMARK  1 active torsions:
REMARK  status: ('A' for Active; 'I' for Inactive)
REMARK    1  A    between atoms: C3_4  and  O_7 
ROOT
ATOM      1  C   UNL d   1      -4.861  -2.340  -5.288  0.00  0.00    -0.033 A 
ATOM      2  C1  UNL d   1      -5.351  -3.019  -4.171  0.00  0.00     0.039 A 
ATOM      3  C2  UNL d   1      -4.761  -4.217  -3.765  0.00  0.00    -0.080 A 
ATOM      4  C3  UNL d   1      -3.682  -4.725  -4.483  0.00  0.00     0.150 A 
ATOM      5  C4  UNL d   1      -3.186  -4.052  -5.595  0.00  0.00    -0.007 A 
ATOM      6  C5  UNL d   1      -3.777  -2.856  -5.999  0.00  0.00     0.039 A 
ENDROOT
BRANCH   4   7
ATOM      7  O   UNL d   1      -3.076  -5.894  -4.128  0.00  0.00    -0.526 OA
ATOM      8  H5  UNL d   1      -3.543  -6.261  -3.360  0.00  0.00     0.418 HD
ENDBRANCH   4   7
TORSDOF 1
ENDMDL
