MODEL 1
REMARK minimizedAffinity -3.43383789
REMARK minimizedRMSD -1
REMARK  1 active torsions:
REMARK  status: ('A' for Active; 'I' for Inactive)
REMARK    1  A    between atoms: C3_4  and  O_7 
ROOT
ATOM      1  C   UNL d   1      -5.750  -3.628  -3.387  0.00  0.00    -0.033 A 
ATOM      2  C1  UNL d   1      -4.572  -3.000  -3.799  0.00  0.00     0.039 A 
ATOM      3  C2  UNL d   1      -3.641  -3.698  -4.570  0.00  0.00    -0.080 A 
ATOM      4  C3  UNL d   1      -3.898  -5.020  -4.923  0.00  0.00     0.150 A 
ATOM      5  C4  UNL d   1      -5.071  -5.650  -4.519  0.00  0.00    -0.007 A 
ATOM      6  C5  UNL d   1      -6.000  -4.952  -3.748  0.00  0.00     0.039 A 
ENDROOT
BRANCH   4   7
ATOM      7  O   UNL d   1      -3.017  -5.743  -5.670  0.00  0.00    -0.526 OA
ATOM      8  H5  UNL d   1      -2.240  -5.189  -5.851  0.00  0.00     0.418 HD
ENDBRANCH   4   7
TORSDOF 1
ENDMDL
