MODEL 1
REMARK minimizedAffinity -3.79923368
REMARK minimizedRMSD -1
REMARK  1 active torsions:
REMARK  status: ('A' for Active; 'I' for Inactive)
REMARK    1  A    between atoms: C3_4  and  O_7 
ROOT
ATOM      1  C   UNL d   1      -5.233  -3.940  -4.798  0.00  0.00    -0.033 A 
ATOM      2  C1  UNL d   1      -4.902  -5.223  -4.359  0.00  0.00     0.039 A 
ATOM      3  C2  UNL d   1      -3.611  -5.719  -4.557  0.00  0.00    -0.080 A 
ATOM      4  C3  UNL d   1      -2.663  -4.923  -5.192  0.00  0.00     0.150 A 
ATOM      5  C4  UNL d   1      -2.985  -3.642  -5.629  0.00  0.00    -0.007 A 
ATOM      6  C5  UNL d   1      -4.274  -3.149  -5.432  0.00  0.00     0.039 A 
ENDROOT
BRANCH   4   7
ATOM      7  O   UNL d   1      -1.392  -5.365  -5.411  0.00  0.00    -0.526 OA
ATOM      8  H5  UNL d   1      -1.323  -6.277  -5.083  0.00  0.00     0.418 HD
ENDBRANCH   4   7
TORSDOF 1
ENDMDL
