MODEL 1
REMARK minimizedAffinity -4.11006308
REMARK minimizedRMSD -1
REMARK  1 active torsions:
REMARK  status: ('A' for Active; 'I' for Inactive)
REMARK    1  A    between atoms: C3_4  and  O_7 
ROOT
ATOM      1  C   UNL d   1      -5.754  -3.446  -4.291  0.00  0.00    -0.033 A 
ATOM      2  C1  UNL d   1      -5.126  -4.591  -3.795  0.00  0.00     0.039 A 
ATOM      3  C2  UNL d   1      -3.794  -4.855  -4.119  0.00  0.00    -0.080 A 
ATOM      4  C3  UNL d   1      -3.101  -3.967  -4.938  0.00  0.00     0.150 A 
ATOM      5  C4  UNL d   1      -3.719  -2.822  -5.432  0.00  0.00    -0.007 A 
ATOM      6  C5  UNL d   1      -5.049  -2.561  -5.108  0.00  0.00     0.039 A 
ENDROOT
BRANCH   4   7
ATOM      7  O   UNL d   1      -1.801  -4.184  -5.285  0.00  0.00    -0.526 OA
ATOM      8  H5  UNL d   1      -1.515  -5.027  -4.894  0.00  0.00     0.418 HD
ENDBRANCH   4   7
TORSDOF 1
ENDMDL
