MODEL 1
REMARK minimizedAffinity -3.72853565
REMARK minimizedRMSD -1
REMARK  1 active torsions:
REMARK  status: ('A' for Active; 'I' for Inactive)
REMARK    1  A    between atoms: C3_4  and  O_7 
ROOT
ATOM      1  C   UNL d   1      -5.477  -4.864  -4.786  0.00  0.00    -0.033 A 
ATOM      2  C1  UNL d   1      -4.715  -3.729  -4.504  0.00  0.00     0.039 A 
ATOM      3  C2  UNL d   1      -3.342  -3.728  -4.756  0.00  0.00    -0.080 A 
ATOM      4  C3  UNL d   1      -2.744  -4.867  -5.289  0.00  0.00     0.150 A 
ATOM      5  C4  UNL d   1      -3.498  -6.000  -5.575  0.00  0.00    -0.007 A 
ATOM      6  C5  UNL d   1      -4.869  -5.999  -5.323  0.00  0.00     0.039 A 
ENDROOT
BRANCH   4   7
ATOM      7  O   UNL d   1      -1.406  -4.915  -5.547  0.00  0.00    -0.526 OA
ATOM      8  H5  UNL d   1      -1.009  -4.071  -5.272  0.00  0.00     0.418 HD
ENDBRANCH   4   7
TORSDOF 1
ENDMDL
