MODEL 1
REMARK minimizedAffinity -3.4068706
REMARK minimizedRMSD -1
REMARK  1 active torsions:
REMARK  status: ('A' for Active; 'I' for Inactive)
REMARK    1  A    between atoms: C3_4  and  O_7 
ROOT
ATOM      1  C   UNL d   1      -5.999  -2.848  -4.463  0.00  0.00    -0.033 A 
ATOM      2  C1  UNL d   1      -6.000  -3.741  -5.536  0.00  0.00     0.039 A 
ATOM      3  C2  UNL d   1      -5.102  -4.810  -5.557  0.00  0.00    -0.080 A 
ATOM      4  C3  UNL d   1      -4.210  -4.975  -4.500  0.00  0.00     0.150 A 
ATOM      5  C4  UNL d   1      -4.207  -4.090  -3.427  0.00  0.00    -0.007 A 
ATOM      6  C5  UNL d   1      -5.104  -3.023  -3.408  0.00  0.00     0.039 A 
ENDROOT
BRANCH   4   7
ATOM      7  O   UNL d   1      -3.312  -6.000  -4.479  0.00  0.00    -0.526 OA
ATOM      8  H5  UNL d   1      -3.410  -6.513  -5.298  0.00  0.00     0.418 HD
ENDBRANCH   4   7
TORSDOF 1
ENDMDL
