MODEL 1
REMARK minimizedAffinity -3.58167458
REMARK minimizedRMSD -1
REMARK  1 active torsions:
REMARK  status: ('A' for Active; 'I' for Inactive)
REMARK    1  A    between atoms: C3_4  and  O_7 
ROOT
ATOM      1  C   UNL d   1      -5.994  -4.179  -4.701  0.00  0.00    -0.033 A 
ATOM      2  C1  UNL d   1      -5.997  -5.226  -5.625  0.00  0.00     0.039 A 
ATOM      3  C2  UNL d   1      -4.800  -5.852  -5.977  0.00  0.00    -0.080 A 
ATOM      4  C3  UNL d   1      -3.609  -5.423  -5.399  0.00  0.00     0.150 A 
ATOM      5  C4  UNL d   1      -3.599  -4.383  -4.475  0.00  0.00    -0.007 A 
ATOM      6  C5  UNL d   1      -4.795  -3.758  -4.125  0.00  0.00     0.039 A 
ENDROOT
BRANCH   4   7
ATOM      7  O   UNL d   1      -2.415  -6.000  -5.715  0.00  0.00    -0.526 OA
ATOM      8  H5  UNL d   1      -2.572  -6.684  -6.387  0.00  0.00     0.418 HD
ENDBRANCH   4   7
TORSDOF 1
ENDMDL
