MODEL 1
REMARK minimizedAffinity -3.87548661
REMARK minimizedRMSD -1
REMARK  1 active torsions:
REMARK  status: ('A' for Active; 'I' for Inactive)
REMARK    1  A    between atoms: C3_4  and  O_7 
ROOT
ATOM      1  C   UNL d   1      -5.267  -2.360  -5.522  0.00  0.00    -0.033 A 
ATOM      2  C1  UNL d   1      -6.000  -3.140  -4.625  0.00  0.00     0.039 A 
ATOM      3  C2  UNL d   1      -5.491  -4.362  -4.182  0.00  0.00    -0.080 A 
ATOM      4  C3  UNL d   1      -4.250  -4.793  -4.644  0.00  0.00     0.150 A 
ATOM      5  C4  UNL d   1      -3.513  -4.020  -5.535  0.00  0.00    -0.007 A 
ATOM      6  C5  UNL d   1      -4.023  -2.800  -5.976  0.00  0.00     0.039 A 
ENDROOT
BRANCH   4   7
ATOM      7  O   UNL d   1      -3.715  -5.981  -4.244  0.00  0.00    -0.526 OA
ATOM      8  H5  UNL d   1      -4.348  -6.420  -3.651  0.00  0.00     0.418 HD
ENDBRANCH   4   7
TORSDOF 1
ENDMDL
