MODEL 1
REMARK minimizedAffinity -3.15546703
REMARK minimizedRMSD -1
REMARK  1 active torsions:
REMARK  status: ('A' for Active; 'I' for Inactive)
REMARK    1  A    between atoms: C3_4  and  O_7 
ROOT
ATOM      1  C   UNL d   1      -5.766  -4.474  -5.264  0.00  0.00    -0.033 A 
ATOM      2  C1  UNL d   1      -5.375  -5.598  -5.994  0.00  0.00     0.039 A 
ATOM      3  C2  UNL d   1      -4.038  -6.000  -5.998  0.00  0.00    -0.080 A 
ATOM      4  C3  UNL d   1      -3.104  -5.270  -5.268  0.00  0.00     0.150 A 
ATOM      5  C4  UNL d   1      -3.487  -4.152  -4.536  0.00  0.00    -0.007 A 
ATOM      6  C5  UNL d   1      -4.822  -3.752  -4.534  0.00  0.00     0.039 A 
ENDROOT
BRANCH   4   7
ATOM      7  O   UNL d   1      -1.786  -5.621  -5.246  0.00  0.00    -0.526 OA
ATOM      8  H5  UNL d   1      -1.664  -6.396  -5.820  0.00  0.00     0.418 HD
ENDBRANCH   4   7
TORSDOF 1
ENDMDL
