MODEL 1
REMARK minimizedAffinity -3.54612374
REMARK minimizedRMSD -1
REMARK  1 active torsions:
REMARK  status: ('A' for Active; 'I' for Inactive)
REMARK    1  A    between atoms: C3_4  and  O_7 
ROOT
ATOM      1  C   UNL d   1      -5.167  -3.001  -5.245  0.00  0.00    -0.033 A 
ATOM      2  C1  UNL d   1      -4.982  -4.166  -4.498  0.00  0.00     0.039 A 
ATOM      3  C2  UNL d   1      -3.744  -4.811  -4.502  0.00  0.00    -0.080 A 
ATOM      4  C3  UNL d   1      -2.700  -4.281  -5.256  0.00  0.00     0.150 A 
ATOM      5  C4  UNL d   1      -2.876  -3.119  -5.999  0.00  0.00    -0.007 A 
ATOM      6  C5  UNL d   1      -4.113  -2.477  -5.995  0.00  0.00     0.039 A 
ENDROOT
BRANCH   4   7
ATOM      7  O   UNL d   1      -1.475  -4.878  -5.295  0.00  0.00    -0.526 OA
ATOM      8  H5  UNL d   1      -1.509  -5.686  -4.757  0.00  0.00     0.418 HD
ENDBRANCH   4   7
TORSDOF 1
ENDMDL
