MODEL 1
REMARK minimizedAffinity -3.77281451
REMARK minimizedRMSD -1
REMARK  1 active torsions:
REMARK  status: ('A' for Active; 'I' for Inactive)
REMARK    1  A    between atoms: C3_4  and  O_7 
ROOT
ATOM      1  C   UNL d   1      -5.260  -2.452  -5.590  0.00  0.00    -0.033 A 
ATOM      2  C1  UNL d   1      -3.941  -2.691  -5.980  0.00  0.00     0.039 A 
ATOM      3  C2  UNL d   1      -3.300  -3.870  -5.596  0.00  0.00    -0.080 A 
ATOM      4  C3  UNL d   1      -3.989  -4.802  -4.825  0.00  0.00     0.150 A 
ATOM      5  C4  UNL d   1      -5.305  -4.572  -4.436  0.00  0.00    -0.007 A 
ATOM      6  C5  UNL d   1      -5.943  -3.393  -4.819  0.00  0.00     0.039 A 
ENDROOT
BRANCH   4   7
ATOM      7  O   UNL d   1      -3.404  -5.966  -4.422  0.00  0.00    -0.526 OA
ATOM      8  H5  UNL d   1      -2.486  -5.975  -4.740  0.00  0.00     0.418 HD
ENDBRANCH   4   7
TORSDOF 1
ENDMDL
