MODEL 1
REMARK minimizedAffinity -4.01004457
REMARK minimizedRMSD -1
REMARK  1 active torsions:
REMARK  status: ('A' for Active; 'I' for Inactive)
REMARK    1  A    between atoms: C3_4  and  O_7 
ROOT
ATOM      1  C   UNL d   1      -5.525  -3.129  -4.313  0.00  0.00    -0.033 A 
ATOM      2  C1  UNL d   1      -4.682  -3.733  -3.378  0.00  0.00     0.039 A 
ATOM      3  C2  UNL d   1      -3.401  -4.143  -3.753  0.00  0.00    -0.080 A 
ATOM      4  C3  UNL d   1      -2.975  -3.943  -5.063  0.00  0.00     0.150 A 
ATOM      5  C4  UNL d   1      -3.808  -3.339  -5.999  0.00  0.00    -0.007 A 
ATOM      6  C5  UNL d   1      -5.088  -2.931  -5.623  0.00  0.00     0.039 A 
ENDROOT
BRANCH   4   7
ATOM      7  O   UNL d   1      -1.735  -4.331  -5.476  0.00  0.00    -0.526 OA
ATOM      8  H5  UNL d   1      -1.282  -4.759  -4.731  0.00  0.00     0.418 HD
ENDBRANCH   4   7
TORSDOF 1
ENDMDL
