MODEL 1
REMARK minimizedAffinity -3.24692702
REMARK minimizedRMSD -1
REMARK  1 active torsions:
REMARK  status: ('A' for Active; 'I' for Inactive)
REMARK    1  A    between atoms: C3_4  and  O_7 
ROOT
ATOM      1  C   UNL d   1      -2.123  -4.845  -5.672  0.00  0.00    -0.033 A 
ATOM      2  C1  UNL d   1      -2.869  -5.936  -5.220  0.00  0.00     0.039 A 
ATOM      3  C2  UNL d   1      -4.163  -5.746  -4.732  0.00  0.00    -0.080 A 
ATOM      4  C3  UNL d   1      -4.700  -4.461  -4.702  0.00  0.00     0.150 A 
ATOM      5  C4  UNL d   1      -3.964  -3.371  -5.154  0.00  0.00    -0.007 A 
ATOM      6  C5  UNL d   1      -2.672  -3.563  -5.640  0.00  0.00     0.039 A 
ENDROOT
BRANCH   4   7
ATOM      7  O   UNL d   1      -5.956  -4.225  -4.230  0.00  0.00    -0.526 OA
ATOM      8  H5  UNL d   1      -6.334  -5.067  -3.925  0.00  0.00     0.418 HD
ENDBRANCH   4   7
TORSDOF 1
ENDMDL
