MODEL 1
REMARK minimizedAffinity 8.16258907
REMARK minimizedRMSD -1
REMARK  0 active torsions:
REMARK  status: ('A' for Active; 'I' for Inactive)
ROOT
ATOM      1  C1  BNZ d   1       0.002  -5.185   6.000  0.00  0.00     0.000 A 
ATOM      2  C2  BNZ d   1      -0.865  -4.438   5.247  0.00  0.00     0.000 A 
ATOM      3  C3  BNZ d   1      -0.412  -3.402   4.480  0.00  0.00     0.000 A 
ATOM      4  C4  BNZ d   1       0.900  -3.088   4.497  0.00  0.00     0.000 A 
ATOM      5  C5  BNZ d   1       1.785  -3.825   5.258  0.00  0.00     0.000 A 
ATOM      6  C6  BNZ d   1       1.331  -4.892   5.999  0.00  0.00     0.000 A 
ENDROOT
TORSDOF 0
ENDMDL
