MODEL 1
REMARK minimizedAffinity 2.07536745
REMARK minimizedRMSD -1
REMARK  0 active torsions:
REMARK  status: ('A' for Active; 'I' for Inactive)
ROOT
ATOM      1  C1  BNZ d   1      -5.995   2.290  -2.294  0.00  0.00     0.000 A 
ATOM      2  C2  BNZ d   1      -6.000   1.173  -1.501  0.00  0.00     0.000 A 
ATOM      3  C3  BNZ d   1      -5.761   1.267  -0.158  0.00  0.00     0.000 A 
ATOM      4  C4  BNZ d   1      -5.478   2.470   0.382  0.00  0.00     0.000 A 
ATOM      5  C5  BNZ d   1      -5.460   3.604  -0.406  0.00  0.00     0.000 A 
ATOM      6  C6  BNZ d   1      -5.740   3.511  -1.750  0.00  0.00     0.000 A 
ENDROOT
TORSDOF 0
ENDMDL
