MODEL 1
REMARK minimizedAffinity 1.84083378
REMARK minimizedRMSD -1
REMARK  0 active torsions:
REMARK  status: ('A' for Active; 'I' for Inactive)
ROOT
ATOM      1  C1  BNZ d   1      -5.778   4.084   3.511  0.00  0.00     0.000 A 
ATOM      2  C2  BNZ d   1      -5.995   3.332   4.635  0.00  0.00     0.000 A 
ATOM      3  C3  BNZ d   1      -6.000   3.911   5.874  0.00  0.00     0.000 A 
ATOM      4  C4  BNZ d   1      -5.748   5.230   5.990  0.00  0.00     0.000 A 
ATOM      5  C5  BNZ d   1      -5.518   6.000   4.867  0.00  0.00     0.000 A 
ATOM      6  C6  BNZ d   1      -5.553   5.421   3.619  0.00  0.00     0.000 A 
ENDROOT
TORSDOF 0
ENDMDL
