MODEL 1
REMARK minimizedAffinity 3.1504879
REMARK minimizedRMSD -1
REMARK  0 active torsions:
REMARK  status: ('A' for Active; 'I' for Inactive)
ROOT
ATOM      1  C1  BNZ d   1       5.206   2.946   4.897  0.00  0.00     0.000 A 
ATOM      2  C2  BNZ d   1       4.903   3.226   3.591  0.00  0.00     0.000 A 
ATOM      3  C3  BNZ d   1       4.572   4.495   3.205  0.00  0.00     0.000 A 
ATOM      4  C4  BNZ d   1       4.506   5.473   4.131  0.00  0.00     0.000 A 
ATOM      5  C5  BNZ d   1       4.799   5.205   5.454  0.00  0.00     0.000 A 
ATOM      6  C6  BNZ d   1       5.169   3.935   5.832  0.00  0.00     0.000 A 
ENDROOT
TORSDOF 0
ENDMDL
