MODEL 1
REMARK minimizedAffinity 3.86585546
REMARK minimizedRMSD -1
REMARK  0 active torsions:
REMARK  status: ('A' for Active; 'I' for Inactive)
ROOT
ATOM      1  C1  BNZ d   1      -5.256   0.814  -3.826  0.00  0.00     0.000 A 
ATOM      2  C2  BNZ d   1      -4.466   0.448  -2.770  0.00  0.00     0.000 A 
ATOM      3  C3  BNZ d   1      -3.104   0.530  -2.853  0.00  0.00     0.000 A 
ATOM      4  C4  BNZ d   1      -2.533   0.938  -4.005  0.00  0.00     0.000 A 
ATOM      5  C5  BNZ d   1      -3.316   1.301  -5.082  0.00  0.00     0.000 A 
ATOM      6  C6  BNZ d   1      -4.688   1.255  -4.982  0.00  0.00     0.000 A 
ENDROOT
TORSDOF 0
ENDMDL
