MODEL 1
REMARK minimizedAffinity 10.8573742
REMARK minimizedRMSD -1
REMARK  0 active torsions:
REMARK  status: ('A' for Active; 'I' for Inactive)
ROOT
ATOM      1  C1  BNZ d   1      -5.996   1.080  -4.765  0.00  0.00     0.000 A 
ATOM      2  C2  BNZ d   1      -6.000   2.440  -4.925  0.00  0.00     0.000 A 
ATOM      3  C3  BNZ d   1      -4.968   3.073  -5.559  0.00  0.00     0.000 A 
ATOM      4  C4  BNZ d   1      -3.916   2.351  -5.997  0.00  0.00     0.000 A 
ATOM      5  C5  BNZ d   1      -3.893   0.980  -5.835  0.00  0.00     0.000 A 
ATOM      6  C6  BNZ d   1      -4.951   0.342  -5.230  0.00  0.00     0.000 A 
ENDROOT
TORSDOF 0
ENDMDL
