MODEL 1
REMARK minimizedAffinity -3.44015431
REMARK minimizedRMSD -1
REMARK  2 active torsions:
REMARK  status: ('A' for Active; 'I' for Inactive)
REMARK    1  A    between atoms: C2'_3  and  C1'_4 
REMARK    2  A    between atoms: C1'_4  and  C1_5 
ROOT
ATOM      1  C1  I4B d   1      -0.234   1.243  -1.928  0.00  0.00    -0.075 A 
ATOM      2  C2  I4B d   1      -1.490   1.790  -2.017  0.00  0.00     0.003 A 
ATOM      3  C3  I4B d   1      -1.651   3.148  -2.382  0.00  0.00     0.002 A 
ATOM      4  C4  I4B d   1      -0.536   3.931  -2.599  0.00  0.00    -0.004 A 
ATOM      5  C5  I4B d   1       0.736   3.369  -2.531  0.00  0.00     0.002 A 
ATOM      6  C6  I4B d   1       0.888   2.013  -2.206  0.00  0.00     0.003 A 
ENDROOT
BRANCH   1   7
ATOM      7  C1' I4B d   1      -0.098  -0.186  -1.508  0.00  0.00     0.060 C 
BRANCH   7   8
ATOM      8  C2' I4B d   1       0.481  -0.208  -0.108  0.00  0.00    -0.013 C 
ATOM      9  C4' I4B d   1      -0.600  -0.374   0.927  0.00  0.00     0.013 C 
ATOM     10  C3' I4B d   1       1.476  -1.328  -0.036  0.00  0.00     0.013 C 
ENDBRANCH   7   8
ENDBRANCH   1   7
TORSDOF 2
ENDMDL
