MODEL 1
REMARK minimizedAffinity -5.48588324
REMARK minimizedRMSD -1
REMARK  2 active torsions:
REMARK  status: ('A' for Active; 'I' for Inactive)
REMARK    1  A    between atoms: C2'_3  and  C1'_4 
REMARK    2  A    between atoms: C1'_4  and  C1_5 
ROOT
ATOM      1  C1  I4B d   1       0.853  -0.333   1.744  0.00  0.00    -0.075 A 
ATOM      2  C2  I4B d   1       1.671  -1.066   0.921  0.00  0.00     0.003 A 
ATOM      3  C3  I4B d   1       2.744  -1.814   1.465  0.00  0.00     0.002 A 
ATOM      4  C4  I4B d   1       2.991  -1.760   2.821  0.00  0.00    -0.004 A 
ATOM      5  C5  I4B d   1       2.146  -1.035   3.657  0.00  0.00     0.002 A 
ATOM      6  C6  I4B d   1       1.063  -0.327   3.116  0.00  0.00     0.003 A 
ENDROOT
BRANCH   1   7
ATOM      7  C1' I4B d   1      -0.251   0.470   1.132  0.00  0.00     0.060 C 
BRANCH   7   8
ATOM      8  C2' I4B d   1      -0.901  -0.373   0.054  0.00  0.00    -0.013 C 
ATOM      9  C4' I4B d   1      -2.299  -0.774   0.445  0.00  0.00     0.013 C 
ATOM     10  C3' I4B d   1      -0.901   0.421  -1.218  0.00  0.00     0.013 C 
ENDBRANCH   7   8
ENDBRANCH   1   7
TORSDOF 2
ENDMDL
