MODEL 1
REMARK minimizedAffinity -4.0908761
REMARK minimizedRMSD -1
REMARK  2 active torsions:
REMARK  status: ('A' for Active; 'I' for Inactive)
REMARK    1  A    between atoms: C2'_3  and  C1'_4 
REMARK    2  A    between atoms: C1'_4  and  C1_5 
ROOT
ATOM      1  C1  I4B d   1       0.919  -0.785   1.531  0.00  0.00    -0.075 A 
ATOM      2  C2  I4B d   1       0.459   0.214   0.710  0.00  0.00     0.003 A 
ATOM      3  C3  I4B d   1      -0.885   0.650   0.801  0.00  0.00     0.002 A 
ATOM      4  C4  I4B d   1      -1.742   0.029   1.687  0.00  0.00    -0.004 A 
ATOM      5  C5  I4B d   1      -1.268  -0.968   2.535  0.00  0.00     0.002 A 
ATOM      6  C6  I4B d   1       0.074  -1.369   2.466  0.00  0.00     0.003 A 
ENDROOT
BRANCH   1   7
ATOM      7  C1' I4B d   1       2.335  -1.244   1.385  0.00  0.00     0.060 C 
BRANCH   7   8
ATOM      8  C2' I4B d   1       2.387  -2.245   0.249  0.00  0.00    -0.013 C 
ATOM      9  C4' I4B d   1       2.090  -3.639   0.737  0.00  0.00     0.013 C 
ATOM     10  C3' I4B d   1       1.398  -1.815  -0.793  0.00  0.00     0.013 C 
ENDBRANCH   7   8
ENDBRANCH   1   7
TORSDOF 2
ENDMDL
