MODEL 1
REMARK minimizedAffinity -4.42978764
REMARK minimizedRMSD -1
REMARK  1 active torsions:
REMARK  status: ('A' for Active; 'I' for Inactive)
REMARK    1  A    between atoms: C1_2  and  C2_3 
ROOT
ATOM      1  C2  UNL d   1      -0.673   0.645   0.265  0.00  0.00    -0.076 A 
ATOM      2  C3  UNL d   1      -0.721  -0.020  -0.973  0.00  0.00     0.004 A 
ATOM      3  C4  UNL d   1      -0.600   0.684  -2.170  0.00  0.00    -0.003 A 
ATOM      4  C5  UNL d   1      -0.429   2.063  -2.149  0.00  0.00     0.000 A 
ATOM      5  C6  UNL d   1      -0.362   2.737  -0.929  0.00  0.00     0.000 A 
ATOM      6  C7  UNL d   1      -0.466   2.040   0.287  0.00  0.00    -0.073 A 
ATOM      7  C8  UNL d   1      -0.392   2.818   1.572  0.00  0.00     0.078 C 
ENDROOT
BRANCH   1   8
ATOM      8  C1  UNL d   1      -0.837  -0.167   1.530  0.00  0.00     0.053 C 
ATOM      9  C   UNL d   1       0.431  -0.918   1.909  0.00  0.00     0.018 C 
ENDBRANCH   1   8
TORSDOF 1
ENDMDL
