MODEL 1
REMARK minimizedAffinity -4.60068655
REMARK minimizedRMSD -1
REMARK  1 active torsions:
REMARK  status: ('A' for Active; 'I' for Inactive)
REMARK    1  A    between atoms: C1_2  and  C2_3 
ROOT
ATOM      1  C2  UNL d   1      -1.210  -0.179   1.180  0.00  0.00    -0.076 A 
ATOM      2  C3  UNL d   1      -0.617  -0.848   2.265  0.00  0.00     0.004 A 
ATOM      3  C4  UNL d   1       0.661  -1.394   2.160  0.00  0.00    -0.003 A 
ATOM      4  C5  UNL d   1       1.368  -1.279   0.968  0.00  0.00     0.000 A 
ATOM      5  C6  UNL d   1       0.802  -0.604  -0.113  0.00  0.00     0.000 A 
ATOM      6  C7  UNL d   1      -0.479  -0.033  -0.018  0.00  0.00    -0.073 A 
ATOM      7  C8  UNL d   1      -1.043   0.679  -1.217  0.00  0.00     0.078 C 
ENDROOT
BRANCH   1   8
ATOM      8  C1  UNL d   1      -2.610   0.368   1.345  0.00  0.00     0.053 C 
ATOM      9  C   UNL d   1      -3.669  -0.555   0.764  0.00  0.00     0.018 C 
ENDBRANCH   1   8
TORSDOF 1
ENDMDL
