MODEL 1
REMARK minimizedAffinity -4.17325783
REMARK minimizedRMSD -1
REMARK  1 active torsions:
REMARK  status: ('A' for Active; 'I' for Inactive)
REMARK    1  A    between atoms: C1_2  and  C2_3 
ROOT
ATOM      1  C2  UNL d   1       0.124  -0.267   0.096  0.00  0.00    -0.076 A 
ATOM      2  C3  UNL d   1      -0.946   0.109   0.927  0.00  0.00     0.004 A 
ATOM      3  C4  UNL d   1      -0.853  -0.008   2.313  0.00  0.00    -0.003 A 
ATOM      4  C5  UNL d   1       0.312  -0.503   2.890  0.00  0.00     0.000 A 
ATOM      5  C6  UNL d   1       1.389  -0.864   2.082  0.00  0.00     0.000 A 
ATOM      6  C7  UNL d   1       1.318  -0.736   0.684  0.00  0.00    -0.073 A 
ATOM      7  C8  UNL d   1       2.508  -1.146  -0.140  0.00  0.00     0.078 C 
ENDROOT
BRANCH   1   8
ATOM      8  C1  UNL d   1      -0.044  -0.143  -1.402  0.00  0.00     0.053 C 
ATOM      9  C   UNL d   1      -0.543   1.232  -1.820  0.00  0.00     0.018 C 
ENDBRANCH   1   8
TORSDOF 1
ENDMDL
