MODEL 1
REMARK minimizedAffinity 6.26105452
REMARK minimizedRMSD -1
REMARK  0 active torsions:
REMARK  status: ('A' for Active; 'I' for Inactive)
ROOT
ATOM      1  C   UNL d   1       0.026   2.231   5.824  0.00  0.00     0.078 C 
ATOM      2  C1  UNL d   1       0.491   1.263   4.777  0.00  0.00    -0.077 A 
ATOM      3  C2  UNL d   1       1.777   0.712   4.825  0.00  0.00    -0.001 A 
ATOM      4  C3  UNL d   1       2.200  -0.180   3.838  0.00  0.00     0.003 A 
ATOM      5  C4  UNL d   1       1.343  -0.528   2.796  0.00  0.00    -0.005 A 
ATOM      6  C5  UNL d   1       0.062   0.017   2.738  0.00  0.00     0.003 A 
ATOM      7  C6  UNL d   1      -0.362   0.909   3.724  0.00  0.00    -0.001 A 
ENDROOT
TORSDOF 0
ENDMDL
