MODEL 1
REMARK minimizedAffinity 11.165411
REMARK minimizedRMSD -1
REMARK  0 active torsions:
REMARK  status: ('A' for Active; 'I' for Inactive)
ROOT
ATOM      1  C   UNL d   1       4.421   2.329   1.136  0.00  0.00     0.078 C 
ATOM      2  C1  UNL d   1       4.396   3.605   1.924  0.00  0.00    -0.077 A 
ATOM      3  C2  UNL d   1       4.730   3.620   3.283  0.00  0.00    -0.001 A 
ATOM      4  C3  UNL d   1       4.693   4.813   4.006  0.00  0.00     0.003 A 
ATOM      5  C4  UNL d   1       4.320   6.000   3.379  0.00  0.00    -0.005 A 
ATOM      6  C5  UNL d   1       3.983   5.994   2.027  0.00  0.00     0.003 A 
ATOM      7  C6  UNL d   1       4.020   4.802   1.302  0.00  0.00    -0.001 A 
ENDROOT
TORSDOF 0
ENDMDL
