MODEL 1
REMARK minimizedAffinity 11.9483814
REMARK minimizedRMSD -1
REMARK  0 active torsions:
REMARK  status: ('A' for Active; 'I' for Inactive)
ROOT
ATOM      1  C   UNL d   1       0.387   1.871   6.000  0.00  0.00     0.078 C 
ATOM      2  C1  UNL d   1       0.343   1.109   4.709  0.00  0.00    -0.077 A 
ATOM      3  C2  UNL d   1       1.272   0.098   4.436  0.00  0.00    -0.001 A 
ATOM      4  C3  UNL d   1       1.226  -0.597   3.226  0.00  0.00     0.003 A 
ATOM      5  C4  UNL d   1       0.252  -0.286   2.279  0.00  0.00    -0.005 A 
ATOM      6  C5  UNL d   1      -0.675   0.720   2.540  0.00  0.00     0.003 A 
ATOM      7  C6  UNL d   1      -0.630   1.416   3.749  0.00  0.00    -0.001 A 
ENDROOT
TORSDOF 0
ENDMDL
