MODEL 1
REMARK minimizedAffinity 3.43610191
REMARK minimizedRMSD -1
REMARK  0 active torsions:
REMARK  status: ('A' for Active; 'I' for Inactive)
ROOT
ATOM      1  C   UNL d   1       0.396  -1.046  -5.627  0.00  0.00     0.078 C 
ATOM      2  C1  UNL d   1       0.260  -2.535  -5.749  0.00  0.00    -0.077 A 
ATOM      3  C2  UNL d   1       1.389  -3.363  -5.763  0.00  0.00    -0.001 A 
ATOM      4  C3  UNL d   1       1.248  -4.746  -5.887  0.00  0.00     0.003 A 
ATOM      5  C4  UNL d   1      -0.020  -5.313  -5.999  0.00  0.00    -0.005 A 
ATOM      6  C5  UNL d   1      -1.149  -4.497  -5.989  0.00  0.00     0.003 A 
ATOM      7  C6  UNL d   1      -1.010  -3.114  -5.864  0.00  0.00    -0.001 A 
ENDROOT
TORSDOF 0
ENDMDL
