MODEL 1
REMARK minimizedAffinity 10.2989578
REMARK minimizedRMSD -1
REMARK  0 active torsions:
REMARK  status: ('A' for Active; 'I' for Inactive)
ROOT
ATOM      1  C   UNL d   1       0.305   1.893   5.971  0.00  0.00     0.078 C 
ATOM      2  C1  UNL d   1       0.320   1.019   4.753  0.00  0.00    -0.077 A 
ATOM      3  C2  UNL d   1       1.170  -0.091   4.671  0.00  0.00    -0.001 A 
ATOM      4  C3  UNL d   1       1.180  -0.890   3.526  0.00  0.00     0.003 A 
ATOM      5  C4  UNL d   1       0.343  -0.586   2.454  0.00  0.00    -0.005 A 
ATOM      6  C5  UNL d   1      -0.505   0.517   2.526  0.00  0.00     0.003 A 
ATOM      7  C6  UNL d   1      -0.516   1.317   3.669  0.00  0.00    -0.001 A 
ENDROOT
TORSDOF 0
ENDMDL
