MODEL 1
REMARK minimizedAffinity 4.73476076
REMARK minimizedRMSD -1
REMARK  0 active torsions:
REMARK  status: ('A' for Active; 'I' for Inactive)
ROOT
ATOM      1  C   UNL d   1      -2.881  -1.329   2.931  0.00  0.00     0.078 C 
ATOM      2  C1  UNL d   1      -1.415  -1.038   3.054  0.00  0.00    -0.077 A 
ATOM      3  C2  UNL d   1      -0.533  -1.986   3.585  0.00  0.00    -0.001 A 
ATOM      4  C3  UNL d   1       0.827  -1.697   3.703  0.00  0.00     0.003 A 
ATOM      5  C4  UNL d   1       1.318  -0.459   3.294  0.00  0.00    -0.005 A 
ATOM      6  C5  UNL d   1       0.447   0.492   2.766  0.00  0.00     0.003 A 
ATOM      7  C6  UNL d   1      -0.914   0.205   2.647  0.00  0.00    -0.001 A 
ENDROOT
TORSDOF 0
ENDMDL
