MODEL 1
REMARK minimizedAffinity 12.161314
REMARK minimizedRMSD -1
REMARK  0 active torsions:
REMARK  status: ('A' for Active; 'I' for Inactive)
ROOT
ATOM      1  C   UNL d   1       0.827  -3.000   4.758  0.00  0.00     0.078 C 
ATOM      2  C1  UNL d   1       0.680  -1.842   3.816  0.00  0.00    -0.077 A 
ATOM      3  C2  UNL d   1       1.798  -1.124   3.375  0.00  0.00    -0.001 A 
ATOM      4  C3  UNL d   1       1.645  -0.043   2.506  0.00  0.00     0.003 A 
ATOM      5  C4  UNL d   1       0.375   0.331   2.071  0.00  0.00    -0.005 A 
ATOM      6  C5  UNL d   1      -0.744  -0.376   2.506  0.00  0.00     0.003 A 
ATOM      7  C6  UNL d   1      -0.593  -1.458   3.375  0.00  0.00    -0.001 A 
ENDROOT
TORSDOF 0
ENDMDL
