MODEL 1
REMARK minimizedAffinity 4.95829582
REMARK minimizedRMSD -1
REMARK  0 active torsions:
REMARK  status: ('A' for Active; 'I' for Inactive)
ROOT
ATOM      1  C   UNL d   1       5.618   2.392   3.527  0.00  0.00     0.078 C 
ATOM      2  C1  UNL d   1       5.253   3.646   2.790  0.00  0.00    -0.077 A 
ATOM      3  C2  UNL d   1       4.194   3.662   1.874  0.00  0.00    -0.001 A 
ATOM      4  C3  UNL d   1       3.871   4.834   1.188  0.00  0.00     0.003 A 
ATOM      5  C4  UNL d   1       4.604   5.998   1.409  0.00  0.00    -0.005 A 
ATOM      6  C5  UNL d   1       5.662   5.991   2.317  0.00  0.00     0.003 A 
ATOM      7  C6  UNL d   1       5.986   4.820   3.004  0.00  0.00    -0.001 A 
ENDROOT
TORSDOF 0
ENDMDL
