MODEL 1
REMARK minimizedAffinity 12.5543756
REMARK minimizedRMSD -1
REMARK  0 active torsions:
REMARK  status: ('A' for Active; 'I' for Inactive)
ROOT
ATOM      1  C   UNL d   1       0.366  -0.372  -4.126  0.00  0.00     0.078 C 
ATOM      2  C1  UNL d   1       0.864  -1.673  -4.680  0.00  0.00    -0.077 A 
ATOM      3  C2  UNL d   1       0.050  -2.469  -5.495  0.00  0.00    -0.001 A 
ATOM      4  C3  UNL d   1       0.523  -3.683  -5.996  0.00  0.00     0.003 A 
ATOM      5  C4  UNL d   1       1.812  -4.112  -5.687  0.00  0.00    -0.005 A 
ATOM      6  C5  UNL d   1       2.629  -3.328  -4.875  0.00  0.00     0.003 A 
ATOM      7  C6  UNL d   1       2.158  -2.114  -4.373  0.00  0.00    -0.001 A 
ENDROOT
TORSDOF 0
ENDMDL
