MODEL 1
REMARK minimizedAffinity 14.8501806
REMARK minimizedRMSD -1
REMARK  0 active torsions:
REMARK  status: ('A' for Active; 'I' for Inactive)
ROOT
ATOM      1  C   UNL d   1      -3.433  -4.716  -5.999  0.00  0.00     0.078 C 
ATOM      2  C1  UNL d   1      -1.937  -4.757  -5.905  0.00  0.00    -0.077 A 
ATOM      3  C2  UNL d   1      -1.249  -5.976  -5.871  0.00  0.00    -0.001 A 
ATOM      4  C3  UNL d   1       0.143  -5.999  -5.774  0.00  0.00     0.003 A 
ATOM      5  C4  UNL d   1       0.860  -4.806  -5.708  0.00  0.00    -0.005 A 
ATOM      6  C5  UNL d   1       0.184  -3.588  -5.739  0.00  0.00     0.003 A 
ATOM      7  C6  UNL d   1      -1.208  -3.563  -5.836  0.00  0.00    -0.001 A 
ENDROOT
TORSDOF 0
ENDMDL
