MODEL 1
REMARK minimizedAffinity 4.71645784
REMARK minimizedRMSD -1
REMARK  0 active torsions:
REMARK  status: ('A' for Active; 'I' for Inactive)
ROOT
ATOM      1  C   UNL d   1       0.442  -1.017   1.691  0.00  0.00     0.078 C 
ATOM      2  C1  UNL d   1       1.165  -0.882   2.998  0.00  0.00    -0.077 A 
ATOM      3  C2  UNL d   1       2.034   0.190   3.234  0.00  0.00    -0.001 A 
ATOM      4  C3  UNL d   1       2.707   0.298   4.452  0.00  0.00     0.003 A 
ATOM      5  C4  UNL d   1       2.519  -0.664   5.442  0.00  0.00    -0.005 A 
ATOM      6  C5  UNL d   1       1.658  -1.735   5.216  0.00  0.00     0.003 A 
ATOM      7  C6  UNL d   1       0.984  -1.845   3.999  0.00  0.00    -0.001 A 
ENDROOT
TORSDOF 0
ENDMDL
