MODEL 1
REMARK minimizedAffinity 0.763318062
REMARK minimizedRMSD -1
REMARK  0 active torsions:
REMARK  status: ('A' for Active; 'I' for Inactive)
ROOT
ATOM      1  C   UNL d   1       1.247  -3.296   4.776  0.00  0.00     0.078 C 
ATOM      2  C1  UNL d   1       0.832  -2.089   3.989  0.00  0.00    -0.077 A 
ATOM      3  C2  UNL d   1       1.290  -0.811   4.333  0.00  0.00    -0.001 A 
ATOM      4  C3  UNL d   1       0.888   0.304   3.596  0.00  0.00     0.003 A 
ATOM      5  C4  UNL d   1       0.025   0.154   2.512  0.00  0.00    -0.005 A 
ATOM      6  C5  UNL d   1      -0.437  -1.114   2.164  0.00  0.00     0.003 A 
ATOM      7  C6  UNL d   1      -0.036  -2.231   2.899  0.00  0.00    -0.001 A 
ENDROOT
TORSDOF 0
ENDMDL
