MODEL 1
REMARK minimizedAffinity -0.883161426
REMARK minimizedRMSD -1
REMARK  0 active torsions:
REMARK  status: ('A' for Active; 'I' for Inactive)
ROOT
ATOM      1  O1  BZF d   1      -1.229   0.791  -3.110  0.00  0.00    -0.204 OA
ATOM      2  C2  BZF d   1      -2.250   1.721  -3.160  0.00  0.00     0.174 A 
ATOM      3  C3  BZF d   1      -2.459   2.268  -1.945  0.00  0.00    -0.012 A 
ATOM      4  C3A BZF d   1      -1.447   1.708  -1.102  0.00  0.00    -0.107 A 
ATOM      5  C4  BZF d   1      -1.125   1.875   0.215  0.00  0.00     0.055 A 
ATOM      6  C5  BZF d   1      -0.126   1.125   0.750  0.00  0.00    -0.016 A 
ATOM      7  C6  BZF d   1       0.566   0.196   0.001  0.00  0.00     0.022 A 
ATOM      8  C7  BZF d   1       0.286  -0.001  -1.310  0.00  0.00     0.029 A 
ATOM      9  C7A BZF d   1      -0.701   0.779  -1.863  0.00  0.00     0.058 A 
ENDROOT
TORSDOF 0
ENDMDL
