MODEL 1
REMARK minimizedAffinity -3.62777781
REMARK minimizedRMSD -1
REMARK  0 active torsions:
REMARK  status: ('A' for Active; 'I' for Inactive)
ROOT
ATOM      1  O1  BZF d   1      -0.998  -0.587   2.638  0.00  0.00    -0.204 OA
ATOM      2  C2  BZF d   1      -0.591  -1.424   3.660  0.00  0.00     0.174 A 
ATOM      3  C3  BZF d   1       0.477  -2.155   3.282  0.00  0.00    -0.012 A 
ATOM      4  C3A BZF d   1       0.812  -1.685   1.973  0.00  0.00    -0.107 A 
ATOM      5  C4  BZF d   1       1.791  -2.012   1.079  0.00  0.00     0.055 A 
ATOM      6  C5  BZF d   1       1.797  -1.416  -0.142  0.00  0.00    -0.016 A 
ATOM      7  C6  BZF d   1       0.838  -0.494  -0.504  0.00  0.00     0.022 A 
ATOM      8  C7  BZF d   1      -0.150  -0.133   0.350  0.00  0.00     0.029 A 
ATOM      9  C7A BZF d   1      -0.140  -0.709   1.597  0.00  0.00     0.058 A 
ENDROOT
TORSDOF 0
ENDMDL
