MODEL 1
REMARK minimizedAffinity 0.143672407
REMARK minimizedRMSD -1
REMARK  0 active torsions:
REMARK  status: ('A' for Active; 'I' for Inactive)
ROOT
ATOM      1  O1  BZF d   1      -1.242  -0.862   2.601  0.00  0.00    -0.204 OA
ATOM      2  C2  BZF d   1      -0.762  -1.645   3.634  0.00  0.00     0.174 A 
ATOM      3  C3  BZF d   1       0.485  -2.082   3.362  0.00  0.00    -0.012 A 
ATOM      4  C3A BZF d   1       0.839  -1.463   2.122  0.00  0.00    -0.107 A 
ATOM      5  C4  BZF d   1       1.960  -1.495   1.343  0.00  0.00     0.055 A 
ATOM      6  C5  BZF d   1       1.958  -0.837   0.154  0.00  0.00    -0.016 A 
ATOM      7  C6  BZF d   1       0.852  -0.142  -0.288  0.00  0.00     0.022 A 
ATOM      8  C7  BZF d   1      -0.282  -0.077   0.452  0.00  0.00     0.029 A 
ATOM      9  C7A BZF d   1      -0.271  -0.714   1.669  0.00  0.00     0.058 A 
ENDROOT
TORSDOF 0
ENDMDL
