MODEL 1
REMARK minimizedAffinity -5.31048155
REMARK minimizedRMSD -1
REMARK  0 active torsions:
REMARK  status: ('A' for Active; 'I' for Inactive)
ROOT
ATOM      1  O1  BZF d   1      -0.733   0.639   0.286  0.00  0.00    -0.204 OA
ATOM      2  C2  BZF d   1      -0.013   0.914  -0.860  0.00  0.00     0.174 A 
ATOM      3  C3  BZF d   1       1.109   0.168  -0.910  0.00  0.00    -0.012 A 
ATOM      4  C3A BZF d   1       1.043  -0.690   0.233  0.00  0.00    -0.107 A 
ATOM      5  C4  BZF d   1       1.860  -1.669   0.721  0.00  0.00     0.055 A 
ATOM      6  C5  BZF d   1       1.545  -2.266   1.900  0.00  0.00    -0.016 A 
ATOM      7  C6  BZF d   1       0.425  -1.905   2.620  0.00  0.00     0.022 A 
ATOM      8  C7  BZF d   1      -0.419  -0.942   2.174  0.00  0.00     0.029 A 
ATOM      9  C7A BZF d   1      -0.121  -0.360   0.966  0.00  0.00     0.058 A 
ENDROOT
TORSDOF 0
ENDMDL
