MODEL 1
REMARK minimizedAffinity -4.59591055
REMARK minimizedRMSD -1
REMARK  0 active torsions:
REMARK  status: ('A' for Active; 'I' for Inactive)
ROOT
ATOM      1  O1  BZF d   1      -0.926   0.420   0.600  0.00  0.00    -0.204 OA
ATOM      2  C2  BZF d   1      -0.360   0.965  -0.537  0.00  0.00     0.174 A 
ATOM      3  C3  BZF d   1       0.839   0.402  -0.792  0.00  0.00    -0.012 A 
ATOM      4  C3A BZF d   1       0.993  -0.619   0.199  0.00  0.00    -0.107 A 
ATOM      5  C4  BZF d   1       1.972  -1.534   0.459  0.00  0.00     0.055 A 
ATOM      6  C5  BZF d   1       1.851  -2.340   1.546  0.00  0.00    -0.016 A 
ATOM      7  C6  BZF d   1       0.768  -2.254   2.396  0.00  0.00     0.022 A 
ATOM      8  C7  BZF d   1      -0.231  -1.365   2.177  0.00  0.00     0.029 A 
ATOM      9  C7A BZF d   1      -0.127  -0.572   1.060  0.00  0.00     0.058 A 
ENDROOT
TORSDOF 0
ENDMDL
