MODEL 1
REMARK minimizedAffinity -3.10793638
REMARK minimizedRMSD -1
REMARK  0 active torsions:
REMARK  status: ('A' for Active; 'I' for Inactive)
ROOT
ATOM      1  O1  BZF d   1      -0.802  -0.292  -0.921  0.00  0.00    -0.204 OA
ATOM      2  C2  BZF d   1      -0.260   0.151   0.270  0.00  0.00     0.174 A 
ATOM      3  C3  BZF d   1      -0.513   1.463   0.453  0.00  0.00    -0.012 A 
ATOM      4  C3A BZF d   1      -1.339   1.844  -0.652  0.00  0.00    -0.107 A 
ATOM      5  C4  BZF d   1      -1.931   3.018  -1.021  0.00  0.00     0.055 A 
ATOM      6  C5  BZF d   1      -2.612   3.074  -2.195  0.00  0.00    -0.016 A 
ATOM      7  C6  BZF d   1      -2.718   1.977  -3.026  0.00  0.00     0.022 A 
ATOM      8  C7  BZF d   1      -2.153   0.789  -2.700  0.00  0.00     0.029 A 
ATOM      9  C7A BZF d   1      -1.492   0.721  -1.498  0.00  0.00     0.058 A 
ENDROOT
TORSDOF 0
ENDMDL
