MODEL 1
REMARK minimizedAffinity -1.34238887
REMARK minimizedRMSD -1
REMARK  0 active torsions:
REMARK  status: ('A' for Active; 'I' for Inactive)
ROOT
ATOM      1  O1  BZF d   1      -1.135   1.036   0.682  0.00  0.00    -0.204 OA
ATOM      2  C2  BZF d   1      -0.659   1.524  -0.519  0.00  0.00     0.174 A 
ATOM      3  C3  BZF d   1       0.475   0.888  -0.878  0.00  0.00    -0.012 A 
ATOM      4  C3A BZF d   1       0.673  -0.119   0.118  0.00  0.00    -0.107 A 
ATOM      5  C4  BZF d   1       1.621  -1.085   0.303  0.00  0.00     0.055 A 
ATOM      6  C5  BZF d   1       1.567  -1.860   1.417  0.00  0.00    -0.016 A 
ATOM      7  C6  BZF d   1       0.582  -1.695   2.369  0.00  0.00     0.022 A 
ATOM      8  C7  BZF d   1      -0.384  -0.755   2.228  0.00  0.00     0.029 A 
ATOM      9  C7A BZF d   1      -0.350   0.009   1.086  0.00  0.00     0.058 A 
ENDROOT
TORSDOF 0
ENDMDL
