MODEL 1
REMARK minimizedAffinity 5.50426817
REMARK minimizedRMSD -1
REMARK  0 active torsions:
REMARK  status: ('A' for Active; 'I' for Inactive)
ROOT
ATOM      1  O1  BZF d   1      -0.160   1.546   0.572  0.00  0.00    -0.204 OA
ATOM      2  C2  BZF d   1      -1.482   1.317   0.900  0.00  0.00     0.174 A 
ATOM      3  C3  BZF d   1      -1.670   0.032   1.263  0.00  0.00    -0.012 A 
ATOM      4  C3A BZF d   1      -0.366  -0.558   1.244  0.00  0.00    -0.107 A 
ATOM      5  C4  BZF d   1       0.102  -1.810   1.527  0.00  0.00     0.055 A 
ATOM      6  C5  BZF d   1       1.420  -2.080   1.339  0.00  0.00    -0.016 A 
ATOM      7  C6  BZF d   1       2.297  -1.125   0.866  0.00  0.00     0.022 A 
ATOM      8  C7  BZF d   1       1.880   0.132   0.577  0.00  0.00     0.029 A 
ATOM      9  C7A BZF d   1       0.555   0.417   0.797  0.00  0.00     0.058 A 
ENDROOT
TORSDOF 0
ENDMDL
