MODEL 1
REMARK minimizedAffinity -0.160838351
REMARK minimizedRMSD -1
REMARK  0 active torsions:
REMARK  status: ('A' for Active; 'I' for Inactive)
ROOT
ATOM      1  O1  BZF d   1       0.672   1.149  -1.152  0.00  0.00    -0.204 OA
ATOM      2  C2  BZF d   1       0.362   0.870   0.165  0.00  0.00     0.174 A 
ATOM      3  C3  BZF d   1      -0.970   0.934   0.366  0.00  0.00    -0.012 A 
ATOM      4  C3A BZF d   1      -1.534   1.183  -0.925  0.00  0.00    -0.107 A 
ATOM      5  C4  BZF d   1      -2.814   1.334  -1.377  0.00  0.00     0.055 A 
ATOM      6  C5  BZF d   1      -3.020   1.641  -2.685  0.00  0.00    -0.016 A 
ATOM      7  C6  BZF d   1      -1.972   1.810  -3.565  0.00  0.00     0.022 A 
ATOM      8  C7  BZF d   1      -0.685   1.666  -3.164  0.00  0.00     0.029 A 
ATOM      9  C7A BZF d   1      -0.475   1.323  -1.851  0.00  0.00     0.058 A 
ENDROOT
TORSDOF 0
ENDMDL
