MODEL 1
REMARK minimizedAffinity -1.00466263
REMARK minimizedRMSD -1
REMARK  0 active torsions:
REMARK  status: ('A' for Active; 'I' for Inactive)
ROOT
ATOM      1  O1  BZF d   1      -1.473   1.128   0.435  0.00  0.00    -0.204 OA
ATOM      2  C2  BZF d   1      -0.254   0.478   0.439  0.00  0.00     0.174 A 
ATOM      3  C3  BZF d   1       0.150   0.213  -0.820  0.00  0.00    -0.012 A 
ATOM      4  C3A BZF d   1      -0.836   0.812  -1.666  0.00  0.00    -0.107 A 
ATOM      5  C4  BZF d   1      -0.981   0.902  -3.021  0.00  0.00     0.055 A 
ATOM      6  C5  BZF d   1      -2.096   1.491  -3.528  0.00  0.00    -0.016 A 
ATOM      7  C6  BZF d   1      -3.086   1.995  -2.711  0.00  0.00     0.022 A 
ATOM      8  C7  BZF d   1      -2.985   1.933  -1.361  0.00  0.00     0.029 A 
ATOM      9  C7A BZF d   1      -1.844   1.368  -0.845  0.00  0.00     0.058 A 
ENDROOT
TORSDOF 0
ENDMDL
