MODEL 1
REMARK minimizedAffinity -1.02731395
REMARK minimizedRMSD -1
REMARK  0 active torsions:
REMARK  status: ('A' for Active; 'I' for Inactive)
ROOT
ATOM      1  O1  BZF d   1      -0.677   1.971  -0.316  0.00  0.00    -0.204 OA
ATOM      2  C2  BZF d   1      -1.314   1.099   0.545  0.00  0.00     0.174 A 
ATOM      3  C3  BZF d   1      -2.477   0.667   0.015  0.00  0.00    -0.012 A 
ATOM      4  C3A BZF d   1      -2.528   1.238  -1.296  0.00  0.00    -0.107 A 
ATOM      5  C4  BZF d   1      -3.431   1.164  -2.317  0.00  0.00     0.055 A 
ATOM      6  C5  BZF d   1      -3.220   1.900  -3.440  0.00  0.00    -0.016 A 
ATOM      7  C6  BZF d   1      -2.121   2.723  -3.573  0.00  0.00     0.022 A 
ATOM      8  C7  BZF d   1      -1.195   2.826  -2.588  0.00  0.00     0.029 A 
ATOM      9  C7A BZF d   1      -1.388   2.058  -1.466  0.00  0.00     0.058 A 
ENDROOT
TORSDOF 0
ENDMDL
