MODEL 1
REMARK minimizedAffinity -5.55590963
REMARK minimizedRMSD -1
REMARK  0 active torsions:
REMARK  status: ('A' for Active; 'I' for Inactive)
ROOT
ATOM      1  O1  BZF d   1       2.151  -1.138   0.119  0.00  0.00    -0.204 OA
ATOM      2  C2  BZF d   1       1.513  -0.338  -0.809  0.00  0.00     0.174 A 
ATOM      3  C3  BZF d   1       0.241  -0.091  -0.433  0.00  0.00    -0.012 A 
ATOM      4  C3A BZF d   1       0.103  -0.704   0.853  0.00  0.00    -0.107 A 
ATOM      5  C4  BZF d   1      -0.926  -0.789   1.746  0.00  0.00     0.055 A 
ATOM      6  C5  BZF d   1      -0.759  -1.523   2.878  0.00  0.00    -0.016 A 
ATOM      7  C6  BZF d   1       0.421  -2.187   3.145  0.00  0.00     0.022 A 
ATOM      8  C7  BZF d   1       1.471  -2.127   2.291  0.00  0.00     0.029 A 
ATOM      9  C7A BZF d   1       1.317  -1.360   1.162  0.00  0.00     0.058 A 
ENDROOT
TORSDOF 0
ENDMDL
