MODEL 1
REMARK minimizedAffinity 1.31647718
REMARK minimizedRMSD -1
REMARK  0 active torsions:
REMARK  status: ('A' for Active; 'I' for Inactive)
ROOT
ATOM      1  O1  BZF d   1      -0.570  -0.062   0.400  0.00  0.00    -0.204 OA
ATOM      2  C2  BZF d   1       0.810  -0.088   0.360  0.00  0.00     0.174 A 
ATOM      3  C3  BZF d   1       1.274   0.652  -0.667  0.00  0.00    -0.012 A 
ATOM      4  C3A BZF d   1       0.114   1.249  -1.254  0.00  0.00    -0.107 A 
ATOM      5  C4  BZF d   1      -0.073   2.104  -2.303  0.00  0.00     0.055 A 
ATOM      6  C5  BZF d   1      -1.340   2.438  -2.664  0.00  0.00    -0.016 A 
ATOM      7  C6  BZF d   1      -2.441   1.932  -2.005  0.00  0.00     0.022 A 
ATOM      8  C7  BZF d   1      -2.305   1.085  -0.956  0.00  0.00     0.029 A 
ATOM      9  C7A BZF d   1      -1.026   0.772  -0.567  0.00  0.00     0.058 A 
ENDROOT
TORSDOF 0
ENDMDL
