MODEL 1
REMARK minimizedAffinity -5.95859861
REMARK minimizedRMSD -1
REMARK  0 active torsions:
REMARK  status: ('A' for Active; 'I' for Inactive)
ROOT
ATOM      1  O1  BZF d   1      -0.894   0.583   0.947  0.00  0.00    -0.204 OA
ATOM      2  C2  BZF d   1      -0.454   0.914  -0.320  0.00  0.00     0.174 A 
ATOM      3  C3  BZF d   1       0.492   0.050  -0.740  0.00  0.00    -0.012 A 
ATOM      4  C3A BZF d   1       0.588  -0.934   0.294  0.00  0.00    -0.107 A 
ATOM      5  C4  BZF d   1       1.344  -2.061   0.451  0.00  0.00     0.055 A 
ATOM      6  C5  BZF d   1       1.250  -2.763   1.611  0.00  0.00    -0.016 A 
ATOM      7  C6  BZF d   1       0.417  -2.364   2.636  0.00  0.00     0.022 A 
ATOM      8  C7  BZF d   1      -0.355  -1.256   2.525  0.00  0.00     0.029 A 
ATOM      9  C7A BZF d   1      -0.288  -0.563   1.341  0.00  0.00     0.058 A 
ENDROOT
TORSDOF 0
ENDMDL
