MODEL 1
REMARK minimizedAffinity -0.843136013
REMARK minimizedRMSD -1
REMARK  0 active torsions:
REMARK  status: ('A' for Active; 'I' for Inactive)
ROOT
ATOM      1  O1  BZF d   1      -0.597  -0.182   0.106  0.00  0.00    -0.204 OA
ATOM      2  C2  BZF d   1       0.761   0.066   0.123  0.00  0.00     0.174 A 
ATOM      3  C3  BZF d   1       1.093   0.973  -0.819  0.00  0.00    -0.012 A 
ATOM      4  C3A BZF d   1      -0.148   1.381  -1.402  0.00  0.00    -0.107 A 
ATOM      5  C4  BZF d   1      -0.476   2.273  -2.383  0.00  0.00     0.055 A 
ATOM      6  C5  BZF d   1      -1.775   2.383  -2.768  0.00  0.00    -0.016 A 
ATOM      7  C6  BZF d   1      -2.768   1.613  -2.199  0.00  0.00     0.022 A 
ATOM      8  C7  BZF d   1      -2.492   0.718  -1.220  0.00  0.00     0.029 A 
ATOM      9  C7A BZF d   1      -1.186   0.629  -0.805  0.00  0.00     0.058 A 
ENDROOT
TORSDOF 0
ENDMDL
