MODEL 1
REMARK minimizedAffinity -1.12864709
REMARK minimizedRMSD -1
REMARK  1 active torsions:
REMARK  status: ('A' for Active; 'I' for Inactive)
REMARK    1  A    between atoms: C3_4  and  O_7 
ROOT
ATOM      1  C   UNL d   1      -0.884  -0.010   0.264  0.00  0.00    -0.033 A 
ATOM      2  C1  UNL d   1      -0.289   1.252   0.220  0.00  0.00     0.039 A 
ATOM      3  C2  UNL d   1       1.074   1.393   0.491  0.00  0.00    -0.080 A 
ATOM      4  C3  UNL d   1       1.828   0.265   0.803  0.00  0.00     0.150 A 
ATOM      5  C4  UNL d   1       1.242  -0.995   0.845  0.00  0.00    -0.007 A 
ATOM      6  C5  UNL d   1      -0.118  -1.134   0.575  0.00  0.00     0.039 A 
ENDROOT
BRANCH   4   7
ATOM      7  O   UNL d   1       3.160   0.354   1.080  0.00  0.00    -0.526 OA
ATOM      8  H5  UNL d   1       3.421   1.289   1.041  0.00  0.00     0.418 HD
ENDBRANCH   4   7
TORSDOF 1
ENDMDL
