MODEL 1
REMARK minimizedAffinity -4.49567413
REMARK minimizedRMSD -1
REMARK  1 active torsions:
REMARK  status: ('A' for Active; 'I' for Inactive)
REMARK    1  A    between atoms: C3_4  and  O_7 
ROOT
ATOM      1  C   UNL d   1      -0.401   0.491   0.013  0.00  0.00    -0.033 A 
ATOM      2  C1  UNL d   1      -0.040  -0.749   0.544  0.00  0.00     0.039 A 
ATOM      3  C2  UNL d   1       1.277  -0.981   0.945  0.00  0.00    -0.080 A 
ATOM      4  C3  UNL d   1       2.221   0.033   0.811  0.00  0.00     0.150 A 
ATOM      5  C4  UNL d   1       1.867   1.271   0.287  0.00  0.00    -0.007 A 
ATOM      6  C5  UNL d   1       0.552   1.501  -0.115  0.00  0.00     0.039 A 
ENDROOT
BRANCH   4   7
ATOM      7  O   UNL d   1       3.520  -0.149   1.185  0.00  0.00    -0.526 OA
ATOM      8  H5  UNL d   1       3.624  -1.062   1.502  0.00  0.00     0.418 HD
ENDBRANCH   4   7
TORSDOF 1
ENDMDL
