MODEL 1
REMARK minimizedAffinity -3.90565825
REMARK minimizedRMSD -1
REMARK  1 active torsions:
REMARK  status: ('A' for Active; 'I' for Inactive)
REMARK    1  A    between atoms: C3_4  and  O_7 
ROOT
ATOM      1  C   UNL d   1       2.866  -0.640   0.738  0.00  0.00    -0.033 A 
ATOM      2  C1  UNL d   1       2.611   0.691   0.401  0.00  0.00     0.039 A 
ATOM      3  C2  UNL d   1       1.314   1.095   0.079  0.00  0.00    -0.080 A 
ATOM      4  C3  UNL d   1       0.282   0.161   0.099  0.00  0.00     0.150 A 
ATOM      5  C4  UNL d   1       0.529  -1.166   0.437  0.00  0.00    -0.007 A 
ATOM      6  C5  UNL d   1       1.825  -1.568   0.757  0.00  0.00     0.039 A 
ENDROOT
BRANCH   4   7
ATOM      7  O   UNL d   1      -0.999   0.507  -0.212  0.00  0.00    -0.526 OA
ATOM      8  H5  UNL d   1      -1.014   1.448  -0.454  0.00  0.00     0.418 HD
ENDBRANCH   4   7
TORSDOF 1
ENDMDL
