MODEL 1
REMARK minimizedAffinity -5.2512207
REMARK minimizedRMSD -1
REMARK  1 active torsions:
REMARK  status: ('A' for Active; 'I' for Inactive)
REMARK    1  A    between atoms: C3_4  and  O_7 
ROOT
ATOM      1  C   UNL d   1       2.938  -0.928   1.757  0.00  0.00    -0.033 A 
ATOM      2  C1  UNL d   1       1.953  -1.911   1.875  0.00  0.00     0.039 A 
ATOM      3  C2  UNL d   1       0.726  -1.754   1.228  0.00  0.00    -0.080 A 
ATOM      4  C3  UNL d   1       0.497  -0.613   0.466  0.00  0.00     0.150 A 
ATOM      5  C4  UNL d   1       1.474   0.369   0.340  0.00  0.00    -0.007 A 
ATOM      6  C5  UNL d   1       2.699   0.212   0.988  0.00  0.00     0.039 A 
ENDROOT
BRANCH   4   7
ATOM      7  O   UNL d   1      -0.687  -0.413  -0.180  0.00  0.00    -0.526 OA
ATOM      8  H5  UNL d   1      -1.277  -1.159   0.020  0.00  0.00     0.418 HD
ENDBRANCH   4   7
TORSDOF 1
ENDMDL
