MODEL 1
REMARK minimizedAffinity -4.17968798
REMARK minimizedRMSD -1
REMARK  1 active torsions:
REMARK  status: ('A' for Active; 'I' for Inactive)
REMARK    1  A    between atoms: C3_4  and  O_7 
ROOT
ATOM      1  C   UNL d   1       3.506  -0.858   0.698  0.00  0.00    -0.033 A 
ATOM      2  C1  UNL d   1       3.309   0.165  -0.232  0.00  0.00     0.039 A 
ATOM      3  C2  UNL d   1       2.023   0.649  -0.479  0.00  0.00    -0.080 A 
ATOM      4  C3  UNL d   1       0.944   0.104   0.211  0.00  0.00     0.150 A 
ATOM      5  C4  UNL d   1       1.133  -0.912   1.142  0.00  0.00    -0.007 A 
ATOM      6  C5  UNL d   1       2.418  -1.396   1.386  0.00  0.00     0.039 A 
ENDROOT
BRANCH   4   7
ATOM      7  O   UNL d   1      -0.331   0.541   0.001  0.00  0.00    -0.526 OA
ATOM      8  H5  UNL d   1      -0.312   1.225  -0.689  0.00  0.00     0.418 HD
ENDBRANCH   4   7
TORSDOF 1
ENDMDL
