MODEL 1
REMARK minimizedAffinity -4.98838568
REMARK minimizedRMSD -1
REMARK  1 active torsions:
REMARK  status: ('A' for Active; 'I' for Inactive)
REMARK    1  A    between atoms: C3_4  and  O_7 
ROOT
ATOM      1  C   UNL d   1       3.533  -0.693   1.566  0.00  0.00    -0.033 A 
ATOM      2  C1  UNL d   1       2.698  -1.808   1.658  0.00  0.00     0.039 A 
ATOM      3  C2  UNL d   1       1.387  -1.743   1.181  0.00  0.00    -0.080 A 
ATOM      4  C3  UNL d   1       0.925  -0.558   0.613  0.00  0.00     0.150 A 
ATOM      5  C4  UNL d   1       1.753   0.555   0.515  0.00  0.00    -0.007 A 
ATOM      6  C5  UNL d   1       3.061   0.488   0.993  0.00  0.00     0.039 A 
ENDROOT
BRANCH   4   7
ATOM      7  O   UNL d   1      -0.347  -0.445   0.138  0.00  0.00    -0.526 OA
ATOM      8  H5  UNL d   1      -0.812  -1.283   0.299  0.00  0.00     0.418 HD
ENDBRANCH   4   7
TORSDOF 1
ENDMDL
