MODEL 1
REMARK minimizedAffinity -3.68133998
REMARK minimizedRMSD -1
REMARK  1 active torsions:
REMARK  status: ('A' for Active; 'I' for Inactive)
REMARK    1  A    between atoms: C3_4  and  O_7 
ROOT
ATOM      1  C   UNL d   1      -0.256   0.345  -0.314  0.00  0.00    -0.033 A 
ATOM      2  C1  UNL d   1       0.186  -0.957  -0.073  0.00  0.00     0.039 A 
ATOM      3  C2  UNL d   1       1.478  -1.181   0.407  0.00  0.00    -0.080 A 
ATOM      4  C3  UNL d   1       2.317  -0.095   0.643  0.00  0.00     0.150 A 
ATOM      5  C4  UNL d   1       1.882   1.205   0.409  0.00  0.00    -0.007 A 
ATOM      6  C5  UNL d   1       0.592   1.427  -0.071  0.00  0.00     0.039 A 
ENDROOT
BRANCH   4   7
ATOM      7  O   UNL d   1       3.587  -0.264   1.107  0.00  0.00    -0.526 OA
ATOM      8  H5  UNL d   1       3.759  -1.216   1.194  0.00  0.00     0.418 HD
ENDBRANCH   4   7
TORSDOF 1
ENDMDL
