MODEL 1
REMARK minimizedAffinity -4.63057613
REMARK minimizedRMSD -1
REMARK  1 active torsions:
REMARK  status: ('A' for Active; 'I' for Inactive)
REMARK    1  A    between atoms: C3_4  and  O_7 
ROOT
ATOM      1  C   UNL d   1      -0.251   0.028   0.253  0.00  0.00    -0.033 A 
ATOM      2  C1  UNL d   1       0.318  -1.166   0.700  0.00  0.00     0.039 A 
ATOM      3  C2  UNL d   1       1.704  -1.274   0.829  0.00  0.00    -0.080 A 
ATOM      4  C3  UNL d   1       2.508  -0.184   0.509  0.00  0.00     0.150 A 
ATOM      5  C4  UNL d   1       1.947   1.010   0.066  0.00  0.00    -0.007 A 
ATOM      6  C5  UNL d   1       0.563   1.116  -0.063  0.00  0.00     0.039 A 
ENDROOT
BRANCH   4   7
ATOM      7  O   UNL d   1       3.866  -0.244   0.614  0.00  0.00    -0.526 OA
ATOM      8  H5  UNL d   1       4.113  -1.138   0.904  0.00  0.00     0.418 HD
ENDBRANCH   4   7
TORSDOF 1
ENDMDL
