MODEL 1
REMARK minimizedAffinity -4.75000525
REMARK minimizedRMSD -1
REMARK  1 active torsions:
REMARK  status: ('A' for Active; 'I' for Inactive)
REMARK    1  A    between atoms: C3_4  and  O_7 
ROOT
ATOM      1  C   UNL d   1       2.656  -0.078   1.176  0.00  0.00    -0.033 A 
ATOM      2  C1  UNL d   1       1.889   1.082   1.303  0.00  0.00     0.039 A 
ATOM      3  C2  UNL d   1       0.598   1.128   0.774  0.00  0.00    -0.080 A 
ATOM      4  C3  UNL d   1       0.085   0.009   0.124  0.00  0.00     0.150 A 
ATOM      5  C4  UNL d   1       0.843  -1.151  -0.003  0.00  0.00    -0.007 A 
ATOM      6  C5  UNL d   1       2.133  -1.195   0.525  0.00  0.00     0.039 A 
ENDROOT
BRANCH   4   7
ATOM      7  O   UNL d   1      -1.168   0.008  -0.412  0.00  0.00    -0.526 OA
ATOM      8  H5  UNL d   1      -1.563   0.885  -0.274  0.00  0.00     0.418 HD
ENDBRANCH   4   7
TORSDOF 1
ENDMDL
