MODEL 1
REMARK minimizedAffinity 2.1092658
REMARK minimizedRMSD -1
REMARK  0 active torsions:
REMARK  status: ('A' for Active; 'I' for Inactive)
ROOT
ATOM      1  C   UNL d   1       2.484   0.962   1.504  0.00  0.00     0.124 A 
ATOM      2  C1  UNL d   1       3.086  -0.287   1.430  0.00  0.00     0.062 A 
ATOM      3  C2  UNL d   1       2.467  -1.322   0.734  0.00  0.00     0.162 A 
ATOM      4  C3  UNL d   1       1.240  -1.112   0.105  0.00  0.00    -0.034 A 
ATOM      5  C4  UNL d   1       0.641   0.147   0.184  0.00  0.00     0.162 A 
ATOM      6  C5  UNL d   1       1.263   1.177   0.881  0.00  0.00     0.062 A 
ATOM      7  F   UNL d   1       0.681   2.383   0.952  0.00  0.00    -0.097 F 
ATOM      8  F1  UNL d   1      -0.539   0.383  -0.409  0.00  0.00    -0.096 F 
ATOM      9  I   UNL d   1       0.311  -2.656  -0.937  0.00  0.00    -0.060 I 
ATOM     10  F2  UNL d   1       3.071  -2.518   0.678  0.00  0.00    -0.096 F 
ATOM     11  F3  UNL d   1       4.265  -0.499   2.031  0.00  0.00    -0.097 F 
ATOM     12  F4  UNL d   1       3.081   1.955   2.175  0.00  0.00    -0.092 F 
ENDROOT
TORSDOF 0
ENDMDL
