MODEL 1
REMARK minimizedAffinity -1.35460293
REMARK minimizedRMSD -1
REMARK  0 active torsions:
REMARK  status: ('A' for Active; 'I' for Inactive)
ROOT
ATOM      1  C   UNL d   1      -1.805  -0.512   0.356  0.00  0.00     0.124 A 
ATOM      2  C1  UNL d   1      -1.121  -1.583   0.915  0.00  0.00     0.062 A 
ATOM      3  C2  UNL d   1       0.260  -1.521   1.083  0.00  0.00     0.162 A 
ATOM      4  C3  UNL d   1       0.966  -0.383   0.692  0.00  0.00    -0.034 A 
ATOM      5  C4  UNL d   1       0.271   0.689   0.129  0.00  0.00     0.162 A 
ATOM      6  C5  UNL d   1      -1.109   0.622  -0.036  0.00  0.00     0.062 A 
ATOM      7  F   UNL d   1      -1.768   1.658  -0.576  0.00  0.00    -0.097 F 
ATOM      8  F1  UNL d   1       0.918   1.798  -0.258  0.00  0.00    -0.096 F 
ATOM      9  I   UNL d   1       3.030  -0.287   0.940  0.00  0.00    -0.060 I 
ATOM     10  F2  UNL d   1       0.895  -2.570   1.625  0.00  0.00    -0.096 F 
ATOM     11  F3  UNL d   1      -1.791  -2.681   1.294  0.00  0.00    -0.097 F 
ATOM     12  F4  UNL d   1      -3.133  -0.575   0.195  0.00  0.00    -0.092 F 
ENDROOT
TORSDOF 0
ENDMDL
