MODEL 1
REMARK minimizedAffinity 0.97356379
REMARK minimizedRMSD -1
REMARK  0 active torsions:
REMARK  status: ('A' for Active; 'I' for Inactive)
ROOT
ATOM      1  C   UNL d   1       1.898  -0.253   0.921  0.00  0.00     0.124 A 
ATOM      2  C1  UNL d   1       1.811   0.975   0.280  0.00  0.00     0.062 A 
ATOM      3  C2  UNL d   1       0.642   1.339  -0.381  0.00  0.00     0.162 A 
ATOM      4  C3  UNL d   1      -0.452   0.473  -0.404  0.00  0.00    -0.034 A 
ATOM      5  C4  UNL d   1      -0.357  -0.760   0.242  0.00  0.00     0.162 A 
ATOM      6  C5  UNL d   1       0.814  -1.119   0.901  0.00  0.00     0.062 A 
ATOM      7  F   UNL d   1       0.896  -2.306   1.520  0.00  0.00    -0.097 F 
ATOM      8  F1  UNL d   1      -1.390  -1.617   0.239  0.00  0.00    -0.096 F 
ATOM      9  I   UNL d   1      -2.202   1.014  -1.392  0.00  0.00    -0.060 I 
ATOM     10  F2  UNL d   1       0.587   2.532  -0.992  0.00  0.00    -0.096 F 
ATOM     11  F3  UNL d   1       2.857   1.814   0.297  0.00  0.00    -0.097 F 
ATOM     12  F4  UNL d   1       3.025  -0.601   1.556  0.00  0.00    -0.092 F 
ENDROOT
TORSDOF 0
ENDMDL
