MODEL 1
REMARK minimizedAffinity -0.24774532
REMARK minimizedRMSD -1
REMARK  0 active torsions:
REMARK  status: ('A' for Active; 'I' for Inactive)
ROOT
ATOM      1  C   UNL d   1       1.945   1.440   0.526  0.00  0.00     0.124 A 
ATOM      2  C1  UNL d   1       0.881   2.117  -0.053  0.00  0.00     0.062 A 
ATOM      3  C2  UNL d   1      -0.301   1.444  -0.347  0.00  0.00     0.162 A 
ATOM      4  C3  UNL d   1      -0.426   0.084  -0.061  0.00  0.00    -0.034 A 
ATOM      5  C4  UNL d   1       0.649  -0.590   0.521  0.00  0.00     0.162 A 
ATOM      6  C5  UNL d   1       1.828   0.087   0.813  0.00  0.00     0.062 A 
ATOM      7  F   UNL d   1       2.855  -0.569   1.373  0.00  0.00    -0.097 F 
ATOM      8  F1  UNL d   1       0.563  -1.897   0.810  0.00  0.00    -0.096 F 
ATOM      9  I   UNL d   1      -2.191  -0.927  -0.499  0.00  0.00    -0.060 I 
ATOM     10  F2  UNL d   1      -1.312   2.123  -0.907  0.00  0.00    -0.096 F 
ATOM     11  F3  UNL d   1       0.992   3.424  -0.332  0.00  0.00    -0.097 F 
ATOM     12  F4  UNL d   1       3.082   2.091   0.807  0.00  0.00    -0.092 F 
ENDROOT
TORSDOF 0
ENDMDL
