MODEL 1
REMARK minimizedAffinity -1.64682448
REMARK minimizedRMSD -1
REMARK  0 active torsions:
REMARK  status: ('A' for Active; 'I' for Inactive)
ROOT
ATOM      1  C   UNL d   1       2.268  -0.489   0.911  0.00  0.00     0.124 A 
ATOM      2  C1  UNL d   1       1.425  -1.550   0.612  0.00  0.00     0.062 A 
ATOM      3  C2  UNL d   1       0.138  -1.311   0.140  0.00  0.00     0.162 A 
ATOM      4  C3  UNL d   1      -0.315  -0.004  -0.038  0.00  0.00    -0.034 A 
ATOM      5  C4  UNL d   1       0.538   1.059   0.265  0.00  0.00     0.162 A 
ATOM      6  C5  UNL d   1       1.824   0.815   0.738  0.00  0.00     0.062 A 
ATOM      7  F   UNL d   1       2.636   1.842   1.026  0.00  0.00    -0.097 F 
ATOM      8  F1  UNL d   1       0.135   2.328   0.106  0.00  0.00    -0.096 F 
ATOM      9  I   UNL d   1      -2.238   0.358  -0.745  0.00  0.00    -0.060 I 
ATOM     10  F2  UNL d   1      -0.654  -2.356  -0.141  0.00  0.00    -0.096 F 
ATOM     11  F3  UNL d   1       1.852  -2.810   0.780  0.00  0.00    -0.097 F 
ATOM     12  F4  UNL d   1       3.505  -0.722   1.367  0.00  0.00    -0.092 F 
ENDROOT
TORSDOF 0
ENDMDL
