MODEL 1
REMARK minimizedAffinity -5.69339895
REMARK minimizedRMSD -1
REMARK  0 active torsions:
REMARK  status: ('A' for Active; 'I' for Inactive)
ROOT
ATOM      1  C   UNL d   1       2.062  -1.000   1.677  0.00  0.00     0.124 A 
ATOM      2  C1  UNL d   1       2.161  -0.047   0.673  0.00  0.00     0.062 A 
ATOM      3  C2  UNL d   1       1.024   0.363  -0.017  0.00  0.00     0.162 A 
ATOM      4  C3  UNL d   1      -0.223  -0.180   0.294  0.00  0.00    -0.034 A 
ATOM      5  C4  UNL d   1      -0.314  -1.138   1.305  0.00  0.00     0.162 A 
ATOM      6  C5  UNL d   1       0.825  -1.545   1.992  0.00  0.00     0.062 A 
ATOM      7  F   UNL d   1       0.727  -2.466   2.962  0.00  0.00    -0.097 F 
ATOM      8  F1  UNL d   1      -1.497  -1.681   1.630  0.00  0.00    -0.096 F 
ATOM      9  I   UNL d   1      -1.925   0.431  -0.736  0.00  0.00    -0.060 I 
ATOM     10  F2  UNL d   1       1.149   1.285  -0.983  0.00  0.00    -0.096 F 
ATOM     11  F3  UNL d   1       3.355   0.480   0.367  0.00  0.00    -0.097 F 
ATOM     12  F4  UNL d   1       3.157  -1.394   2.340  0.00  0.00    -0.092 F 
ENDROOT
TORSDOF 0
ENDMDL
