MODEL 1
REMARK minimizedAffinity -4.18985748
REMARK minimizedRMSD -1
REMARK  0 active torsions:
REMARK  status: ('A' for Active; 'I' for Inactive)
ROOT
ATOM      1  C   UNL d   1       2.291  -1.349   1.313  0.00  0.00     0.124 A 
ATOM      2  C1  UNL d   1       2.295  -0.134   0.642  0.00  0.00     0.062 A 
ATOM      3  C2  UNL d   1       1.118   0.364   0.090  0.00  0.00     0.162 A 
ATOM      4  C3  UNL d   1      -0.073  -0.351   0.209  0.00  0.00    -0.034 A 
ATOM      5  C4  UNL d   1      -0.069  -1.573   0.886  0.00  0.00     0.162 A 
ATOM      6  C5  UNL d   1       1.110  -2.067   1.435  0.00  0.00     0.062 A 
ATOM      7  F   UNL d   1       1.105  -3.240   2.084  0.00  0.00    -0.097 F 
ATOM      8  F1  UNL d   1      -1.196  -2.287   1.019  0.00  0.00    -0.096 F 
ATOM      9  I   UNL d   1      -1.835   0.391  -0.614  0.00  0.00    -0.060 I 
ATOM     10  F2  UNL d   1       1.151   1.540  -0.554  0.00  0.00    -0.096 F 
ATOM     11  F3  UNL d   1       3.436   0.561   0.522  0.00  0.00    -0.097 F 
ATOM     12  F4  UNL d   1       3.425  -1.827   1.842  0.00  0.00    -0.092 F 
ENDROOT
TORSDOF 0
ENDMDL
