MODEL 1
REMARK minimizedAffinity 2.71250129
REMARK minimizedRMSD -1
REMARK  0 active torsions:
REMARK  status: ('A' for Active; 'I' for Inactive)
ROOT
ATOM      1  C   UNL d   1       2.314  -3.995   0.041  0.00  0.00     0.124 A 
ATOM      2  C1  UNL d   1       2.727  -2.687  -0.175  0.00  0.00     0.062 A 
ATOM      3  C2  UNL d   1       1.987  -1.626   0.339  0.00  0.00     0.162 A 
ATOM      4  C3  UNL d   1       0.827  -1.867   1.075  0.00  0.00    -0.034 A 
ATOM      5  C4  UNL d   1       0.418  -3.185   1.287  0.00  0.00     0.162 A 
ATOM      6  C5  UNL d   1       1.160  -4.242   0.772  0.00  0.00     0.062 A 
ATOM      7  F   UNL d   1       0.760  -5.505   0.981  0.00  0.00    -0.097 F 
ATOM      8  F1  UNL d   1      -0.693  -3.453   1.990  0.00  0.00    -0.096 F 
ATOM      9  I   UNL d   1      -0.282  -0.283   1.845  0.00  0.00    -0.060 I 
ATOM     10  F2  UNL d   1       2.410  -0.372   0.115  0.00  0.00    -0.096 F 
ATOM     11  F3  UNL d   1       3.841  -2.445  -0.881  0.00  0.00    -0.097 F 
ATOM     12  F4  UNL d   1       3.027  -5.014  -0.455  0.00  0.00    -0.092 F 
ENDROOT
TORSDOF 0
ENDMDL
