MODEL 1
REMARK minimizedAffinity 13.2867069
REMARK minimizedRMSD -1
REMARK  0 active torsions:
REMARK  status: ('A' for Active; 'I' for Inactive)
ROOT
ATOM      1  C   UNL d   1       3.040   2.137   3.374  0.00  0.00     0.124 A 
ATOM      2  C1  UNL d   1       2.653   2.856   4.496  0.00  0.00     0.062 A 
ATOM      3  C2  UNL d   1       3.394   3.959   4.911  0.00  0.00     0.162 A 
ATOM      4  C3  UNL d   1       4.530   4.351   4.202  0.00  0.00    -0.034 A 
ATOM      5  C4  UNL d   1       4.913   3.622   3.075  0.00  0.00     0.162 A 
ATOM      6  C5  UNL d   1       4.170   2.521   2.664  0.00  0.00     0.062 A 
ATOM      7  F   UNL d   1       4.545   1.827   1.580  0.00  0.00    -0.097 F 
ATOM      8  F1  UNL d   1       6.000   3.972   2.370  0.00  0.00    -0.096 F 
ATOM      9  I   UNL d   1       5.640   5.999   4.819  0.00  0.00    -0.060 I 
ATOM     10  F2  UNL d   1       2.997   4.635   5.999  0.00  0.00    -0.096 F 
ATOM     11  F3  UNL d   1       1.563   2.487   5.184  0.00  0.00    -0.097 F 
ATOM     12  F4  UNL d   1       2.326   1.075   2.978  0.00  0.00    -0.092 F 
ENDROOT
TORSDOF 0
ENDMDL
