MODEL 1
REMARK minimizedAffinity 21.5802593
REMARK minimizedRMSD -1
REMARK  0 active torsions:
REMARK  status: ('A' for Active; 'I' for Inactive)
ROOT
ATOM      1  C   UNL d   1       2.303  -3.000   0.409  0.00  0.00     0.124 A 
ATOM      2  C1  UNL d   1       3.670  -3.046   0.176  0.00  0.00     0.062 A 
ATOM      3  C2  UNL d   1       4.370  -1.879  -0.118  0.00  0.00     0.162 A 
ATOM      4  C3  UNL d   1       3.703  -0.656  -0.179  0.00  0.00    -0.034 A 
ATOM      5  C4  UNL d   1       2.328  -0.618   0.056  0.00  0.00     0.162 A 
ATOM      6  C5  UNL d   1       1.633  -1.787   0.349  0.00  0.00     0.062 A 
ATOM      7  F   UNL d   1       0.312  -1.740   0.574  0.00  0.00    -0.097 F 
ATOM      8  F1  UNL d   1       1.655   0.542   0.005  0.00  0.00    -0.096 F 
ATOM      9  I   UNL d   1       4.745   1.091  -0.618  0.00  0.00    -0.060 I 
ATOM     10  F2  UNL d   1       5.691  -1.953  -0.339  0.00  0.00    -0.096 F 
ATOM     11  F3  UNL d   1       4.320  -4.218   0.233  0.00  0.00    -0.097 F 
ATOM     12  F4  UNL d   1       1.632  -4.125   0.691  0.00  0.00    -0.092 F 
ENDROOT
TORSDOF 0
ENDMDL
