MODEL 1
REMARK minimizedAffinity 21.30867
REMARK minimizedRMSD -1
REMARK  0 active torsions:
REMARK  status: ('A' for Active; 'I' for Inactive)
ROOT
ATOM      1  C   UNL d   1       2.759  -3.014   1.712  0.00  0.00     0.124 A 
ATOM      2  C1  UNL d   1       3.794  -3.894   1.997  0.00  0.00     0.062 A 
ATOM      3  C2  UNL d   1       4.494  -4.510   0.964  0.00  0.00     0.162 A 
ATOM      4  C3  UNL d   1       4.161  -4.248  -0.365  0.00  0.00    -0.034 A 
ATOM      5  C4  UNL d   1       3.118  -3.363  -0.644  0.00  0.00     0.162 A 
ATOM      6  C5  UNL d   1       2.422  -2.749   0.392  0.00  0.00     0.062 A 
ATOM      7  F   UNL d   1       1.423  -1.899   0.115  0.00  0.00    -0.097 F 
ATOM      8  F1  UNL d   1       2.772  -3.088  -1.911  0.00  0.00    -0.096 F 
ATOM      9  I   UNL d   1       5.204  -5.168  -1.914  0.00  0.00    -0.060 I 
ATOM     10  F2  UNL d   1       5.489  -5.356   1.268  0.00  0.00    -0.096 F 
ATOM     11  F3  UNL d   1       4.121  -4.152   3.272  0.00  0.00    -0.097 F 
ATOM     12  F4  UNL d   1       2.088  -2.423   2.709  0.00  0.00    -0.092 F 
ENDROOT
TORSDOF 0
ENDMDL
