MODEL 1
REMARK minimizedAffinity 12.4339752
REMARK minimizedRMSD -1
REMARK  0 active torsions:
REMARK  status: ('A' for Active; 'I' for Inactive)
ROOT
ATOM      1  C   UNL d   1      -0.179  -2.417   2.035  0.00  0.00     0.124 A 
ATOM      2  C1  UNL d   1       1.073  -1.911   1.715  0.00  0.00     0.062 A 
ATOM      3  C2  UNL d   1       2.067  -2.756   1.229  0.00  0.00     0.162 A 
ATOM      4  C3  UNL d   1       1.812  -4.117   1.059  0.00  0.00    -0.034 A 
ATOM      5  C4  UNL d   1       0.550  -4.619   1.384  0.00  0.00     0.162 A 
ATOM      6  C5  UNL d   1      -0.439  -3.770   1.869  0.00  0.00     0.062 A 
ATOM      7  F   UNL d   1      -1.649  -4.261   2.177  0.00  0.00    -0.097 F 
ATOM      8  F1  UNL d   1       0.271  -5.922   1.232  0.00  0.00    -0.096 F 
ATOM      9  I   UNL d   1       3.294  -5.384   0.333  0.00  0.00    -0.060 I 
ATOM     10  F2  UNL d   1       3.267  -2.240   0.928  0.00  0.00    -0.096 F 
ATOM     11  F3  UNL d   1       1.328  -0.604   1.875  0.00  0.00    -0.097 F 
ATOM     12  F4  UNL d   1      -1.133  -1.601   2.503  0.00  0.00    -0.092 F 
ENDROOT
TORSDOF 0
ENDMDL
