MODEL 1
REMARK minimizedAffinity 17.8129616
REMARK minimizedRMSD -1
REMARK  0 active torsions:
REMARK  status: ('A' for Active; 'I' for Inactive)
ROOT
ATOM      1  C   UNL d   1      -2.988   1.053  -2.699  0.00  0.00     0.124 A 
ATOM      2  C1  UNL d   1      -4.094   0.453  -3.284  0.00  0.00     0.062 A 
ATOM      3  C2  UNL d   1      -4.938   1.192  -4.107  0.00  0.00     0.162 A 
ATOM      4  C3  UNL d   1      -4.680   2.540  -4.352  0.00  0.00    -0.034 A 
ATOM      5  C4  UNL d   1      -3.566   3.138  -3.759  0.00  0.00     0.162 A 
ATOM      6  C5  UNL d   1      -2.725   2.395  -2.937  0.00  0.00     0.062 A 
ATOM      7  F   UNL d   1      -1.657   2.977  -2.372  0.00  0.00    -0.097 F 
ATOM      8  F1  UNL d   1      -3.288   4.433  -3.973  0.00  0.00    -0.096 F 
ATOM      9  I   UNL d   1      -5.940   3.649  -5.582  0.00  0.00    -0.060 I 
ATOM     10  F2  UNL d   1      -6.000   0.585  -4.659  0.00  0.00    -0.096 F 
ATOM     11  F3  UNL d   1      -4.351  -0.843  -3.054  0.00  0.00    -0.097 F 
ATOM     12  F4  UNL d   1      -2.178   0.340  -1.906  0.00  0.00    -0.092 F 
ENDROOT
TORSDOF 0
ENDMDL
