MODEL 1
REMARK minimizedAffinity 21.0302925
REMARK minimizedRMSD -1
REMARK  0 active torsions:
REMARK  status: ('A' for Active; 'I' for Inactive)
ROOT
ATOM      1  C   UNL d   1       0.335  -1.633   0.158  0.00  0.00     0.124 A 
ATOM      2  C1  UNL d   1       1.687  -1.887  -0.026  0.00  0.00     0.062 A 
ATOM      3  C2  UNL d   1       2.535  -1.993   1.073  0.00  0.00     0.162 A 
ATOM      4  C3  UNL d   1       2.033  -1.847   2.366  0.00  0.00    -0.034 A 
ATOM      5  C4  UNL d   1       0.672  -1.590   2.543  0.00  0.00     0.162 A 
ATOM      6  C5  UNL d   1      -0.171  -1.485   1.441  0.00  0.00     0.062 A 
ATOM      7  F   UNL d   1      -1.477  -1.239   1.621  0.00  0.00    -0.097 F 
ATOM      8  F1  UNL d   1       0.156  -1.443   3.772  0.00  0.00    -0.096 F 
ATOM      9  I   UNL d   1       3.298  -2.004   4.011  0.00  0.00    -0.060 I 
ATOM     10  F2  UNL d   1       3.837  -2.240   0.865  0.00  0.00    -0.096 F 
ATOM     11  F3  UNL d   1       2.178  -2.030  -1.265  0.00  0.00    -0.097 F 
ATOM     12  F4  UNL d   1      -0.479  -1.531  -0.901  0.00  0.00    -0.092 F 
ENDROOT
TORSDOF 0
ENDMDL
