MODEL 1
REMARK minimizedAffinity 13.8330011
REMARK minimizedRMSD -1
REMARK  0 active torsions:
REMARK  status: ('A' for Active; 'I' for Inactive)
ROOT
ATOM      1  C   UNL d   1       1.922   2.742   2.402  0.00  0.00     0.124 A 
ATOM      2  C1  UNL d   1       1.207   2.597   3.583  0.00  0.00     0.062 A 
ATOM      3  C2  UNL d   1       1.356   3.526   4.609  0.00  0.00     0.162 A 
ATOM      4  C3  UNL d   1       2.222   4.609   4.459  0.00  0.00    -0.034 A 
ATOM      5  C4  UNL d   1       2.938   4.747   3.268  0.00  0.00     0.162 A 
ATOM      6  C5  UNL d   1       2.786   3.817   2.245  0.00  0.00     0.062 A 
ATOM      7  F   UNL d   1       3.477   3.959   1.105  0.00  0.00    -0.097 F 
ATOM      8  F1  UNL d   1       3.779   5.777   3.090  0.00  0.00    -0.096 F 
ATOM      9  I   UNL d   1       2.447   5.999   5.991  0.00  0.00    -0.060 I 
ATOM     10  F2  UNL d   1       0.653   3.360   5.740  0.00  0.00    -0.096 F 
ATOM     11  F3  UNL d   1       0.372   1.560   3.737  0.00  0.00    -0.097 F 
ATOM     12  F4  UNL d   1       1.777   1.847   1.416  0.00  0.00    -0.092 F 
ENDROOT
TORSDOF 0
ENDMDL
