MODEL 1
REMARK minimizedAffinity -4.40465403
REMARK minimizedRMSD -1
REMARK  0 active torsions:
REMARK  status: ('A' for Active; 'I' for Inactive)
ROOT
ATOM      1  C   UNL d   1      -0.281  -3.179   0.108  0.00  0.00     0.023 A 
ATOM      2  C1  UNL d   1       0.702  -2.602  -0.696  0.00  0.00     0.003 A 
ATOM      3  C2  UNL d   1       0.827  -1.213  -0.759  0.00  0.00     0.048 A 
ATOM      4  C3  UNL d   1      -0.035  -0.407  -0.016  0.00  0.00     0.023 A 
ATOM      5  C4  UNL d   1      -1.020  -0.980   0.790  0.00  0.00     0.048 A 
ATOM      6  C5  UNL d   1      -1.141  -2.369   0.850  0.00  0.00     0.003 A 
ATOM      7  I   UNL d   1       0.148   1.662  -0.109  0.00  0.00    -0.146 I 
ENDROOT
TORSDOF 0
ENDMDL
