MODEL 1
REMARK minimizedAffinity -2.97363353
REMARK minimizedRMSD -1
REMARK  0 active torsions:
REMARK  status: ('A' for Active; 'I' for Inactive)
ROOT
ATOM      1  C   UNL d   1       0.103  -3.108   1.090  0.00  0.00     0.023 A 
ATOM      2  C1  UNL d   1       1.161  -2.752   0.253  0.00  0.00     0.003 A 
ATOM      3  C2  UNL d   1       1.208  -1.475  -0.311  0.00  0.00     0.048 A 
ATOM      4  C3  UNL d   1       0.194  -0.559  -0.033  0.00  0.00     0.023 A 
ATOM      5  C4  UNL d   1      -0.866  -0.910   0.804  0.00  0.00     0.048 A 
ATOM      6  C5  UNL d   1      -0.909  -2.188   1.365  0.00  0.00     0.003 A 
ATOM      7  I   UNL d   1       0.262   1.342  -0.871  0.00  0.00    -0.146 I 
ENDROOT
TORSDOF 0
ENDMDL
