MODEL 1
REMARK minimizedAffinity -2.5360117
REMARK minimizedRMSD -1
REMARK  0 active torsions:
REMARK  status: ('A' for Active; 'I' for Inactive)
ROOT
ATOM      1  C   UNL d   1      -0.460  -2.844   0.535  0.00  0.00     0.023 A 
ATOM      2  C1  UNL d   1      -1.453  -1.901   0.805  0.00  0.00     0.003 A 
ATOM      3  C2  UNL d   1      -1.193  -0.541   0.626  0.00  0.00     0.048 A 
ATOM      4  C3  UNL d   1       0.061  -0.131   0.175  0.00  0.00     0.023 A 
ATOM      5  C4  UNL d   1       1.057  -1.070  -0.097  0.00  0.00     0.048 A 
ATOM      6  C5  UNL d   1       0.793  -2.429   0.085  0.00  0.00     0.003 A 
ATOM      7  I   UNL d   1       0.450   1.893  -0.093  0.00  0.00    -0.146 I 
ENDROOT
TORSDOF 0
ENDMDL
