MODEL 1
REMARK minimizedAffinity -2.99608183
REMARK minimizedRMSD -1
REMARK  0 active torsions:
REMARK  status: ('A' for Active; 'I' for Inactive)
ROOT
ATOM      1  C   UNL d   1      -0.535  -2.705   0.016  0.00  0.00     0.023 A 
ATOM      2  C1  UNL d   1       0.277  -2.064  -0.919  0.00  0.00     0.003 A 
ATOM      3  C2  UNL d   1       0.474  -0.684  -0.845  0.00  0.00     0.048 A 
ATOM      4  C3  UNL d   1      -0.144   0.049   0.168  0.00  0.00     0.023 A 
ATOM      5  C4  UNL d   1      -0.957  -0.588   1.106  0.00  0.00     0.048 A 
ATOM      6  C5  UNL d   1      -1.152  -1.969   1.027  0.00  0.00     0.003 A 
ATOM      7  I   UNL d   1       0.147   2.104   0.281  0.00  0.00    -0.146 I 
ENDROOT
TORSDOF 0
ENDMDL
