MODEL 1
REMARK minimizedAffinity -1.66645455
REMARK minimizedRMSD -1
REMARK  0 active torsions:
REMARK  status: ('A' for Active; 'I' for Inactive)
ROOT
ATOM      1  C   UNL d   1      -0.010  -2.976   0.210  0.00  0.00     0.023 A 
ATOM      2  C1  UNL d   1      -0.888  -2.219   0.987  0.00  0.00     0.003 A 
ATOM      3  C2  UNL d   1      -0.922  -0.829   0.850  0.00  0.00     0.048 A 
ATOM      4  C3  UNL d   1      -0.078  -0.204  -0.066  0.00  0.00     0.023 A 
ATOM      5  C4  UNL d   1       0.801  -0.957  -0.846  0.00  0.00     0.048 A 
ATOM      6  C5  UNL d   1       0.833  -2.346  -0.705  0.00  0.00     0.003 A 
ATOM      7  I   UNL d   1      -0.128   1.864  -0.272  0.00  0.00    -0.146 I 
ENDROOT
TORSDOF 0
ENDMDL
