MODEL 1
REMARK minimizedAffinity -2.32789803
REMARK minimizedRMSD -1
REMARK  0 active torsions:
REMARK  status: ('A' for Active; 'I' for Inactive)
ROOT
ATOM      1  C   UNL d   1      -0.061  -3.167   0.319  0.00  0.00     0.023 A 
ATOM      2  C1  UNL d   1      -1.097  -2.347   0.766  0.00  0.00     0.003 A 
ATOM      3  C2  UNL d   1      -1.062  -0.974   0.511  0.00  0.00     0.048 A 
ATOM      4  C3  UNL d   1       0.011  -0.429  -0.193  0.00  0.00     0.023 A 
ATOM      5  C4  UNL d   1       1.049  -1.246  -0.644  0.00  0.00     0.048 A 
ATOM      6  C5  UNL d   1       1.010  -2.617  -0.385  0.00  0.00     0.003 A 
ATOM      7  I   UNL d   1       0.064   1.614  -0.575  0.00  0.00    -0.146 I 
ENDROOT
TORSDOF 0
ENDMDL
