MODEL 1
REMARK minimizedAffinity -4.12055445
REMARK minimizedRMSD -1
REMARK  0 active torsions:
REMARK  status: ('A' for Active; 'I' for Inactive)
ROOT
ATOM      1  C   UNL d   1      -0.948  -2.401  -0.033  0.00  0.00     0.023 A 
ATOM      2  C1  UNL d   1      -1.289  -1.592   1.050  0.00  0.00     0.003 A 
ATOM      3  C2  UNL d   1      -0.870  -0.260   1.088  0.00  0.00     0.048 A 
ATOM      4  C3  UNL d   1      -0.111   0.256   0.037  0.00  0.00     0.023 A 
ATOM      5  C4  UNL d   1       0.232  -0.550  -1.049  0.00  0.00     0.048 A 
ATOM      6  C5  UNL d   1      -0.188  -1.881  -1.082  0.00  0.00     0.003 A 
ATOM      7  I   UNL d   1       0.513   2.237   0.091  0.00  0.00    -0.146 I 
ENDROOT
TORSDOF 0
ENDMDL
