MODEL 1
REMARK minimizedAffinity -1.93428481
REMARK minimizedRMSD -1
REMARK  0 active torsions:
REMARK  status: ('A' for Active; 'I' for Inactive)
ROOT
ATOM      1  C   UNL d   1      -0.802  -2.082   1.911  0.00  0.00     0.023 A 
ATOM      2  C1  UNL d   1      -1.051  -0.750   1.581  0.00  0.00     0.003 A 
ATOM      3  C2  UNL d   1      -0.592  -0.233   0.368  0.00  0.00     0.048 A 
ATOM      4  C3  UNL d   1       0.115  -1.054  -0.511  0.00  0.00     0.023 A 
ATOM      5  C4  UNL d   1       0.365  -2.388  -0.184  0.00  0.00     0.048 A 
ATOM      6  C5  UNL d   1      -0.095  -2.900   1.030  0.00  0.00     0.003 A 
ATOM      7  I   UNL d   1       0.799  -0.286  -2.317  0.00  0.00    -0.146 I 
ENDROOT
TORSDOF 0
ENDMDL
