MODEL 1
REMARK minimizedAffinity -3.76299047
REMARK minimizedRMSD -1
REMARK  0 active torsions:
REMARK  status: ('A' for Active; 'I' for Inactive)
ROOT
ATOM      1  C   UNL d   1      -0.356  -3.018  -0.118  0.00  0.00     0.023 A 
ATOM      2  C1  UNL d   1      -0.746  -2.402   1.071  0.00  0.00     0.003 A 
ATOM      3  C2  UNL d   1      -0.551  -1.030   1.246  0.00  0.00     0.048 A 
ATOM      4  C3  UNL d   1       0.034  -0.280   0.226  0.00  0.00     0.023 A 
ATOM      5  C4  UNL d   1       0.425  -0.892  -0.966  0.00  0.00     0.048 A 
ATOM      6  C5  UNL d   1       0.229  -2.263  -1.136  0.00  0.00     0.003 A 
ATOM      7  I   UNL d   1       0.326   1.762   0.483  0.00  0.00    -0.146 I 
ENDROOT
TORSDOF 0
ENDMDL
