MODEL 1
REMARK minimizedAffinity -5.30925846
REMARK minimizedRMSD -1
REMARK  0 active torsions:
REMARK  status: ('A' for Active; 'I' for Inactive)
ROOT
ATOM      1  C   UNL d   1       0.323  -3.509  -0.952  0.00  0.00     0.023 A 
ATOM      2  C1  UNL d   1       0.420  -2.626  -2.028  0.00  0.00     0.003 A 
ATOM      3  C2  UNL d   1       0.421  -1.247  -1.803  0.00  0.00     0.048 A 
ATOM      4  C3  UNL d   1       0.325  -0.760  -0.500  0.00  0.00     0.023 A 
ATOM      5  C4  UNL d   1       0.229  -1.640   0.579  0.00  0.00     0.048 A 
ATOM      6  C5  UNL d   1       0.227  -3.017   0.349  0.00  0.00     0.003 A 
ATOM      7  I   UNL d   1       0.327   1.291  -0.162  0.00  0.00    -0.146 I 
ENDROOT
TORSDOF 0
ENDMDL
