MODEL 1
REMARK minimizedAffinity -1.92548954
REMARK minimizedRMSD -1
REMARK  0 active torsions:
REMARK  status: ('A' for Active; 'I' for Inactive)
ROOT
ATOM      1  C   UNL d   1      -0.468  -2.831   0.692  0.00  0.00     0.023 A 
ATOM      2  C1  UNL d   1       0.446  -2.369  -0.255  0.00  0.00     0.003 A 
ATOM      3  C2  UNL d   1       0.560  -1.000  -0.508  0.00  0.00     0.048 A 
ATOM      4  C3  UNL d   1      -0.243  -0.099   0.190  0.00  0.00     0.023 A 
ATOM      5  C4  UNL d   1      -1.159  -0.557   1.139  0.00  0.00     0.048 A 
ATOM      6  C5  UNL d   1      -1.270  -1.926   1.388  0.00  0.00     0.003 A 
ATOM      7  I   UNL d   1      -0.075   1.938  -0.184  0.00  0.00    -0.146 I 
ENDROOT
TORSDOF 0
ENDMDL
