MODEL 1
REMARK minimizedAffinity -2.29651284
REMARK minimizedRMSD -1
REMARK  0 active torsions:
REMARK  status: ('A' for Active; 'I' for Inactive)
ROOT
ATOM      1  C   UNL d   1      -0.183  -2.804   0.733  0.00  0.00     0.023 A 
ATOM      2  C1  UNL d   1      -1.123  -1.857   1.139  0.00  0.00     0.003 A 
ATOM      3  C2  UNL d   1      -1.038  -0.543   0.674  0.00  0.00     0.048 A 
ATOM      4  C3  UNL d   1      -0.010  -0.183  -0.197  0.00  0.00     0.023 A 
ATOM      5  C4  UNL d   1       0.932  -1.127  -0.607  0.00  0.00     0.048 A 
ATOM      6  C5  UNL d   1       0.844  -2.440  -0.139  0.00  0.00     0.003 A 
ATOM      7  I   UNL d   1       0.118   1.772  -0.890  0.00  0.00    -0.146 I 
ENDROOT
TORSDOF 0
ENDMDL
