MODEL 1
REMARK minimizedAffinity -1.91576052
REMARK minimizedRMSD -1
REMARK  0 active torsions:
REMARK  status: ('A' for Active; 'I' for Inactive)
ROOT
ATOM      1  C   UNL d   1      -0.319  -3.128   0.812  0.00  0.00     0.023 A 
ATOM      2  C1  UNL d   1      -1.245  -2.166   1.214  0.00  0.00     0.003 A 
ATOM      3  C2  UNL d   1      -1.097  -0.839   0.806  0.00  0.00     0.048 A 
ATOM      4  C3  UNL d   1      -0.021  -0.481  -0.004  0.00  0.00     0.023 A 
ATOM      5  C4  UNL d   1       0.908  -1.440  -0.410  0.00  0.00     0.048 A 
ATOM      6  C5  UNL d   1       0.757  -2.766   0.001  0.00  0.00     0.003 A 
ATOM      7  I   UNL d   1       0.201   1.494  -0.613  0.00  0.00    -0.146 I 
ENDROOT
TORSDOF 0
ENDMDL
