MODEL 1
REMARK minimizedAffinity -1.28080821
REMARK minimizedRMSD -1
REMARK  0 active torsions:
REMARK  status: ('A' for Active; 'I' for Inactive)
ROOT
ATOM      1  C   UNL d   1      -0.212  -2.824   0.508  0.00  0.00     0.023 A 
ATOM      2  C1  UNL d   1      -1.114  -1.925   1.076  0.00  0.00     0.003 A 
ATOM      3  C2  UNL d   1      -0.892  -0.550   0.972  0.00  0.00     0.048 A 
ATOM      4  C3  UNL d   1       0.235  -0.082   0.297  0.00  0.00     0.023 A 
ATOM      5  C4  UNL d   1       1.140  -0.978  -0.274  0.00  0.00     0.048 A 
ATOM      6  C5  UNL d   1       0.914  -2.351  -0.166  0.00  0.00     0.003 A 
ATOM      7  I   UNL d   1       0.569   1.964   0.140  0.00  0.00    -0.146 I 
ENDROOT
TORSDOF 0
ENDMDL
