MODEL 1
REMARK minimizedAffinity 15.1815968
REMARK minimizedRMSD -1
REMARK  0 active torsions:
REMARK  status: ('A' for Active; 'I' for Inactive)
ROOT
ATOM      1  C   UNL d   1      -3.608   1.404   4.671  0.00  0.00    -0.002 A 
ATOM      2  C1  UNL d   1      -3.593   1.149   3.307  0.00  0.00     0.010 A 
ATOM      3  C2  UNL d   1      -3.619  -0.163   2.829  0.00  0.00     0.041 A 
ATOM      4  C3  UNL d   1      -3.663  -1.224   3.755  0.00  0.00    -0.075 A 
ATOM      5  S   UNL d   1      -3.702  -2.911   3.400  0.00  0.00     0.015 SA
ATOM      6  C4  UNL d   1      -3.740  -3.333   5.051  0.00  0.00     0.022 A 
ATOM      7  C5  UNL d   1      -3.724  -2.226   5.867  0.00  0.00     0.026 A 
ATOM      8  C6  UNL d   1      -3.680  -0.993   5.133  0.00  0.00    -0.082 A 
ATOM      9  C7  UNL d   1      -3.651   0.348   5.586  0.00  0.00     0.045 A 
ENDROOT
TORSDOF 0
ENDMDL
