MODEL 1
REMARK minimizedAffinity 14.1475496
REMARK minimizedRMSD -1
REMARK  0 active torsions:
REMARK  status: ('A' for Active; 'I' for Inactive)
ROOT
ATOM      1  C   UNL d   1      -3.838  -2.569   4.150  0.00  0.00    -0.002 A 
ATOM      2  C1  UNL d   1      -3.753  -2.254   5.498  0.00  0.00     0.010 A 
ATOM      3  C2  UNL d   1      -3.589  -0.930   5.910  0.00  0.00     0.041 A 
ATOM      4  C3  UNL d   1      -3.512   0.083   4.933  0.00  0.00    -0.075 A 
ATOM      5  S   UNL d   1      -3.312   1.774   5.202  0.00  0.00     0.015 SA
ATOM      6  C4  UNL d   1      -3.336   2.118   3.533  0.00  0.00     0.022 A 
ATOM      7  C5  UNL d   1      -3.492   0.983   2.774  0.00  0.00     0.026 A 
ATOM      8  C6  UNL d   1      -3.596  -0.209   3.569  0.00  0.00    -0.082 A 
ATOM      9  C7  UNL d   1      -3.762  -1.562   3.184  0.00  0.00     0.045 A 
ENDROOT
TORSDOF 0
ENDMDL
