MODEL 1
REMARK minimizedAffinity 14.4029741
REMARK minimizedRMSD -1
REMARK  0 active torsions:
REMARK  status: ('A' for Active; 'I' for Inactive)
ROOT
ATOM      1  C   UNL d   1       1.986  -2.576  -1.173  0.00  0.00    -0.002 A 
ATOM      2  C1  UNL d   1       3.069  -2.980  -0.407  0.00  0.00     0.010 A 
ATOM      3  C2  UNL d   1       3.927  -2.038   0.164  0.00  0.00     0.041 A 
ATOM      4  C3  UNL d   1       3.673  -0.669  -0.049  0.00  0.00    -0.075 A 
ATOM      5  S   UNL d   1       4.588   0.663   0.553  0.00  0.00     0.015 SA
ATOM      6  C4  UNL d   1       3.561   1.801  -0.193  0.00  0.00     0.022 A 
ATOM      7  C5  UNL d   1       2.540   1.197  -0.888  0.00  0.00     0.026 A 
ATOM      8  C6  UNL d   1       2.588  -0.237  -0.816  0.00  0.00    -0.082 A 
ATOM      9  C7  UNL d   1       1.737  -1.217  -1.382  0.00  0.00     0.045 A 
ENDROOT
TORSDOF 0
ENDMDL
