MODEL 1
REMARK minimizedAffinity 18.4310837
REMARK minimizedRMSD -1
REMARK  0 active torsions:
REMARK  status: ('A' for Active; 'I' for Inactive)
ROOT
ATOM      1  C   UNL d   1       3.419   0.626  -1.117  0.00  0.00    -0.002 A 
ATOM      2  C1  UNL d   1       2.283  -0.111  -1.420  0.00  0.00     0.010 A 
ATOM      3  C2  UNL d   1       1.172  -0.083  -0.574  0.00  0.00     0.041 A 
ATOM      4  C3  UNL d   1       1.223   0.707   0.592  0.00  0.00    -0.075 A 
ATOM      5  S   UNL d   1      -0.018   0.896   1.774  0.00  0.00     0.015 SA
ATOM      6  C4  UNL d   1       0.931   1.959   2.709  0.00  0.00     0.022 A 
ATOM      7  C5  UNL d   1       2.167   2.175   2.147  0.00  0.00     0.026 A 
ATOM      8  C6  UNL d   1       2.356   1.458   0.918  0.00  0.00    -0.082 A 
ATOM      9  C7  UNL d   1       3.466   1.408   0.040  0.00  0.00     0.045 A 
ENDROOT
TORSDOF 0
ENDMDL
