MODEL 1
REMARK minimizedAffinity 30.7370739
REMARK minimizedRMSD -1
REMARK  0 active torsions:
REMARK  status: ('A' for Active; 'I' for Inactive)
ROOT
ATOM      1  C   UNL d   1       2.239  -2.329  -0.529  0.00  0.00    -0.002 A 
ATOM      2  C1  UNL d   1       1.463  -1.564  -1.388  0.00  0.00     0.010 A 
ATOM      3  C2  UNL d   1       1.671  -0.187  -1.496  0.00  0.00     0.041 A 
ATOM      4  C3  UNL d   1       2.682   0.412  -0.720  0.00  0.00    -0.075 A 
ATOM      5  S   UNL d   1       3.117   2.081  -0.689  0.00  0.00     0.015 SA
ATOM      6  C4  UNL d   1       4.343   1.816   0.466  0.00  0.00     0.022 A 
ATOM      7  C5  UNL d   1       4.432   0.493   0.829  0.00  0.00     0.026 A 
ATOM      8  C6  UNL d   1       3.477  -0.338   0.152  0.00  0.00    -0.082 A 
ATOM      9  C7  UNL d   1       3.241  -1.731   0.239  0.00  0.00     0.045 A 
ENDROOT
TORSDOF 0
ENDMDL
