MODEL 1
REMARK minimizedAffinity 10.7463589
REMARK minimizedRMSD -1
REMARK  0 active torsions:
REMARK  status: ('A' for Active; 'I' for Inactive)
ROOT
ATOM      1  C   UNL d   1       2.962  -2.622  -0.240  0.00  0.00    -0.002 A 
ATOM      2  C1  UNL d   1       2.322  -2.151  -1.378  0.00  0.00     0.010 A 
ATOM      3  C2  UNL d   1       2.384  -0.798  -1.719  0.00  0.00     0.041 A 
ATOM      4  C3  UNL d   1       3.107   0.082  -0.890  0.00  0.00    -0.075 A 
ATOM      5  S   UNL d   1       3.320   1.778  -1.110  0.00  0.00     0.015 SA
ATOM      6  C4  UNL d   1       4.267   1.918   0.301  0.00  0.00     0.022 A 
ATOM      7  C5  UNL d   1       4.426   0.709   0.937  0.00  0.00     0.026 A 
ATOM      8  C6  UNL d   1       3.761  -0.369   0.261  0.00  0.00    -0.082 A 
ATOM      9  C7  UNL d   1       3.679  -1.746   0.580  0.00  0.00     0.045 A 
ENDROOT
TORSDOF 0
ENDMDL
