MODEL 1
REMARK minimizedAffinity 24.0474625
REMARK minimizedRMSD -1
REMARK  0 active torsions:
REMARK  status: ('A' for Active; 'I' for Inactive)
ROOT
ATOM      1  C   UNL d   1       0.417   2.067   1.831  0.00  0.00    -0.002 A 
ATOM      2  C1  UNL d   1       0.914   1.073   2.661  0.00  0.00     0.010 A 
ATOM      3  C2  UNL d   1       0.047   0.210   3.334  0.00  0.00     0.041 A 
ATOM      4  C3  UNL d   1      -1.342   0.363   3.156  0.00  0.00    -0.075 A 
ATOM      5  S   UNL d   1      -2.593  -0.578   3.877  0.00  0.00     0.015 SA
ATOM      6  C4  UNL d   1      -3.817   0.317   3.100  0.00  0.00     0.022 A 
ATOM      7  C5  UNL d   1      -3.302   1.313   2.305  0.00  0.00     0.026 A 
ATOM      8  C6  UNL d   1      -1.867   1.356   2.324  0.00  0.00    -0.082 A 
ATOM      9  C7  UNL d   1      -0.961   2.216   1.656  0.00  0.00     0.045 A 
ENDROOT
TORSDOF 0
ENDMDL
