MODEL 1
REMARK minimizedAffinity 24.037077
REMARK minimizedRMSD -1
REMARK  0 active torsions:
REMARK  status: ('A' for Active; 'I' for Inactive)
ROOT
ATOM      1  C   UNL d   1       0.962   0.517   2.648  0.00  0.00    -0.002 A 
ATOM      2  C1  UNL d   1       0.661   1.315   3.742  0.00  0.00     0.010 A 
ATOM      3  C2  UNL d   1      -0.667   1.589   4.078  0.00  0.00     0.041 A 
ATOM      4  C3  UNL d   1      -1.697   1.040   3.289  0.00  0.00    -0.075 A 
ATOM      5  S   UNL d   1      -3.395   1.238   3.511  0.00  0.00     0.015 SA
ATOM      6  C4  UNL d   1      -3.761   0.267   2.159  0.00  0.00     0.022 A 
ATOM      7  C5  UNL d   1      -2.627  -0.205   1.541  0.00  0.00     0.026 A 
ATOM      8  C6  UNL d   1      -1.418   0.232   2.183  0.00  0.00    -0.082 A 
ATOM      9  C7  UNL d   1      -0.063  -0.026   1.868  0.00  0.00     0.045 A 
ENDROOT
TORSDOF 0
ENDMDL
