MODEL 1
REMARK minimizedAffinity 16.4017792
REMARK minimizedRMSD -1
REMARK  0 active torsions:
REMARK  status: ('A' for Active; 'I' for Inactive)
ROOT
ATOM      1  C   UNL d   1      -1.531   0.559   1.635  0.00  0.00    -0.002 A 
ATOM      2  C1  UNL d   1      -2.668   1.124   2.196  0.00  0.00     0.010 A 
ATOM      3  C2  UNL d   1      -2.687   1.494   3.542  0.00  0.00     0.041 A 
ATOM      4  C3  UNL d   1      -1.532   1.287   4.322  0.00  0.00    -0.075 A 
ATOM      5  S   UNL d   1      -1.324   1.664   5.992  0.00  0.00     0.015 SA
ATOM      6  C4  UNL d   1       0.279   1.084   6.000  0.00  0.00     0.022 A 
ATOM      7  C5  UNL d   1       0.662   0.611   4.767  0.00  0.00     0.026 A 
ATOM      8  C6  UNL d   1      -0.375   0.721   3.780  0.00  0.00    -0.082 A 
ATOM      9  C7  UNL d   1      -0.388   0.355   2.412  0.00  0.00     0.045 A 
ENDROOT
TORSDOF 0
ENDMDL
