MODEL 1
REMARK minimizedAffinity 17.9672966
REMARK minimizedRMSD -1
REMARK  0 active torsions:
REMARK  status: ('A' for Active; 'I' for Inactive)
ROOT
ATOM      1  C   UNL d   1      -5.137   3.695   4.510  0.00  0.00    -0.002 A 
ATOM      2  C1  UNL d   1      -4.519   3.493   5.736  0.00  0.00     0.010 A 
ATOM      3  C2  UNL d   1      -3.820   2.312   5.993  0.00  0.00     0.041 A 
ATOM      4  C3  UNL d   1      -3.750   1.329   4.987  0.00  0.00    -0.075 A 
ATOM      5  S   UNL d   1      -2.948  -0.195   5.077  0.00  0.00     0.015 SA
ATOM      6  C4  UNL d   1      -3.406  -0.614   3.490  0.00  0.00     0.022 A 
ATOM      7  C5  UNL d   1      -4.153   0.373   2.891  0.00  0.00     0.026 A 
ATOM      8  C6  UNL d   1      -4.363   1.509   3.744  0.00  0.00    -0.082 A 
ATOM      9  C7  UNL d   1      -5.065   2.717   3.515  0.00  0.00     0.045 A 
ENDROOT
TORSDOF 0
ENDMDL
