MODEL 1
REMARK minimizedAffinity 13.2373238
REMARK minimizedRMSD -1
REMARK  0 active torsions:
REMARK  status: ('A' for Active; 'I' for Inactive)
ROOT
ATOM      1  C   UNL d   1       0.735   0.546   2.987  0.00  0.00    -0.002 A 
ATOM      2  C1  UNL d   1       0.601   1.479   4.005  0.00  0.00     0.010 A 
ATOM      3  C2  UNL d   1      -0.661   1.935   4.390  0.00  0.00     0.041 A 
ATOM      4  C3  UNL d   1      -1.798   1.430   3.729  0.00  0.00    -0.075 A 
ATOM      5  S   UNL d   1      -3.445   1.842   4.031  0.00  0.00     0.015 SA
ATOM      6  C4  UNL d   1      -4.009   0.788   2.817  0.00  0.00     0.022 A 
ATOM      7  C5  UNL d   1      -2.980   0.130   2.186  0.00  0.00     0.026 A 
ATOM      8  C6  UNL d   1      -1.689   0.489   2.701  0.00  0.00    -0.082 A 
ATOM      9  C7  UNL d   1      -0.395   0.047   2.334  0.00  0.00     0.045 A 
ENDROOT
TORSDOF 0
ENDMDL
