MODEL 1
REMARK minimizedAffinity 2.5852735
REMARK minimizedRMSD -1
REMARK  1 active torsions:
REMARK  status: ('A' for Active; 'I' for Inactive)
REMARK    1  A    between atoms: N_2  and  C1_3 
ROOT
ATOM      1  C1  UNL d   1      -2.667  -4.050  -4.306  0.00  0.00     0.143 A 
ATOM      2  C2  UNL d   1      -3.205  -5.027  -5.151  0.00  0.00    -0.057 A 
ATOM      3  C3  UNL d   1      -4.283  -4.742  -5.998  0.00  0.00     0.033 A 
ATOM      4  C4  UNL d   1      -4.862  -3.477  -5.993  0.00  0.00    -0.042 A 
ATOM      5  C5  UNL d   1      -4.360  -2.498  -5.144  0.00  0.00     0.033 A 
ATOM      6  C6  UNL d   1      -3.279  -2.787  -4.306  0.00  0.00    -0.057 A 
ENDROOT
BRANCH   1   7
ATOM      7  N   UNL d   1      -1.660  -4.299  -3.370  0.00  0.00    -0.732 N 
ATOM      8  C   UNL d   1      -1.880  -5.227  -2.281  0.00  0.00     0.284 C 
ATOM      9  H3  UNL d   1      -0.741  -4.372  -3.799  0.00  0.00     0.395 HD
ENDBRANCH   1   7
TORSDOF 1
ENDMDL
