MODEL 1
REMARK minimizedAffinity 11.0466986
REMARK minimizedRMSD -1
REMARK  1 active torsions:
REMARK  status: ('A' for Active; 'I' for Inactive)
REMARK    1  A    between atoms: N_2  and  C1_3 
ROOT
ATOM      1  C1  UNL d   1       2.681  -3.582  -0.822  0.00  0.00     0.143 A 
ATOM      2  C2  UNL d   1       2.236  -3.645  -2.147  0.00  0.00    -0.057 A 
ATOM      3  C3  UNL d   1       1.865  -2.489  -2.844  0.00  0.00     0.033 A 
ATOM      4  C4  UNL d   1       1.905  -1.248  -2.217  0.00  0.00    -0.042 A 
ATOM      5  C5  UNL d   1       2.321  -1.164  -0.892  0.00  0.00     0.033 A 
ATOM      6  C6  UNL d   1       2.696  -2.322  -0.204  0.00  0.00    -0.057 A 
ENDROOT
BRANCH   1   7
ATOM      7  N   UNL d   1       2.970  -4.706  -0.045  0.00  0.00    -0.732 N 
ATOM      8  C   UNL d   1       3.274  -5.976  -0.669  0.00  0.00     0.284 C 
ATOM      9  H3  UNL d   1       3.559  -4.484   0.755  0.00  0.00     0.395 HD
ENDBRANCH   1   7
TORSDOF 1
ENDMDL
