MODEL 1
REMARK minimizedAffinity 4.57659674
REMARK minimizedRMSD -1
REMARK  1 active torsions:
REMARK  status: ('A' for Active; 'I' for Inactive)
REMARK    1  A    between atoms: N_2  and  C1_3 
ROOT
ATOM      1  C1  UNL d   1      -3.728  -3.310  -5.327  0.00  0.00     0.143 A 
ATOM      2  C2  UNL d   1      -3.161  -4.399  -5.998  0.00  0.00    -0.057 A 
ATOM      3  C3  UNL d   1      -2.276  -5.270  -5.351  0.00  0.00     0.033 A 
ATOM      4  C4  UNL d   1      -1.918  -5.049  -4.025  0.00  0.00    -0.042 A 
ATOM      5  C5  UNL d   1      -2.450  -3.959  -3.345  0.00  0.00     0.033 A 
ATOM      6  C6  UNL d   1      -3.339  -3.097  -3.995  0.00  0.00    -0.057 A 
ENDROOT
BRANCH   1   7
ATOM      7  N   UNL d   1      -4.537  -2.352  -5.943  0.00  0.00    -0.732 N 
ATOM      8  C   UNL d   1      -5.972  -2.526  -5.999  0.00  0.00     0.284 C 
ATOM      9  H3  UNL d   1      -4.241  -1.402  -5.733  0.00  0.00     0.395 HD
ENDBRANCH   1   7
TORSDOF 1
ENDMDL
