MODEL 1
REMARK minimizedAffinity 10.0690193
REMARK minimizedRMSD -1
REMARK  1 active torsions:
REMARK  status: ('A' for Active; 'I' for Inactive)
REMARK    1  A    between atoms: N_2  and  C1_3 
ROOT
ATOM      1  C1  UNL d   1       3.781  -0.546   0.143  0.00  0.00     0.143 A 
ATOM      2  C2  UNL d   1       2.893  -0.041  -0.813  0.00  0.00    -0.057 A 
ATOM      3  C3  UNL d   1       2.198  -0.893  -1.680  0.00  0.00     0.033 A 
ATOM      4  C4  UNL d   1       2.401  -2.268  -1.624  0.00  0.00    -0.042 A 
ATOM      5  C5  UNL d   1       3.298  -2.790  -0.699  0.00  0.00     0.033 A 
ATOM      6  C6  UNL d   1       3.984  -1.935   0.168  0.00  0.00    -0.057 A 
ENDROOT
BRANCH   1   7
ATOM      7  N   UNL d   1       4.575   0.256   0.966  0.00  0.00    -0.732 N 
ATOM      8  C   UNL d   1       5.354   1.341   0.409  0.00  0.00     0.284 C 
ATOM      9  H3  UNL d   1       4.118   0.482   1.847  0.00  0.00     0.395 HD
ENDBRANCH   1   7
TORSDOF 1
ENDMDL
