MODEL 1
REMARK minimizedAffinity 13.4784088
REMARK minimizedRMSD -1
REMARK  1 active torsions:
REMARK  status: ('A' for Active; 'I' for Inactive)
REMARK    1  A    between atoms: N_2  and  C1_3 
ROOT
ATOM      1  C1  UNL d   1       2.283  -3.356   0.043  0.00  0.00     0.143 A 
ATOM      2  C2  UNL d   1       3.561  -2.793   0.123  0.00  0.00    -0.057 A 
ATOM      3  C3  UNL d   1       3.785  -1.451  -0.209  0.00  0.00     0.033 A 
ATOM      4  C4  UNL d   1       2.736  -0.654  -0.655  0.00  0.00    -0.042 A 
ATOM      5  C5  UNL d   1       1.462  -1.200  -0.765  0.00  0.00     0.033 A 
ATOM      6  C6  UNL d   1       1.244  -2.538  -0.427  0.00  0.00    -0.057 A 
ENDROOT
BRANCH   1   7
ATOM      7  N   UNL d   1       2.014  -4.709   0.264  0.00  0.00    -0.732 N 
ATOM      8  C   UNL d   1       3.095  -5.660   0.416  0.00  0.00     0.284 C 
ATOM      9  H3  UNL d   1       1.242  -4.851   0.911  0.00  0.00     0.395 HD
ENDBRANCH   1   7
TORSDOF 1
ENDMDL
