MODEL 1
REMARK minimizedAffinity 4.12098503
REMARK minimizedRMSD -1
REMARK  1 active torsions:
REMARK  status: ('A' for Active; 'I' for Inactive)
REMARK    1  A    between atoms: N_2  and  C1_3 
ROOT
ATOM      1  C1  UNL d   1      -3.146  -3.775  -5.200  0.00  0.00     0.143 A 
ATOM      2  C2  UNL d   1      -2.892  -4.894  -6.000  0.00  0.00    -0.057 A 
ATOM      3  C3  UNL d   1      -2.189  -5.998  -5.502  0.00  0.00     0.033 A 
ATOM      4  C4  UNL d   1      -1.702  -5.990  -4.199  0.00  0.00    -0.042 A 
ATOM      5  C5  UNL d   1      -1.922  -4.879  -3.394  0.00  0.00     0.033 A 
ATOM      6  C6  UNL d   1      -2.630  -3.782  -3.894  0.00  0.00    -0.057 A 
ENDROOT
BRANCH   1   7
ATOM      7  N   UNL d   1      -3.753  -2.607  -5.667  0.00  0.00    -0.732 N 
ATOM      8  C   UNL d   1      -5.163  -2.587  -5.993  0.00  0.00     0.284 C 
ATOM      9  H3  UNL d   1      -3.429  -1.777  -5.174  0.00  0.00     0.395 HD
ENDBRANCH   1   7
TORSDOF 1
ENDMDL
