MODEL 1
REMARK minimizedAffinity 14.4450855
REMARK minimizedRMSD -1
REMARK  1 active torsions:
REMARK  status: ('A' for Active; 'I' for Inactive)
REMARK    1  A    between atoms: N_2  and  C1_3 
ROOT
ATOM      1  C1  UNL d   1      -4.334   2.095   3.636  0.00  0.00     0.143 A 
ATOM      2  C2  UNL d   1      -2.981   1.973   3.298  0.00  0.00    -0.057 A 
ATOM      3  C3  UNL d   1      -2.502   0.849   2.616  0.00  0.00     0.033 A 
ATOM      4  C4  UNL d   1      -3.364  -0.191   2.284  0.00  0.00    -0.042 A 
ATOM      5  C5  UNL d   1      -4.707  -0.103   2.631  0.00  0.00     0.033 A 
ATOM      6  C6  UNL d   1      -5.182   1.026   3.306  0.00  0.00    -0.057 A 
ENDROOT
BRANCH   1   7
ATOM      7  N   UNL d   1      -4.854   3.142   4.400  0.00  0.00    -0.732 N 
ATOM      8  C   UNL d   1      -4.482   3.295   5.791  0.00  0.00     0.284 C 
ATOM      9  H3  UNL d   1      -4.896   4.017   3.883  0.00  0.00     0.395 HD
ENDBRANCH   1   7
TORSDOF 1
ENDMDL
