MODEL 1
REMARK minimizedAffinity 14.3389702
REMARK minimizedRMSD -1
REMARK  1 active torsions:
REMARK  status: ('A' for Active; 'I' for Inactive)
REMARK    1  A    between atoms: N_2  and  C1_3 
ROOT
ATOM      1  C1  UNL d   1       2.611  -3.671  -0.829  0.00  0.00     0.143 A 
ATOM      2  C2  UNL d   1       2.735  -5.036  -0.547  0.00  0.00    -0.057 A 
ATOM      3  C3  UNL d   1       2.071  -5.999  -1.316  0.00  0.00     0.033 A 
ATOM      4  C4  UNL d   1       1.245  -5.612  -2.365  0.00  0.00    -0.042 A 
ATOM      5  C5  UNL d   1       1.086  -4.260  -2.648  0.00  0.00     0.033 A 
ATOM      6  C6  UNL d   1       1.757  -3.303  -1.881  0.00  0.00    -0.057 A 
ENDROOT
BRANCH   1   7
ATOM      7  N   UNL d   1       3.167  -2.660  -0.041  0.00  0.00    -0.732 N 
ATOM      8  C   UNL d   1       2.511  -1.375   0.080  0.00  0.00     0.284 C 
ATOM      9  H3  UNL d   1       3.551  -3.015   0.832  0.00  0.00     0.395 HD
ENDBRANCH   1   7
TORSDOF 1
ENDMDL
