MODEL 1
REMARK minimizedAffinity 17.8036995
REMARK minimizedRMSD -1
REMARK  1 active torsions:
REMARK  status: ('A' for Active; 'I' for Inactive)
REMARK    1  A    between atoms: N_2  and  C1_3 
ROOT
ATOM      1  C1  UNL d   1      -4.558  -4.036  -4.916  0.00  0.00     0.143 A 
ATOM      2  C2  UNL d   1      -4.064  -4.559  -3.716  0.00  0.00    -0.057 A 
ATOM      3  C3  UNL d   1      -2.917  -4.030  -3.111  0.00  0.00     0.033 A 
ATOM      4  C4  UNL d   1      -2.225  -2.984  -3.713  0.00  0.00    -0.042 A 
ATOM      5  C5  UNL d   1      -2.684  -2.466  -4.919  0.00  0.00     0.033 A 
ATOM      6  C6  UNL d   1      -3.833  -2.994  -5.514  0.00  0.00    -0.057 A 
ENDROOT
BRANCH   1   7
ATOM      7  N   UNL d   1      -5.636  -4.582  -5.617  0.00  0.00    -0.732 N 
ATOM      8  C   UNL d   1      -5.635  -5.978  -5.999  0.00  0.00     0.284 C 
ATOM      9  H3  UNL d   1      -6.533  -4.246  -5.274  0.00  0.00     0.395 HD
ENDBRANCH   1   7
TORSDOF 1
ENDMDL
