MODEL 1
REMARK minimizedAffinity 6.633883
REMARK minimizedRMSD -1
REMARK  1 active torsions:
REMARK  status: ('A' for Active; 'I' for Inactive)
REMARK    1  A    between atoms: N_2  and  C1_3 
ROOT
ATOM      1  C1  UNL d   1       1.701  -0.803  -1.153  0.00  0.00     0.143 A 
ATOM      2  C2  UNL d   1       2.305   0.352  -0.644  0.00  0.00    -0.057 A 
ATOM      3  C3  UNL d   1       2.595   1.444  -1.471  0.00  0.00     0.033 A 
ATOM      4  C4  UNL d   1       2.311   1.389  -2.831  0.00  0.00    -0.042 A 
ATOM      5  C5  UNL d   1       1.734   0.241  -3.363  0.00  0.00     0.033 A 
ATOM      6  C6  UNL d   1       1.440  -0.844  -2.532  0.00  0.00    -0.057 A 
ENDROOT
BRANCH   1   7
ATOM      7  N   UNL d   1       1.478  -1.960  -0.402  0.00  0.00    -0.732 N 
ATOM      8  C   UNL d   1       2.507  -2.970  -0.281  0.00  0.00     0.284 C 
ATOM      9  H3  UNL d   1       0.978  -1.770   0.464  0.00  0.00     0.395 HD
ENDBRANCH   1   7
TORSDOF 1
ENDMDL
