MODEL 1
REMARK minimizedAffinity 12.0698528
REMARK minimizedRMSD -1
REMARK  1 active torsions:
REMARK  status: ('A' for Active; 'I' for Inactive)
REMARK    1  A    between atoms: N_2  and  C1_3 
ROOT
ATOM      1  C1  UNL d   1      -4.327   1.570   4.165  0.00  0.00     0.143 A 
ATOM      2  C2  UNL d   1      -3.744   1.450   5.431  0.00  0.00    -0.057 A 
ATOM      3  C3  UNL d   1      -3.259   0.220   5.893  0.00  0.00     0.033 A 
ATOM      4  C4  UNL d   1      -3.375  -0.921   5.106  0.00  0.00    -0.042 A 
ATOM      5  C5  UNL d   1      -3.973  -0.830   3.854  0.00  0.00     0.033 A 
ATOM      6  C6  UNL d   1      -4.450   0.402   3.396  0.00  0.00    -0.057 A 
ENDROOT
BRANCH   1   7
ATOM      7  N   UNL d   1      -4.917   2.743   3.689  0.00  0.00    -0.732 N 
ATOM      8  C   UNL d   1      -5.987   3.382   4.425  0.00  0.00     0.284 C 
ATOM      9  H3  UNL d   1      -4.236   3.390   3.300  0.00  0.00     0.395 HD
ENDBRANCH   1   7
TORSDOF 1
ENDMDL
