MODEL 1
REMARK minimizedAffinity 21.9255466
REMARK minimizedRMSD -1
REMARK  1 active torsions:
REMARK  status: ('A' for Active; 'I' for Inactive)
REMARK    1  A    between atoms: N_2  and  C1_3 
ROOT
ATOM      1  C1  UNL d   1      -3.475   1.623   3.617  0.00  0.00     0.143 A 
ATOM      2  C2  UNL d   1      -3.206   1.643   4.990  0.00  0.00    -0.057 A 
ATOM      3  C3  UNL d   1      -4.055   2.303   5.887  0.00  0.00     0.033 A 
ATOM      4  C4  UNL d   1      -5.176   2.982   5.421  0.00  0.00    -0.042 A 
ATOM      5  C5  UNL d   1      -5.449   2.997   4.058  0.00  0.00     0.033 A 
ATOM      6  C6  UNL d   1      -4.602   2.330   3.168  0.00  0.00    -0.057 A 
ENDROOT
BRANCH   1   7
ATOM      7  N   UNL d   1      -2.617   1.068   2.664  0.00  0.00    -0.732 N 
ATOM      8  C   UNL d   1      -1.344   1.689   2.368  0.00  0.00     0.284 C 
ATOM      9  H3  UNL d   1      -2.582   0.053   2.718  0.00  0.00     0.395 HD
ENDBRANCH   1   7
TORSDOF 1
ENDMDL
