MODEL 1
REMARK minimizedAffinity -2.06701326
REMARK minimizedRMSD -1
REMARK  1 active torsions:
REMARK  status: ('A' for Active; 'I' for Inactive)
REMARK    1  A    between atoms: C1_2  and  C2_3 
ROOT
ATOM      1  C2  UNL d   1       0.877  -0.248  -0.087  0.00  0.00    -0.073 A 
ATOM      2  C3  UNL d   1      -0.191   0.555  -0.502  0.00  0.00    -0.002 A 
ATOM      3  C4  UNL d   1      -0.570   0.586  -1.844  0.00  0.00     0.004 A 
ATOM      4  C5  UNL d   1       0.110  -0.190  -2.783  0.00  0.00    -0.004 A 
ATOM      5  C6  UNL d   1       1.172  -1.008  -2.386  0.00  0.00    -0.075 A 
ATOM      6  C7  UNL d   1       1.915  -1.847  -3.384  0.00  0.00     0.076 C 
ATOM      7  C8  UNL d   1       1.548  -1.031  -1.037  0.00  0.00     0.001 A 
ENDROOT
BRANCH   1   8
ATOM      8  C1  UNL d   1       1.286  -0.289   1.363  0.00  0.00     0.053 C 
ATOM      9  C   UNL d   1       0.263   0.386   2.263  0.00  0.00     0.018 C 
ENDBRANCH   1   8
TORSDOF 1
ENDMDL
