MODEL 1
REMARK minimizedAffinity -3.62218404
REMARK minimizedRMSD -1
REMARK  1 active torsions:
REMARK  status: ('A' for Active; 'I' for Inactive)
REMARK    1  A    between atoms: C1_2  and  C2_3 
ROOT
ATOM      1  C2  UNL d   1      -0.028   0.136  -0.357  0.00  0.00    -0.073 A 
ATOM      2  C3  UNL d   1       1.043  -0.021   0.529  0.00  0.00    -0.002 A 
ATOM      3  C4  UNL d   1       0.848   0.120   1.904  0.00  0.00     0.004 A 
ATOM      4  C5  UNL d   1      -0.420   0.414   2.406  0.00  0.00    -0.004 A 
ATOM      5  C6  UNL d   1      -1.506   0.563   1.537  0.00  0.00    -0.075 A 
ATOM      6  C7  UNL d   1      -2.875   0.881   2.061  0.00  0.00     0.076 C 
ATOM      7  C8  UNL d   1      -1.301   0.422   0.158  0.00  0.00     0.001 A 
ENDROOT
BRANCH   1   8
ATOM      8  C1  UNL d   1       0.177  -0.022  -1.842  0.00  0.00     0.053 C 
ATOM      9  C   UNL d   1       0.306  -1.482  -2.247  0.00  0.00     0.018 C 
ENDBRANCH   1   8
TORSDOF 1
ENDMDL
