MODEL 1
REMARK minimizedAffinity -3.96573257
REMARK minimizedRMSD -1
REMARK  1 active torsions:
REMARK  status: ('A' for Active; 'I' for Inactive)
REMARK    1  A    between atoms: C1_2  and  C2_3 
ROOT
ATOM      1  C2  UNL d   1       0.597  -0.572  -0.435  0.00  0.00    -0.073 A 
ATOM      2  C3  UNL d   1       0.178   0.733  -0.719  0.00  0.00    -0.002 A 
ATOM      3  C4  UNL d   1       0.137   1.188  -2.038  0.00  0.00     0.004 A 
ATOM      4  C5  UNL d   1       0.508   0.343  -3.084  0.00  0.00    -0.004 A 
ATOM      5  C6  UNL d   1       0.917  -0.968  -2.821  0.00  0.00    -0.075 A 
ATOM      6  C7  UNL d   1       1.321  -1.889  -3.935  0.00  0.00     0.076 C 
ATOM      7  C8  UNL d   1       0.958  -1.417  -1.494  0.00  0.00     0.001 A 
ENDROOT
BRANCH   1   8
ATOM      8  C1  UNL d   1       0.636  -1.070   0.987  0.00  0.00     0.053 C 
ATOM      9  C   UNL d   1       0.679   0.072   1.990  0.00  0.00     0.018 C 
ENDBRANCH   1   8
TORSDOF 1
ENDMDL
