MODEL 1
REMARK minimizedAffinity -1.98030221
REMARK minimizedRMSD -1
REMARK  1 active torsions:
REMARK  status: ('A' for Active; 'I' for Inactive)
REMARK    1  A    between atoms: C1_2  and  C2_3 
ROOT
ATOM      1  C2  UNL d   1      -0.246   0.456  -1.265  0.00  0.00    -0.073 A 
ATOM      2  C3  UNL d   1      -1.633   0.606  -1.143  0.00  0.00    -0.002 A 
ATOM      3  C4  UNL d   1      -2.235   0.593   0.116  0.00  0.00     0.004 A 
ATOM      4  C5  UNL d   1      -1.458   0.437   1.264  0.00  0.00    -0.004 A 
ATOM      5  C6  UNL d   1      -0.070   0.298   1.163  0.00  0.00    -0.075 A 
ATOM      6  C7  UNL d   1       0.779   0.128   2.389  0.00  0.00     0.076 C 
ATOM      7  C8  UNL d   1       0.527   0.310  -0.104  0.00  0.00     0.001 A 
ENDROOT
BRANCH   1   8
ATOM      8  C1  UNL d   1       0.409   0.476  -2.622  0.00  0.00     0.053 C 
ATOM      9  C   UNL d   1       0.469  -0.909  -3.246  0.00  0.00     0.018 C 
ENDBRANCH   1   8
TORSDOF 1
ENDMDL
