MODEL 1
REMARK minimizedAffinity -1.40287912
REMARK minimizedRMSD -1
REMARK  1 active torsions:
REMARK  status: ('A' for Active; 'I' for Inactive)
REMARK    1  A    between atoms: C1_2  and  C2_3 
ROOT
ATOM      1  C2  UNL d   1      -0.250  -0.089  -0.379  0.00  0.00    -0.073 A 
ATOM      2  C3  UNL d   1       0.894  -0.253   0.410  0.00  0.00    -0.002 A 
ATOM      3  C4  UNL d   1       0.846  -0.002   1.782  0.00  0.00     0.004 A 
ATOM      4  C5  UNL d   1      -0.346   0.408   2.379  0.00  0.00    -0.004 A 
ATOM      5  C6  UNL d   1      -1.503   0.567   1.609  0.00  0.00    -0.075 A 
ATOM      6  C7  UNL d   1      -2.792   1.010   2.236  0.00  0.00     0.076 C 
ATOM      7  C8  UNL d   1      -1.446   0.315   0.232  0.00  0.00     0.001 A 
ENDROOT
BRANCH   1   8
ATOM      8  C1  UNL d   1      -0.205  -0.365  -1.860  0.00  0.00     0.053 C 
ATOM      9  C   UNL d   1       1.192  -0.181  -2.432  0.00  0.00     0.018 C 
ENDBRANCH   1   8
TORSDOF 1
ENDMDL
