MODEL 1
REMARK minimizedAffinity -3.4363544
REMARK minimizedRMSD -1
REMARK  1 active torsions:
REMARK  status: ('A' for Active; 'I' for Inactive)
REMARK    1  A    between atoms: C1_2  and  C2_3 
ROOT
ATOM      1  C2  UNL d   1       0.701  -0.514   0.084  0.00  0.00    -0.073 A 
ATOM      2  C3  UNL d   1       0.269   0.781  -0.223  0.00  0.00    -0.002 A 
ATOM      3  C4  UNL d   1       0.172   1.195  -1.552  0.00  0.00     0.004 A 
ATOM      4  C5  UNL d   1       0.497   0.317  -2.586  0.00  0.00    -0.004 A 
ATOM      5  C6  UNL d   1       0.919  -0.985  -2.300  0.00  0.00    -0.075 A 
ATOM      6  C7  UNL d   1       1.275  -1.941  -3.400  0.00  0.00     0.076 C 
ATOM      7  C8  UNL d   1       1.017  -1.392  -0.962  0.00  0.00     0.001 A 
ENDROOT
BRANCH   1   8
ATOM      8  C1  UNL d   1       0.802  -0.967   1.518  0.00  0.00     0.053 C 
ATOM      9  C   UNL d   1       0.632   0.186   2.494  0.00  0.00     0.018 C 
ENDBRANCH   1   8
TORSDOF 1
ENDMDL
