MODEL 1
REMARK minimizedAffinity -3.67089891
REMARK minimizedRMSD -1
REMARK  1 active torsions:
REMARK  status: ('A' for Active; 'I' for Inactive)
REMARK    1  A    between atoms: C1_2  and  C2_3 
ROOT
ATOM      1  C2  UNL d   1       0.593  -0.215  -0.020  0.00  0.00    -0.073 A 
ATOM      2  C3  UNL d   1       1.706  -1.010   0.279  0.00  0.00    -0.002 A 
ATOM      3  C4  UNL d   1       2.355  -1.721  -0.731  0.00  0.00     0.004 A 
ATOM      4  C5  UNL d   1       1.904  -1.640  -2.048  0.00  0.00    -0.004 A 
ATOM      5  C6  UNL d   1       0.801  -0.842  -2.369  0.00  0.00    -0.075 A 
ATOM      6  C7  UNL d   1       0.302  -0.746  -3.780  0.00  0.00     0.076 C 
ATOM      7  C8  UNL d   1       0.152  -0.133  -1.349  0.00  0.00     0.001 A 
ENDROOT
BRANCH   1   8
ATOM      8  C1  UNL d   1      -0.108   0.560   1.066  0.00  0.00     0.053 C 
ATOM      9  C   UNL d   1       0.810   0.847   2.244  0.00  0.00     0.018 C 
ENDBRANCH   1   8
TORSDOF 1
ENDMDL
