MODEL 1
REMARK minimizedAffinity -0.976806641
REMARK minimizedRMSD -1
REMARK  1 active torsions:
REMARK  status: ('A' for Active; 'I' for Inactive)
REMARK    1  A    between atoms: C1_2  and  C2_3 
ROOT
ATOM      1  C2  UNL d   1       0.069   0.119   0.947  0.00  0.00    -0.073 A 
ATOM      2  C3  UNL d   1       0.558   0.244   2.253  0.00  0.00    -0.002 A 
ATOM      3  C4  UNL d   1      -0.309   0.544   3.304  0.00  0.00     0.004 A 
ATOM      4  C5  UNL d   1      -1.672   0.715   3.063  0.00  0.00    -0.004 A 
ATOM      5  C6  UNL d   1      -2.182   0.583   1.767  0.00  0.00    -0.075 A 
ATOM      6  C7  UNL d   1      -3.645   0.766   1.491  0.00  0.00     0.076 C 
ATOM      7  C8  UNL d   1      -1.304   0.284   0.716  0.00  0.00     0.001 A 
ENDROOT
BRANCH   1   8
ATOM      8  C1  UNL d   1       1.000  -0.211  -0.190  0.00  0.00     0.053 C 
ATOM      9  C   UNL d   1       0.368   0.069  -1.544  0.00  0.00     0.018 C 
ENDBRANCH   1   8
TORSDOF 1
ENDMDL
