MODEL 1
REMARK minimizedAffinity -0.634414971
REMARK minimizedRMSD -1
REMARK  1 active torsions:
REMARK  status: ('A' for Active; 'I' for Inactive)
REMARK    1  A    between atoms: C1_2  and  C2_3 
ROOT
ATOM      1  C2  UNL d   1       0.693   0.021   0.445  0.00  0.00    -0.073 A 
ATOM      2  C3  UNL d   1      -0.445   0.823   0.300  0.00  0.00    -0.002 A 
ATOM      3  C4  UNL d   1      -1.062   0.952  -0.945  0.00  0.00     0.004 A 
ATOM      4  C5  UNL d   1      -0.553   0.277  -2.054  0.00  0.00    -0.004 A 
ATOM      5  C6  UNL d   1       0.576  -0.538  -1.927  0.00  0.00    -0.075 A 
ATOM      6  C7  UNL d   1       1.137  -1.269  -3.111  0.00  0.00     0.076 C 
ATOM      7  C8  UNL d   1       1.192  -0.661  -0.674  0.00  0.00     0.001 A 
ENDROOT
BRANCH   1   8
ATOM      8  C1  UNL d   1       1.359  -0.127   1.789  0.00  0.00     0.053 C 
ATOM      9  C   UNL d   1       0.638   0.659   2.872  0.00  0.00     0.018 C 
ENDBRANCH   1   8
TORSDOF 1
ENDMDL
