MODEL 1
REMARK minimizedAffinity -4.99796057
REMARK minimizedRMSD -1
REMARK  1 active torsions:
REMARK  status: ('A' for Active; 'I' for Inactive)
REMARK    1  A    between atoms: C1_2  and  C2_3 
ROOT
ATOM      1  C2  UNL d   1      -0.142   0.298   0.011  0.00  0.00    -0.073 A 
ATOM      2  C3  UNL d   1       0.822   0.015   0.985  0.00  0.00    -0.002 A 
ATOM      3  C4  UNL d   1       0.472  -0.014   2.335  0.00  0.00     0.004 A 
ATOM      4  C5  UNL d   1      -0.845   0.231   2.725  0.00  0.00    -0.004 A 
ATOM      5  C6  UNL d   1      -1.825   0.503   1.765  0.00  0.00    -0.075 A 
ATOM      6  C7  UNL d   1      -3.245   0.771   2.168  0.00  0.00     0.076 C 
ATOM      7  C8  UNL d   1      -1.465   0.534   0.411  0.00  0.00     0.001 A 
ENDROOT
BRANCH   1   8
ATOM      8  C1  UNL d   1       0.230   0.325  -1.449  0.00  0.00     0.053 C 
ATOM      9  C   UNL d   1       0.295  -1.071  -2.047  0.00  0.00     0.018 C 
ENDBRANCH   1   8
TORSDOF 1
ENDMDL
