MODEL 1
REMARK minimizedAffinity -4.57224083
REMARK minimizedRMSD -1
REMARK  1 active torsions:
REMARK  status: ('A' for Active; 'I' for Inactive)
REMARK    1  A    between atoms: C1_2  and  C2_3 
ROOT
ATOM      1  C2  UNL d   1      -1.706   0.382   1.664  0.00  0.00    -0.073 A 
ATOM      2  C3  UNL d   1      -0.726   0.398   2.663  0.00  0.00    -0.002 A 
ATOM      3  C4  UNL d   1       0.620   0.240   2.333  0.00  0.00     0.004 A 
ATOM      4  C5  UNL d   1       1.001   0.073   1.001  0.00  0.00    -0.004 A 
ATOM      5  C6  UNL d   1       0.038   0.066  -0.012  0.00  0.00    -0.075 A 
ATOM      6  C7  UNL d   1       0.431  -0.116  -1.449  0.00  0.00     0.076 C 
ATOM      7  C8  UNL d   1      -1.313   0.222   0.328  0.00  0.00     0.001 A 
ENDROOT
BRANCH   1   8
ATOM      8  C1  UNL d   1      -3.161   0.558   2.016  0.00  0.00     0.053 C 
ATOM      9  C   UNL d   1      -3.466   1.971   2.488  0.00  0.00     0.018 C 
ENDBRANCH   1   8
TORSDOF 1
ENDMDL
