MODEL 1
REMARK minimizedAffinity -1.26176894
REMARK minimizedRMSD -1
REMARK  1 active torsions:
REMARK  status: ('A' for Active; 'I' for Inactive)
REMARK    1  A    between atoms: C1_2  and  C2_3 
ROOT
ATOM      1  C2  UNL d   1       0.391  -0.760  -2.242  0.00  0.00    -0.073 A 
ATOM      2  C3  UNL d   1      -0.442   0.362  -2.305  0.00  0.00    -0.002 A 
ATOM      3  C4  UNL d   1      -0.618   1.174  -1.184  0.00  0.00     0.004 A 
ATOM      4  C5  UNL d   1       0.042   0.876   0.009  0.00  0.00    -0.004 A 
ATOM      5  C6  UNL d   1       0.888  -0.235   0.089  0.00  0.00    -0.075 A 
ATOM      6  C7  UNL d   1       1.603  -0.570   1.365  0.00  0.00     0.076 C 
ATOM      7  C8  UNL d   1       1.057  -1.046  -1.041  0.00  0.00     0.001 A 
ENDROOT
BRANCH   1   8
ATOM      8  C1  UNL d   1       0.590  -1.636  -3.452  0.00  0.00     0.053 C 
ATOM      9  C   UNL d   1       1.830  -2.506  -3.329  0.00  0.00     0.018 C 
ENDBRANCH   1   8
TORSDOF 1
ENDMDL
