MODEL 1
REMARK minimizedAffinity -5.14349127
REMARK minimizedRMSD -1
REMARK  1 active torsions:
REMARK  status: ('A' for Active; 'I' for Inactive)
REMARK    1  A    between atoms: C1_2  and  C2_3 
ROOT
ATOM      1  C2  UNL d   1       0.587  -0.371  -0.052  0.00  0.00    -0.073 A 
ATOM      2  C3  UNL d   1      -0.536   0.388  -0.397  0.00  0.00    -0.002 A 
ATOM      3  C4  UNL d   1      -0.749   0.770  -1.722  0.00  0.00     0.004 A 
ATOM      4  C5  UNL d   1       0.154   0.392  -2.715  0.00  0.00    -0.004 A 
ATOM      5  C6  UNL d   1       1.277  -0.377  -2.392  0.00  0.00    -0.075 A 
ATOM      6  C7  UNL d   1       2.259  -0.791  -3.448  0.00  0.00     0.076 C 
ATOM      7  C8  UNL d   1       1.485  -0.755  -1.059  0.00  0.00     0.001 A 
ENDROOT
BRANCH   1   8
ATOM      8  C1  UNL d   1       0.817  -0.792   1.377  0.00  0.00     0.053 C 
ATOM      9  C   UNL d   1       0.091   0.112   2.361  0.00  0.00     0.018 C 
ENDBRANCH   1   8
TORSDOF 1
ENDMDL
