MODEL 1
REMARK minimizedAffinity -4.71199703
REMARK minimizedRMSD -1
REMARK  1 active torsions:
REMARK  status: ('A' for Active; 'I' for Inactive)
REMARK    1  A    between atoms: C1_2  and  C2_3 
ROOT
ATOM      1  C2  UNL d   1       0.047   0.170   0.311  0.00  0.00    -0.077 A 
ATOM      2  C3  UNL d   1      -1.003   1.050   0.609  0.00  0.00     0.002 A 
ATOM      3  C4  UNL d   1      -0.813   2.431   0.521  0.00  0.00     0.002 A 
ATOM      4  C5  UNL d   1       0.423   2.943   0.132  0.00  0.00    -0.004 A 
ATOM      5  C6  UNL d   1       1.474   2.075  -0.165  0.00  0.00     0.002 A 
ATOM      6  C7  UNL d   1       1.286   0.695  -0.077  0.00  0.00     0.002 A 
ENDROOT
BRANCH   1   7
ATOM      7  C1  UNL d   1      -0.170  -1.320   0.357  0.00  0.00     0.055 C 
ATOM      8  C   UNL d   1      -0.340  -1.898  -1.041  0.00  0.00     0.019 C 
ENDBRANCH   1   7
TORSDOF 1
ENDMDL
