MODEL 1
REMARK minimizedAffinity -5.02988911
REMARK minimizedRMSD -1
REMARK  1 active torsions:
REMARK  status: ('A' for Active; 'I' for Inactive)
REMARK    1  A    between atoms: C1_2  and  C2_3 
ROOT
ATOM      1  C2  UNL d   1       0.006   0.260   0.252  0.00  0.00    -0.077 A 
ATOM      2  C3  UNL d   1       1.134   0.852  -0.331  0.00  0.00     0.002 A 
ATOM      3  C4  UNL d   1       1.225   2.241  -0.441  0.00  0.00     0.002 A 
ATOM      4  C5  UNL d   1       0.193   3.048   0.033  0.00  0.00    -0.004 A 
ATOM      5  C6  UNL d   1      -0.935   2.468   0.612  0.00  0.00     0.002 A 
ATOM      6  C7  UNL d   1      -1.028   1.080   0.722  0.00  0.00     0.002 A 
ENDROOT
BRANCH   1   7
ATOM      7  C1  UNL d   1      -0.072  -1.236   0.416  0.00  0.00     0.055 C 
ATOM      8  C   UNL d   1      -0.216  -1.934  -0.928  0.00  0.00     0.019 C 
ENDBRANCH   1   7
TORSDOF 1
ENDMDL
