MODEL 1
REMARK minimizedAffinity -4.02279043
REMARK minimizedRMSD -1
REMARK  1 active torsions:
REMARK  status: ('A' for Active; 'I' for Inactive)
REMARK    1  A    between atoms: C1_2  and  C2_3 
ROOT
ATOM      1  C2  UNL d   1       0.165  -1.098  -0.450  0.00  0.00    -0.077 A 
ATOM      2  C3  UNL d   1      -0.748  -0.188  -1.001  0.00  0.00     0.002 A 
ATOM      3  C4  UNL d   1      -0.573   1.185  -0.819  0.00  0.00     0.002 A 
ATOM      4  C5  UNL d   1       0.515   1.660  -0.090  0.00  0.00    -0.004 A 
ATOM      5  C6  UNL d   1       1.428   0.763   0.463  0.00  0.00     0.002 A 
ATOM      6  C7  UNL d   1       1.254  -0.610   0.283  0.00  0.00     0.002 A 
ENDROOT
BRANCH   1   7
ATOM      7  C1  UNL d   1       0.006  -2.578  -0.687  0.00  0.00     0.055 C 
ATOM      8  C   UNL d   1      -0.051  -2.897  -2.174  0.00  0.00     0.019 C 
ENDBRANCH   1   7
TORSDOF 1
ENDMDL
