MODEL 1
REMARK minimizedAffinity -2.79635453
REMARK minimizedRMSD -1
REMARK  1 active torsions:
REMARK  status: ('A' for Active; 'I' for Inactive)
REMARK    1  A    between atoms: C1_2  and  C2_3 
ROOT
ATOM      1  C2  UNL d   1       0.256   2.028   0.718  0.00  0.00    -0.077 A 
ATOM      2  C3  UNL d   1      -0.686   1.028   0.440  0.00  0.00     0.002 A 
ATOM      3  C4  UNL d   1      -0.278  -0.295   0.254  0.00  0.00     0.002 A 
ATOM      4  C5  UNL d   1       1.071  -0.629   0.348  0.00  0.00    -0.004 A 
ATOM      5  C6  UNL d   1       2.016   0.359   0.622  0.00  0.00     0.002 A 
ATOM      6  C7  UNL d   1       1.611   1.681   0.807  0.00  0.00     0.002 A 
ENDROOT
BRANCH   1   7
ATOM      7  C1  UNL d   1      -0.187   3.446   0.967  0.00  0.00     0.055 C 
ATOM      8  C   UNL d   1      -0.600   3.649   2.418  0.00  0.00     0.019 C 
ENDBRANCH   1   7
TORSDOF 1
ENDMDL
