MODEL 1
REMARK minimizedAffinity -1.88849735
REMARK minimizedRMSD -1
REMARK  1 active torsions:
REMARK  status: ('A' for Active; 'I' for Inactive)
REMARK    1  A    between atoms: C1_2  and  C2_3 
ROOT
ATOM      1  C2  UNL d   1       0.396  -0.316  -0.191  0.00  0.00    -0.077 A 
ATOM      2  C3  UNL d   1       1.767  -0.025  -0.175  0.00  0.00     0.002 A 
ATOM      3  C4  UNL d   1       2.209   1.299  -0.204  0.00  0.00     0.002 A 
ATOM      4  C5  UNL d   1       1.286   2.342  -0.245  0.00  0.00    -0.004 A 
ATOM      5  C6  UNL d   1      -0.080   2.063  -0.263  0.00  0.00     0.002 A 
ATOM      6  C7  UNL d   1      -0.523   0.740  -0.236  0.00  0.00     0.002 A 
ENDROOT
BRANCH   1   7
ATOM      7  C1  UNL d   1      -0.083  -1.742  -0.110  0.00  0.00     0.055 C 
ATOM      8  C   UNL d   1      -0.225  -2.357  -1.495  0.00  0.00     0.019 C 
ENDBRANCH   1   7
TORSDOF 1
ENDMDL
