MODEL 1
REMARK minimizedAffinity -4.25182343
REMARK minimizedRMSD -1
REMARK  1 active torsions:
REMARK  status: ('A' for Active; 'I' for Inactive)
REMARK    1  A    between atoms: C1_2  and  C2_3 
ROOT
ATOM      1  C2  UNL d   1      -0.377   0.779   0.281  0.00  0.00    -0.077 A 
ATOM      2  C3  UNL d   1       0.991   0.473   0.249  0.00  0.00     0.002 A 
ATOM      3  C4  UNL d   1       1.944   1.492   0.318  0.00  0.00     0.002 A 
ATOM      4  C5  UNL d   1       1.539   2.821   0.423  0.00  0.00    -0.004 A 
ATOM      5  C6  UNL d   1       0.181   3.135   0.454  0.00  0.00     0.002 A 
ATOM      6  C7  UNL d   1      -0.773   2.118   0.384  0.00  0.00     0.002 A 
ENDROOT
BRANCH   1   7
ATOM      7  C1  UNL d   1      -1.406  -0.322   0.257  0.00  0.00     0.055 C 
ATOM      8  C   UNL d   1      -2.499  -0.080   1.288  0.00  0.00     0.019 C 
ENDBRANCH   1   7
TORSDOF 1
ENDMDL
