MODEL 1
REMARK minimizedAffinity -5.54249811
REMARK minimizedRMSD -1
REMARK  1 active torsions:
REMARK  status: ('A' for Active; 'I' for Inactive)
REMARK    1  A    between atoms: C1_2  and  C2_3 
ROOT
ATOM      1  C2  UNL d   1       0.539   1.023   0.468  0.00  0.00    -0.077 A 
ATOM      2  C3  UNL d   1       1.920   0.795   0.556  0.00  0.00     0.002 A 
ATOM      3  C4  UNL d   1       2.814   1.867   0.553  0.00  0.00     0.002 A 
ATOM      4  C5  UNL d   1       2.339   3.174   0.467  0.00  0.00    -0.004 A 
ATOM      5  C6  UNL d   1       0.967   3.411   0.377  0.00  0.00     0.002 A 
ATOM      6  C7  UNL d   1       0.072   2.341   0.378  0.00  0.00     0.002 A 
ENDROOT
BRANCH   1   7
ATOM      7  C1  UNL d   1      -0.430  -0.129   0.520  0.00  0.00     0.055 C 
ATOM      8  C   UNL d   1      -1.528   0.118   1.544  0.00  0.00     0.019 C 
ENDBRANCH   1   7
TORSDOF 1
ENDMDL
