MODEL 1
REMARK minimizedAffinity -5.77149296
REMARK minimizedRMSD -1
REMARK  1 active torsions:
REMARK  status: ('A' for Active; 'I' for Inactive)
REMARK    1  A    between atoms: C1_2  and  C2_3 
ROOT
ATOM      1  C2  UNL d   1       0.350   0.290   0.441  0.00  0.00    -0.077 A 
ATOM      2  C3  UNL d   1       1.615   0.834   0.702  0.00  0.00     0.002 A 
ATOM      3  C4  UNL d   1       1.838   2.205   0.555  0.00  0.00     0.002 A 
ATOM      4  C5  UNL d   1       0.801   3.042   0.152  0.00  0.00    -0.004 A 
ATOM      5  C6  UNL d   1      -0.461   2.511  -0.111  0.00  0.00     0.002 A 
ATOM      6  C7  UNL d   1      -0.686   1.141   0.033  0.00  0.00     0.002 A 
ENDROOT
BRANCH   1   7
ATOM      7  C1  UNL d   1       0.094  -1.180   0.646  0.00  0.00     0.055 C 
ATOM      8  C   UNL d   1      -0.376  -1.845  -0.640  0.00  0.00     0.019 C 
ENDBRANCH   1   7
TORSDOF 1
ENDMDL
