MODEL 1
REMARK minimizedAffinity -2.23816419
REMARK minimizedRMSD -1
REMARK  1 active torsions:
REMARK  status: ('A' for Active; 'I' for Inactive)
REMARK    1  A    between atoms: C1_2  and  C2_3 
ROOT
ATOM      1  C2  UNL d   1       0.136   0.922   0.682  0.00  0.00    -0.077 A 
ATOM      2  C3  UNL d   1      -0.141   2.189   1.216  0.00  0.00     0.002 A 
ATOM      3  C4  UNL d   1       0.785   3.226   1.090  0.00  0.00     0.002 A 
ATOM      4  C5  UNL d   1       1.991   3.010   0.428  0.00  0.00    -0.004 A 
ATOM      5  C6  UNL d   1       2.277   1.753  -0.105  0.00  0.00     0.002 A 
ATOM      6  C7  UNL d   1       1.353   0.715   0.020  0.00  0.00     0.002 A 
ENDROOT
BRANCH   1   7
ATOM      7  C1  UNL d   1      -0.882  -0.184   0.773  0.00  0.00     0.055 C 
ATOM      8  C   UNL d   1      -0.583  -1.295  -0.224  0.00  0.00     0.019 C 
ENDBRANCH   1   7
TORSDOF 1
ENDMDL
