MODEL 1
REMARK minimizedAffinity -3.91744852
REMARK minimizedRMSD -1
REMARK  1 active torsions:
REMARK  status: ('A' for Active; 'I' for Inactive)
REMARK    1  A    between atoms: C1_2  and  C2_3 
ROOT
ATOM      1  C2  UNL d   1       0.109   0.404   0.415  0.00  0.00    -0.077 A 
ATOM      2  C3  UNL d   1       1.219   1.078  -0.113  0.00  0.00     0.002 A 
ATOM      3  C4  UNL d   1       1.288   2.472  -0.064  0.00  0.00     0.002 A 
ATOM      4  C5  UNL d   1       0.253   3.202   0.516  0.00  0.00    -0.004 A 
ATOM      5  C6  UNL d   1      -0.856   2.541   1.043  0.00  0.00     0.002 A 
ATOM      6  C7  UNL d   1      -0.927   1.148   0.993  0.00  0.00     0.002 A 
ENDROOT
BRANCH   1   7
ATOM      7  C1  UNL d   1       0.056  -1.101   0.408  0.00  0.00     0.055 C 
ATOM      8  C   UNL d   1      -0.467  -1.630  -0.920  0.00  0.00     0.019 C 
ENDBRANCH   1   7
TORSDOF 1
ENDMDL
