MODEL 1
REMARK minimizedAffinity -5.66404295
REMARK minimizedRMSD -1
REMARK  1 active torsions:
REMARK  status: ('A' for Active; 'I' for Inactive)
REMARK    1  A    between atoms: C1_2  and  C2_3 
ROOT
ATOM      1  C2  UNL d   1      -0.140   0.383   0.023  0.00  0.00    -0.077 A 
ATOM      2  C3  UNL d   1       1.076   1.033  -0.230  0.00  0.00     0.002 A 
ATOM      3  C4  UNL d   1       1.160   2.425  -0.163  0.00  0.00     0.002 A 
ATOM      4  C5  UNL d   1       0.034   3.178   0.161  0.00  0.00    -0.004 A 
ATOM      5  C6  UNL d   1      -1.181   2.541   0.413  0.00  0.00     0.002 A 
ATOM      6  C7  UNL d   1      -1.267   1.150   0.345  0.00  0.00     0.002 A 
ENDROOT
BRANCH   1   7
ATOM      7  C1  UNL d   1      -0.222  -1.121  -0.000  0.00  0.00     0.055 C 
ATOM      8  C   UNL d   1       1.021  -1.752   0.611  0.00  0.00     0.019 C 
ENDBRANCH   1   7
TORSDOF 1
ENDMDL
