MODEL 1
REMARK minimizedAffinity -4.22287416
REMARK minimizedRMSD -1
REMARK  1 active torsions:
REMARK  status: ('A' for Active; 'I' for Inactive)
REMARK    1  A    between atoms: C1_2  and  C2_3 
ROOT
ATOM      1  C2  UNL d   1      -0.084   0.678   0.501  0.00  0.00    -0.077 A 
ATOM      2  C3  UNL d   1      -0.896   1.816   0.608  0.00  0.00     0.002 A 
ATOM      3  C4  UNL d   1      -0.414   3.067   0.216  0.00  0.00     0.002 A 
ATOM      4  C5  UNL d   1       0.879   3.191  -0.288  0.00  0.00    -0.004 A 
ATOM      5  C6  UNL d   1       1.694   2.065  -0.396  0.00  0.00     0.002 A 
ATOM      6  C7  UNL d   1       1.215   0.815  -0.004  0.00  0.00     0.002 A 
ENDROOT
BRANCH   1   7
ATOM      7  C1  UNL d   1      -0.619  -0.679   0.877  0.00  0.00     0.055 C 
ATOM      8  C   UNL d   1       0.061  -1.782   0.079  0.00  0.00     0.019 C 
ENDBRANCH   1   7
TORSDOF 1
ENDMDL
