MODEL 1
REMARK minimizedAffinity -5.04516792
REMARK minimizedRMSD -1
REMARK  1 active torsions:
REMARK  status: ('A' for Active; 'I' for Inactive)
REMARK    1  A    between atoms: C1_2  and  C2_3 
ROOT
ATOM      1  C2  UNL d   1       0.793   1.312  -0.043  0.00  0.00    -0.077 A 
ATOM      2  C3  UNL d   1      -0.249   0.422   0.258  0.00  0.00     0.002 A 
ATOM      3  C4  UNL d   1       0.027  -0.820   0.833  0.00  0.00     0.002 A 
ATOM      4  C5  UNL d   1       1.343  -1.182   1.114  0.00  0.00    -0.004 A 
ATOM      5  C6  UNL d   1       2.386  -0.306   0.817  0.00  0.00     0.002 A 
ATOM      6  C7  UNL d   1       2.112   0.936   0.241  0.00  0.00     0.002 A 
ENDROOT
BRANCH   1   7
ATOM      7  C1  UNL d   1       0.493   2.672  -0.617  0.00  0.00     0.055 C 
ATOM      8  C   UNL d   1       0.237   3.692   0.482  0.00  0.00     0.019 C 
ENDBRANCH   1   7
TORSDOF 1
ENDMDL
