MODEL 1
REMARK minimizedAffinity -1.34086215
REMARK minimizedRMSD -1
REMARK  0 active torsions:
REMARK  status: ('A' for Active; 'I' for Inactive)
ROOT
ATOM      1  C1  BNZ d   1       1.422  -0.783   2.311  0.00  0.00     0.000 A 
ATOM      2  C2  BNZ d   1       0.765  -0.007   1.393  0.00  0.00     0.000 A 
ATOM      3  C3  BNZ d   1      -0.592   0.147   1.451  0.00  0.00     0.000 A 
ATOM      4  C4  BNZ d   1      -1.294  -0.506   2.399  0.00  0.00     0.000 A 
ATOM      5  C5  BNZ d   1      -0.647  -1.300   3.325  0.00  0.00     0.000 A 
ATOM      6  C6  BNZ d   1       0.723  -1.422   3.288  0.00  0.00     0.000 A 
ENDROOT
TORSDOF 0
ENDMDL
