MODEL 1
REMARK minimizedAffinity -0.972665548
REMARK minimizedRMSD -1
REMARK  0 active torsions:
REMARK  status: ('A' for Active; 'I' for Inactive)
ROOT
ATOM      1  C1  BNZ d   1      -1.567   0.467  -0.057  0.00  0.00     0.000 A 
ATOM      2  C2  BNZ d   1      -1.181   1.028   1.131  0.00  0.00     0.000 A 
ATOM      3  C3  BNZ d   1      -1.320   0.343   2.306  0.00  0.00     0.000 A 
ATOM      4  C4  BNZ d   1      -1.882  -0.882   2.297  0.00  0.00     0.000 A 
ATOM      5  C5  BNZ d   1      -2.286  -1.458   1.108  0.00  0.00     0.000 A 
ATOM      6  C6  BNZ d   1      -2.108  -0.782  -0.077  0.00  0.00     0.000 A 
ENDROOT
TORSDOF 0
ENDMDL
