MODEL 1
REMARK minimizedAffinity -4.25117159
REMARK minimizedRMSD -1
REMARK  0 active torsions:
REMARK  status: ('A' for Active; 'I' for Inactive)
ROOT
ATOM      1  C1  BNZ d   1       1.007  -1.905   3.257  0.00  0.00     0.000 A 
ATOM      2  C2  BNZ d   1       0.912  -0.828   2.417  0.00  0.00     0.000 A 
ATOM      3  C3  BNZ d   1      -0.307  -0.363   2.011  0.00  0.00     0.000 A 
ATOM      4  C4  BNZ d   1      -1.427  -0.998   2.413  0.00  0.00     0.000 A 
ATOM      5  C5  BNZ d   1      -1.347  -2.092   3.252  0.00  0.00     0.000 A 
ATOM      6  C6  BNZ d   1      -0.120  -2.534   3.690  0.00  0.00     0.000 A 
ENDROOT
TORSDOF 0
ENDMDL
