MODEL 1
REMARK minimizedAffinity -2.71089363
REMARK minimizedRMSD -1
REMARK  0 active torsions:
REMARK  status: ('A' for Active; 'I' for Inactive)
ROOT
ATOM      1  C1  BNZ d   1       0.292  -5.641  -2.906  0.00  0.00     0.000 A 
ATOM      2  C2  BNZ d   1      -0.179  -6.000  -4.140  0.00  0.00     0.000 A 
ATOM      3  C3  BNZ d   1       0.515  -5.682  -5.274  0.00  0.00     0.000 A 
ATOM      4  C4  BNZ d   1       1.657  -4.972  -5.175  0.00  0.00     0.000 A 
ATOM      5  C5  BNZ d   1       2.141  -4.594  -3.938  0.00  0.00     0.000 A 
ATOM      6  C6  BNZ d   1       1.459  -4.950  -2.796  0.00  0.00     0.000 A 
ENDROOT
TORSDOF 0
ENDMDL
