MODEL 1
REMARK minimizedAffinity 3.65018082
REMARK minimizedRMSD -1
REMARK  0 active torsions:
REMARK  status: ('A' for Active; 'I' for Inactive)
ROOT
ATOM      1  C1  BNZ d   1       2.125  -2.196   5.999  0.00  0.00     0.000 A 
ATOM      2  C2  BNZ d   1       0.796  -1.867   6.000  0.00  0.00     0.000 A 
ATOM      3  C3  BNZ d   1       0.158  -1.527   4.839  0.00  0.00     0.000 A 
ATOM      4  C4  BNZ d   1       0.859  -1.476   3.688  0.00  0.00     0.000 A 
ATOM      5  C5  BNZ d   1       2.202  -1.796   3.673  0.00  0.00     0.000 A 
ATOM      6  C6  BNZ d   1       2.831  -2.176   4.836  0.00  0.00     0.000 A 
ENDROOT
TORSDOF 0
ENDMDL
