MODEL 1
REMARK minimizedAffinity -2.61543441
REMARK minimizedRMSD -1
REMARK  0 active torsions:
REMARK  status: ('A' for Active; 'I' for Inactive)
ROOT
ATOM      1  C1  BNZ d   1      -0.509  -0.702   2.067  0.00  0.00     0.000 A 
ATOM      2  C2  BNZ d   1      -0.716  -1.286   3.288  0.00  0.00     0.000 A 
ATOM      3  C3  BNZ d   1       0.336  -1.724   4.042  0.00  0.00     0.000 A 
ATOM      4  C4  BNZ d   1       1.590  -1.615   3.557  0.00  0.00     0.000 A 
ATOM      5  C5  BNZ d   1       1.815  -1.038   2.323  0.00  0.00     0.000 A 
ATOM      6  C6  BNZ d   1       0.756  -0.562   1.584  0.00  0.00     0.000 A 
ENDROOT
TORSDOF 0
ENDMDL
