MODEL 1
REMARK minimizedAffinity -4.44187307
REMARK minimizedRMSD -1
REMARK  0 active torsions:
REMARK  status: ('A' for Active; 'I' for Inactive)
ROOT
ATOM      1  C1  BNZ d   1      -0.906  -0.276   3.114  0.00  0.00     0.000 A 
ATOM      2  C2  BNZ d   1       0.327  -0.123   2.539  0.00  0.00     0.000 A 
ATOM      3  C3  BNZ d   1       1.411  -0.807   3.015  0.00  0.00     0.000 A 
ATOM      4  C4  BNZ d   1       1.269  -1.610   4.089  0.00  0.00     0.000 A 
ATOM      5  C5  BNZ d   1       0.034  -1.767   4.686  0.00  0.00     0.000 A 
ATOM      6  C6  BNZ d   1      -1.063  -1.107   4.180  0.00  0.00     0.000 A 
ENDROOT
TORSDOF 0
ENDMDL
