MODEL 1
REMARK minimizedAffinity -0.230637029
REMARK minimizedRMSD -1
REMARK  0 active torsions:
REMARK  status: ('A' for Active; 'I' for Inactive)
ROOT
ATOM      1  C1  BNZ d   1      -0.811  -0.462   2.038  0.00  0.00     0.000 A 
ATOM      2  C2  BNZ d   1      -0.539  -1.207   3.155  0.00  0.00     0.000 A 
ATOM      3  C3  BNZ d   1       0.745  -1.561   3.463  0.00  0.00     0.000 A 
ATOM      4  C4  BNZ d   1       1.748  -1.205   2.635  0.00  0.00     0.000 A 
ATOM      5  C5  BNZ d   1       1.489  -0.462   1.501  0.00  0.00     0.000 A 
ATOM      6  C6  BNZ d   1       0.200  -0.074   1.214  0.00  0.00     0.000 A 
ENDROOT
TORSDOF 0
ENDMDL
