MODEL 1
REMARK minimizedAffinity -2.35445452
REMARK minimizedRMSD -1
REMARK  0 active torsions:
REMARK  status: ('A' for Active; 'I' for Inactive)
ROOT
ATOM      1  C1  BNZ d   1      -0.003  -5.986  -4.141  0.00  0.00     0.000 A 
ATOM      2  C2  BNZ d   1       0.329  -5.722  -2.839  0.00  0.00     0.000 A 
ATOM      3  C3  BNZ d   1       1.413  -4.946  -2.537  0.00  0.00     0.000 A 
ATOM      4  C4  BNZ d   1       2.186  -4.470  -3.534  0.00  0.00     0.000 A 
ATOM      5  C5  BNZ d   1       1.870  -4.735  -4.851  0.00  0.00     0.000 A 
ATOM      6  C6  BNZ d   1       0.756  -5.484  -5.153  0.00  0.00     0.000 A 
ENDROOT
TORSDOF 0
ENDMDL
