MODEL 1
REMARK minimizedAffinity 10.1887016
REMARK minimizedRMSD -1
REMARK  0 active torsions:
REMARK  status: ('A' for Active; 'I' for Inactive)
ROOT
ATOM      1  C   UNL d   1       2.599   1.394   0.386  0.00  0.00     0.077 C 
ATOM      2  C1  UNL d   1       3.782   2.305   0.526  0.00  0.00    -0.074 A 
ATOM      3  C2  UNL d   1       4.531   2.336   1.707  0.00  0.00    -0.005 A 
ATOM      4  C3  UNL d   1       5.634   3.182   1.819  0.00  0.00     0.006 A 
ATOM      5  C4  UNL d   1       6.000   4.005   0.753  0.00  0.00    -0.005 A 
ATOM      6  C5  UNL d   1       5.264   3.987  -0.436  0.00  0.00    -0.074 A 
ATOM      7  C6  UNL d   1       5.649   4.858  -1.595  0.00  0.00     0.077 C 
ATOM      8  C7  UNL d   1       4.161   3.129  -0.543  0.00  0.00    -0.001 A 
ENDROOT
TORSDOF 0
ENDMDL
