MODEL 1
REMARK minimizedAffinity 11.7412453
REMARK minimizedRMSD -1
REMARK  0 active torsions:
REMARK  status: ('A' for Active; 'I' for Inactive)
ROOT
ATOM      1  C   UNL d   1       1.493   1.049  -0.444  0.00  0.00     0.077 C 
ATOM      2  C1  UNL d   1       1.600   2.225  -1.369  0.00  0.00    -0.074 A 
ATOM      3  C2  UNL d   1       0.627   3.230  -1.369  0.00  0.00    -0.005 A 
ATOM      4  C3  UNL d   1       0.745   4.322  -2.228  0.00  0.00     0.006 A 
ATOM      5  C4  UNL d   1       1.835   4.421  -3.094  0.00  0.00    -0.005 A 
ATOM      6  C5  UNL d   1       2.818   3.427  -3.107  0.00  0.00    -0.074 A 
ATOM      7  C6  UNL d   1       4.001   3.523  -4.024  0.00  0.00     0.077 C 
ATOM      8  C7  UNL d   1       2.696   2.336  -2.236  0.00  0.00    -0.001 A 
ENDROOT
TORSDOF 0
ENDMDL
