MODEL 1
REMARK minimizedAffinity 9.22886372
REMARK minimizedRMSD -1
REMARK  0 active torsions:
REMARK  status: ('A' for Active; 'I' for Inactive)
ROOT
ATOM      1  C   UNL d   1      -2.157   5.230  -4.825  0.00  0.00     0.077 C 
ATOM      2  C1  UNL d   1      -1.010   5.251  -3.859  0.00  0.00    -0.074 A 
ATOM      3  C2  UNL d   1      -1.078   5.997  -2.678  0.00  0.00    -0.005 A 
ATOM      4  C3  UNL d   1      -0.007   6.000  -1.784  0.00  0.00     0.006 A 
ATOM      5  C4  UNL d   1       1.142   5.258  -2.063  0.00  0.00    -0.005 A 
ATOM      6  C5  UNL d   1       1.228   4.506  -3.239  0.00  0.00    -0.074 A 
ATOM      7  C6  UNL d   1       2.451   3.695  -3.548  0.00  0.00     0.077 C 
ATOM      8  C7  UNL d   1       0.145   4.503  -4.128  0.00  0.00    -0.001 A 
ENDROOT
TORSDOF 0
ENDMDL
