MODEL 1
REMARK minimizedAffinity 9.68773842
REMARK minimizedRMSD -1
REMARK  0 active torsions:
REMARK  status: ('A' for Active; 'I' for Inactive)
ROOT
ATOM      1  C   UNL d   1      -4.875   4.082  -0.748  0.00  0.00     0.077 C 
ATOM      2  C1  UNL d   1      -5.130   2.607  -0.648  0.00  0.00    -0.074 A 
ATOM      3  C2  UNL d   1      -5.090   1.953   0.588  0.00  0.00    -0.005 A 
ATOM      4  C3  UNL d   1      -5.339   0.583   0.666  0.00  0.00     0.006 A 
ATOM      5  C4  UNL d   1      -5.631  -0.146  -0.488  0.00  0.00    -0.005 A 
ATOM      6  C5  UNL d   1      -5.677   0.492  -1.732  0.00  0.00    -0.074 A 
ATOM      7  C6  UNL d   1      -5.998  -0.274  -2.980  0.00  0.00     0.077 C 
ATOM      8  C7  UNL d   1      -5.432   1.870  -1.802  0.00  0.00    -0.001 A 
ENDROOT
TORSDOF 0
ENDMDL
