MODEL 1
REMARK minimizedAffinity 19.6838493
REMARK minimizedRMSD -1
REMARK  0 active torsions:
REMARK  status: ('A' for Active; 'I' for Inactive)
ROOT
ATOM      1  C   UNL d   1      -1.850   5.516  -5.293  0.00  0.00     0.077 C 
ATOM      2  C1  UNL d   1      -1.998   5.486  -3.801  0.00  0.00    -0.074 A 
ATOM      3  C2  UNL d   1      -0.878   5.562  -2.966  0.00  0.00    -0.005 A 
ATOM      4  C3  UNL d   1      -1.032   5.543  -1.580  0.00  0.00     0.006 A 
ATOM      5  C4  UNL d   1      -2.304   5.446  -1.016  0.00  0.00    -0.005 A 
ATOM      6  C5  UNL d   1      -3.435   5.370  -1.834  0.00  0.00    -0.074 A 
ATOM      7  C6  UNL d   1      -4.811   5.276  -1.243  0.00  0.00     0.077 C 
ATOM      8  C7  UNL d   1      -3.273   5.397  -3.226  0.00  0.00    -0.001 A 
ENDROOT
TORSDOF 0
ENDMDL
