MODEL 1
REMARK minimizedAffinity 3.10341597
REMARK minimizedRMSD -1
REMARK  0 active torsions:
REMARK  status: ('A' for Active; 'I' for Inactive)
ROOT
ATOM      1  C   UNL d   1      -4.837  -2.546   3.747  0.00  0.00     0.077 C 
ATOM      2  C1  UNL d   1      -4.029  -1.663   2.843  0.00  0.00    -0.074 A 
ATOM      3  C2  UNL d   1      -2.660  -1.476   3.057  0.00  0.00    -0.005 A 
ATOM      4  C3  UNL d   1      -1.920  -0.659   2.202  0.00  0.00     0.006 A 
ATOM      5  C4  UNL d   1      -2.541  -0.021   1.128  0.00  0.00    -0.005 A 
ATOM      6  C5  UNL d   1      -3.909  -0.197   0.898  0.00  0.00    -0.074 A 
ATOM      7  C6  UNL d   1      -4.590   0.474  -0.258  0.00  0.00     0.077 C 
ATOM      8  C7  UNL d   1      -4.644  -1.025   1.757  0.00  0.00    -0.001 A 
ENDROOT
TORSDOF 0
ENDMDL
