MODEL 1
REMARK minimizedAffinity 9.44508171
REMARK minimizedRMSD -1
REMARK  0 active torsions:
REMARK  status: ('A' for Active; 'I' for Inactive)
ROOT
ATOM      1  C   UNL d   1       1.229   1.433  -0.258  0.00  0.00     0.077 C 
ATOM      2  C1  UNL d   1       1.348   2.173  -1.557  0.00  0.00    -0.074 A 
ATOM      3  C2  UNL d   1       2.589   2.330  -2.183  0.00  0.00    -0.005 A 
ATOM      4  C3  UNL d   1       2.683   3.012  -3.396  0.00  0.00     0.006 A 
ATOM      5  C4  UNL d   1       1.539   3.544  -3.994  0.00  0.00    -0.005 A 
ATOM      6  C5  UNL d   1       0.290   3.396  -3.382  0.00  0.00    -0.074 A 
ATOM      7  C6  UNL d   1      -0.950   3.953  -4.016  0.00  0.00     0.077 C 
ATOM      8  C7  UNL d   1       0.203   2.703  -2.167  0.00  0.00    -0.001 A 
ENDROOT
TORSDOF 0
ENDMDL
