MODEL 1
REMARK minimizedAffinity 13.4749584
REMARK minimizedRMSD -1
REMARK  0 active torsions:
REMARK  status: ('A' for Active; 'I' for Inactive)
ROOT
ATOM      1  C   UNL d   1       5.924   5.933  -2.092  0.00  0.00     0.077 C 
ATOM      2  C1  UNL d   1       5.194   5.049  -3.060  0.00  0.00    -0.074 A 
ATOM      3  C2  UNL d   1       5.692   4.829  -4.348  0.00  0.00    -0.005 A 
ATOM      4  C3  UNL d   1       5.008   3.997  -5.234  0.00  0.00     0.006 A 
ATOM      5  C4  UNL d   1       3.820   3.378  -4.842  0.00  0.00    -0.005 A 
ATOM      6  C5  UNL d   1       3.308   3.586  -3.557  0.00  0.00    -0.074 A 
ATOM      7  C6  UNL d   1       2.038   2.920  -3.116  0.00  0.00     0.077 C 
ATOM      8  C7  UNL d   1       4.005   4.417  -2.671  0.00  0.00    -0.001 A 
ENDROOT
TORSDOF 0
ENDMDL
