MODEL 1
REMARK minimizedAffinity 10.8823557
REMARK minimizedRMSD -1
REMARK  0 active torsions:
REMARK  status: ('A' for Active; 'I' for Inactive)
ROOT
ATOM      1  C   UNL d   1      -5.324   1.144   1.342  0.00  0.00     0.077 C 
ATOM      2  C1  UNL d   1      -4.006   0.549   1.737  0.00  0.00    -0.074 A 
ATOM      3  C2  UNL d   1      -3.146   1.221   2.611  0.00  0.00    -0.005 A 
ATOM      4  C3  UNL d   1      -1.927   0.651   2.977  0.00  0.00     0.006 A 
ATOM      5  C4  UNL d   1      -1.555  -0.596   2.473  0.00  0.00    -0.005 A 
ATOM      6  C5  UNL d   1      -2.402  -1.284   1.597  0.00  0.00    -0.074 A 
ATOM      7  C6  UNL d   1      -2.022  -2.629   1.054  0.00  0.00     0.077 C 
ATOM      8  C7  UNL d   1      -3.629  -0.707   1.240  0.00  0.00    -0.001 A 
ENDROOT
TORSDOF 0
ENDMDL
