MODEL 1
REMARK minimizedAffinity -1.73414755
REMARK minimizedRMSD -1
REMARK  0 active torsions:
REMARK  status: ('A' for Active; 'I' for Inactive)
ROOT
ATOM      1  C   UNL d   1      -5.509   1.249   4.794  0.00  0.00     0.077 C 
ATOM      2  C1  UNL d   1      -4.723   0.652   3.665  0.00  0.00    -0.074 A 
ATOM      3  C2  UNL d   1      -5.359   0.204   2.503  0.00  0.00    -0.005 A 
ATOM      4  C3  UNL d   1      -4.613  -0.340   1.458  0.00  0.00     0.006 A 
ATOM      5  C4  UNL d   1      -3.226  -0.441   1.563  0.00  0.00    -0.005 A 
ATOM      6  C5  UNL d   1      -2.572   0.002   2.717  0.00  0.00    -0.074 A 
ATOM      7  C6  UNL d   1      -1.080  -0.090   2.843  0.00  0.00     0.077 C 
ATOM      8  C7  UNL d   1      -3.327   0.554   3.760  0.00  0.00    -0.001 A 
ENDROOT
TORSDOF 0
ENDMDL
