MODEL 1
REMARK minimizedAffinity 10.4893713
REMARK minimizedRMSD -1
REMARK  0 active torsions:
REMARK  status: ('A' for Active; 'I' for Inactive)
ROOT
ATOM      1  C   UNL d   1      -5.999   2.076   4.871  0.00  0.00     0.077 C 
ATOM      2  C1  UNL d   1      -5.082   1.497   3.835  0.00  0.00    -0.074 A 
ATOM      3  C2  UNL d   1      -3.716   1.342   4.091  0.00  0.00    -0.005 A 
ATOM      4  C3  UNL d   1      -2.877   0.793   3.121  0.00  0.00     0.006 A 
ATOM      5  C4  UNL d   1      -3.394   0.395   1.888  0.00  0.00    -0.005 A 
ATOM      6  C5  UNL d   1      -4.758   0.542   1.614  0.00  0.00    -0.074 A 
ATOM      7  C6  UNL d   1      -5.332   0.110   0.298  0.00  0.00     0.077 C 
ATOM      8  C7  UNL d   1      -5.596   1.088   2.597  0.00  0.00    -0.001 A 
ENDROOT
TORSDOF 0
ENDMDL
