MODEL 1
REMARK minimizedAffinity 14.9193192
REMARK minimizedRMSD -1
REMARK  0 active torsions:
REMARK  status: ('A' for Active; 'I' for Inactive)
ROOT
ATOM      1  C   UNL d   1      -6.000  -0.787  -2.695  0.00  0.00     0.077 C 
ATOM      2  C1  UNL d   1      -5.724  -0.002  -1.446  0.00  0.00    -0.074 A 
ATOM      3  C2  UNL d   1      -5.522  -0.647  -0.222  0.00  0.00    -0.005 A 
ATOM      4  C3  UNL d   1      -5.257   0.095   0.929  0.00  0.00     0.006 A 
ATOM      5  C4  UNL d   1      -5.191   1.488   0.867  0.00  0.00    -0.005 A 
ATOM      6  C5  UNL d   1      -5.390   2.150  -0.349  0.00  0.00    -0.074 A 
ATOM      7  C6  UNL d   1      -5.313   3.646  -0.435  0.00  0.00     0.077 C 
ATOM      8  C7  UNL d   1      -5.648   1.397  -1.502  0.00  0.00    -0.001 A 
ENDROOT
TORSDOF 0
ENDMDL
