MODEL 1
REMARK minimizedAffinity 8.99805069
REMARK minimizedRMSD -1
REMARK  0 active torsions:
REMARK  status: ('A' for Active; 'I' for Inactive)
ROOT
ATOM      1  C   UNL d   1       5.199   5.664  -1.331  0.00  0.00     0.077 C 
ATOM      2  C1  UNL d   1       4.484   4.871  -2.384  0.00  0.00    -0.074 A 
ATOM      3  C2  UNL d   1       5.099   4.579  -3.606  0.00  0.00    -0.005 A 
ATOM      4  C3  UNL d   1       4.425   3.832  -4.572  0.00  0.00     0.006 A 
ATOM      5  C4  UNL d   1       3.131   3.370  -4.327  0.00  0.00    -0.005 A 
ATOM      6  C5  UNL d   1       2.501   3.651  -3.110  0.00  0.00    -0.074 A 
ATOM      7  C6  UNL d   1       1.114   3.153  -2.827  0.00  0.00     0.077 C 
ATOM      8  C7  UNL d   1       3.187   4.396  -2.142  0.00  0.00    -0.001 A 
ENDROOT
TORSDOF 0
ENDMDL
