MODEL 1
REMARK minimizedAffinity 3.85714817
REMARK minimizedRMSD -1
REMARK  0 active torsions:
REMARK  status: ('A' for Active; 'I' for Inactive)
ROOT
ATOM      1  C   UNL d   1      -0.415  -2.216   2.592  0.00  0.00     0.077 C 
ATOM      2  C1  UNL d   1      -1.415  -1.099   2.538  0.00  0.00    -0.074 A 
ATOM      3  C2  UNL d   1      -1.204   0.090   3.244  0.00  0.00    -0.005 A 
ATOM      4  C3  UNL d   1      -2.139   1.123   3.176  0.00  0.00     0.006 A 
ATOM      5  C4  UNL d   1      -3.291   0.978   2.403  0.00  0.00    -0.005 A 
ATOM      6  C5  UNL d   1      -3.519  -0.203   1.689  0.00  0.00    -0.074 A 
ATOM      7  C6  UNL d   1      -4.748  -0.370   0.846  0.00  0.00     0.077 C 
ATOM      8  C7  UNL d   1      -2.572  -1.234   1.757  0.00  0.00    -0.001 A 
ENDROOT
TORSDOF 0
ENDMDL
