MODEL 1
REMARK minimizedAffinity 14.4281387
REMARK minimizedRMSD -1
REMARK  0 active torsions:
REMARK  status: ('A' for Active; 'I' for Inactive)
ROOT
ATOM      1  C   UNL d   1       3.700  -0.659  -0.496  0.00  0.00     0.077 C 
ATOM      2  C1  UNL d   1       3.335   0.688   0.053  0.00  0.00    -0.074 A 
ATOM      3  C2  UNL d   1       2.028   1.176  -0.049  0.00  0.00    -0.005 A 
ATOM      4  C3  UNL d   1       1.701   2.426   0.474  0.00  0.00     0.006 A 
ATOM      5  C4  UNL d   1       2.675   3.201   1.105  0.00  0.00    -0.005 A 
ATOM      6  C5  UNL d   1       3.987   2.729   1.218  0.00  0.00    -0.074 A 
ATOM      7  C6  UNL d   1       5.044   3.544   1.902  0.00  0.00     0.077 C 
ATOM      8  C7  UNL d   1       4.306   1.468   0.696  0.00  0.00    -0.001 A 
ENDROOT
TORSDOF 0
ENDMDL
