MODEL 1
REMARK minimizedAffinity 12.886837
REMARK minimizedRMSD -1
REMARK  0 active torsions:
REMARK  status: ('A' for Active; 'I' for Inactive)
ROOT
ATOM      1  C   UNL d   1       3.757   2.983  -4.247  0.00  0.00     0.077 C 
ATOM      2  C1  UNL d   1       2.516   3.151  -3.422  0.00  0.00    -0.074 A 
ATOM      3  C2  UNL d   1       1.595   4.164  -3.706  0.00  0.00    -0.005 A 
ATOM      4  C3  UNL d   1       0.441   4.303  -2.935  0.00  0.00     0.006 A 
ATOM      5  C4  UNL d   1       0.196   3.430  -1.874  0.00  0.00    -0.005 A 
ATOM      6  C5  UNL d   1       1.106   2.411  -1.575  0.00  0.00    -0.074 A 
ATOM      7  C6  UNL d   1       0.853   1.459  -0.443  0.00  0.00     0.077 C 
ATOM      8  C7  UNL d   1       2.260   2.274  -2.358  0.00  0.00    -0.001 A 
ENDROOT
TORSDOF 0
ENDMDL
