MODEL 1
REMARK minimizedAffinity -5.94298744
REMARK minimizedRMSD -1
REMARK  3 active torsions:
REMARK  status: ('A' for Active; 'I' for Inactive)
REMARK    1  A    between atoms: C3'_2  and  C2'_3 
REMARK    2  A    between atoms: C2'_3  and  C1'_4 
REMARK    3  A    between atoms: C1'_4  and  C1_5 
ROOT
ATOM      1  C1  N4B d   1      -0.155   0.196   0.569  0.00  0.00    -0.075 A 
ATOM      2  C2  N4B d   1       0.343   1.083   1.549  0.00  0.00     0.002 A 
ATOM      3  C3  N4B d   1      -0.394   2.183   1.916  0.00  0.00     0.002 A 
ATOM      4  C4  N4B d   1      -1.616   2.425   1.307  0.00  0.00    -0.004 A 
ATOM      5  C5  N4B d   1      -2.100   1.549   0.380  0.00  0.00     0.002 A 
ATOM      6  C6  N4B d   1      -1.373   0.438   0.004  0.00  0.00     0.002 A 
ENDROOT
BRANCH   1   7
ATOM      7  C1' N4B d   1       0.653  -0.972   0.073  0.00  0.00     0.057 C 
BRANCH   7   8
ATOM      8  C2' N4B d   1       0.137  -1.390  -1.301  0.00  0.00     0.009 C 
BRANCH   8   9
ATOM      9  C3' N4B d   1      -0.169  -2.877  -1.365  0.00  0.00     0.004 C 
ATOM     10  C4' N4B d   1      -0.929  -3.261  -2.599  0.00  0.00     0.003 C 
ENDBRANCH   8   9
ENDBRANCH   7   8
ENDBRANCH   1   7
TORSDOF 3
ENDMDL
