MODEL 1
REMARK minimizedAffinity -2.58081317
REMARK minimizedRMSD -1
REMARK  3 active torsions:
REMARK  status: ('A' for Active; 'I' for Inactive)
REMARK    1  A    between atoms: C3'_2  and  C2'_3 
REMARK    2  A    between atoms: C2'_3  and  C1'_4 
REMARK    3  A    between atoms: C1'_4  and  C1_5 
ROOT
ATOM      1  C1  N4B d   1       0.333  -0.403  -0.254  0.00  0.00    -0.075 A 
ATOM      2  C2  N4B d   1       0.815  -0.693   1.041  0.00  0.00     0.002 A 
ATOM      3  C3  N4B d   1       0.510   0.139   2.090  0.00  0.00     0.002 A 
ATOM      4  C4  N4B d   1      -0.256   1.273   1.865  0.00  0.00    -0.004 A 
ATOM      5  C5  N4B d   1      -0.739   1.533   0.616  0.00  0.00     0.002 A 
ATOM      6  C6  N4B d   1      -0.444   0.703  -0.447  0.00  0.00     0.002 A 
ENDROOT
BRANCH   1   7
ATOM      7  C1' N4B d   1       0.711  -1.236  -1.448  0.00  0.00     0.057 C 
BRANCH   7   8
ATOM      8  C2' N4B d   1       0.763  -2.705  -1.037  0.00  0.00     0.009 C 
BRANCH   8   9
ATOM      9  C3' N4B d   1      -0.083  -3.580  -1.946  0.00  0.00     0.004 C 
ATOM     10  C4' N4B d   1      -0.461  -4.884  -1.310  0.00  0.00     0.003 C 
ENDBRANCH   8   9
ENDBRANCH   7   8
ENDBRANCH   1   7
TORSDOF 3
ENDMDL
