MODEL 1
REMARK minimizedAffinity -4.32101583
REMARK minimizedRMSD -1
REMARK  3 active torsions:
REMARK  status: ('A' for Active; 'I' for Inactive)
REMARK    1  A    between atoms: C3'_2  and  C2'_3 
REMARK    2  A    between atoms: C2'_3  and  C1'_4 
REMARK    3  A    between atoms: C1'_4  and  C1_5 
ROOT
ATOM      1  C1  N4B d   1      -0.100  -0.476  -0.233  0.00  0.00    -0.075 A 
ATOM      2  C2  N4B d   1       0.271  -0.325   1.121  0.00  0.00     0.002 A 
ATOM      3  C3  N4B d   1      -0.083   0.811   1.807  0.00  0.00     0.002 A 
ATOM      4  C4  N4B d   1      -0.788   1.813   1.158  0.00  0.00    -0.004 A 
ATOM      5  C5  N4B d   1      -1.165   1.648  -0.143  0.00  0.00     0.002 A 
ATOM      6  C6  N4B d   1      -0.819   0.510  -0.844  0.00  0.00     0.002 A 
ENDROOT
BRANCH   1   7
ATOM      7  C1' N4B d   1       0.338  -1.661  -1.049  0.00  0.00     0.057 C 
BRANCH   7   8
ATOM      8  C2' N4B d   1      -0.883  -2.293  -1.711  0.00  0.00     0.009 C 
BRANCH   8   9
ATOM      9  C3' N4B d   1      -0.652  -3.755  -2.052  0.00  0.00     0.004 C 
ATOM     10  C4' N4B d   1      -0.576  -4.630  -0.837  0.00  0.00     0.003 C 
ENDBRANCH   8   9
ENDBRANCH   7   8
ENDBRANCH   1   7
TORSDOF 3
ENDMDL
