MODEL 1
REMARK minimizedAffinity -5.03416491
REMARK minimizedRMSD -1
REMARK  3 active torsions:
REMARK  status: ('A' for Active; 'I' for Inactive)
REMARK    1  A    between atoms: C3'_2  and  C2'_3 
REMARK    2  A    between atoms: C2'_3  and  C1'_4 
REMARK    3  A    between atoms: C1'_4  and  C1_5 
ROOT
ATOM      1  C1  N4B d   1       0.177   0.437   0.419  0.00  0.00    -0.075 A 
ATOM      2  C2  N4B d   1      -0.439   1.185  -0.608  0.00  0.00     0.002 A 
ATOM      3  C3  N4B d   1      -1.084   2.360  -0.309  0.00  0.00     0.002 A 
ATOM      4  C4  N4B d   1      -1.142   2.796   1.006  0.00  0.00    -0.004 A 
ATOM      5  C5  N4B d   1      -0.522   2.081   1.989  0.00  0.00     0.002 A 
ATOM      6  C6  N4B d   1       0.133   0.900   1.703  0.00  0.00     0.002 A 
ENDROOT
BRANCH   1   7
ATOM      7  C1' N4B d   1       0.820  -0.897   0.155  0.00  0.00     0.057 C 
BRANCH   7   8
ATOM      8  C2' N4B d   1       0.444  -1.364  -1.249  0.00  0.00     0.009 C 
BRANCH   8   9
ATOM      9  C3' N4B d   1       0.146  -2.853  -1.291  0.00  0.00     0.004 C 
ATOM     10  C4' N4B d   1      -1.005  -3.189  -2.192  0.00  0.00     0.003 C 
ENDBRANCH   8   9
ENDBRANCH   7   8
ENDBRANCH   1   7
TORSDOF 3
ENDMDL
