MODEL 1
REMARK minimizedAffinity -4.20924377
REMARK minimizedRMSD -1
REMARK  3 active torsions:
REMARK  status: ('A' for Active; 'I' for Inactive)
REMARK    1  A    between atoms: C3'_2  and  C2'_3 
REMARK    2  A    between atoms: C2'_3  and  C1'_4 
REMARK    3  A    between atoms: C1'_4  and  C1_5 
ROOT
ATOM      1  C1  N4B d   1       0.106  -0.332  -0.997  0.00  0.00    -0.075 A 
ATOM      2  C2  N4B d   1      -0.638   0.835  -1.280  0.00  0.00     0.002 A 
ATOM      3  C3  N4B d   1      -0.984   1.691  -0.263  0.00  0.00     0.002 A 
ATOM      4  C4  N4B d   1      -0.615   1.393   1.040  0.00  0.00    -0.004 A 
ATOM      5  C5  N4B d   1       0.126   0.278   1.301  0.00  0.00     0.002 A 
ATOM      6  C6  N4B d   1       0.484  -0.590   0.288  0.00  0.00     0.002 A 
ENDROOT
BRANCH   1   7
ATOM      7  C1' N4B d   1       0.434  -1.342  -2.063  0.00  0.00     0.057 C 
BRANCH   7   8
ATOM      8  C2' N4B d   1      -0.458  -2.567  -1.883  0.00  0.00     0.009 C 
BRANCH   8   9
ATOM      9  C3' N4B d   1       0.320  -3.863  -2.033  0.00  0.00     0.004 C 
ATOM     10  C4' N4B d   1       0.462  -4.607  -0.739  0.00  0.00     0.003 C 
ENDBRANCH   8   9
ENDBRANCH   7   8
ENDBRANCH   1   7
TORSDOF 3
ENDMDL
