MODEL 1
REMARK minimizedAffinity -3.22853398
REMARK minimizedRMSD -1
REMARK  3 active torsions:
REMARK  status: ('A' for Active; 'I' for Inactive)
REMARK    1  A    between atoms: C3'_2  and  C2'_3 
REMARK    2  A    between atoms: C2'_3  and  C1'_4 
REMARK    3  A    between atoms: C1'_4  and  C1_5 
ROOT
ATOM      1  C1  N4B d   1      -0.026  -0.374  -0.561  0.00  0.00    -0.075 A 
ATOM      2  C2  N4B d   1       0.010  -0.879   0.758  0.00  0.00     0.002 A 
ATOM      3  C3  N4B d   1       0.080  -0.015   1.823  0.00  0.00     0.002 A 
ATOM      4  C4  N4B d   1       0.135   1.352   1.594  0.00  0.00    -0.004 A 
ATOM      5  C5  N4B d   1       0.074   1.833   0.319  0.00  0.00     0.002 A 
ATOM      6  C6  N4B d   1      -0.001   0.976  -0.761  0.00  0.00     0.002 A 
ENDROOT
BRANCH   1   7
ATOM      7  C1' N4B d   1      -0.016  -1.283  -1.759  0.00  0.00     0.057 C 
BRANCH   7   8
ATOM      8  C2' N4B d   1       0.209  -2.719  -1.297  0.00  0.00     0.009 C 
BRANCH   8   9
ATOM      9  C3' N4B d   1      -0.787  -3.680  -1.924  0.00  0.00     0.004 C 
ATOM     10  C4' N4B d   1      -0.997  -4.916  -1.101  0.00  0.00     0.003 C 
ENDBRANCH   8   9
ENDBRANCH   7   8
ENDBRANCH   1   7
TORSDOF 3
ENDMDL
