MODEL 1
REMARK minimizedAffinity -3.83933687
REMARK minimizedRMSD -1
REMARK  3 active torsions:
REMARK  status: ('A' for Active; 'I' for Inactive)
REMARK    1  A    between atoms: C3'_2  and  C2'_3 
REMARK    2  A    between atoms: C2'_3  and  C1'_4 
REMARK    3  A    between atoms: C1'_4  and  C1_5 
ROOT
ATOM      1  C1  N4B d   1      -0.154  -0.244   0.216  0.00  0.00    -0.075 A 
ATOM      2  C2  N4B d   1       0.665   0.752  -0.357  0.00  0.00     0.002 A 
ATOM      3  C3  N4B d   1       1.769   0.394  -1.093  0.00  0.00     0.002 A 
ATOM      4  C4  N4B d   1       2.081  -0.947  -1.252  0.00  0.00    -0.004 A 
ATOM      5  C5  N4B d   1       1.270  -1.904  -0.716  0.00  0.00     0.002 A 
ATOM      6  C6  N4B d   1       0.156  -1.559   0.022  0.00  0.00     0.002 A 
ENDROOT
BRANCH   1   7
ATOM      7  C1' N4B d   1      -1.322   0.099   1.100  0.00  0.00     0.057 C 
BRANCH   7   8
ATOM      8  C2' N4B d   1      -0.849   1.025   2.217  0.00  0.00     0.009 C 
BRANCH   8   9
ATOM      9  C3' N4B d   1      -1.443   0.642   3.562  0.00  0.00     0.004 C 
ATOM     10  C4' N4B d   1      -2.843   0.117   3.450  0.00  0.00     0.003 C 
ENDBRANCH   8   9
ENDBRANCH   7   8
ENDBRANCH   1   7
TORSDOF 3
ENDMDL
