MODEL 1
REMARK minimizedAffinity -1.10912669
REMARK minimizedRMSD -1
REMARK  3 active torsions:
REMARK  status: ('A' for Active; 'I' for Inactive)
REMARK    1  A    between atoms: C3'_2  and  C2'_3 
REMARK    2  A    between atoms: C2'_3  and  C1'_4 
REMARK    3  A    between atoms: C1'_4  and  C1_5 
ROOT
ATOM      1  C1  N4B d   1      -1.258   0.411   1.801  0.00  0.00    -0.075 A 
ATOM      2  C2  N4B d   1      -2.326  -0.313   2.377  0.00  0.00     0.002 A 
ATOM      3  C3  N4B d   1      -2.850   0.081   3.584  0.00  0.00     0.002 A 
ATOM      4  C4  N4B d   1      -2.313   1.179   4.239  0.00  0.00    -0.004 A 
ATOM      5  C5  N4B d   1      -1.300   1.888   3.664  0.00  0.00     0.002 A 
ATOM      6  C6  N4B d   1      -0.766   1.506   2.450  0.00  0.00     0.002 A 
ENDROOT
BRANCH   1   7
ATOM      7  C1' N4B d   1      -0.596  -0.032   0.526  0.00  0.00     0.057 C 
BRANCH   7   8
ATOM      8  C2' N4B d   1       0.656   0.809   0.294  0.00  0.00     0.009 C 
BRANCH   8   9
ATOM      9  C3' N4B d   1       0.456   1.833  -0.810  0.00  0.00     0.004 C 
ATOM     10  C4' N4B d   1       1.748   2.407  -1.311  0.00  0.00     0.003 C 
ENDBRANCH   8   9
ENDBRANCH   7   8
ENDBRANCH   1   7
TORSDOF 3
ENDMDL
