MODEL 1
REMARK minimizedAffinity -5.36936188
REMARK minimizedRMSD -1
REMARK  3 active torsions:
REMARK  status: ('A' for Active; 'I' for Inactive)
REMARK    1  A    between atoms: C3'_2  and  C2'_3 
REMARK    2  A    between atoms: C2'_3  and  C1'_4 
REMARK    3  A    between atoms: C1'_4  and  C1_5 
ROOT
ATOM      1  C1  N4B d   1      -0.021  -0.178  -0.233  0.00  0.00    -0.075 A 
ATOM      2  C2  N4B d   1       0.369  -1.530  -0.345  0.00  0.00     0.002 A 
ATOM      3  C3  N4B d   1       1.558  -1.854  -0.951  0.00  0.00     0.002 A 
ATOM      4  C4  N4B d   1       2.361  -0.848  -1.467  0.00  0.00    -0.004 A 
ATOM      5  C5  N4B d   1       1.989   0.457  -1.332  0.00  0.00     0.002 A 
ATOM      6  C6  N4B d   1       0.799   0.798  -0.722  0.00  0.00     0.002 A 
ENDROOT
BRANCH   1   7
ATOM      7  C1' N4B d   1      -1.352   0.220   0.345  0.00  0.00     0.057 C 
BRANCH   7   8
ATOM      8  C2' N4B d   1      -1.138   0.813   1.734  0.00  0.00     0.009 C 
BRANCH   8   9
ATOM      9  C3' N4B d   1      -2.195   0.347   2.720  0.00  0.00     0.004 C 
ATOM     10  C4' N4B d   1      -1.894   0.757   4.131  0.00  0.00     0.003 C 
ENDBRANCH   8   9
ENDBRANCH   7   8
ENDBRANCH   1   7
TORSDOF 3
ENDMDL
