MODEL 1
REMARK minimizedAffinity -4.98360777
REMARK minimizedRMSD -1
REMARK  3 active torsions:
REMARK  status: ('A' for Active; 'I' for Inactive)
REMARK    1  A    between atoms: C3'_2  and  C2'_3 
REMARK    2  A    between atoms: C2'_3  and  C1'_4 
REMARK    3  A    between atoms: C1'_4  and  C1_5 
ROOT
ATOM      1  C1  N4B d   1       0.184   0.188  -0.027  0.00  0.00    -0.075 A 
ATOM      2  C2  N4B d   1      -0.041  -1.206  -0.013  0.00  0.00     0.002 A 
ATOM      3  C3  N4B d   1       0.874  -2.055  -0.586  0.00  0.00     0.002 A 
ATOM      4  C4  N4B d   1       2.007  -1.534  -1.193  0.00  0.00    -0.004 A 
ATOM      5  C5  N4B d   1       2.229  -0.188  -1.180  0.00  0.00     0.002 A 
ATOM      6  C6  N4B d   1       1.320   0.677  -0.604  0.00  0.00     0.002 A 
ENDROOT
BRANCH   1   7
ATOM      7  C1' N4B d   1      -0.830   1.161   0.510  0.00  0.00     0.057 C 
BRANCH   7   8
ATOM      8  C2' N4B d   1      -1.629   0.488   1.622  0.00  0.00     0.009 C 
BRANCH   8   9
ATOM      9  C3' N4B d   1      -1.703   1.350   2.870  0.00  0.00     0.004 C 
ATOM     10  C4' N4B d   1      -1.777   0.542   4.131  0.00  0.00     0.003 C 
ENDBRANCH   8   9
ENDBRANCH   7   8
ENDBRANCH   1   7
TORSDOF 3
ENDMDL
