MODEL 1
REMARK minimizedAffinity -3.36906385
REMARK minimizedRMSD -1
REMARK  3 active torsions:
REMARK  status: ('A' for Active; 'I' for Inactive)
REMARK    1  A    between atoms: C3'_2  and  C2'_3 
REMARK    2  A    between atoms: C2'_3  and  C1'_4 
REMARK    3  A    between atoms: C1'_4  and  C1_5 
ROOT
ATOM      1  C1  N4B d   1       1.351   0.455  -0.284  0.00  0.00    -0.075 A 
ATOM      2  C2  N4B d   1       0.758   1.577  -0.905  0.00  0.00     0.002 A 
ATOM      3  C3  N4B d   1      -0.592   1.798  -0.778  0.00  0.00     0.002 A 
ATOM      4  C4  N4B d   1      -1.368   0.905  -0.055  0.00  0.00    -0.004 A 
ATOM      5  C5  N4B d   1      -0.783  -0.161   0.563  0.00  0.00     0.002 A 
ATOM      6  C6  N4B d   1       0.572  -0.394   0.447  0.00  0.00     0.002 A 
ENDROOT
BRANCH   1   7
ATOM      7  C1' N4B d   1       2.807   0.125  -0.466  0.00  0.00     0.057 C 
BRANCH   7   8
ATOM      8  C2' N4B d   1       2.965  -0.795  -1.673  0.00  0.00     0.009 C 
BRANCH   8   9
ATOM      9  C3' N4B d   1       1.886  -1.863  -1.719  0.00  0.00     0.004 C 
ATOM     10  C4' N4B d   1       1.598  -2.338  -3.112  0.00  0.00     0.003 C 
ENDBRANCH   8   9
ENDBRANCH   7   8
ENDBRANCH   1   7
TORSDOF 3
ENDMDL
