MODEL 1
REMARK minimizedAffinity -2.60529256
REMARK minimizedRMSD -1
REMARK  3 active torsions:
REMARK  status: ('A' for Active; 'I' for Inactive)
REMARK    1  A    between atoms: C3'_2  and  C2'_3 
REMARK    2  A    between atoms: C2'_3  and  C1'_4 
REMARK    3  A    between atoms: C1'_4  and  C1_5 
ROOT
ATOM      1  C1  N4B d   1       0.273  -0.057  -0.666  0.00  0.00    -0.075 A 
ATOM      2  C2  N4B d   1       0.350  -1.401  -0.238  0.00  0.00     0.002 A 
ATOM      3  C3  N4B d   1       1.167  -2.286  -0.898  0.00  0.00     0.002 A 
ATOM      4  C4  N4B d   1       1.897  -1.857  -1.996  0.00  0.00    -0.004 A 
ATOM      5  C5  N4B d   1       1.836  -0.552  -2.388  0.00  0.00     0.002 A 
ATOM      6  C6  N4B d   1       1.023   0.350  -1.731  0.00  0.00     0.002 A 
ENDROOT
BRANCH   1   7
ATOM      7  C1' N4B d   1      -0.671   0.926  -0.030  0.00  0.00     0.057 C 
BRANCH   7   8
ATOM      8  C2' N4B d   1      -1.008   0.455   1.382  0.00  0.00     0.009 C 
BRANCH   8   9
ATOM      9  C3' N4B d   1      -2.214   1.183   1.951  0.00  0.00     0.004 C 
ATOM     10  C4' N4B d   1      -1.870   2.040   3.132  0.00  0.00     0.003 C 
ENDBRANCH   8   9
ENDBRANCH   7   8
ENDBRANCH   1   7
TORSDOF 3
ENDMDL
