MODEL 1
REMARK minimizedAffinity -4.30123997
REMARK minimizedRMSD -1
REMARK  3 active torsions:
REMARK  status: ('A' for Active; 'I' for Inactive)
REMARK    1  A    between atoms: C3'_2  and  C2'_3 
REMARK    2  A    between atoms: C2'_3  and  C1'_4 
REMARK    3  A    between atoms: C1'_4  and  C1_5 
ROOT
ATOM      1  C1  N4B d   1       0.250  -0.024  -0.207  0.00  0.00    -0.075 A 
ATOM      2  C2  N4B d   1       0.247  -1.428  -0.056  0.00  0.00     0.002 A 
ATOM      3  C3  N4B d   1       1.321  -2.167  -0.487  0.00  0.00     0.002 A 
ATOM      4  C4  N4B d   1       2.396  -1.529  -1.087  0.00  0.00    -0.004 A 
ATOM      5  C5  N4B d   1       2.403  -0.170  -1.206  0.00  0.00     0.002 A 
ATOM      6  C6  N4B d   1       1.332   0.586  -0.773  0.00  0.00     0.002 A 
ENDROOT
BRANCH   1   7
ATOM      7  C1' N4B d   1      -0.937   0.818   0.171  0.00  0.00     0.057 C 
BRANCH   7   8
ATOM      8  C2' N4B d   1      -1.539   0.283   1.467  0.00  0.00     0.009 C 
BRANCH   8   9
ATOM      9  C3' N4B d   1      -1.467   1.303   2.591  0.00  0.00     0.004 C 
ATOM     10  C4' N4B d   1      -1.597   0.680   3.949  0.00  0.00     0.003 C 
ENDBRANCH   8   9
ENDBRANCH   7   8
ENDBRANCH   1   7
TORSDOF 3
ENDMDL
