MODEL 1
REMARK minimizedAffinity -4.65250397
REMARK minimizedRMSD -1
REMARK  3 active torsions:
REMARK  status: ('A' for Active; 'I' for Inactive)
REMARK    1  A    between atoms: C3'_2  and  C2'_3 
REMARK    2  A    between atoms: C2'_3  and  C1'_4 
REMARK    3  A    between atoms: C1'_4  and  C1_5 
ROOT
ATOM      1  C1  N4B d   1       0.534  -0.257  -0.780  0.00  0.00    -0.075 A 
ATOM      2  C2  N4B d   1       0.591   0.878  -1.618  0.00  0.00     0.002 A 
ATOM      3  C3  N4B d   1       1.470   0.909  -2.673  0.00  0.00     0.002 A 
ATOM      4  C4  N4B d   1       2.311  -0.171  -2.897  0.00  0.00    -0.004 A 
ATOM      5  C5  N4B d   1       2.232  -1.274  -2.098  0.00  0.00     0.002 A 
ATOM      6  C6  N4B d   1       1.351  -1.321  -1.036  0.00  0.00     0.002 A 
ENDROOT
BRANCH   1   7
ATOM      7  C1' N4B d   1      -0.349  -0.303   0.437  0.00  0.00     0.057 C 
BRANCH   7   8
ATOM      8  C2' N4B d   1      -1.446   0.749   0.299  0.00  0.00     0.009 C 
BRANCH   8   9
ATOM      9  C3' N4B d   1      -2.347   0.795   1.521  0.00  0.00     0.004 C 
ATOM     10  C4' N4B d   1      -1.897   1.801   2.537  0.00  0.00     0.003 C 
ENDBRANCH   8   9
ENDBRANCH   7   8
ENDBRANCH   1   7
TORSDOF 3
ENDMDL
