MODEL 1
REMARK minimizedAffinity -6.31972075
REMARK minimizedRMSD -1
REMARK  3 active torsions:
REMARK  status: ('A' for Active; 'I' for Inactive)
REMARK    1  A    between atoms: C3'_2  and  C2'_3 
REMARK    2  A    between atoms: C2'_3  and  C1'_4 
REMARK    3  A    between atoms: C1'_4  and  C1_5 
ROOT
ATOM      1  C1  N4B d   1       0.281   0.542  -0.787  0.00  0.00    -0.075 A 
ATOM      2  C2  N4B d   1       1.003  -0.624  -0.449  0.00  0.00     0.002 A 
ATOM      3  C3  N4B d   1       2.214  -0.879  -1.044  0.00  0.00     0.002 A 
ATOM      4  C4  N4B d   1       2.712   0.004  -1.991  0.00  0.00    -0.004 A 
ATOM      5  C5  N4B d   1       2.021   1.141  -2.293  0.00  0.00     0.002 A 
ATOM      6  C6  N4B d   1       0.804   1.411  -1.700  0.00  0.00     0.002 A 
ENDROOT
BRANCH   1   7
ATOM      7  C1' N4B d   1      -1.087   0.819  -0.227  0.00  0.00     0.057 C 
BRANCH   7   8
ATOM      8  C2' N4B d   1      -1.123   0.395   1.238  0.00  0.00     0.009 C 
BRANCH   8   9
ATOM      9  C3' N4B d   1      -2.313   0.989   1.973  0.00  0.00     0.004 C 
ATOM     10  C4' N4B d   1      -2.016   1.292   3.411  0.00  0.00     0.003 C 
ENDBRANCH   8   9
ENDBRANCH   7   8
ENDBRANCH   1   7
TORSDOF 3
ENDMDL
