MODEL 1
REMARK minimizedAffinity 8.07499981
REMARK minimizedRMSD -1
REMARK  0 active torsions:
REMARK  status: ('A' for Active; 'I' for Inactive)
ROOT
ATOM      1  C2' OXE d   1      -0.317  -2.995  -6.000  0.00  0.00     0.078 C 
ATOM      2  C1' OXE d   1      -3.001  -3.817  -5.998  0.00  0.00     0.078 C 
ATOM      3  C1  OXE d   1      -2.533  -2.943  -4.862  0.00  0.00    -0.078 A 
ATOM      4  C2  OXE d   1      -1.206  -2.584  -4.846  0.00  0.00    -0.078 A 
ATOM      5  C3  OXE d   1      -0.734  -1.733  -3.851  0.00  0.00     0.003 A 
ATOM      6  C4  OXE d   1      -1.561  -1.365  -2.782  0.00  0.00    -0.002 A 
ATOM      7  C5  OXE d   1      -2.905  -1.753  -2.758  0.00  0.00    -0.002 A 
ATOM      8  C6  OXE d   1      -3.416  -2.505  -3.810  0.00  0.00     0.003 A 
ENDROOT
TORSDOF 0
ENDMDL
