MODEL 1
REMARK minimizedAffinity 10.3984509
REMARK minimizedRMSD -1
REMARK  0 active torsions:
REMARK  status: ('A' for Active; 'I' for Inactive)
ROOT
ATOM      1  C2' OXE d   1      -2.168  -2.470  -3.558  0.00  0.00     0.078 C 
ATOM      2  C1' OXE d   1      -1.127  -3.440  -5.978  0.00  0.00     0.078 C 
ATOM      3  C1  OXE d   1      -2.294  -4.176  -5.369  0.00  0.00    -0.078 A 
ATOM      4  C2  OXE d   1      -2.767  -3.723  -4.161  0.00  0.00    -0.078 A 
ATOM      5  C3  OXE d   1      -3.876  -4.332  -3.582  0.00  0.00     0.003 A 
ATOM      6  C4  OXE d   1      -4.418  -5.496  -4.141  0.00  0.00    -0.002 A 
ATOM      7  C5  OXE d   1      -3.925  -5.998  -5.351  0.00  0.00    -0.002 A 
ATOM      8  C6  OXE d   1      -2.894  -5.327  -5.998  0.00  0.00     0.003 A 
ENDROOT
TORSDOF 0
ENDMDL
