MODEL 1
REMARK minimizedAffinity 14.5165424
REMARK minimizedRMSD -1
REMARK  0 active torsions:
REMARK  status: ('A' for Active; 'I' for Inactive)
ROOT
ATOM      1  C2' OXE d   1      -1.463  -0.065   0.568  0.00  0.00     0.078 C 
ATOM      2  C1' OXE d   1      -1.836  -2.607   1.698  0.00  0.00     0.078 C 
ATOM      3  C1  OXE d   1      -1.333  -2.536   0.278  0.00  0.00    -0.078 A 
ATOM      4  C2  OXE d   1      -1.198  -1.288  -0.283  0.00  0.00    -0.078 A 
ATOM      5  C3  OXE d   1      -0.687  -1.164  -1.571  0.00  0.00     0.003 A 
ATOM      6  C4  OXE d   1      -0.454  -2.301  -2.355  0.00  0.00    -0.002 A 
ATOM      7  C5  OXE d   1      -0.623  -3.581  -1.816  0.00  0.00    -0.002 A 
ATOM      8  C6  OXE d   1      -1.021  -3.715  -0.491  0.00  0.00     0.003 A 
ENDROOT
TORSDOF 0
ENDMDL
