MODEL 1
REMARK minimizedAffinity 18.6316223
REMARK minimizedRMSD -1
REMARK  0 active torsions:
REMARK  status: ('A' for Active; 'I' for Inactive)
ROOT
ATOM      1  C2' OXE d   1      -0.503  -2.667  -2.334  0.00  0.00     0.078 C 
ATOM      2  C1' OXE d   1      -0.254  -5.456  -2.138  0.00  0.00     0.078 C 
ATOM      3  C1  OXE d   1       0.942  -4.676  -2.623  0.00  0.00    -0.078 A 
ATOM      4  C2  OXE d   1       0.796  -3.316  -2.760  0.00  0.00    -0.078 A 
ATOM      5  C3  OXE d   1       1.885  -2.543  -3.152  0.00  0.00     0.003 A 
ATOM      6  C4  OXE d   1       3.080  -3.152  -3.554  0.00  0.00    -0.002 A 
ATOM      7  C5  OXE d   1       3.236  -4.539  -3.459  0.00  0.00    -0.002 A 
ATOM      8  C6  OXE d   1       2.193  -5.310  -2.957  0.00  0.00     0.003 A 
ENDROOT
TORSDOF 0
ENDMDL
