MODEL 1
REMARK minimizedAffinity 11.7910881
REMARK minimizedRMSD -1
REMARK  0 active torsions:
REMARK  status: ('A' for Active; 'I' for Inactive)
ROOT
ATOM      1  C2' OXE d   1      -1.337  -2.425  -3.801  0.00  0.00     0.078 C 
ATOM      2  C1' OXE d   1       1.173  -3.406  -3.013  0.00  0.00     0.078 C 
ATOM      3  C1  OXE d   1       0.188  -3.043  -1.930  0.00  0.00    -0.078 A 
ATOM      4  C2  OXE d   1      -1.020  -2.520  -2.324  0.00  0.00    -0.078 A 
ATOM      5  C3  OXE d   1      -1.986  -2.219  -1.367  0.00  0.00     0.003 A 
ATOM      6  C4  OXE d   1      -1.682  -2.300  -0.003  0.00  0.00    -0.002 A 
ATOM      7  C5  OXE d   1      -0.443  -2.793   0.420  0.00  0.00    -0.002 A 
ATOM      8  C6  OXE d   1       0.485  -3.208  -0.529  0.00  0.00     0.003 A 
ENDROOT
TORSDOF 0
ENDMDL
