MODEL 1
REMARK minimizedAffinity 17.1510372
REMARK minimizedRMSD -1
REMARK  0 active torsions:
REMARK  status: ('A' for Active; 'I' for Inactive)
ROOT
ATOM      1  C2' OXE d   1       2.937  -2.115  -3.047  0.00  0.00     0.078 C 
ATOM      2  C1' OXE d   1       2.578  -4.467  -4.537  0.00  0.00     0.078 C 
ATOM      3  C1  OXE d   1       3.782  -4.385  -3.632  0.00  0.00    -0.078 A 
ATOM      4  C2  OXE d   1       3.975  -3.212  -2.942  0.00  0.00    -0.078 A 
ATOM      5  C3  OXE d   1       5.039  -3.104  -2.052  0.00  0.00     0.003 A 
ATOM      6  C4  OXE d   1       6.000  -4.119  -1.968  0.00  0.00    -0.002 A 
ATOM      7  C5  OXE d   1       5.843  -5.306  -2.692  0.00  0.00    -0.002 A 
ATOM      8  C6  OXE d   1       4.720  -5.471  -3.494  0.00  0.00     0.003 A 
ENDROOT
TORSDOF 0
ENDMDL
