MODEL 1
REMARK minimizedAffinity 15.4577084
REMARK minimizedRMSD -1
REMARK  0 active torsions:
REMARK  status: ('A' for Active; 'I' for Inactive)
ROOT
ATOM      1  C2' OXE d   1      -2.179  -2.002   0.199  0.00  0.00     0.078 C 
ATOM      2  C1' OXE d   1       0.496  -2.440  -0.531  0.00  0.00     0.078 C 
ATOM      3  C1  OXE d   1      -0.542  -2.440  -1.626  0.00  0.00    -0.078 A 
ATOM      4  C2  OXE d   1      -1.854  -2.271  -1.254  0.00  0.00    -0.078 A 
ATOM      5  C3  OXE d   1      -2.844  -2.209  -2.230  0.00  0.00     0.003 A 
ATOM      6  C4  OXE d   1      -2.536  -2.469  -3.571  0.00  0.00    -0.002 A 
ATOM      7  C5  OXE d   1      -1.211  -2.682  -3.966  0.00  0.00    -0.002 A 
ATOM      8  C6  OXE d   1      -0.199  -2.629  -3.014  0.00  0.00     0.003 A 
ENDROOT
TORSDOF 0
ENDMDL
