MODEL 1
REMARK minimizedAffinity 12.9655523
REMARK minimizedRMSD -1
REMARK  0 active torsions:
REMARK  status: ('A' for Active; 'I' for Inactive)
ROOT
ATOM      1  C2' OXE d   1       2.580   6.000  -3.695  0.00  0.00     0.078 C 
ATOM      2  C1' OXE d   1       4.490   5.381  -1.733  0.00  0.00     0.078 C 
ATOM      3  C1  OXE d   1       3.041   5.424  -1.315  0.00  0.00    -0.078 A 
ATOM      4  C2  OXE d   1       2.118   5.774  -2.271  0.00  0.00    -0.078 A 
ATOM      5  C3  OXE d   1       0.763   5.775  -1.953  0.00  0.00     0.003 A 
ATOM      6  C4  OXE d   1       0.345   5.574  -0.632  0.00  0.00    -0.002 A 
ATOM      7  C5  OXE d   1       1.272   5.256   0.366  0.00  0.00    -0.002 A 
ATOM      8  C6  OXE d   1       2.617   5.136   0.033  0.00  0.00     0.003 A 
ENDROOT
TORSDOF 0
ENDMDL
