MODEL 1
REMARK minimizedAffinity 7.01596689
REMARK minimizedRMSD -1
REMARK  0 active torsions:
REMARK  status: ('A' for Active; 'I' for Inactive)
ROOT
ATOM      1  C2' OXE d   1      -2.014  -2.084   1.087  0.00  0.00     0.078 C 
ATOM      2  C1' OXE d   1       0.443  -3.428   1.285  0.00  0.00     0.078 C 
ATOM      3  C1  OXE d   1       0.077  -2.824  -0.048  0.00  0.00    -0.078 A 
ATOM      4  C2  OXE d   1      -1.148  -2.209  -0.148  0.00  0.00    -0.078 A 
ATOM      5  C3  OXE d   1      -1.511  -1.588  -1.340  0.00  0.00     0.003 A 
ATOM      6  C4  OXE d   1      -0.709  -1.717  -2.480  0.00  0.00    -0.002 A 
ATOM      7  C5  OXE d   1       0.524  -2.374  -2.410  0.00  0.00    -0.002 A 
ATOM      8  C6  OXE d   1       0.950  -2.895  -1.193  0.00  0.00     0.003 A 
ENDROOT
TORSDOF 0
ENDMDL
