MODEL 1
REMARK minimizedAffinity 15.2588224
REMARK minimizedRMSD -1
REMARK  0 active torsions:
REMARK  status: ('A' for Active; 'I' for Inactive)
ROOT
ATOM      1  C2' OXE d   1       1.958   5.716  -2.982  0.00  0.00     0.078 C 
ATOM      2  C1' OXE d   1       2.357   4.198  -0.654  0.00  0.00     0.078 C 
ATOM      3  C1  OXE d   1       3.576   4.734  -1.362  0.00  0.00    -0.078 A 
ATOM      4  C2  OXE d   1       3.374   5.436  -2.526  0.00  0.00    -0.078 A 
ATOM      5  C3  OXE d   1       4.461   6.000  -3.188  0.00  0.00     0.003 A 
ATOM      6  C4  OXE d   1       5.768   5.728  -2.765  0.00  0.00    -0.002 A 
ATOM      7  C5  OXE d   1       5.997   4.981  -1.605  0.00  0.00    -0.002 A 
ATOM      8  C6  OXE d   1       4.914   4.514  -0.869  0.00  0.00     0.003 A 
ENDROOT
TORSDOF 0
ENDMDL
