MODEL 1
REMARK minimizedAffinity 16.4041443
REMARK minimizedRMSD -1
REMARK  0 active torsions:
REMARK  status: ('A' for Active; 'I' for Inactive)
ROOT
ATOM      1  C2' OXE d   1      -3.449   1.551   0.764  0.00  0.00     0.078 C 
ATOM      2  C1' OXE d   1      -0.991   1.616  -0.590  0.00  0.00     0.078 C 
ATOM      3  C1  OXE d   1      -1.563   0.267  -0.236  0.00  0.00    -0.078 A 
ATOM      4  C2  OXE d   1      -2.743   0.245   0.468  0.00  0.00    -0.078 A 
ATOM      5  C3  OXE d   1      -3.342  -0.974   0.772  0.00  0.00     0.003 A 
ATOM      6  C4  OXE d   1      -2.678  -2.177   0.503  0.00  0.00    -0.002 A 
ATOM      7  C5  OXE d   1      -1.456  -2.176  -0.177  0.00  0.00    -0.002 A 
ATOM      8  C6  OXE d   1      -0.907  -0.967  -0.591  0.00  0.00     0.003 A 
ENDROOT
TORSDOF 0
ENDMDL
