MODEL 1
REMARK minimizedAffinity 7.48815966
REMARK minimizedRMSD -1
REMARK  0 active torsions:
REMARK  status: ('A' for Active; 'I' for Inactive)
ROOT
ATOM      1  C2' OXE d   1       2.014   4.603  -1.536  0.00  0.00     0.078 C 
ATOM      2  C1' OXE d   1       2.147   5.604  -4.155  0.00  0.00     0.078 C 
ATOM      3  C1  OXE d   1       3.422   5.567  -3.350  0.00  0.00    -0.078 A 
ATOM      4  C2  OXE d   1       3.339   5.119  -2.054  0.00  0.00    -0.078 A 
ATOM      5  C3  OXE d   1       4.495   5.014  -1.286  0.00  0.00     0.003 A 
ATOM      6  C4  OXE d   1       5.715   5.503  -1.769  0.00  0.00    -0.002 A 
ATOM      7  C5  OXE d   1       5.813   6.000  -3.073  0.00  0.00    -0.002 A 
ATOM      8  C6  OXE d   1       4.688   5.999  -3.889  0.00  0.00     0.003 A 
ENDROOT
TORSDOF 0
ENDMDL
