MODEL 1
REMARK minimizedAffinity 19.3794003
REMARK minimizedRMSD -1
REMARK  0 active torsions:
REMARK  status: ('A' for Active; 'I' for Inactive)
ROOT
ATOM      1  C2' OXE d   1       2.036  -3.662  -3.151  0.00  0.00     0.078 C 
ATOM      2  C1' OXE d   1      -0.514  -3.043  -4.150  0.00  0.00     0.078 C 
ATOM      3  C1  OXE d   1      -0.164  -2.560  -2.764  0.00  0.00    -0.078 A 
ATOM      4  C2  OXE d   1       1.068  -2.908  -2.265  0.00  0.00    -0.078 A 
ATOM      5  C3  OXE d   1       1.461  -2.442  -1.014  0.00  0.00     0.003 A 
ATOM      6  C4  OXE d   1       0.557  -1.753  -0.197  0.00  0.00    -0.002 A 
ATOM      7  C5  OXE d   1      -0.718  -1.422  -0.671  0.00  0.00    -0.002 A 
ATOM      8  C6  OXE d   1      -1.078  -1.781  -1.965  0.00  0.00     0.003 A 
ENDROOT
TORSDOF 0
ENDMDL
