MODEL 1
REMARK minimizedAffinity 15.370513
REMARK minimizedRMSD -1
REMARK  0 active torsions:
REMARK  status: ('A' for Active; 'I' for Inactive)
ROOT
ATOM      1  C2' OXE d   1       4.452   4.548  -2.124  0.00  0.00     0.078 C 
ATOM      2  C1' OXE d   1       2.152   5.592  -3.350  0.00  0.00     0.078 C 
ATOM      3  C1  OXE d   1       1.982   4.866  -2.038  0.00  0.00    -0.078 A 
ATOM      4  C2  OXE d   1       3.107   4.318  -1.469  0.00  0.00    -0.078 A 
ATOM      5  C3  OXE d   1       3.015   3.686  -0.233  0.00  0.00     0.003 A 
ATOM      6  C4  OXE d   1       1.766   3.468   0.361  0.00  0.00    -0.002 A 
ATOM      7  C5  OXE d   1       0.603   3.984  -0.222  0.00  0.00    -0.002 A 
ATOM      8  C6  OXE d   1       0.699   4.720  -1.397  0.00  0.00     0.003 A 
ENDROOT
TORSDOF 0
ENDMDL
