MODEL 1
REMARK minimizedAffinity 2.5428369
REMARK minimizedRMSD -1
REMARK  0 active torsions:
REMARK  status: ('A' for Active; 'I' for Inactive)
ROOT
ATOM      1  C2' OXE d   1       5.996   4.875  -5.988  0.00  0.00     0.078 C 
ATOM      2  C1' OXE d   1       5.782   2.381  -4.717  0.00  0.00     0.078 C 
ATOM      3  C1  OXE d   1       5.837   3.612  -3.847  0.00  0.00    -0.078 A 
ATOM      4  C2  OXE d   1       5.989   4.824  -4.475  0.00  0.00    -0.078 A 
ATOM      5  C3  OXE d   1       5.991   5.995  -3.723  0.00  0.00     0.003 A 
ATOM      6  C4  OXE d   1       5.994   5.939  -2.324  0.00  0.00    -0.002 A 
ATOM      7  C5  OXE d   1       5.880   4.712  -1.663  0.00  0.00    -0.002 A 
ATOM      8  C6  OXE d   1       5.758   3.545  -2.408  0.00  0.00     0.003 A 
ENDROOT
TORSDOF 0
ENDMDL
