MODEL 1
REMARK minimizedAffinity 11.1990118
REMARK minimizedRMSD -1
REMARK  0 active torsions:
REMARK  status: ('A' for Active; 'I' for Inactive)
ROOT
ATOM      1  C2' OXE d   1      -1.753  -2.417  -3.851  0.00  0.00     0.078 C 
ATOM      2  C1' OXE d   1       0.640  -3.760  -3.260  0.00  0.00     0.078 C 
ATOM      3  C1  OXE d   1      -0.137  -3.168  -2.111  0.00  0.00    -0.078 A 
ATOM      4  C2  OXE d   1      -1.283  -2.473  -2.414  0.00  0.00    -0.078 A 
ATOM      5  C3  OXE d   1      -2.066  -1.954  -1.387  0.00  0.00     0.003 A 
ATOM      6  C4  OXE d   1      -1.618  -2.000  -0.061  0.00  0.00    -0.002 A 
ATOM      7  C5  OXE d   1      -0.434  -2.670   0.265  0.00  0.00    -0.002 A 
ATOM      8  C6  OXE d   1       0.295  -3.294  -0.741  0.00  0.00     0.003 A 
ENDROOT
TORSDOF 0
ENDMDL
