MODEL 1
REMARK minimizedAffinity 10.2777767
REMARK minimizedRMSD -1
REMARK  0 active torsions:
REMARK  status: ('A' for Active; 'I' for Inactive)
ROOT
ATOM      1  C2' OXE d   1      -1.464  -1.907   3.347  0.00  0.00     0.078 C 
ATOM      2  C1' OXE d   1       0.817  -3.160   2.296  0.00  0.00     0.078 C 
ATOM      3  C1  OXE d   1      -0.269  -2.755   1.332  0.00  0.00    -0.078 A 
ATOM      4  C2  OXE d   1      -1.402  -2.184   1.860  0.00  0.00    -0.078 A 
ATOM      5  C3  OXE d   1      -2.412  -1.742   1.010  0.00  0.00     0.003 A 
ATOM      6  C4  OXE d   1      -2.351  -2.011  -0.363  0.00  0.00    -0.002 A 
ATOM      7  C5  OXE d   1      -1.223  -2.626  -0.917  0.00  0.00    -0.002 A 
ATOM      8  C6  OXE d   1      -0.158  -2.965  -0.090  0.00  0.00     0.003 A 
ENDROOT
TORSDOF 0
ENDMDL
