MODEL 1
REMARK minimizedAffinity 7.48870897
REMARK minimizedRMSD -1
REMARK  0 active torsions:
REMARK  status: ('A' for Active; 'I' for Inactive)
ROOT
ATOM      1  C2' OXE d   1       5.967   4.762  -5.978  0.00  0.00     0.078 C 
ATOM      2  C1' OXE d   1       5.895   2.324  -4.589  0.00  0.00     0.078 C 
ATOM      3  C1  OXE d   1       5.888   3.596  -3.778  0.00  0.00    -0.078 A 
ATOM      4  C2  OXE d   1       5.970   4.784  -4.465  0.00  0.00    -0.078 A 
ATOM      5  C3  OXE d   1       5.912   5.988  -3.769  0.00  0.00     0.003 A 
ATOM      6  C4  OXE d   1       5.925   5.998  -2.369  0.00  0.00    -0.002 A 
ATOM      7  C5  OXE d   1       5.881   4.800  -1.649  0.00  0.00    -0.002 A 
ATOM      8  C6  OXE d   1       5.819   3.593  -2.338  0.00  0.00     0.003 A 
ENDROOT
TORSDOF 0
ENDMDL
