MODEL 1
REMARK minimizedAffinity 7.06904173
REMARK minimizedRMSD -1
REMARK  0 active torsions:
REMARK  status: ('A' for Active; 'I' for Inactive)
ROOT
ATOM      1  C2' OXE d   1       5.999   2.236  -4.489  0.00  0.00     0.078 C 
ATOM      2  C1' OXE d   1       5.995   4.641  -5.936  0.00  0.00     0.078 C 
ATOM      3  C1  OXE d   1       5.981   4.726  -4.430  0.00  0.00    -0.078 A 
ATOM      4  C2  OXE d   1       5.936   3.544  -3.730  0.00  0.00    -0.078 A 
ATOM      5  C3  OXE d   1       5.976   3.565  -2.339  0.00  0.00     0.003 A 
ATOM      6  C4  OXE d   1       5.908   4.779  -1.646  0.00  0.00    -0.002 A 
ATOM      7  C5  OXE d   1       5.913   5.994  -2.339  0.00  0.00    -0.002 A 
ATOM      8  C6  OXE d   1       5.992   5.986  -3.728  0.00  0.00     0.003 A 
ENDROOT
TORSDOF 0
ENDMDL
