MODEL 1
REMARK minimizedAffinity 10.8702984
REMARK minimizedRMSD -1
REMARK  0 active torsions:
REMARK  status: ('A' for Active; 'I' for Inactive)
ROOT
ATOM      1  C2' OXE d   1       3.295  -2.064   4.005  0.00  0.00     0.078 C 
ATOM      2  C1' OXE d   1       5.261  -1.661   5.968  0.00  0.00     0.078 C 
ATOM      3  C1  OXE d   1       5.016  -3.073   5.497  0.00  0.00    -0.078 A 
ATOM      4  C2  OXE d   1       4.019  -3.266   4.570  0.00  0.00    -0.078 A 
ATOM      5  C3  OXE d   1       3.789  -4.541   4.062  0.00  0.00     0.003 A 
ATOM      6  C4  OXE d   1       4.456  -5.649   4.598  0.00  0.00    -0.002 A 
ATOM      7  C5  OXE d   1       5.446  -5.479   5.571  0.00  0.00    -0.002 A 
ATOM      8  C6  OXE d   1       5.767  -4.196   6.000  0.00  0.00     0.003 A 
ENDROOT
TORSDOF 0
ENDMDL
