MODEL 1
REMARK minimizedAffinity -0.492360294
REMARK minimizedRMSD -1
REMARK  0 active torsions:
REMARK  status: ('A' for Active; 'I' for Inactive)
ROOT
ATOM      1  C   UNL d   1       1.123   2.890   0.265  0.00  0.00     0.023 A 
ATOM      2  C1  UNL d   1       1.610   1.893   1.111  0.00  0.00     0.003 A 
ATOM      3  C2  UNL d   1       1.111   0.593   1.019  0.00  0.00     0.048 A 
ATOM      4  C3  UNL d   1       0.126   0.295   0.078  0.00  0.00     0.023 A 
ATOM      5  C4  UNL d   1      -0.363   1.288  -0.772  0.00  0.00     0.048 A 
ATOM      6  C5  UNL d   1       0.139   2.588  -0.676  0.00  0.00     0.003 A 
ATOM      7  I   UNL d   1      -0.618  -1.641  -0.061  0.00  0.00    -0.146 I 
ENDROOT
TORSDOF 0
ENDMDL
