MODEL 1
REMARK minimizedAffinity -1.87947738
REMARK minimizedRMSD -1
REMARK  0 active torsions:
REMARK  status: ('A' for Active; 'I' for Inactive)
ROOT
ATOM      1  C   UNL d   1      -1.139  -1.198   1.138  0.00  0.00     0.023 A 
ATOM      2  C1  UNL d   1      -0.228  -1.225   0.082  0.00  0.00     0.003 A 
ATOM      3  C2  UNL d   1       0.533  -0.092  -0.215  0.00  0.00     0.048 A 
ATOM      4  C3  UNL d   1       0.379   1.064   0.550  0.00  0.00     0.023 A 
ATOM      5  C4  UNL d   1      -0.531   1.095   1.609  0.00  0.00     0.048 A 
ATOM      6  C5  UNL d   1      -1.290  -0.040   1.901  0.00  0.00     0.003 A 
ATOM      7  I   UNL d   1       1.511   2.751   0.111  0.00  0.00    -0.146 I 
ENDROOT
TORSDOF 0
ENDMDL
