MODEL 1
REMARK minimizedAffinity -1.053195
REMARK minimizedRMSD -1
REMARK  0 active torsions:
REMARK  status: ('A' for Active; 'I' for Inactive)
ROOT
ATOM      1  C   UNL d   1      -1.023  -1.884   0.397  0.00  0.00     0.023 A 
ATOM      2  C1  UNL d   1      -0.684  -1.228  -0.786  0.00  0.00     0.003 A 
ATOM      3  C2  UNL d   1      -0.002  -0.010  -0.740  0.00  0.00     0.048 A 
ATOM      4  C3  UNL d   1       0.339   0.544   0.494  0.00  0.00     0.023 A 
ATOM      5  C4  UNL d   1       0.003  -0.110   1.680  0.00  0.00     0.048 A 
ATOM      6  C5  UNL d   1      -0.680  -1.326   1.628  0.00  0.00     0.003 A 
ATOM      7  I   UNL d   1       1.355   2.356   0.566  0.00  0.00    -0.146 I 
ENDROOT
TORSDOF 0
ENDMDL
