MODEL 1
REMARK minimizedAffinity 1.22499442
REMARK minimizedRMSD -1
REMARK  0 active torsions:
REMARK  status: ('A' for Active; 'I' for Inactive)
ROOT
ATOM      1  C   UNL d   1      -1.698  -0.686   2.203  0.00  0.00     0.023 A 
ATOM      2  C1  UNL d   1      -1.206   0.524   1.713  0.00  0.00     0.003 A 
ATOM      3  C2  UNL d   1      -0.516   0.558   0.499  0.00  0.00     0.048 A 
ATOM      4  C3  UNL d   1      -0.322  -0.621  -0.219  0.00  0.00     0.023 A 
ATOM      5  C4  UNL d   1      -0.814  -1.834   0.267  0.00  0.00     0.048 A 
ATOM      6  C5  UNL d   1      -1.502  -1.863   1.481  0.00  0.00     0.003 A 
ATOM      7  I   UNL d   1       0.704  -0.573  -2.026  0.00  0.00    -0.146 I 
ENDROOT
TORSDOF 0
ENDMDL
