MODEL 1
REMARK minimizedAffinity -0.920970976
REMARK minimizedRMSD -1
REMARK  0 active torsions:
REMARK  status: ('A' for Active; 'I' for Inactive)
ROOT
ATOM      1  C   UNL d   1       0.278   1.118  -1.600  0.00  0.00     0.023 A 
ATOM      2  C1  UNL d   1      -0.171   1.100  -0.280  0.00  0.00     0.003 A 
ATOM      3  C2  UNL d   1      -0.484  -0.113   0.336  0.00  0.00     0.048 A 
ATOM      4  C3  UNL d   1      -0.344  -1.305  -0.374  0.00  0.00     0.023 A 
ATOM      5  C4  UNL d   1       0.106  -1.292  -1.695  0.00  0.00     0.048 A 
ATOM      6  C5  UNL d   1       0.416  -0.076  -2.307  0.00  0.00     0.003 A 
ATOM      7  I   UNL d   1      -0.809  -3.113   0.541  0.00  0.00    -0.146 I 
ENDROOT
TORSDOF 0
ENDMDL
