MODEL 1
REMARK minimizedAffinity -3.42103052
REMARK minimizedRMSD -1
REMARK  0 active torsions:
REMARK  status: ('A' for Active; 'I' for Inactive)
ROOT
ATOM      1  C   UNL d   1      -1.234   0.290   1.249  0.00  0.00     0.023 A 
ATOM      2  C1  UNL d   1      -0.617   0.537   0.022  0.00  0.00     0.003 A 
ATOM      3  C2  UNL d   1      -0.169  -0.527  -0.763  0.00  0.00     0.048 A 
ATOM      4  C3  UNL d   1      -0.342  -1.837  -0.316  0.00  0.00     0.023 A 
ATOM      5  C4  UNL d   1      -0.959  -2.089   0.911  0.00  0.00     0.048 A 
ATOM      6  C5  UNL d   1      -1.405  -1.022   1.692  0.00  0.00     0.003 A 
ATOM      7  I   UNL d   1       0.324  -3.423  -1.482  0.00  0.00    -0.146 I 
ENDROOT
TORSDOF 0
ENDMDL
