MODEL 1
REMARK minimizedAffinity -5.3008666
REMARK minimizedRMSD -1
REMARK  0 active torsions:
REMARK  status: ('A' for Active; 'I' for Inactive)
ROOT
ATOM      1  C   UNL d   1      -0.156  -3.056   0.206  0.00  0.00     0.023 A 
ATOM      2  C1  UNL d   1       0.999  -2.625  -0.447  0.00  0.00     0.003 A 
ATOM      3  C2  UNL d   1       1.305  -1.264  -0.501  0.00  0.00     0.048 A 
ATOM      4  C3  UNL d   1       0.453  -0.339   0.101  0.00  0.00     0.023 A 
ATOM      5  C4  UNL d   1      -0.703  -0.766   0.757  0.00  0.00     0.048 A 
ATOM      6  C5  UNL d   1      -1.006  -2.128   0.808  0.00  0.00     0.003 A 
ATOM      7  I   UNL d   1       0.906   1.688   0.022  0.00  0.00    -0.146 I 
ENDROOT
TORSDOF 0
ENDMDL
