MODEL 1
REMARK minimizedAffinity -0.24992685
REMARK minimizedRMSD -1
REMARK  0 active torsions:
REMARK  status: ('A' for Active; 'I' for Inactive)
ROOT
ATOM      1  C   UNL d   1      -1.067  -2.426   0.456  0.00  0.00     0.023 A 
ATOM      2  C1  UNL d   1      -1.264  -1.455   1.438  0.00  0.00     0.003 A 
ATOM      3  C2  UNL d   1      -0.819  -0.148   1.230  0.00  0.00     0.048 A 
ATOM      4  C3  UNL d   1      -0.177   0.182   0.037  0.00  0.00     0.023 A 
ATOM      5  C4  UNL d   1       0.022  -0.786  -0.949  0.00  0.00     0.048 A 
ATOM      6  C5  UNL d   1      -0.425  -2.091  -0.736  0.00  0.00     0.003 A 
ATOM      7  I   UNL d   1       0.487   2.126  -0.275  0.00  0.00    -0.146 I 
ENDROOT
TORSDOF 0
ENDMDL
