MODEL 1
REMARK minimizedAffinity -4.25119114
REMARK minimizedRMSD -1
REMARK  0 active torsions:
REMARK  status: ('A' for Active; 'I' for Inactive)
ROOT
ATOM      1  C   UNL d   1       0.921   2.197  -0.971  0.00  0.00     0.023 A 
ATOM      2  C1  UNL d   1       0.004   2.031   0.067  0.00  0.00     0.003 A 
ATOM      3  C2  UNL d   1      -0.396   0.749   0.449  0.00  0.00     0.048 A 
ATOM      4  C3  UNL d   1       0.125  -0.363  -0.211  0.00  0.00     0.023 A 
ATOM      5  C4  UNL d   1       1.043  -0.202  -1.250  0.00  0.00     0.048 A 
ATOM      6  C5  UNL d   1       1.440   1.081  -1.629  0.00  0.00     0.003 A 
ATOM      7  I   UNL d   1      -0.469  -2.272   0.356  0.00  0.00    -0.146 I 
ENDROOT
TORSDOF 0
ENDMDL
