MODEL 1
REMARK minimizedAffinity -4.21560287
REMARK minimizedRMSD -1
REMARK  0 active torsions:
REMARK  status: ('A' for Active; 'I' for Inactive)
ROOT
ATOM      1  C   UNL d   1      -1.085  -2.698   0.540  0.00  0.00     0.023 A 
ATOM      2  C1  UNL d   1      -0.645  -2.224  -0.696  0.00  0.00     0.003 A 
ATOM      3  C2  UNL d   1      -0.143  -0.926  -0.809  0.00  0.00     0.048 A 
ATOM      4  C3  UNL d   1      -0.084  -0.107   0.319  0.00  0.00     0.023 A 
ATOM      5  C4  UNL d   1      -0.522  -0.578   1.557  0.00  0.00     0.048 A 
ATOM      6  C5  UNL d   1      -1.024  -1.876   1.665  0.00  0.00     0.003 A 
ATOM      7  I   UNL d   1       0.663   1.825   0.153  0.00  0.00    -0.146 I 
ENDROOT
TORSDOF 0
ENDMDL
