MODEL 1
REMARK minimizedAffinity -1.5337013
REMARK minimizedRMSD -1
REMARK  0 active torsions:
REMARK  status: ('A' for Active; 'I' for Inactive)
ROOT
ATOM      1  C   UNL d   1       0.319   1.220  -1.717  0.00  0.00     0.023 A 
ATOM      2  C1  UNL d   1       0.484   0.033  -2.431  0.00  0.00     0.003 A 
ATOM      3  C2  UNL d   1       0.134  -1.187  -1.850  0.00  0.00     0.048 A 
ATOM      4  C3  UNL d   1      -0.382  -1.214  -0.555  0.00  0.00     0.023 A 
ATOM      5  C4  UNL d   1      -0.550  -0.029   0.163  0.00  0.00     0.048 A 
ATOM      6  C5  UNL d   1      -0.198   1.189  -0.421  0.00  0.00     0.003 A 
ATOM      7  I   UNL d   1      -0.904  -3.029   0.312  0.00  0.00    -0.146 I 
ENDROOT
TORSDOF 0
ENDMDL
