MODEL 1
REMARK minimizedAffinity -0.823264003
REMARK minimizedRMSD -1
REMARK  0 active torsions:
REMARK  status: ('A' for Active; 'I' for Inactive)
ROOT
ATOM      1  C   UNL d   1       0.344  -1.369  -1.886  0.00  0.00     0.023 A 
ATOM      2  C1  UNL d   1       0.312   0.022  -1.773  0.00  0.00     0.003 A 
ATOM      3  C2  UNL d   1       0.024   0.617  -0.543  0.00  0.00     0.048 A 
ATOM      4  C3  UNL d   1      -0.230  -0.183   0.570  0.00  0.00     0.023 A 
ATOM      5  C4  UNL d   1      -0.199  -1.574   0.462  0.00  0.00     0.048 A 
ATOM      6  C5  UNL d   1       0.088  -2.165  -0.770  0.00  0.00     0.003 A 
ATOM      7  I   UNL d   1      -0.659   0.701   2.401  0.00  0.00    -0.146 I 
ENDROOT
TORSDOF 0
ENDMDL
