MODEL 1
REMARK minimizedAffinity -3.09545708
REMARK minimizedRMSD -1
REMARK  0 active torsions:
REMARK  status: ('A' for Active; 'I' for Inactive)
ROOT
ATOM      1  C   UNL d   1      -0.760  -2.347  -0.011  0.00  0.00     0.023 A 
ATOM      2  C1  UNL d   1      -1.125  -1.516   1.048  0.00  0.00     0.003 A 
ATOM      3  C2  UNL d   1      -0.810  -0.156   1.011  0.00  0.00     0.048 A 
ATOM      4  C3  UNL d   1      -0.130   0.366  -0.088  0.00  0.00     0.023 A 
ATOM      5  C4  UNL d   1       0.236  -0.461  -1.151  0.00  0.00     0.048 A 
ATOM      6  C5  UNL d   1      -0.080  -1.820  -1.109  0.00  0.00     0.003 A 
ATOM      7  I   UNL d   1       0.340   2.390  -0.145  0.00  0.00    -0.146 I 
ENDROOT
TORSDOF 0
ENDMDL
