MODEL 1
REMARK minimizedAffinity -3.0678978
REMARK minimizedRMSD -1
REMARK  1 active torsions:
REMARK  status: ('A' for Active; 'I' for Inactive)
REMARK    1  A    between atoms: N_2  and  C1_3 
ROOT
ATOM      1  C1  UNL d   1      -0.006  -0.218  -0.747  0.00  0.00     0.143 A 
ATOM      2  C2  UNL d   1      -0.706   0.121   0.416  0.00  0.00    -0.057 A 
ATOM      3  C3  UNL d   1      -0.236  -0.254   1.681  0.00  0.00     0.033 A 
ATOM      4  C4  UNL d   1       0.930  -1.001   1.803  0.00  0.00    -0.042 A 
ATOM      5  C5  UNL d   1       1.629  -1.371   0.659  0.00  0.00     0.033 A 
ATOM      6  C6  UNL d   1       1.158  -0.988  -0.601  0.00  0.00    -0.057 A 
ENDROOT
BRANCH   1   7
ATOM      7  N   UNL d   1      -0.473   0.040  -2.039  0.00  0.00    -0.732 N 
ATOM      8  C   UNL d   1      -0.632   1.400  -2.507  0.00  0.00     0.284 C 
ATOM      9  H3  UNL d   1      -0.075  -0.593  -2.729  0.00  0.00     0.395 HD
ENDBRANCH   1   7
TORSDOF 1
ENDMDL
