MODEL 1
REMARK minimizedAffinity -3.50132108
REMARK minimizedRMSD -1
REMARK  1 active torsions:
REMARK  status: ('A' for Active; 'I' for Inactive)
REMARK    1  A    between atoms: N_2  and  C1_3 
ROOT
ATOM      1  C1  UNL d   1      -0.489  -0.092  -0.311  0.00  0.00     0.143 A 
ATOM      2  C2  UNL d   1      -1.130   0.050   0.924  0.00  0.00    -0.057 A 
ATOM      3  C3  UNL d   1      -0.690  -0.647   2.055  0.00  0.00     0.033 A 
ATOM      4  C4  UNL d   1       0.386  -1.524   1.964  0.00  0.00    -0.042 A 
ATOM      5  C5  UNL d   1       1.023  -1.700   0.741  0.00  0.00     0.033 A 
ATOM      6  C6  UNL d   1       0.582  -0.996  -0.384  0.00  0.00    -0.057 A 
ENDROOT
BRANCH   1   7
ATOM      7  N   UNL d   1      -0.940   0.498  -1.495  0.00  0.00    -0.732 N 
ATOM      8  C   UNL d   1      -0.529   1.838  -1.854  0.00  0.00     0.284 C 
ATOM      9  H3  UNL d   1      -0.954  -0.156  -2.274  0.00  0.00     0.395 HD
ENDBRANCH   1   7
TORSDOF 1
ENDMDL
