MODEL 1
REMARK minimizedAffinity -1.26197326
REMARK minimizedRMSD -1
REMARK  1 active torsions:
REMARK  status: ('A' for Active; 'I' for Inactive)
REMARK    1  A    between atoms: N_2  and  C1_3 
ROOT
ATOM      1  C1  UNL d   1      -0.230   0.945  -1.757  0.00  0.00     0.143 A 
ATOM      2  C2  UNL d   1      -1.494   1.441  -2.093  0.00  0.00    -0.057 A 
ATOM      3  C3  UNL d   1      -1.640   2.656  -2.773  0.00  0.00     0.033 A 
ATOM      4  C4  UNL d   1      -0.520   3.413  -3.105  0.00  0.00    -0.042 A 
ATOM      5  C5  UNL d   1       0.744   2.951  -2.759  0.00  0.00     0.033 A 
ATOM      6  C6  UNL d   1       0.884   1.734  -2.085  0.00  0.00    -0.057 A 
ENDROOT
BRANCH   1   7
ATOM      7  N   UNL d   1      -0.025  -0.207  -0.994  0.00  0.00    -0.732 N 
ATOM      8  C   UNL d   1      -0.930  -0.551   0.081  0.00  0.00     0.284 C 
ATOM      9  H3  UNL d   1       0.269  -1.001  -1.560  0.00  0.00     0.395 HD
ENDBRANCH   1   7
TORSDOF 1
ENDMDL
