MODEL 1
REMARK minimizedAffinity -1.8498373
REMARK minimizedRMSD -1
REMARK  1 active torsions:
REMARK  status: ('A' for Active; 'I' for Inactive)
REMARK    1  A    between atoms: N_2  and  C1_3 
ROOT
ATOM      1  C1  UNL d   1       1.211  -1.288  -0.030  0.00  0.00     0.143 A 
ATOM      2  C2  UNL d   1       0.405  -0.704  -1.013  0.00  0.00    -0.057 A 
ATOM      3  C3  UNL d   1      -0.755   0.003  -0.676  0.00  0.00     0.033 A 
ATOM      4  C4  UNL d   1      -1.146   0.116   0.654  0.00  0.00    -0.042 A 
ATOM      5  C5  UNL d   1      -0.374  -0.477   1.646  0.00  0.00     0.033 A 
ATOM      6  C6  UNL d   1       0.787  -1.177   1.304  0.00  0.00    -0.057 A 
ENDROOT
BRANCH   1   7
ATOM      7  N   UNL d   1       2.322  -2.087  -0.308  0.00  0.00    -0.732 N 
ATOM      8  C   UNL d   1       2.825  -3.019   0.678  0.00  0.00     0.284 C 
ATOM      9  H3  UNL d   1       2.309  -2.453  -1.257  0.00  0.00     0.395 HD
ENDBRANCH   1   7
TORSDOF 1
ENDMDL
