MODEL 1
REMARK minimizedAffinity -4.01561403
REMARK minimizedRMSD -1
REMARK  1 active torsions:
REMARK  status: ('A' for Active; 'I' for Inactive)
REMARK    1  A    between atoms: N_2  and  C1_3 
ROOT
ATOM      1  C1  UNL d   1      -0.826   1.205  -1.408  0.00  0.00     0.143 A 
ATOM      2  C2  UNL d   1      -0.238  -0.064  -1.376  0.00  0.00    -0.057 A 
ATOM      3  C3  UNL d   1      -0.149  -0.792  -0.183  0.00  0.00     0.033 A 
ATOM      4  C4  UNL d   1      -0.622  -0.250   1.007  0.00  0.00    -0.042 A 
ATOM      5  C5  UNL d   1      -1.188   1.020   1.003  0.00  0.00     0.033 A 
ATOM      6  C6  UNL d   1      -1.280   1.740  -0.192  0.00  0.00    -0.057 A 
ENDROOT
BRANCH   1   7
ATOM      7  N   UNL d   1      -0.855   2.020  -2.543  0.00  0.00    -0.732 N 
ATOM      8  C   UNL d   1      -1.173   3.427  -2.432  0.00  0.00     0.284 C 
ATOM      9  H3  UNL d   1      -0.095   1.815  -3.188  0.00  0.00     0.395 HD
ENDBRANCH   1   7
TORSDOF 1
ENDMDL
