MODEL 1
REMARK minimizedAffinity -2.68958616
REMARK minimizedRMSD -1
REMARK  1 active torsions:
REMARK  status: ('A' for Active; 'I' for Inactive)
REMARK    1  A    between atoms: N_2  and  C1_3 
ROOT
ATOM      1  C1  UNL d   1      -0.397   0.505  -0.526  0.00  0.00     0.143 A 
ATOM      2  C2  UNL d   1       0.286  -0.684  -0.248  0.00  0.00    -0.057 A 
ATOM      3  C3  UNL d   1       0.254  -1.259   1.028  0.00  0.00     0.033 A 
ATOM      4  C4  UNL d   1      -0.442  -0.637   2.060  0.00  0.00    -0.042 A 
ATOM      5  C5  UNL d   1      -1.108   0.558   1.813  0.00  0.00     0.033 A 
ATOM      6  C6  UNL d   1      -1.078   1.123   0.535  0.00  0.00    -0.057 A 
ENDROOT
BRANCH   1   7
ATOM      7  N   UNL d   1      -0.323   1.178  -1.748  0.00  0.00    -0.732 N 
ATOM      8  C   UNL d   1      -1.444   1.955  -2.231  0.00  0.00     0.284 C 
ATOM      9  H3  UNL d   1       0.582   1.619  -1.894  0.00  0.00     0.395 HD
ENDBRANCH   1   7
TORSDOF 1
ENDMDL
