MODEL 1
REMARK minimizedAffinity -3.87633467
REMARK minimizedRMSD -1
REMARK  1 active torsions:
REMARK  status: ('A' for Active; 'I' for Inactive)
REMARK    1  A    between atoms: N_2  and  C1_3 
ROOT
ATOM      1  C1  UNL d   1      -0.053   1.061  -1.456  0.00  0.00     0.143 A 
ATOM      2  C2  UNL d   1       0.937   2.024  -1.231  0.00  0.00    -0.057 A 
ATOM      3  C3  UNL d   1       0.815   3.323  -1.738  0.00  0.00     0.033 A 
ATOM      4  C4  UNL d   1      -0.289   3.675  -2.507  0.00  0.00    -0.042 A 
ATOM      5  C5  UNL d   1      -1.274   2.728  -2.764  0.00  0.00     0.033 A 
ATOM      6  C6  UNL d   1      -1.150   1.434  -2.249  0.00  0.00    -0.057 A 
ENDROOT
BRANCH   1   7
ATOM      7  N   UNL d   1       0.057  -0.275  -1.061  0.00  0.00    -0.732 N 
ATOM      8  C   UNL d   1       1.326  -0.965  -1.142  0.00  0.00     0.284 C 
ATOM      9  H3  UNL d   1      -0.472  -0.475  -0.216  0.00  0.00     0.395 HD
ENDBRANCH   1   7
TORSDOF 1
ENDMDL
