MODEL 1
REMARK minimizedAffinity -5.95134926
REMARK minimizedRMSD -1
REMARK  0 active torsions:
REMARK  status: ('A' for Active; 'I' for Inactive)
ROOT
ATOM      1  O1  BZF d   1      -3.077   3.688  -1.640  0.00  0.00    -0.204 OA
ATOM      2  C2  BZF d   1      -3.563   4.979  -1.727  0.00  0.00     0.174 A 
ATOM      3  C3  BZF d   1      -2.980   5.772  -0.804  0.00  0.00    -0.012 A 
ATOM      4  C3A BZF d   1      -2.007   4.946  -0.158  0.00  0.00    -0.107 A 
ATOM      5  C4  BZF d   1      -1.099   5.168   0.837  0.00  0.00     0.055 A 
ATOM      6  C5  BZF d   1      -0.347   4.130   1.289  0.00  0.00    -0.016 A 
ATOM      7  C6  BZF d   1      -0.481   2.858   0.773  0.00  0.00     0.022 A 
ATOM      8  C7  BZF d   1      -1.365   2.590  -0.219  0.00  0.00     0.029 A 
ATOM      9  C7A BZF d   1      -2.103   3.643  -0.700  0.00  0.00     0.058 A 
ENDROOT
TORSDOF 0
ENDMDL
