MODEL 1
REMARK minimizedAffinity -2.77930856
REMARK minimizedRMSD -1
REMARK  0 active torsions:
REMARK  status: ('A' for Active; 'I' for Inactive)
ROOT
ATOM      1  O1  BZF d   1       1.870   2.212   1.472  0.00  0.00    -0.204 OA
ATOM      2  C2  BZF d   1       2.020   3.405   0.791  0.00  0.00     0.174 A 
ATOM      3  C3  BZF d   1       1.365   3.369  -0.387  0.00  0.00    -0.012 A 
ATOM      4  C3A BZF d   1       0.691   2.107  -0.405  0.00  0.00    -0.107 A 
ATOM      5  C4  BZF d   1      -0.135   1.497  -1.305  0.00  0.00     0.055 A 
ATOM      6  C5  BZF d   1      -0.566   0.233  -1.054  0.00  0.00    -0.016 A 
ATOM      7  C6  BZF d   1      -0.186  -0.452   0.082  0.00  0.00     0.022 A 
ATOM      8  C7  BZF d   1       0.628   0.114   1.006  0.00  0.00     0.029 A 
ATOM      9  C7A BZF d   1       1.038   1.404   0.772  0.00  0.00     0.058 A 
ENDROOT
TORSDOF 0
ENDMDL
