MODEL 1
REMARK minimizedAffinity -4.40543175
REMARK minimizedRMSD -1
REMARK  0 active torsions:
REMARK  status: ('A' for Active; 'I' for Inactive)
ROOT
ATOM      1  O1  BZF d   1      -1.121  -0.511  -0.012  0.00  0.00    -0.204 OA
ATOM      2  C2  BZF d   1      -0.111  -1.107  -0.741  0.00  0.00     0.174 A 
ATOM      3  C3  BZF d   1       0.567  -0.188  -1.459  0.00  0.00    -0.012 A 
ATOM      4  C3A BZF d   1      -0.000   1.072  -1.088  0.00  0.00    -0.107 A 
ATOM      5  C4  BZF d   1       0.261   2.363  -1.450  0.00  0.00     0.055 A 
ATOM      6  C5  BZF d   1      -0.524   3.358  -0.960  0.00  0.00    -0.016 A 
ATOM      7  C6  BZF d   1      -1.579   3.099  -0.110  0.00  0.00     0.022 A 
ATOM      8  C7  BZF d   1      -1.874   1.835   0.281  0.00  0.00     0.029 A 
ATOM      9  C7A BZF d   1      -1.063   0.831  -0.186  0.00  0.00     0.058 A 
ENDROOT
TORSDOF 0
ENDMDL
