MODEL 1
REMARK minimizedAffinity -4.11160946
REMARK minimizedRMSD -1
REMARK  0 active torsions:
REMARK  status: ('A' for Active; 'I' for Inactive)
ROOT
ATOM      1  O1  BZF d   1       0.528   0.138  -0.407  0.00  0.00    -0.204 OA
ATOM      2  C2  BZF d   1      -0.589  -0.565   0.001  0.00  0.00     0.174 A 
ATOM      3  C3  BZF d   1      -1.505   0.264   0.541  0.00  0.00    -0.012 A 
ATOM      4  C3A BZF d   1      -0.963   1.579   0.382  0.00  0.00    -0.107 A 
ATOM      5  C4  BZF d   1      -1.414   2.826   0.706  0.00  0.00     0.055 A 
ATOM      6  C5  BZF d   1      -0.610   3.898   0.482  0.00  0.00    -0.016 A 
ATOM      7  C6  BZF d   1       0.651   3.760  -0.060  0.00  0.00     0.022 A 
ATOM      8  C7  BZF d   1       1.140   2.543  -0.402  0.00  0.00     0.029 A 
ATOM      9  C7A BZF d   1       0.317   1.461  -0.207  0.00  0.00     0.058 A 
ENDROOT
TORSDOF 0
ENDMDL
