MODEL 1
REMARK minimizedAffinity -3.17729735
REMARK minimizedRMSD -1
REMARK  0 active torsions:
REMARK  status: ('A' for Active; 'I' for Inactive)
ROOT
ATOM      1  O1  BZF d   1       0.553   1.760  -0.171  0.00  0.00    -0.204 OA
ATOM      2  C2  BZF d   1      -0.737   1.297  -0.344  0.00  0.00     0.174 A 
ATOM      3  C3  BZF d   1      -1.627   2.143   0.212  0.00  0.00    -0.012 A 
ATOM      4  C3A BZF d   1      -0.852   3.248   0.687  0.00  0.00    -0.107 A 
ATOM      5  C4  BZF d   1      -1.170   4.416   1.319  0.00  0.00     0.055 A 
ATOM      6  C5  BZF d   1      -0.169   5.247   1.713  0.00  0.00    -0.016 A 
ATOM      7  C6  BZF d   1       1.158   4.941   1.495  0.00  0.00     0.022 A 
ATOM      8  C7  BZF d   1       1.522   3.796   0.867  0.00  0.00     0.029 A 
ATOM      9  C7A BZF d   1       0.512   2.969   0.438  0.00  0.00     0.058 A 
ENDROOT
TORSDOF 0
ENDMDL
