MODEL 1
REMARK minimizedAffinity -3.0406816
REMARK minimizedRMSD -1
REMARK  0 active torsions:
REMARK  status: ('A' for Active; 'I' for Inactive)
ROOT
ATOM      1  O1  BZF d   1       1.491   2.194  -2.023  0.00  0.00    -0.204 OA
ATOM      2  C2  BZF d   1       1.174   0.938  -1.542  0.00  0.00     0.174 A 
ATOM      3  C3  BZF d   1       1.844   0.681  -0.399  0.00  0.00    -0.012 A 
ATOM      4  C3A BZF d   1       2.557   1.885  -0.102  0.00  0.00    -0.107 A 
ATOM      5  C4  BZF d   1       3.389   2.257   0.915  0.00  0.00     0.055 A 
ATOM      6  C5  BZF d   1       3.980   3.480   0.871  0.00  0.00    -0.016 A 
ATOM      7  C6  BZF d   1       3.767   4.352  -0.175  0.00  0.00     0.022 A 
ATOM      8  C7  BZF d   1       2.946   4.030  -1.205  0.00  0.00     0.029 A 
ATOM      9  C7A BZF d   1       2.321   2.809  -1.147  0.00  0.00     0.058 A 
ENDROOT
TORSDOF 0
ENDMDL
