MODEL 1
REMARK minimizedAffinity -3.61826062
REMARK minimizedRMSD -1
REMARK  0 active torsions:
REMARK  status: ('A' for Active; 'I' for Inactive)
ROOT
ATOM      1  O1  BZF d   1       0.124   1.677  -1.582  0.00  0.00    -0.204 OA
ATOM      2  C2  BZF d   1      -0.275   2.757  -0.819  0.00  0.00     0.174 A 
ATOM      3  C3  BZF d   1      -0.903   2.346   0.301  0.00  0.00    -0.012 A 
ATOM      4  C3A BZF d   1      -0.815   0.918   0.279  0.00  0.00    -0.107 A 
ATOM      5  C4  BZF d   1      -1.240  -0.062   1.130  0.00  0.00     0.055 A 
ATOM      6  C5  BZF d   1      -1.061  -1.363   0.781  0.00  0.00    -0.016 A 
ATOM      7  C6  BZF d   1      -0.467  -1.720  -0.411  0.00  0.00     0.022 A 
ATOM      8  C7  BZF d   1      -0.024  -0.783  -1.285  0.00  0.00     0.029 A 
ATOM      9  C7A BZF d   1      -0.174   0.533  -0.921  0.00  0.00     0.058 A 
ENDROOT
TORSDOF 0
ENDMDL
