MODEL 1
REMARK minimizedAffinity -1.7302947
REMARK minimizedRMSD -1
REMARK  0 active torsions:
REMARK  status: ('A' for Active; 'I' for Inactive)
ROOT
ATOM      1  O1  BZF d   1      -1.457   2.032   0.355  0.00  0.00    -0.204 OA
ATOM      2  C2  BZF d   1      -0.767   2.874  -0.496  0.00  0.00     0.174 A 
ATOM      3  C3  BZF d   1       0.181   2.197  -1.175  0.00  0.00    -0.012 A 
ATOM      4  C3A BZF d   1       0.017   0.829  -0.787  0.00  0.00    -0.107 A 
ATOM      5  C4  BZF d   1       0.653  -0.328  -1.135  0.00  0.00     0.055 A 
ATOM      6  C5  BZF d   1       0.299  -1.487  -0.520  0.00  0.00    -0.016 A 
ATOM      7  C6  BZF d   1      -0.682  -1.524   0.449  0.00  0.00     0.022 A 
ATOM      8  C7  BZF d   1      -1.345  -0.403   0.824  0.00  0.00     0.029 A 
ATOM      9  C7A BZF d   1      -1.012   0.764   0.180  0.00  0.00     0.058 A 
ENDROOT
TORSDOF 0
ENDMDL
