MODEL 1
REMARK minimizedAffinity -2.7141695
REMARK minimizedRMSD -1
REMARK  0 active torsions:
REMARK  status: ('A' for Active; 'I' for Inactive)
ROOT
ATOM      1  O1  BZF d   1       0.333  -1.002  -1.362  0.00  0.00    -0.204 OA
ATOM      2  C2  BZF d   1       0.884  -0.200  -2.342  0.00  0.00     0.174 A 
ATOM      3  C3  BZF d   1       0.365   1.044  -2.291  0.00  0.00    -0.012 A 
ATOM      4  C3A BZF d   1      -0.502   1.042  -1.152  0.00  0.00    -0.107 A 
ATOM      5  C4  BZF d   1      -1.292   1.993  -0.572  0.00  0.00     0.055 A 
ATOM      6  C5  BZF d   1      -2.071   1.649   0.487  0.00  0.00    -0.016 A 
ATOM      7  C6  BZF d   1      -2.088   0.364   0.988  0.00  0.00     0.022 A 
ATOM      8  C7  BZF d   1      -1.318  -0.613   0.449  0.00  0.00     0.029 A 
ATOM      9  C7A BZF d   1      -0.505  -0.260  -0.600  0.00  0.00     0.058 A 
ENDROOT
TORSDOF 0
ENDMDL
