MODEL 1
REMARK minimizedAffinity -3.54358864
REMARK minimizedRMSD -1
REMARK  0 active torsions:
REMARK  status: ('A' for Active; 'I' for Inactive)
ROOT
ATOM      1  O1  BZF d   1      -2.201  -1.656   0.858  0.00  0.00    -0.204 OA
ATOM      2  C2  BZF d   1      -1.330  -2.650   0.455  0.00  0.00     0.174 A 
ATOM      3  C3  BZF d   1      -0.163  -2.121   0.032  0.00  0.00    -0.012 A 
ATOM      4  C3A BZF d   1      -0.281  -0.715   0.267  0.00  0.00    -0.107 A 
ATOM      5  C4  BZF d   1       0.559   0.344   0.067  0.00  0.00     0.055 A 
ATOM      6  C5  BZF d   1       0.114   1.600   0.333  0.00  0.00    -0.016 A 
ATOM      7  C6  BZF d   1      -1.165   1.834   0.794  0.00  0.00     0.022 A 
ATOM      8  C7  BZF d   1      -2.033   0.816   1.012  0.00  0.00     0.029 A 
ATOM      9  C7A BZF d   1      -1.575  -0.457   0.775  0.00  0.00     0.058 A 
ENDROOT
TORSDOF 0
ENDMDL
