MODEL 1
REMARK minimizedAffinity -2.11382222
REMARK minimizedRMSD -1
REMARK  0 active torsions:
REMARK  status: ('A' for Active; 'I' for Inactive)
ROOT
ATOM      1  O1  BZF d   1      -0.655   1.296  -1.490  0.00  0.00    -0.204 OA
ATOM      2  C2  BZF d   1       0.073   0.601  -2.435  0.00  0.00     0.174 A 
ATOM      3  C3  BZF d   1       0.290  -0.668  -2.034  0.00  0.00    -0.012 A 
ATOM      4  C3A BZF d   1      -0.421  -0.799  -0.800  0.00  0.00    -0.107 A 
ATOM      5  C4  BZF d   1      -0.601  -1.832   0.076  0.00  0.00     0.055 A 
ATOM      6  C5  BZF d   1      -1.291  -1.611   1.226  0.00  0.00    -0.016 A 
ATOM      7  C6  BZF d   1      -1.810  -0.371   1.534  0.00  0.00     0.022 A 
ATOM      8  C7  BZF d   1      -1.662   0.683   0.694  0.00  0.00     0.029 A 
ATOM      9  C7A BZF d   1      -0.994   0.455  -0.484  0.00  0.00     0.058 A 
ENDROOT
TORSDOF 0
ENDMDL
