MODEL 1
REMARK minimizedAffinity -4.37819624
REMARK minimizedRMSD -1
REMARK  0 active torsions:
REMARK  status: ('A' for Active; 'I' for Inactive)
ROOT
ATOM      1  O1  BZF d   1       1.912   2.954  -0.025  0.00  0.00    -0.204 OA
ATOM      2  C2  BZF d   1       3.040   3.483   0.571  0.00  0.00     0.174 A 
ATOM      3  C3  BZF d   1       2.712   4.486   1.411  0.00  0.00    -0.012 A 
ATOM      4  C3A BZF d   1       1.282   4.528   1.405  0.00  0.00    -0.107 A 
ATOM      5  C4  BZF d   1       0.363   5.302   2.054  0.00  0.00     0.055 A 
ATOM      6  C5  BZF d   1      -0.956   5.138   1.772  0.00  0.00    -0.016 A 
ATOM      7  C6  BZF d   1      -1.391   4.214   0.845  0.00  0.00     0.022 A 
ATOM      8  C7  BZF d   1      -0.517   3.420   0.180  0.00  0.00     0.029 A 
ATOM      9  C7A BZF d   1       0.814   3.560   0.486  0.00  0.00     0.058 A 
ENDROOT
TORSDOF 0
ENDMDL
