MODEL 1
REMARK minimizedAffinity -3.97408199
REMARK minimizedRMSD -1
REMARK  0 active torsions:
REMARK  status: ('A' for Active; 'I' for Inactive)
ROOT
ATOM      1  O1  BZF d   1       1.600   2.795  -0.057  0.00  0.00    -0.204 OA
ATOM      2  C2  BZF d   1       2.813   3.174   0.485  0.00  0.00     0.174 A 
ATOM      3  C3  BZF d   1       2.635   4.066   1.481  0.00  0.00    -0.012 A 
ATOM      4  C3A BZF d   1       1.217   4.186   1.628  0.00  0.00    -0.107 A 
ATOM      5  C4  BZF d   1       0.418   4.912   2.466  0.00  0.00     0.055 A 
ATOM      6  C5  BZF d   1      -0.930   4.860   2.302  0.00  0.00    -0.016 A 
ATOM      7  C6  BZF d   1      -1.512   4.100   1.310  0.00  0.00     0.022 A 
ATOM      8  C7  BZF d   1      -0.762   3.359   0.458  0.00  0.00     0.029 A 
ATOM      9  C7A BZF d   1       0.599   3.383   0.642  0.00  0.00     0.058 A 
ENDROOT
TORSDOF 0
ENDMDL
