MODEL 1
REMARK minimizedAffinity -4.57242775
REMARK minimizedRMSD -1
REMARK  0 active torsions:
REMARK  status: ('A' for Active; 'I' for Inactive)
ROOT
ATOM      1  O1  BZF d   1      -1.231   2.477   0.883  0.00  0.00    -0.204 OA
ATOM      2  C2  BZF d   1      -0.348   3.325   0.242  0.00  0.00     0.174 A 
ATOM      3  C3  BZF d   1       0.443   2.638  -0.607  0.00  0.00    -0.012 A 
ATOM      4  C3A BZF d   1      -0.032   1.289  -0.558  0.00  0.00    -0.107 A 
ATOM      5  C4  BZF d   1       0.339   0.139  -1.193  0.00  0.00     0.055 A 
ATOM      6  C5  BZF d   1      -0.281  -1.026  -0.866  0.00  0.00    -0.016 A 
ATOM      7  C6  BZF d   1      -1.271  -1.077   0.093  0.00  0.00     0.022 A 
ATOM      8  C7  BZF d   1      -1.677   0.039   0.746  0.00  0.00     0.029 A 
ATOM      9  C7A BZF d   1      -1.076   1.223   0.395  0.00  0.00     0.058 A 
ENDROOT
TORSDOF 0
ENDMDL
