MODEL 1
REMARK minimizedAffinity -4.80944157
REMARK minimizedRMSD -1
REMARK  0 active torsions:
REMARK  status: ('A' for Active; 'I' for Inactive)
ROOT
ATOM      1  O1  BZF d   1       0.419   1.562  -1.714  0.00  0.00    -0.204 OA
ATOM      2  C2  BZF d   1       0.091   2.658  -0.940  0.00  0.00     0.174 A 
ATOM      3  C3  BZF d   1      -0.671   2.290   0.111  0.00  0.00    -0.012 A 
ATOM      4  C3A BZF d   1      -0.751   0.864   0.037  0.00  0.00    -0.107 A 
ATOM      5  C4  BZF d   1      -1.357  -0.084   0.812  0.00  0.00     0.055 A 
ATOM      6  C5  BZF d   1      -1.306  -1.385   0.424  0.00  0.00    -0.016 A 
ATOM      7  C6  BZF d   1      -0.664  -1.773  -0.733  0.00  0.00     0.022 A 
ATOM      8  C7  BZF d   1      -0.044  -0.870  -1.532  0.00  0.00     0.029 A 
ATOM      9  C7A BZF d   1      -0.066   0.442  -1.125  0.00  0.00     0.058 A 
ENDROOT
TORSDOF 0
ENDMDL
