MODEL 1
REMARK minimizedAffinity -2.9599185
REMARK minimizedRMSD -1
REMARK  0 active torsions:
REMARK  status: ('A' for Active; 'I' for Inactive)
ROOT
ATOM      1  O1  BZF d   1      -0.949  -0.645  -0.172  0.00  0.00    -0.204 OA
ATOM      2  C2  BZF d   1      -0.770  -1.072   1.130  0.00  0.00     0.174 A 
ATOM      3  C3  BZF d   1      -0.059  -0.168   1.835  0.00  0.00    -0.012 A 
ATOM      4  C3A BZF d   1       0.145   0.931   0.942  0.00  0.00    -0.107 A 
ATOM      5  C4  BZF d   1       0.769   2.139   1.067  0.00  0.00     0.055 A 
ATOM      6  C5  BZF d   1       0.853   2.954  -0.017  0.00  0.00    -0.016 A 
ATOM      7  C6  BZF d   1       0.331   2.591  -1.241  0.00  0.00     0.022 A 
ATOM      8  C7  BZF d   1      -0.302   1.405  -1.412  0.00  0.00     0.029 A 
ATOM      9  C7A BZF d   1      -0.418   0.593  -0.310  0.00  0.00     0.058 A 
ENDROOT
TORSDOF 0
ENDMDL
