MODEL 1
REMARK minimizedAffinity -2.12041545
REMARK minimizedRMSD -1
REMARK  2 active torsions:
REMARK  status: ('A' for Active; 'I' for Inactive)
REMARK    1  A    between atoms: C2'_3  and  C1'_4 
REMARK    2  A    between atoms: C1'_4  and  C1_5 
ROOT
ATOM      1  C1  I4B d   1       0.921  -0.079   0.964  0.00  0.00    -0.075 A 
ATOM      2  C2  I4B d   1       1.332   1.230   0.937  0.00  0.00     0.003 A 
ATOM      3  C3  I4B d   1       2.712   1.545   0.974  0.00  0.00     0.002 A 
ATOM      4  C4  I4B d   1       3.638   0.528   1.089  0.00  0.00    -0.004 A 
ATOM      5  C5  I4B d   1       3.220  -0.800   1.093  0.00  0.00     0.002 A 
ATOM      6  C6  I4B d   1       1.854  -1.106   1.017  0.00  0.00     0.003 A 
ENDROOT
BRANCH   1   7
ATOM      7  C1' I4B d   1      -0.546  -0.374   0.956  0.00  0.00     0.060 C 
BRANCH   7   8
ATOM      8  C2' I4B d   1      -1.208   0.575  -0.022  0.00  0.00    -0.013 C 
ATOM      9  C4' I4B d   1      -0.960   0.151  -1.446  0.00  0.00     0.013 C 
ATOM     10  C3' I4B d   1      -2.675   0.608   0.286  0.00  0.00     0.013 C 
ENDBRANCH   7   8
ENDBRANCH   1   7
TORSDOF 2
ENDMDL
