MODEL 1
REMARK minimizedAffinity -4.21895838
REMARK minimizedRMSD -1
REMARK  2 active torsions:
REMARK  status: ('A' for Active; 'I' for Inactive)
REMARK    1  A    between atoms: C2'_3  and  C1'_4 
REMARK    2  A    between atoms: C1'_4  and  C1_5 
ROOT
ATOM      1  C1  I4B d   1      -0.368   0.203  -0.138  0.00  0.00    -0.075 A 
ATOM      2  C2  I4B d   1      -0.636  -1.070  -0.575  0.00  0.00     0.003 A 
ATOM      3  C3  I4B d   1       0.386  -2.050  -0.584  0.00  0.00     0.002 A 
ATOM      4  C4  I4B d   1       1.664  -1.703  -0.197  0.00  0.00    -0.004 A 
ATOM      5  C5  I4B d   1       1.929  -0.418   0.268  0.00  0.00     0.002 A 
ATOM      6  C6  I4B d   1       0.904   0.538   0.310  0.00  0.00     0.003 A 
ENDROOT
BRANCH   1   7
ATOM      7  C1' I4B d   1      -1.462   1.223  -0.172  0.00  0.00     0.060 C 
BRANCH   7   8
ATOM      8  C2' I4B d   1      -2.673   0.631   0.520  0.00  0.00    -0.013 C 
ATOM      9  C4' I4B d   1      -3.033   1.415   1.754  0.00  0.00     0.013 C 
ATOM     10  C3' I4B d   1      -3.807   0.618  -0.462  0.00  0.00     0.013 C 
ENDBRANCH   7   8
ENDBRANCH   1   7
TORSDOF 2
ENDMDL
