MODEL 1
REMARK minimizedAffinity 0.765024066
REMARK minimizedRMSD -1
REMARK  2 active torsions:
REMARK  status: ('A' for Active; 'I' for Inactive)
REMARK    1  A    between atoms: C2'_3  and  C1'_4 
REMARK    2  A    between atoms: C1'_4  and  C1_5 
ROOT
ATOM      1  C1  I4B d   1       0.251  -1.235  -0.663  0.00  0.00    -0.075 A 
ATOM      2  C2  I4B d   1       1.323  -1.366  -1.511  0.00  0.00     0.003 A 
ATOM      3  C3  I4B d   1       2.546  -1.900  -1.037  0.00  0.00     0.002 A 
ATOM      4  C4  I4B d   1       2.667  -2.242   0.294  0.00  0.00    -0.004 A 
ATOM      5  C5  I4B d   1       1.573  -2.130   1.147  0.00  0.00     0.002 A 
ATOM      6  C6  I4B d   1       0.353  -1.635   0.663  0.00  0.00     0.003 A 
ENDROOT
BRANCH   1   7
ATOM      7  C1' I4B d   1      -1.014  -0.636  -1.189  0.00  0.00     0.060 C 
BRANCH   7   8
ATOM      8  C2' I4B d   1      -1.490   0.400  -0.191  0.00  0.00    -0.013 C 
ATOM      9  C4' I4B d   1      -0.626   1.633  -0.232  0.00  0.00     0.013 C 
ATOM     10  C3' I4B d   1      -2.918   0.729  -0.510  0.00  0.00     0.013 C 
ENDBRANCH   7   8
ENDBRANCH   1   7
TORSDOF 2
ENDMDL
