MODEL 1
REMARK minimizedAffinity -0.445174694
REMARK minimizedRMSD -1
REMARK  2 active torsions:
REMARK  status: ('A' for Active; 'I' for Inactive)
REMARK    1  A    between atoms: C2'_3  and  C1'_4 
REMARK    2  A    between atoms: C1'_4  and  C1_5 
ROOT
ATOM      1  C1  I4B d   1      -1.233   0.114  -0.061  0.00  0.00    -0.075 A 
ATOM      2  C2  I4B d   1      -0.073   0.745   0.312  0.00  0.00     0.003 A 
ATOM      3  C3  I4B d   1       1.167   0.066   0.230  0.00  0.00     0.002 A 
ATOM      4  C4  I4B d   1       1.194  -1.252  -0.180  0.00  0.00    -0.004 A 
ATOM      5  C5  I4B d   1       0.019  -1.883  -0.579  0.00  0.00     0.002 A 
ATOM      6  C6  I4B d   1      -1.200  -1.193  -0.531  0.00  0.00     0.003 A 
ENDROOT
BRANCH   1   7
ATOM      7  C1' I4B d   1      -2.529   0.850   0.070  0.00  0.00     0.060 C 
BRANCH   7   8
ATOM      8  C2' I4B d   1      -3.011   0.697   1.498  0.00  0.00    -0.013 C 
ATOM      9  C4' I4B d   1      -3.113   2.033   2.185  0.00  0.00     0.013 C 
ATOM     10  C3' I4B d   1      -4.339   0.001   1.466  0.00  0.00     0.013 C 
ENDBRANCH   7   8
ENDBRANCH   1   7
TORSDOF 2
ENDMDL
