MODEL 1
REMARK minimizedAffinity -2.62521219
REMARK minimizedRMSD -1
REMARK  2 active torsions:
REMARK  status: ('A' for Active; 'I' for Inactive)
REMARK    1  A    between atoms: C2'_3  and  C1'_4 
REMARK    2  A    between atoms: C1'_4  and  C1_5 
ROOT
ATOM      1  C1  I4B d   1       0.407  -0.900  -0.032  0.00  0.00    -0.075 A 
ATOM      2  C2  I4B d   1       1.071  -1.711  -0.918  0.00  0.00     0.003 A 
ATOM      3  C3  I4B d   1       2.375  -2.176  -0.621  0.00  0.00     0.002 A 
ATOM      4  C4  I4B d   1       2.993  -1.767   0.543  0.00  0.00    -0.004 A 
ATOM      5  C5  I4B d   1       2.310  -0.963   1.451  0.00  0.00     0.002 A 
ATOM      6  C6  I4B d   1       1.004  -0.537   1.168  0.00  0.00     0.003 A 
ENDROOT
BRANCH   1   7
ATOM      7  C1' I4B d   1      -0.956  -0.401  -0.393  0.00  0.00     0.060 C 
BRANCH   7   8
ATOM      8  C2' I4B d   1      -1.167   0.927   0.306  0.00  0.00    -0.013 C 
ATOM      9  C4' I4B d   1      -0.571   2.061  -0.486  0.00  0.00     0.013 C 
ATOM     10  C3' I4B d   1      -2.641   1.119   0.501  0.00  0.00     0.013 C 
ENDBRANCH   7   8
ENDBRANCH   1   7
TORSDOF 2
ENDMDL
