MODEL 1
REMARK minimizedAffinity -2.56409168
REMARK minimizedRMSD -1
REMARK  2 active torsions:
REMARK  status: ('A' for Active; 'I' for Inactive)
REMARK    1  A    between atoms: C2'_3  and  C1'_4 
REMARK    2  A    between atoms: C1'_4  and  C1_5 
ROOT
ATOM      1  C1  I4B d   1      -1.186   0.274   0.196  0.00  0.00    -0.075 A 
ATOM      2  C2  I4B d   1      -2.151   0.813  -0.618  0.00  0.00     0.003 A 
ATOM      3  C3  I4B d   1      -3.348   1.327  -0.062  0.00  0.00     0.002 A 
ATOM      4  C4  I4B d   1      -3.558   1.237   1.299  0.00  0.00    -0.004 A 
ATOM      5  C5  I4B d   1      -2.569   0.712   2.126  0.00  0.00     0.002 A 
ATOM      6  C6  I4B d   1      -1.370   0.239   1.573  0.00  0.00     0.003 A 
ENDROOT
BRANCH   1   7
ATOM      7  C1' I4B d   1       0.051  -0.289  -0.427  0.00  0.00     0.060 C 
BRANCH   7   8
ATOM      8  C2' I4B d   1       0.018  -1.794  -0.253  0.00  0.00    -0.013 C 
ATOM      9  C4' I4B d   1      -0.757  -2.454  -1.363  0.00  0.00     0.013 C 
ATOM     10  C3' I4B d   1       1.433  -2.287  -0.214  0.00  0.00     0.013 C 
ENDBRANCH   7   8
ENDBRANCH   1   7
TORSDOF 2
ENDMDL
