MODEL 1
REMARK minimizedAffinity -2.1452117
REMARK minimizedRMSD -1
REMARK  2 active torsions:
REMARK  status: ('A' for Active; 'I' for Inactive)
REMARK    1  A    between atoms: C2'_3  and  C1'_4 
REMARK    2  A    between atoms: C1'_4  and  C1_5 
ROOT
ATOM      1  C1  I4B d   1      -1.025   0.029  -0.410  0.00  0.00    -0.075 A 
ATOM      2  C2  I4B d   1      -0.605  -1.275  -0.492  0.00  0.00     0.003 A 
ATOM      3  C3  I4B d   1       0.778  -1.581  -0.485  0.00  0.00     0.002 A 
ATOM      4  C4  I4B d   1       1.700  -0.555  -0.446  0.00  0.00    -0.004 A 
ATOM      5  C5  I4B d   1       1.273   0.765  -0.341  0.00  0.00     0.002 A 
ATOM      6  C6  I4B d   1      -0.098   1.059  -0.310  0.00  0.00     0.003 A 
ENDROOT
BRANCH   1   7
ATOM      7  C1' I4B d   1      -2.492   0.318  -0.453  0.00  0.00     0.060 C 
BRANCH   7   8
ATOM      8  C2' I4B d   1      -2.859   1.060   0.816  0.00  0.00    -0.013 C 
ATOM      9  C4' I4B d   1      -3.633   2.315   0.509  0.00  0.00     0.013 C 
ATOM     10  C3' I4B d   1      -3.655   0.130   1.682  0.00  0.00     0.013 C 
ENDBRANCH   7   8
ENDBRANCH   1   7
TORSDOF 2
ENDMDL
