MODEL 1
REMARK minimizedAffinity -2.14166045
REMARK minimizedRMSD -1
REMARK  0 active torsions:
REMARK  status: ('A' for Active; 'I' for Inactive)
ROOT
ATOM      1  C1  DEN d   1       1.193   0.334   0.487  0.00  0.00     0.130 A 
ATOM      2  C2  DEN d   1       1.661   0.836   1.776  0.00  0.00    -0.031 A 
ATOM      3  C3  DEN d   1       0.547   1.568   2.412  0.00  0.00     0.027 A 
ATOM      4  C4  DEN d   1      -1.844   1.968   1.533  0.00  0.00     0.027 A 
ATOM      5  C5  DEN d   1      -2.706   1.745   0.482  0.00  0.00    -0.003 A 
ATOM      6  C6  DEN d   1      -2.321   1.071  -0.647  0.00  0.00     0.001 A 
ATOM      7  C7  DEN d   1      -1.054   0.557  -0.732  0.00  0.00     0.017 A 
ATOM      8  C8  DEN d   1      -0.178   0.784   0.321  0.00  0.00    -0.094 A 
ATOM      9  C9  DEN d   1      -0.589   1.457   1.459  0.00  0.00    -0.072 A 
ENDROOT
TORSDOF 0
ENDMDL
