MODEL 1
REMARK minimizedAffinity -0.104664706
REMARK minimizedRMSD -1
REMARK  0 active torsions:
REMARK  status: ('A' for Active; 'I' for Inactive)
ROOT
ATOM      1  C1  DEN d   1      -0.375   1.015  -0.815  0.00  0.00     0.130 A 
ATOM      2  C2  DEN d   1       0.193   0.040  -1.741  0.00  0.00    -0.031 A 
ATOM      3  C3  DEN d   1       1.072  -0.863  -0.971  0.00  0.00     0.027 A 
ATOM      4  C4  DEN d   1       1.601  -0.848   1.554  0.00  0.00     0.027 A 
ATOM      5  C5  DEN d   1       1.364  -0.201   2.746  0.00  0.00    -0.003 A 
ATOM      6  C6  DEN d   1       0.565   0.908   2.829  0.00  0.00     0.001 A 
ATOM      7  C7  DEN d   1      -0.064   1.377   1.706  0.00  0.00     0.017 A 
ATOM      8  C8  DEN d   1       0.176   0.735   0.499  0.00  0.00    -0.094 A 
ATOM      9  C9  DEN d   1       0.978  -0.392   0.438  0.00  0.00    -0.072 A 
ENDROOT
TORSDOF 0
ENDMDL
