MODEL 1
REMARK minimizedAffinity 1.343997
REMARK minimizedRMSD -1
REMARK  0 active torsions:
REMARK  status: ('A' for Active; 'I' for Inactive)
ROOT
ATOM      1  C1  DEN d   1       0.930  -0.197  -0.994  0.00  0.00     0.130 A 
ATOM      2  C2  DEN d   1       0.228   0.908  -1.641  0.00  0.00    -0.031 A 
ATOM      3  C3  DEN d   1      -0.343   1.767  -0.584  0.00  0.00     0.027 A 
ATOM      4  C4  DEN d   1      -0.205   1.497   1.977  0.00  0.00     0.027 A 
ATOM      5  C5  DEN d   1       0.275   0.707   2.998  0.00  0.00    -0.003 A 
ATOM      6  C6  DEN d   1       0.971  -0.449   2.762  0.00  0.00     0.001 A 
ATOM      7  C7  DEN d   1       1.247  -0.824   1.474  0.00  0.00     0.017 A 
ATOM      8  C8  DEN d   1       0.760  -0.036   0.439  0.00  0.00    -0.094 A 
ATOM      9  C9  DEN d   1       0.069   1.135   0.698  0.00  0.00    -0.072 A 
ENDROOT
TORSDOF 0
ENDMDL
