MODEL 1
REMARK minimizedAffinity 10.0180244
REMARK minimizedRMSD -1
REMARK  0 active torsions:
REMARK  status: ('A' for Active; 'I' for Inactive)
ROOT
ATOM      1  C1  DEN d   1       0.491   1.485  -0.905  0.00  0.00     0.130 A 
ATOM      2  C2  DEN d   1      -0.377   1.441  -2.079  0.00  0.00    -0.031 A 
ATOM      3  C3  DEN d   1      -1.699   1.971  -1.689  0.00  0.00     0.027 A 
ATOM      4  C4  DEN d   1      -2.481   2.855   0.604  0.00  0.00     0.027 A 
ATOM      5  C5  DEN d   1      -2.102   3.080   1.909  0.00  0.00    -0.003 A 
ATOM      6  C6  DEN d   1      -0.853   2.760   2.373  0.00  0.00     0.001 A 
ATOM      7  C7  DEN d   1       0.077   2.238   1.513  0.00  0.00     0.017 A 
ATOM      8  C8  DEN d   1      -0.300   2.002   0.197  0.00  0.00    -0.094 A 
ATOM      9  C9  DEN d   1      -1.563   2.344  -0.255  0.00  0.00    -0.072 A 
ENDROOT
TORSDOF 0
ENDMDL
