MODEL 1
REMARK minimizedAffinity 5.17201519
REMARK minimizedRMSD -1
REMARK  0 active torsions:
REMARK  status: ('A' for Active; 'I' for Inactive)
ROOT
ATOM      1  C1  DEN d   1       0.467   1.574  -1.325  0.00  0.00     0.130 A 
ATOM      2  C2  DEN d   1      -0.565   1.766  -2.341  0.00  0.00    -0.031 A 
ATOM      3  C3  DEN d   1      -1.755   2.339  -1.679  0.00  0.00     0.027 A 
ATOM      4  C4  DEN d   1      -2.095   2.947   0.804  0.00  0.00     0.027 A 
ATOM      5  C5  DEN d   1      -1.507   2.954   2.049  0.00  0.00    -0.003 A 
ATOM      6  C6  DEN d   1      -0.242   2.473   2.261  0.00  0.00     0.001 A 
ATOM      7  C7  DEN d   1       0.493   2.007   1.203  0.00  0.00     0.017 A 
ATOM      8  C8  DEN d   1      -0.096   1.991  -0.054  0.00  0.00    -0.094 A 
ATOM      9  C9  DEN d   1      -1.371   2.492  -0.250  0.00  0.00    -0.072 A 
ENDROOT
TORSDOF 0
ENDMDL
