MODEL 1
REMARK minimizedAffinity 3.1491065
REMARK minimizedRMSD -1
REMARK  0 active torsions:
REMARK  status: ('A' for Active; 'I' for Inactive)
ROOT
ATOM      1  C1  DEN d   1      -1.042  -1.056  -2.136  0.00  0.00     0.130 A 
ATOM      2  C2  DEN d   1      -1.033   0.401  -2.237  0.00  0.00    -0.031 A 
ATOM      3  C3  DEN d   1       0.338   0.870  -1.949  0.00  0.00     0.027 A 
ATOM      4  C4  DEN d   1       2.437  -0.511  -1.367  0.00  0.00     0.027 A 
ATOM      5  C5  DEN d   1       2.919  -1.784  -1.153  0.00  0.00    -0.003 A 
ATOM      6  C6  DEN d   1       2.115  -2.890  -1.218  0.00  0.00     0.001 A 
ATOM      7  C7  DEN d   1       0.793  -2.750  -1.548  0.00  0.00     0.017 A 
ATOM      8  C8  DEN d   1       0.297  -1.470  -1.758  0.00  0.00    -0.094 A 
ATOM      9  C9  DEN d   1       1.129  -0.365  -1.700  0.00  0.00    -0.072 A 
ENDROOT
TORSDOF 0
ENDMDL
