MODEL 1
REMARK minimizedAffinity -4.54206991
REMARK minimizedRMSD -1
REMARK  0 active torsions:
REMARK  status: ('A' for Active; 'I' for Inactive)
ROOT
ATOM      1  C1  DEN d   1       0.040  -0.109   0.714  0.00  0.00     0.130 A 
ATOM      2  C2  DEN d   1      -0.250  -0.501  -0.662  0.00  0.00    -0.031 A 
ATOM      3  C3  DEN d   1      -0.397   0.728  -1.466  0.00  0.00     0.027 A 
ATOM      4  C4  DEN d   1      -0.199   3.189  -0.719  0.00  0.00     0.027 A 
ATOM      5  C5  DEN d   1       0.025   4.022   0.355  0.00  0.00    -0.003 A 
ATOM      6  C6  DEN d   1       0.234   3.541   1.620  0.00  0.00     0.001 A 
ATOM      7  C7  DEN d   1       0.268   2.188   1.835  0.00  0.00     0.017 A 
ATOM      8  C8  DEN d   1       0.036   1.343   0.758  0.00  0.00    -0.094 A 
ATOM      9  C9  DEN d   1      -0.161   1.848  -0.515  0.00  0.00    -0.072 A 
ENDROOT
TORSDOF 0
ENDMDL
