MODEL 1
REMARK minimizedAffinity 7.75037098
REMARK minimizedRMSD -1
REMARK  0 active torsions:
REMARK  status: ('A' for Active; 'I' for Inactive)
ROOT
ATOM      1  O1  BZF d   1      -5.977  -2.975  -5.714  0.00  0.00    -0.204 OA
ATOM      2  C2  BZF d   1      -5.377  -1.761  -5.442  0.00  0.00     0.174 A 
ATOM      3  C3  BZF d   1      -4.048  -1.913  -5.269  0.00  0.00    -0.012 A 
ATOM      4  C3A BZF d   1      -3.789  -3.294  -5.536  0.00  0.00    -0.107 A 
ATOM      5  C4  BZF d   1      -2.653  -4.053  -5.543  0.00  0.00     0.055 A 
ATOM      6  C5  BZF d   1      -2.753  -5.388  -5.772  0.00  0.00    -0.016 A 
ATOM      7  C6  BZF d   1      -3.970  -5.999  -5.992  0.00  0.00     0.022 A 
ATOM      8  C7  BZF d   1      -5.123  -5.288  -6.000  0.00  0.00     0.029 A 
ATOM      9  C7A BZF d   1      -5.023  -3.932  -5.801  0.00  0.00     0.058 A 
ENDROOT
TORSDOF 0
ENDMDL
