MODEL 1
REMARK minimizedAffinity -0.0642932281
REMARK minimizedRMSD -1
REMARK  0 active torsions:
REMARK  status: ('A' for Active; 'I' for Inactive)
ROOT
ATOM      1  O1  BZF d   1      -4.948  -3.789  -3.865  0.00  0.00    -0.204 OA
ATOM      2  C2  BZF d   1      -5.779  -3.800  -4.969  0.00  0.00     0.174 A 
ATOM      3  C3  BZF d   1      -5.205  -4.464  -5.993  0.00  0.00    -0.012 A 
ATOM      4  C3A BZF d   1      -3.977  -4.976  -5.468  0.00  0.00    -0.107 A 
ATOM      5  C4  BZF d   1      -2.972  -5.734  -5.999  0.00  0.00     0.055 A 
ATOM      6  C5  BZF d   1      -1.875  -6.000  -5.243  0.00  0.00    -0.016 A 
ATOM      7  C6  BZF d   1      -1.746  -5.519  -3.957  0.00  0.00     0.022 A 
ATOM      8  C7  BZF d   1      -2.718  -4.767  -3.385  0.00  0.00     0.029 A 
ATOM      9  C7A BZF d   1      -3.843  -4.525  -4.135  0.00  0.00     0.058 A 
ENDROOT
TORSDOF 0
ENDMDL
