MODEL 1
REMARK minimizedAffinity 4.56197166
REMARK minimizedRMSD -1
REMARK  0 active torsions:
REMARK  status: ('A' for Active; 'I' for Inactive)
ROOT
ATOM      1  O1  BZF d   1       4.502  -2.329  -1.209  0.00  0.00    -0.204 OA
ATOM      2  C2  BZF d   1       3.203  -2.395  -1.674  0.00  0.00     0.174 A 
ATOM      3  C3  BZF d   1       2.674  -3.614  -1.446  0.00  0.00    -0.012 A 
ATOM      4  C3A BZF d   1       3.676  -4.328  -0.714  0.00  0.00    -0.107 A 
ATOM      5  C4  BZF d   1       3.735  -5.586  -0.186  0.00  0.00     0.055 A 
ATOM      6  C5  BZF d   1       4.886  -6.000   0.406  0.00  0.00    -0.016 A 
ATOM      7  C6  BZF d   1       5.997  -5.186   0.482  0.00  0.00     0.022 A 
ATOM      8  C7  BZF d   1       5.985  -3.928  -0.023  0.00  0.00     0.029 A 
ATOM      9  C7A BZF d   1       4.812  -3.495  -0.593  0.00  0.00     0.058 A 
ENDROOT
TORSDOF 0
ENDMDL
