MODEL 1
REMARK minimizedAffinity 1.03027797
REMARK minimizedRMSD -1
REMARK  0 active torsions:
REMARK  status: ('A' for Active; 'I' for Inactive)
ROOT
ATOM      1  O1  BZF d   1      -4.067  -3.746  -6.000  0.00  0.00    -0.204 OA
ATOM      2  C2  BZF d   1      -4.724  -3.040  -5.010  0.00  0.00     0.174 A 
ATOM      3  C3  BZF d   1      -4.215  -3.334  -3.796  0.00  0.00    -0.012 A 
ATOM      4  C3A BZF d   1      -3.115  -4.212  -4.051  0.00  0.00    -0.107 A 
ATOM      5  C4  BZF d   1      -2.204  -4.834  -3.246  0.00  0.00     0.055 A 
ATOM      6  C5  BZF d   1      -1.302  -5.684  -3.803  0.00  0.00    -0.016 A 
ATOM      7  C6  BZF d   1      -1.286  -5.939  -5.159  0.00  0.00     0.022 A 
ATOM      8  C7  BZF d   1      -2.166  -5.341  -5.999  0.00  0.00     0.029 A 
ATOM      9  C7A BZF d   1      -3.058  -4.456  -5.443  0.00  0.00     0.058 A 
ENDROOT
TORSDOF 0
ENDMDL
