MODEL 1
REMARK minimizedAffinity -0.652688801
REMARK minimizedRMSD -1
REMARK  0 active torsions:
REMARK  status: ('A' for Active; 'I' for Inactive)
ROOT
ATOM      1  O1  BZF d   1      -3.141   0.367  -1.624  0.00  0.00    -0.204 OA
ATOM      2  C2  BZF d   1      -3.915  -0.675  -2.097  0.00  0.00     0.174 A 
ATOM      3  C3  BZF d   1      -3.941  -1.692  -1.211  0.00  0.00    -0.012 A 
ATOM      4  C3A BZF d   1      -3.207  -1.221  -0.077  0.00  0.00    -0.107 A 
ATOM      5  C4  BZF d   1      -2.895  -1.771   1.134  0.00  0.00     0.055 A 
ATOM      6  C5  BZF d   1      -2.101  -1.077   1.990  0.00  0.00    -0.016 A 
ATOM      7  C6  BZF d   1      -1.596   0.166   1.666  0.00  0.00     0.022 A 
ATOM      8  C7  BZF d   1      -1.881   0.754   0.479  0.00  0.00     0.029 A 
ATOM      9  C7A BZF d   1      -2.711   0.069  -0.374  0.00  0.00     0.058 A 
ENDROOT
TORSDOF 0
ENDMDL
