MODEL 1
REMARK minimizedAffinity -0.109794959
REMARK minimizedRMSD -1
REMARK  0 active torsions:
REMARK  status: ('A' for Active; 'I' for Inactive)
ROOT
ATOM      1  O1  BZF d   1      -4.916  -3.283  -4.212  0.00  0.00    -0.204 OA
ATOM      2  C2  BZF d   1      -5.997  -3.603  -5.010  0.00  0.00     0.174 A 
ATOM      3  C3  BZF d   1      -5.683  -4.598  -5.864  0.00  0.00    -0.012 A 
ATOM      4  C3A BZF d   1      -4.348  -4.983  -5.520  0.00  0.00    -0.107 A 
ATOM      5  C4  BZF d   1      -3.491  -5.931  -6.000  0.00  0.00     0.055 A 
ATOM      6  C5  BZF d   1      -2.232  -6.000  -5.494  0.00  0.00    -0.016 A 
ATOM      7  C6  BZF d   1      -1.796  -5.135  -4.512  0.00  0.00     0.022 A 
ATOM      8  C7  BZF d   1      -2.612  -4.181  -4.000  0.00  0.00     0.029 A 
ATOM      9  C7A BZF d   1      -3.895  -4.130  -4.487  0.00  0.00     0.058 A 
ENDROOT
TORSDOF 0
ENDMDL
