MODEL 1
REMARK minimizedAffinity -2.68358088
REMARK minimizedRMSD -1
REMARK  0 active torsions:
REMARK  status: ('A' for Active; 'I' for Inactive)
ROOT
ATOM      1  O1  BZF d   1      -2.380  -3.832  -5.607  0.00  0.00    -0.204 OA
ATOM      2  C2  BZF d   1      -1.622  -4.977  -5.455  0.00  0.00     0.174 A 
ATOM      3  C3  BZF d   1      -2.372  -5.986  -4.969  0.00  0.00    -0.012 A 
ATOM      4  C3A BZF d   1      -3.703  -5.465  -4.896  0.00  0.00    -0.107 A 
ATOM      5  C4  BZF d   1      -4.899  -5.995  -4.505  0.00  0.00     0.055 A 
ATOM      6  C5  BZF d   1      -5.999  -5.198  -4.483  0.00  0.00    -0.016 A 
ATOM      7  C6  BZF d   1      -5.939  -3.867  -4.839  0.00  0.00     0.022 A 
ATOM      8  C7  BZF d   1      -4.775  -3.297  -5.238  0.00  0.00     0.029 A 
ATOM      9  C7A BZF d   1      -3.669  -4.108  -5.293  0.00  0.00     0.058 A 
ENDROOT
TORSDOF 0
ENDMDL
