MODEL 1
REMARK minimizedAffinity -0.556882679
REMARK minimizedRMSD -1
REMARK  0 active torsions:
REMARK  status: ('A' for Active; 'I' for Inactive)
ROOT
ATOM      1  O1  BZF d   1      -4.503  -3.154  -5.998  0.00  0.00    -0.204 OA
ATOM      2  C2  BZF d   1      -5.651  -3.240  -5.234  0.00  0.00     0.174 A 
ATOM      3  C3  BZF d   1      -5.543  -4.223  -4.317  0.00  0.00    -0.012 A 
ATOM      4  C3A BZF d   1      -4.211  -4.726  -4.461  0.00  0.00    -0.107 A 
ATOM      5  C4  BZF d   1      -3.502  -5.701  -3.819  0.00  0.00     0.055 A 
ATOM      6  C5  BZF d   1      -2.247  -5.996  -4.249  0.00  0.00    -0.016 A 
ATOM      7  C6  BZF d   1      -1.673  -5.340  -5.319  0.00  0.00     0.022 A 
ATOM      8  C7  BZF d   1      -2.336  -4.363  -5.983  0.00  0.00     0.029 A 
ATOM      9  C7A BZF d   1      -3.592  -4.040  -5.530  0.00  0.00     0.058 A 
ENDROOT
TORSDOF 0
ENDMDL
