MODEL 1
REMARK minimizedAffinity 2.19515824
REMARK minimizedRMSD -1
REMARK  0 active torsions:
REMARK  status: ('A' for Active; 'I' for Inactive)
ROOT
ATOM      1  O1  BZF d   1      -3.558  -4.633  -2.371  0.00  0.00    -0.204 OA
ATOM      2  C2  BZF d   1      -2.637  -5.262  -1.555  0.00  0.00     0.174 A 
ATOM      3  C3  BZF d   1      -1.727  -5.933  -2.290  0.00  0.00    -0.012 A 
ATOM      4  C3A BZF d   1      -2.048  -5.634  -3.652  0.00  0.00    -0.107 A 
ATOM      5  C4  BZF d   1      -1.495  -5.993  -4.848  0.00  0.00     0.055 A 
ATOM      6  C5  BZF d   1      -2.093  -5.590  -6.000  0.00  0.00    -0.016 A 
ATOM      7  C6  BZF d   1      -3.246  -4.832  -5.993  0.00  0.00     0.022 A 
ATOM      8  C7  BZF d   1      -3.828  -4.447  -4.831  0.00  0.00     0.029 A 
ATOM      9  C7A BZF d   1      -3.208  -4.825  -3.666  0.00  0.00     0.058 A 
ENDROOT
TORSDOF 0
ENDMDL
