MODEL 1
REMARK minimizedAffinity 3.7327919
REMARK minimizedRMSD -1
REMARK  0 active torsions:
REMARK  status: ('A' for Active; 'I' for Inactive)
ROOT
ATOM      1  O1  BZF d   1      -1.717  -1.088   3.589  0.00  0.00    -0.204 OA
ATOM      2  C2  BZF d   1      -2.876  -0.345   3.479  0.00  0.00     0.174 A 
ATOM      3  C3  BZF d   1      -3.079   0.041   2.203  0.00  0.00    -0.012 A 
ATOM      4  C3A BZF d   1      -2.025  -0.572   1.453  0.00  0.00    -0.107 A 
ATOM      5  C4  BZF d   1      -1.696  -0.577   0.128  0.00  0.00     0.055 A 
ATOM      6  C5  BZF d   1      -0.563  -1.215  -0.269  0.00  0.00    -0.016 A 
ATOM      7  C6  BZF d   1       0.264  -1.852   0.632  0.00  0.00     0.022 A 
ATOM      8  C7  BZF d   1      -0.024  -1.879   1.956  0.00  0.00     0.029 A 
ATOM      9  C7A BZF d   1      -1.185  -1.264   2.356  0.00  0.00     0.058 A 
ENDROOT
TORSDOF 0
ENDMDL
