MODEL 1
REMARK minimizedAffinity -0.491080463
REMARK minimizedRMSD -1
REMARK  0 active torsions:
REMARK  status: ('A' for Active; 'I' for Inactive)
ROOT
ATOM      1  O1  BZF d   1      -2.792  -5.980  -4.898  0.00  0.00    -0.204 OA
ATOM      2  C2  BZF d   1      -2.042  -5.299  -3.958  0.00  0.00     0.174 A 
ATOM      3  C3  BZF d   1      -2.647  -4.146  -3.607  0.00  0.00    -0.012 A 
ATOM      4  C3A BZF d   1      -3.895  -4.149  -4.306  0.00  0.00    -0.107 A 
ATOM      5  C4  BZF d   1      -4.946  -3.278  -4.354  0.00  0.00     0.055 A 
ATOM      6  C5  BZF d   1      -5.983  -3.540  -5.192  0.00  0.00    -0.016 A 
ATOM      7  C6  BZF d   1      -6.000  -4.658  -6.000  0.00  0.00     0.022 A 
ATOM      8  C7  BZF d   1      -4.982  -5.553  -5.984  0.00  0.00     0.029 A 
ATOM      9  C7A BZF d   1      -3.948  -5.309  -5.113  0.00  0.00     0.058 A 
ENDROOT
TORSDOF 0
ENDMDL
