MODEL 1
REMARK minimizedAffinity 8.46125317
REMARK minimizedRMSD -1
REMARK  0 active torsions:
REMARK  status: ('A' for Active; 'I' for Inactive)
ROOT
ATOM      1  O1  BZF d   1      -3.788  -3.853  -5.792  0.00  0.00    -0.204 OA
ATOM      2  C2  BZF d   1      -3.590  -4.738  -4.750  0.00  0.00     0.174 A 
ATOM      3  C3  BZF d   1      -4.141  -4.268  -3.612  0.00  0.00    -0.012 A 
ATOM      4  C3A BZF d   1      -4.799  -3.053  -3.986  0.00  0.00    -0.107 A 
ATOM      5  C4  BZF d   1      -5.538  -2.135  -3.297  0.00  0.00     0.055 A 
ATOM      6  C5  BZF d   1      -5.977  -1.022  -3.942  0.00  0.00    -0.016 A 
ATOM      7  C6  BZF d   1      -5.690  -0.793  -5.271  0.00  0.00     0.022 A 
ATOM      8  C7  BZF d   1      -4.964  -1.677  -5.998  0.00  0.00     0.029 A 
ATOM      9  C7A BZF d   1      -4.548  -2.819  -5.358  0.00  0.00     0.058 A 
ENDROOT
TORSDOF 0
ENDMDL
