MODEL 1
REMARK minimizedAffinity -2.04921055
REMARK minimizedRMSD -1
REMARK  0 active torsions:
REMARK  status: ('A' for Active; 'I' for Inactive)
ROOT
ATOM      1  O1  BZF d   1      -2.220  -4.097  -4.584  0.00  0.00    -0.204 OA
ATOM      2  C2  BZF d   1      -1.456  -5.078  -5.185  0.00  0.00     0.174 A 
ATOM      3  C3  BZF d   1      -2.242  -6.000  -5.779  0.00  0.00    -0.012 A 
ATOM      4  C3A BZF d   1      -3.579  -5.518  -5.612  0.00  0.00    -0.107 A 
ATOM      5  C4  BZF d   1      -4.801  -5.988  -5.999  0.00  0.00     0.055 A 
ATOM      6  C5  BZF d   1      -5.919  -5.318  -5.615  0.00  0.00    -0.016 A 
ATOM      7  C6  BZF d   1      -5.851  -4.179  -4.839  0.00  0.00     0.022 A 
ATOM      8  C7  BZF d   1      -4.661  -3.672  -4.435  0.00  0.00     0.029 A 
ATOM      9  C7A BZF d   1      -3.528  -4.329  -4.850  0.00  0.00     0.058 A 
ENDROOT
TORSDOF 0
ENDMDL
