MODEL 1
REMARK minimizedAffinity -3.84179902
REMARK minimizedRMSD -1
REMARK  0 active torsions:
REMARK  status: ('A' for Active; 'I' for Inactive)
ROOT
ATOM      1  O1  BZF d   1      -1.483  -4.375  -5.145  0.00  0.00    -0.204 OA
ATOM      2  C2  BZF d   1      -1.528  -5.668  -5.632  0.00  0.00     0.174 A 
ATOM      3  C3  BZF d   1      -2.785  -5.999  -5.993  0.00  0.00    -0.012 A 
ATOM      4  C3A BZF d   1      -3.558  -4.811  -5.801  0.00  0.00    -0.107 A 
ATOM      5  C4  BZF d   1      -4.874  -4.504  -6.000  0.00  0.00     0.055 A 
ATOM      6  C5  BZF d   1      -5.326  -3.274  -5.644  0.00  0.00    -0.016 A 
ATOM      7  C6  BZF d   1      -4.493  -2.328  -5.082  0.00  0.00     0.022 A 
ATOM      8  C7  BZF d   1      -3.180  -2.584  -4.870  0.00  0.00     0.029 A 
ATOM      9  C7A BZF d   1      -2.712  -3.816  -5.259  0.00  0.00     0.058 A 
ENDROOT
TORSDOF 0
ENDMDL
