MODEL 1
REMARK minimizedAffinity 1.96625054
REMARK minimizedRMSD -1
REMARK  0 active torsions:
REMARK  status: ('A' for Active; 'I' for Inactive)
ROOT
ATOM      1  O1  BZF d   1      -3.761  -5.194  -3.865  0.00  0.00    -0.204 OA
ATOM      2  C2  BZF d   1      -3.011  -5.532  -4.975  0.00  0.00     0.174 A 
ATOM      3  C3  BZF d   1      -3.269  -4.694  -6.000  0.00  0.00    -0.012 A 
ATOM      4  C3A BZF d   1      -4.172  -3.719  -5.470  0.00  0.00    -0.107 A 
ATOM      5  C4  BZF d   1      -4.779  -2.616  -6.000  0.00  0.00     0.055 A 
ATOM      6  C5  BZF d   1      -5.662  -1.918  -5.238  0.00  0.00    -0.016 A 
ATOM      7  C6  BZF d   1      -5.965  -2.298  -3.947  0.00  0.00     0.022 A 
ATOM      8  C7  BZF d   1      -5.385  -3.381  -3.376  0.00  0.00     0.029 A 
ATOM      9  C7A BZF d   1      -4.467  -4.069  -4.132  0.00  0.00     0.058 A 
ENDROOT
TORSDOF 0
ENDMDL
