MODEL 1
REMARK minimizedAffinity 3.66572881
REMARK minimizedRMSD -1
REMARK  0 active torsions:
REMARK  status: ('A' for Active; 'I' for Inactive)
ROOT
ATOM      1  O1  BZF d   1      -2.947   0.076  -5.988  0.00  0.00    -0.204 OA
ATOM      2  C2  BZF d   1      -2.274   0.789  -5.014  0.00  0.00     0.174 A 
ATOM      3  C3  BZF d   1      -2.927   0.724  -3.836  0.00  0.00    -0.012 A 
ATOM      4  C3A BZF d   1      -4.031  -0.157  -4.066  0.00  0.00    -0.107 A 
ATOM      5  C4  BZF d   1      -5.036  -0.629  -3.272  0.00  0.00     0.055 A 
ATOM      6  C5  BZF d   1      -5.999  -1.416  -3.822  0.00  0.00    -0.016 A 
ATOM      7  C6  BZF d   1      -5.990  -1.744  -5.161  0.00  0.00     0.022 A 
ATOM      8  C7  BZF d   1      -5.010  -1.304  -5.988  0.00  0.00     0.029 A 
ATOM      9  C7A BZF d   1      -4.019  -0.536  -5.428  0.00  0.00     0.058 A 
ENDROOT
TORSDOF 0
ENDMDL
