MODEL 1
REMARK minimizedAffinity -5.64196873
REMARK minimizedRMSD -1
REMARK  0 active torsions:
REMARK  status: ('A' for Active; 'I' for Inactive)
ROOT
ATOM      1  C   UNL d   1      -0.630  -0.648   0.764  0.00  0.00     0.078 C 
ATOM      2  C1  UNL d   1       0.285  -0.749  -0.420  0.00  0.00    -0.077 A 
ATOM      3  C2  UNL d   1       0.624  -1.994  -0.965  0.00  0.00    -0.001 A 
ATOM      4  C3  UNL d   1       1.485  -2.074  -2.061  0.00  0.00     0.003 A 
ATOM      5  C4  UNL d   1       2.014  -0.913  -2.621  0.00  0.00    -0.005 A 
ATOM      6  C5  UNL d   1       1.684   0.330  -2.085  0.00  0.00     0.003 A 
ATOM      7  C6  UNL d   1       0.824   0.412  -0.989  0.00  0.00    -0.001 A 
ENDROOT
TORSDOF 0
ENDMDL
