MODEL 1
REMARK minimizedAffinity -4.24771357
REMARK minimizedRMSD -1
REMARK  0 active torsions:
REMARK  status: ('A' for Active; 'I' for Inactive)
ROOT
ATOM      1  C   UNL d   1      -0.736   0.136   0.550  0.00  0.00     0.078 C 
ATOM      2  C1  UNL d   1       0.055   0.023  -0.718  0.00  0.00    -0.077 A 
ATOM      3  C2  UNL d   1      -0.561  -0.334  -1.924  0.00  0.00    -0.001 A 
ATOM      4  C3  UNL d   1       0.189  -0.445  -3.095  0.00  0.00     0.003 A 
ATOM      5  C4  UNL d   1       1.561  -0.202  -3.073  0.00  0.00    -0.005 A 
ATOM      6  C5  UNL d   1       2.184   0.152  -1.878  0.00  0.00     0.003 A 
ATOM      7  C6  UNL d   1       1.435   0.263  -0.705  0.00  0.00    -0.001 A 
ENDROOT
TORSDOF 0
ENDMDL
