MODEL 1
REMARK minimizedAffinity 4.20880079
REMARK minimizedRMSD -1
REMARK  0 active torsions:
REMARK  status: ('A' for Active; 'I' for Inactive)
ROOT
ATOM      1  C   UNL d   1       1.556  -0.171  -3.196  0.00  0.00     0.078 C 
ATOM      2  C1  UNL d   1       1.529   0.764  -2.024  0.00  0.00    -0.077 A 
ATOM      3  C2  UNL d   1       1.740   0.295  -0.721  0.00  0.00    -0.001 A 
ATOM      4  C3  UNL d   1       1.703   1.175   0.361  0.00  0.00     0.003 A 
ATOM      5  C4  UNL d   1       1.454   2.530   0.153  0.00  0.00    -0.005 A 
ATOM      6  C5  UNL d   1       1.240   3.006  -1.139  0.00  0.00     0.003 A 
ATOM      7  C6  UNL d   1       1.277   2.127  -2.223  0.00  0.00    -0.001 A 
ENDROOT
TORSDOF 0
ENDMDL
