MODEL 1
REMARK minimizedAffinity -4.39925337
REMARK minimizedRMSD -1
REMARK  0 active torsions:
REMARK  status: ('A' for Active; 'I' for Inactive)
ROOT
ATOM      1  C   UNL d   1       1.708   0.257  -3.109  0.00  0.00     0.078 C 
ATOM      2  C1  UNL d   1       1.150   0.302  -1.718  0.00  0.00    -0.077 A 
ATOM      3  C2  UNL d   1       0.297  -0.706  -1.251  0.00  0.00    -0.001 A 
ATOM      4  C3  UNL d   1      -0.223  -0.647   0.043  0.00  0.00     0.003 A 
ATOM      5  C4  UNL d   1       0.101   0.419   0.879  0.00  0.00    -0.005 A 
ATOM      6  C5  UNL d   1       0.947   1.428   0.422  0.00  0.00     0.003 A 
ATOM      7  C6  UNL d   1       1.468   1.370  -0.871  0.00  0.00    -0.001 A 
ENDROOT
TORSDOF 0
ENDMDL
