MODEL 1
REMARK minimizedAffinity -5.02493143
REMARK minimizedRMSD -1
REMARK  0 active torsions:
REMARK  status: ('A' for Active; 'I' for Inactive)
ROOT
ATOM      1  C   UNL d   1       0.089  -2.408  -0.757  0.00  0.00     0.078 C 
ATOM      2  C1  UNL d   1       0.434  -0.975  -1.029  0.00  0.00    -0.077 A 
ATOM      3  C2  UNL d   1       1.159  -0.612  -2.170  0.00  0.00    -0.001 A 
ATOM      4  C3  UNL d   1       1.482   0.726  -2.406  0.00  0.00     0.003 A 
ATOM      5  C4  UNL d   1       1.084   1.711  -1.504  0.00  0.00    -0.005 A 
ATOM      6  C5  UNL d   1       0.364   1.359  -0.364  0.00  0.00     0.003 A 
ATOM      7  C6  UNL d   1       0.040   0.022  -0.127  0.00  0.00    -0.001 A 
ENDROOT
TORSDOF 0
ENDMDL
