MODEL 1
REMARK minimizedAffinity -5.08396673
REMARK minimizedRMSD -1
REMARK  0 active torsions:
REMARK  status: ('A' for Active; 'I' for Inactive)
ROOT
ATOM      1  C   UNL d   1      -1.632  -0.821   0.893  0.00  0.00     0.078 C 
ATOM      2  C1  UNL d   1      -0.561  -0.153   0.083  0.00  0.00    -0.077 A 
ATOM      3  C2  UNL d   1      -0.073  -0.739  -1.091  0.00  0.00    -0.001 A 
ATOM      4  C3  UNL d   1       0.931  -0.111  -1.829  0.00  0.00     0.003 A 
ATOM      5  C4  UNL d   1       1.456   1.107  -1.401  0.00  0.00    -0.005 A 
ATOM      6  C5  UNL d   1       0.978   1.697  -0.232  0.00  0.00     0.003 A 
ATOM      7  C6  UNL d   1      -0.026   1.069   0.507  0.00  0.00    -0.001 A 
ENDROOT
TORSDOF 0
ENDMDL
