MODEL 1
REMARK minimizedAffinity -4.95746803
REMARK minimizedRMSD -1
REMARK  0 active torsions:
REMARK  status: ('A' for Active; 'I' for Inactive)
ROOT
ATOM      1  C   UNL d   1       1.768  -0.316  -2.907  0.00  0.00     0.078 C 
ATOM      2  C1  UNL d   1       1.101  -0.351  -1.565  0.00  0.00    -0.077 A 
ATOM      3  C2  UNL d   1       0.687  -1.562  -0.996  0.00  0.00    -0.001 A 
ATOM      4  C3  UNL d   1       0.058  -1.578   0.250  0.00  0.00     0.003 A 
ATOM      5  C4  UNL d   1      -0.164  -0.387   0.937  0.00  0.00    -0.005 A 
ATOM      6  C5  UNL d   1       0.242   0.823   0.378  0.00  0.00     0.003 A 
ATOM      7  C6  UNL d   1       0.871   0.842  -0.867  0.00  0.00    -0.001 A 
ENDROOT
TORSDOF 0
ENDMDL
