MODEL 1
REMARK minimizedAffinity -3.28089523
REMARK minimizedRMSD -1
REMARK  0 active torsions:
REMARK  status: ('A' for Active; 'I' for Inactive)
ROOT
ATOM      1  C   UNL d   1      -0.836   0.148   1.254  0.00  0.00     0.078 C 
ATOM      2  C1  UNL d   1       0.079   0.167   0.066  0.00  0.00    -0.077 A 
ATOM      3  C2  UNL d   1       0.489   1.376  -0.509  0.00  0.00    -0.001 A 
ATOM      4  C3  UNL d   1       1.334   1.378  -1.621  0.00  0.00     0.003 A 
ATOM      5  C4  UNL d   1       1.774   0.174  -2.167  0.00  0.00    -0.005 A 
ATOM      6  C5  UNL d   1       1.370  -1.034  -1.603  0.00  0.00     0.003 A 
ATOM      7  C6  UNL d   1       0.525  -1.038  -0.492  0.00  0.00    -0.001 A 
ENDROOT
TORSDOF 0
ENDMDL
