MODEL 1
REMARK minimizedAffinity -4.81542873
REMARK minimizedRMSD -1
REMARK  0 active torsions:
REMARK  status: ('A' for Active; 'I' for Inactive)
ROOT
ATOM      1  C   UNL d   1      -0.736  -0.258   1.308  0.00  0.00     0.078 C 
ATOM      2  C1  UNL d   1       0.104  -0.031   0.087  0.00  0.00    -0.077 A 
ATOM      3  C2  UNL d   1       0.126  -0.965  -0.956  0.00  0.00    -0.001 A 
ATOM      4  C3  UNL d   1       0.921  -0.746  -2.083  0.00  0.00     0.003 A 
ATOM      5  C4  UNL d   1       1.699   0.406  -2.177  0.00  0.00    -0.005 A 
ATOM      6  C5  UNL d   1       1.685   1.340  -1.143  0.00  0.00     0.003 A 
ATOM      7  C6  UNL d   1       0.892   1.122  -0.015  0.00  0.00    -0.001 A 
ENDROOT
TORSDOF 0
ENDMDL
