MODEL 1
REMARK minimizedAffinity -4.75669336
REMARK minimizedRMSD -1
REMARK  0 active torsions:
REMARK  status: ('A' for Active; 'I' for Inactive)
ROOT
ATOM      1  C   UNL d   1      -0.433  -0.813   0.790  0.00  0.00     0.078 C 
ATOM      2  C1  UNL d   1       0.143  -0.315  -0.502  0.00  0.00    -0.077 A 
ATOM      3  C2  UNL d   1      -0.434  -0.661  -1.730  0.00  0.00    -0.001 A 
ATOM      4  C3  UNL d   1       0.120  -0.199  -2.925  0.00  0.00     0.003 A 
ATOM      5  C4  UNL d   1       1.253   0.612  -2.904  0.00  0.00    -0.005 A 
ATOM      6  C5  UNL d   1       1.835   0.959  -1.687  0.00  0.00     0.003 A 
ATOM      7  C6  UNL d   1       1.284   0.498  -0.490  0.00  0.00    -0.001 A 
ENDROOT
TORSDOF 0
ENDMDL
