MODEL 1
REMARK minimizedAffinity -1.92318785
REMARK minimizedRMSD -1
REMARK  0 active torsions:
REMARK  status: ('A' for Active; 'I' for Inactive)
ROOT
ATOM      1  C   UNL d   1      -1.652   0.081   1.701  0.00  0.00     0.078 C 
ATOM      2  C1  UNL d   1      -0.602   0.154   0.633  0.00  0.00    -0.077 A 
ATOM      3  C2  UNL d   1       0.078   1.349   0.371  0.00  0.00    -0.001 A 
ATOM      4  C3  UNL d   1       1.047   1.405  -0.632  0.00  0.00     0.003 A 
ATOM      5  C4  UNL d   1       1.343   0.269  -1.383  0.00  0.00    -0.005 A 
ATOM      6  C5  UNL d   1       0.670  -0.925  -1.131  0.00  0.00     0.003 A 
ATOM      7  C6  UNL d   1      -0.299  -0.982  -0.127  0.00  0.00    -0.001 A 
ENDROOT
TORSDOF 0
ENDMDL
