MODEL 1
REMARK minimizedAffinity -4.85694647
REMARK minimizedRMSD -1
REMARK  0 active torsions:
REMARK  status: ('A' for Active; 'I' for Inactive)
ROOT
ATOM      1  C   UNL d   1      -0.850  -0.283   1.541  0.00  0.00     0.078 C 
ATOM      2  C1  UNL d   1      -0.020  -0.056   0.313  0.00  0.00    -0.077 A 
ATOM      3  C2  UNL d   1       0.838   1.047   0.216  0.00  0.00    -0.001 A 
ATOM      4  C3  UNL d   1       1.598   1.251  -0.937  0.00  0.00     0.003 A 
ATOM      5  C4  UNL d   1       1.507   0.357  -2.002  0.00  0.00    -0.005 A 
ATOM      6  C5  UNL d   1       0.654  -0.742  -1.916  0.00  0.00     0.003 A 
ATOM      7  C6  UNL d   1      -0.107  -0.947  -0.764  0.00  0.00    -0.001 A 
ENDROOT
TORSDOF 0
ENDMDL
