MODEL 1
REMARK minimizedAffinity -3.18489099
REMARK minimizedRMSD -1
REMARK  0 active torsions:
REMARK  status: ('A' for Active; 'I' for Inactive)
ROOT
ATOM      1  C   UNL d   1      -1.781   2.685   4.617  0.00  0.00     0.078 C 
ATOM      2  C1  UNL d   1      -2.453   1.854   3.565  0.00  0.00    -0.077 A 
ATOM      3  C2  UNL d   1      -1.910   0.628   3.159  0.00  0.00    -0.001 A 
ATOM      4  C3  UNL d   1      -2.541  -0.131   2.172  0.00  0.00     0.003 A 
ATOM      5  C4  UNL d   1      -3.717   0.328   1.582  0.00  0.00    -0.005 A 
ATOM      6  C5  UNL d   1      -4.263   1.547   1.978  0.00  0.00     0.003 A 
ATOM      7  C6  UNL d   1      -3.634   2.307   2.965  0.00  0.00    -0.001 A 
ENDROOT
TORSDOF 0
ENDMDL
