MODEL 1
REMARK minimizedAffinity 0.88262856
REMARK minimizedRMSD -1
REMARK  0 active torsions:
REMARK  status: ('A' for Active; 'I' for Inactive)
ROOT
ATOM      1  C   UNL d   1       2.125   0.577  -1.906  0.00  0.00     0.078 C 
ATOM      2  C1  UNL d   1       1.164   0.237  -0.807  0.00  0.00    -0.077 A 
ATOM      3  C2  UNL d   1       0.749  -1.083  -0.594  0.00  0.00    -0.001 A 
ATOM      4  C3  UNL d   1      -0.154  -1.384   0.427  0.00  0.00     0.003 A 
ATOM      5  C4  UNL d   1      -0.650  -0.370   1.243  0.00  0.00    -0.005 A 
ATOM      6  C5  UNL d   1      -0.245   0.947   1.038  0.00  0.00     0.003 A 
ATOM      7  C6  UNL d   1       0.657   1.250   0.017  0.00  0.00    -0.001 A 
ENDROOT
TORSDOF 0
ENDMDL
