MODEL 1
REMARK minimizedAffinity -2.30904651
REMARK minimizedRMSD -1
REMARK  0 active torsions:
REMARK  status: ('A' for Active; 'I' for Inactive)
ROOT
ATOM      1  C   UNL d   1      -1.862   2.602  -5.994  0.00  0.00     0.078 C 
ATOM      2  C1  UNL d   1      -3.288   2.138  -5.988  0.00  0.00    -0.077 A 
ATOM      3  C2  UNL d   1      -3.603   0.774  -5.992  0.00  0.00    -0.001 A 
ATOM      4  C3  UNL d   1      -4.934   0.357  -5.995  0.00  0.00     0.003 A 
ATOM      5  C4  UNL d   1      -5.962   1.297  -5.996  0.00  0.00    -0.005 A 
ATOM      6  C5  UNL d   1      -5.659   2.657  -5.995  0.00  0.00     0.003 A 
ATOM      7  C6  UNL d   1      -4.328   3.076  -5.991  0.00  0.00    -0.001 A 
ENDROOT
TORSDOF 0
ENDMDL
