MODEL 1
REMARK minimizedAffinity 0.739927649
REMARK minimizedRMSD -1
REMARK  0 active torsions:
REMARK  status: ('A' for Active; 'I' for Inactive)
ROOT
ATOM      1  C   UNL d   1      -0.634   0.775  -4.929  0.00  0.00     0.020 A 
ATOM      2  C1  UNL d   1      -0.348  -0.072  -5.999  0.00  0.00     0.020 A 
ATOM      3  C2  UNL d   1      -0.196  -1.443  -5.783  0.00  0.00     0.034 A 
ATOM      4  C3  UNL d   1      -0.328  -1.971  -4.493  0.00  0.00     0.017 A 
ATOM      5  C4  UNL d   1      -0.615  -1.120  -3.420  0.00  0.00     0.017 A 
ATOM      6  C5  UNL d   1      -0.767   0.252  -3.642  0.00  0.00     0.034 A 
ATOM      7 Cl   UNL d   1      -0.793  -1.697  -1.801  0.00  0.00    -0.070 Cl
ATOM      8 Cl1  UNL d   1      -0.127  -3.676  -4.298  0.00  0.00    -0.070 Cl
ENDROOT
TORSDOF 0
ENDMDL
