MODEL 1
REMARK minimizedAffinity 4.79343128
REMARK minimizedRMSD -1
REMARK  0 active torsions:
REMARK  status: ('A' for Active; 'I' for Inactive)
ROOT
ATOM      1  C   UNL d   1       1.516  -1.732   2.838  0.00  0.00     0.020 A 
ATOM      2  C1  UNL d   1       1.108  -0.676   3.652  0.00  0.00     0.020 A 
ATOM      3  C2  UNL d   1      -0.023   0.070   3.314  0.00  0.00     0.034 A 
ATOM      4  C3  UNL d   1      -0.750  -0.238   2.158  0.00  0.00     0.017 A 
ATOM      5  C4  UNL d   1      -0.340  -1.298   1.342  0.00  0.00     0.017 A 
ATOM      6  C5  UNL d   1       0.793  -2.042   1.685  0.00  0.00     0.034 A 
ATOM      7 Cl   UNL d   1      -1.186  -1.739  -0.100  0.00  0.00    -0.070 Cl
ATOM      8 Cl1  UNL d   1      -2.139   0.726   1.801  0.00  0.00    -0.070 Cl
ENDROOT
TORSDOF 0
ENDMDL
