MODEL 1
REMARK minimizedAffinity 5.22474384
REMARK minimizedRMSD -1
REMARK  0 active torsions:
REMARK  status: ('A' for Active; 'I' for Inactive)
ROOT
ATOM      1  C   UNL d   1       0.369   1.124  -4.807  0.00  0.00     0.020 A 
ATOM      2  C1  UNL d   1       0.365   0.402  -6.000  0.00  0.00     0.020 A 
ATOM      3  C2  UNL d   1      -0.007  -0.943  -6.000  0.00  0.00     0.034 A 
ATOM      4  C3  UNL d   1      -0.377  -1.572  -4.805  0.00  0.00     0.017 A 
ATOM      5  C4  UNL d   1      -0.373  -0.846  -3.608  0.00  0.00     0.017 A 
ATOM      6  C5  UNL d   1       0.001   0.501  -3.614  0.00  0.00     0.034 A 
ATOM      7 Cl   UNL d   1      -0.816  -1.553  -2.095  0.00  0.00    -0.070 Cl
ATOM      8 Cl1  UNL d   1      -0.826  -3.239  -4.879  0.00  0.00    -0.070 Cl
ENDROOT
TORSDOF 0
ENDMDL
