MODEL 1
REMARK minimizedAffinity -2.78247237
REMARK minimizedRMSD -1
REMARK  0 active torsions:
REMARK  status: ('A' for Active; 'I' for Inactive)
ROOT
ATOM      1  C   UNL d   1       0.710   1.822  -4.983  0.00  0.00     0.020 A 
ATOM      2  C1  UNL d   1       1.539   0.756  -5.330  0.00  0.00     0.020 A 
ATOM      3  C2  UNL d   1       0.984  -0.488  -5.640  0.00  0.00     0.034 A 
ATOM      4  C3  UNL d   1      -0.403  -0.669  -5.603  0.00  0.00     0.017 A 
ATOM      5  C4  UNL d   1      -1.234   0.402  -5.255  0.00  0.00     0.017 A 
ATOM      6  C5  UNL d   1      -0.674   1.645  -4.945  0.00  0.00     0.034 A 
ATOM      7 Cl   UNL d   1      -2.955   0.255  -5.187  0.00  0.00    -0.070 Cl
ATOM      8 Cl1  UNL d   1      -1.020  -2.234  -5.998  0.00  0.00    -0.070 Cl
ENDROOT
TORSDOF 0
ENDMDL
