MODEL 1
REMARK minimizedAffinity -2.16899991
REMARK minimizedRMSD -1
REMARK  0 active torsions:
REMARK  status: ('A' for Active; 'I' for Inactive)
ROOT
ATOM      1  C   UNL d   1       0.734  -1.950  -2.973  0.00  0.00     0.020 A 
ATOM      2  C1  UNL d   1      -0.571  -1.461  -2.973  0.00  0.00     0.020 A 
ATOM      3  C2  UNL d   1      -0.959  -0.506  -3.915  0.00  0.00     0.034 A 
ATOM      4  C3  UNL d   1      -0.041  -0.038  -4.862  0.00  0.00     0.017 A 
ATOM      5  C4  UNL d   1       1.269  -0.530  -4.862  0.00  0.00     0.017 A 
ATOM      6  C5  UNL d   1       1.652  -1.486  -3.916  0.00  0.00     0.034 A 
ATOM      7 Cl   UNL d   1       2.458  -0.001  -5.999  0.00  0.00    -0.070 Cl
ATOM      8 Cl1  UNL d   1      -0.590   1.142  -5.999  0.00  0.00    -0.070 Cl
ENDROOT
TORSDOF 0
ENDMDL
