MODEL 1
REMARK minimizedAffinity 2.88462949
REMARK minimizedRMSD -1
REMARK  0 active torsions:
REMARK  status: ('A' for Active; 'I' for Inactive)
ROOT
ATOM      1  C   UNL d   1       4.471   1.387   4.339  0.00  0.00     0.020 A 
ATOM      2  C1  UNL d   1       4.189   1.389   2.974  0.00  0.00     0.020 A 
ATOM      3  C2  UNL d   1       4.465   2.522   2.206  0.00  0.00     0.034 A 
ATOM      4  C3  UNL d   1       5.024   3.658   2.802  0.00  0.00     0.017 A 
ATOM      5  C4  UNL d   1       5.307   3.655   4.173  0.00  0.00     0.017 A 
ATOM      6  C5  UNL d   1       5.029   2.518   4.937  0.00  0.00     0.034 A 
ATOM      7 Cl   UNL d   1       5.998   5.018   4.980  0.00  0.00    -0.070 Cl
ATOM      8 Cl1  UNL d   1       5.339   5.023   1.792  0.00  0.00    -0.070 Cl
ENDROOT
TORSDOF 0
ENDMDL
