MODEL 1
REMARK minimizedAffinity -0.399234384
REMARK minimizedRMSD -1
REMARK  0 active torsions:
REMARK  status: ('A' for Active; 'I' for Inactive)
ROOT
ATOM      1  C   UNL d   1      -2.453   0.417  -5.190  0.00  0.00     0.020 A 
ATOM      2  C1  UNL d   1      -1.763   1.487  -5.757  0.00  0.00     0.020 A 
ATOM      3  C2  UNL d   1      -0.391   1.384  -5.999  0.00  0.00     0.034 A 
ATOM      4  C3  UNL d   1       0.294   0.208  -5.673  0.00  0.00     0.017 A 
ATOM      5  C4  UNL d   1      -0.399  -0.865  -5.103  0.00  0.00     0.017 A 
ATOM      6  C5  UNL d   1      -1.773  -0.757  -4.863  0.00  0.00     0.034 A 
ATOM      7 Cl   UNL d   1       0.378  -2.348  -4.674  0.00  0.00    -0.070 Cl
ATOM      8 Cl1  UNL d   1       1.990   0.150  -6.000  0.00  0.00    -0.070 Cl
ENDROOT
TORSDOF 0
ENDMDL
