MODEL 1
REMARK minimizedAffinity 7.52864933
REMARK minimizedRMSD -1
REMARK  0 active torsions:
REMARK  status: ('A' for Active; 'I' for Inactive)
ROOT
ATOM      1  C   UNL d   1      -0.851  -1.854  -1.611  0.00  0.00     0.020 A 
ATOM      2  C1  UNL d   1      -0.009  -2.761  -2.252  0.00  0.00     0.020 A 
ATOM      3  C2  UNL d   1       0.287  -2.601  -3.607  0.00  0.00     0.034 A 
ATOM      4  C3  UNL d   1      -0.259  -1.532  -4.326  0.00  0.00     0.017 A 
ATOM      5  C4  UNL d   1      -1.105  -0.622  -3.681  0.00  0.00     0.017 A 
ATOM      6  C5  UNL d   1      -1.398  -0.787  -2.324  0.00  0.00     0.034 A 
ATOM      7 Cl   UNL d   1      -1.818   0.722  -4.501  0.00  0.00    -0.070 Cl
ATOM      8 Cl1  UNL d   1       0.150  -1.395  -5.999  0.00  0.00    -0.070 Cl
ENDROOT
TORSDOF 0
ENDMDL
