MODEL 1
REMARK minimizedAffinity -0.922790468
REMARK minimizedRMSD -1
REMARK  0 active torsions:
REMARK  status: ('A' for Active; 'I' for Inactive)
ROOT
ATOM      1  C   UNL d   1      -2.088   0.255  -4.982  0.00  0.00     0.020 A 
ATOM      2  C1  UNL d   1      -0.844   0.280  -5.611  0.00  0.00     0.020 A 
ATOM      3  C2  UNL d   1       0.202  -0.505  -5.121  0.00  0.00     0.034 A 
ATOM      4  C3  UNL d   1       0.006  -1.317  -3.998  0.00  0.00     0.017 A 
ATOM      5  C4  UNL d   1      -1.243  -1.341  -3.368  0.00  0.00     0.017 A 
ATOM      6  C5  UNL d   1      -2.287  -0.554  -3.863  0.00  0.00     0.034 A 
ATOM      7 Cl   UNL d   1      -1.561  -2.319  -1.978  0.00  0.00    -0.070 Cl
ATOM      8 Cl1  UNL d   1       1.344  -2.261  -3.446  0.00  0.00    -0.070 Cl
ENDROOT
TORSDOF 0
ENDMDL
