MODEL 1
REMARK minimizedAffinity 6.41452074
REMARK minimizedRMSD -1
REMARK  0 active torsions:
REMARK  status: ('A' for Active; 'I' for Inactive)
ROOT
ATOM      1  C   UNL d   1      -1.755  -1.350   3.535  0.00  0.00     0.020 A 
ATOM      2  C1  UNL d   1      -0.747  -0.559   2.986  0.00  0.00     0.020 A 
ATOM      3  C2  UNL d   1      -0.546  -0.544   1.604  0.00  0.00     0.034 A 
ATOM      4  C3  UNL d   1      -1.355  -1.320   0.766  0.00  0.00     0.017 A 
ATOM      5  C4  UNL d   1      -2.368  -2.113   1.319  0.00  0.00     0.017 A 
ATOM      6  C5  UNL d   1      -2.564  -2.125   2.703  0.00  0.00     0.034 A 
ATOM      7 Cl   UNL d   1      -3.406  -3.098   0.350  0.00  0.00    -0.070 Cl
ATOM      8 Cl1  UNL d   1      -1.052  -1.252  -0.933  0.00  0.00    -0.070 Cl
ENDROOT
TORSDOF 0
ENDMDL
