MODEL 1
REMARK minimizedAffinity 6.85760832
REMARK minimizedRMSD -1
REMARK  0 active torsions:
REMARK  status: ('A' for Active; 'I' for Inactive)
ROOT
ATOM      1  C   UNL d   1       5.334   2.240   5.873  0.00  0.00     0.020 A 
ATOM      2  C1  UNL d   1       5.990   1.026   5.673  0.00  0.00     0.020 A 
ATOM      3  C2  UNL d   1       6.000   0.438   4.407  0.00  0.00     0.034 A 
ATOM      4  C3  UNL d   1       5.352   1.063   3.335  0.00  0.00     0.017 A 
ATOM      5  C4  UNL d   1       4.693   2.281   3.537  0.00  0.00     0.017 A 
ATOM      6  C5  UNL d   1       4.687   2.866   4.807  0.00  0.00     0.034 A 
ATOM      7 Cl   UNL d   1       3.871   3.113   2.264  0.00  0.00    -0.070 Cl
ATOM      8 Cl1  UNL d   1       5.404   0.279   1.796  0.00  0.00    -0.070 Cl
ENDROOT
TORSDOF 0
ENDMDL
