MODEL 1
REMARK minimizedAffinity -0.658580422
REMARK minimizedRMSD -1
REMARK  0 active torsions:
REMARK  status: ('A' for Active; 'I' for Inactive)
ROOT
ATOM      1  C   UNL d   1      -0.204  -2.957  -2.210  0.00  0.00    -0.002 A 
ATOM      2  C1  UNL d   1       0.315  -1.819  -2.810  0.00  0.00     0.010 A 
ATOM      3  C2  UNL d   1       0.372  -0.611  -2.112  0.00  0.00     0.041 A 
ATOM      4  C3  UNL d   1      -0.104  -0.567  -0.787  0.00  0.00    -0.075 A 
ATOM      5  S   UNL d   1      -0.133   0.801   0.262  0.00  0.00     0.015 SA
ATOM      6  C4  UNL d   1      -0.835  -0.093   1.532  0.00  0.00     0.022 A 
ATOM      7  C5  UNL d   1      -1.049  -1.405   1.181  0.00  0.00     0.026 A 
ATOM      8  C6  UNL d   1      -0.630  -1.700  -0.161  0.00  0.00    -0.082 A 
ATOM      9  C7  UNL d   1      -0.676  -2.909  -0.895  0.00  0.00     0.045 A 
ENDROOT
TORSDOF 0
ENDMDL
