MODEL 1
REMARK minimizedAffinity -3.63810682
REMARK minimizedRMSD -1
REMARK  0 active torsions:
REMARK  status: ('A' for Active; 'I' for Inactive)
ROOT
ATOM      1  C   UNL d   1      -0.514  -3.315  -1.388  0.00  0.00    -0.002 A 
ATOM      2  C1  UNL d   1       0.001  -2.449  -2.342  0.00  0.00     0.010 A 
ATOM      3  C2  UNL d   1       0.182  -1.095  -2.049  0.00  0.00     0.041 A 
ATOM      4  C3  UNL d   1      -0.166  -0.623  -0.768  0.00  0.00    -0.075 A 
ATOM      5  S   UNL d   1      -0.030   0.994  -0.185  0.00  0.00     0.015 SA
ATOM      6  C4  UNL d   1      -0.653   0.573   1.345  0.00  0.00     0.022 A 
ATOM      7  C5  UNL d   1      -0.962  -0.765   1.426  0.00  0.00     0.026 A 
ATOM      8  C6  UNL d   1      -0.686  -1.476   0.209  0.00  0.00    -0.082 A 
ATOM      9  C7  UNL d   1      -0.858  -2.842  -0.119  0.00  0.00     0.045 A 
ENDROOT
TORSDOF 0
ENDMDL
