MODEL 1
REMARK minimizedAffinity -1.52962232
REMARK minimizedRMSD -1
REMARK  0 active torsions:
REMARK  status: ('A' for Active; 'I' for Inactive)
ROOT
ATOM      1  C   UNL d   1      -0.476  -3.321  -2.247  0.00  0.00    -0.002 A 
ATOM      2  C1  UNL d   1       0.099  -2.288  -2.974  0.00  0.00     0.010 A 
ATOM      3  C2  UNL d   1       0.334  -1.047  -2.379  0.00  0.00     0.041 A 
ATOM      4  C3  UNL d   1      -0.019  -0.861  -1.028  0.00  0.00    -0.075 A 
ATOM      5  S   UNL d   1       0.178   0.573  -0.090  0.00  0.00     0.015 SA
ATOM      6  C4  UNL d   1      -0.495  -0.153   1.297  0.00  0.00     0.022 A 
ATOM      7  C5  UNL d   1      -0.866  -1.457   1.068  0.00  0.00     0.026 A 
ATOM      8  C6  UNL d   1      -0.597  -1.886  -0.275  0.00  0.00    -0.082 A 
ATOM      9  C7  UNL d   1      -0.824  -3.133  -0.907  0.00  0.00     0.045 A 
ENDROOT
TORSDOF 0
ENDMDL
