MODEL 1
REMARK minimizedAffinity 1.5005585
REMARK minimizedRMSD -1
REMARK  0 active torsions:
REMARK  status: ('A' for Active; 'I' for Inactive)
ROOT
ATOM      1  C   UNL d   1       1.601   3.875   1.036  0.00  0.00    -0.002 A 
ATOM      2  C1  UNL d   1       2.541   3.149   0.318  0.00  0.00     0.010 A 
ATOM      3  C2  UNL d   1       2.222   1.894  -0.205  0.00  0.00     0.041 A 
ATOM      4  C3  UNL d   1       0.928   1.377   0.006  0.00  0.00    -0.075 A 
ATOM      5  S   UNL d   1       0.312  -0.137  -0.541  0.00  0.00     0.015 SA
ATOM      6  C4  UNL d   1      -1.213   0.144   0.164  0.00  0.00     0.022 A 
ATOM      7  C5  UNL d   1      -1.269   1.358   0.806  0.00  0.00     0.026 A 
ATOM      8  C6  UNL d   1      -0.036   2.089   0.725  0.00  0.00    -0.082 A 
ATOM      9  C7  UNL d   1       0.319   3.358   1.243  0.00  0.00     0.045 A 
ENDROOT
TORSDOF 0
ENDMDL
