MODEL 1
REMARK minimizedAffinity -1.45753467
REMARK minimizedRMSD -1
REMARK  0 active torsions:
REMARK  status: ('A' for Active; 'I' for Inactive)
ROOT
ATOM      1  C   UNL d   1      -0.666  -3.396  -1.228  0.00  0.00    -0.002 A 
ATOM      2  C1  UNL d   1      -0.145  -2.611  -2.246  0.00  0.00     0.010 A 
ATOM      3  C2  UNL d   1       0.087  -1.248  -2.046  0.00  0.00     0.041 A 
ATOM      4  C3  UNL d   1      -0.216  -0.683  -0.791  0.00  0.00    -0.075 A 
ATOM      5  S   UNL d   1      -0.015   0.962  -0.316  0.00  0.00     0.015 SA
ATOM      6  C4  UNL d   1      -0.616   0.661   1.250  0.00  0.00     0.022 A 
ATOM      7  C5  UNL d   1      -0.966  -0.657   1.424  0.00  0.00     0.026 A 
ATOM      8  C6  UNL d   1      -0.741  -1.453   0.250  0.00  0.00    -0.082 A 
ATOM      9  C7  UNL d   1      -0.965  -2.831   0.015  0.00  0.00     0.045 A 
ENDROOT
TORSDOF 0
ENDMDL
