MODEL 1
REMARK minimizedAffinity -3.75793028
REMARK minimizedRMSD -1
REMARK  0 active torsions:
REMARK  status: ('A' for Active; 'I' for Inactive)
ROOT
ATOM      1  C   UNL d   1      -0.393  -3.568  -2.372  0.00  0.00    -0.002 A 
ATOM      2  C1  UNL d   1       0.070  -2.488  -3.110  0.00  0.00     0.010 A 
ATOM      3  C2  UNL d   1       0.148  -1.217  -2.536  0.00  0.00     0.041 A 
ATOM      4  C3  UNL d   1      -0.250  -1.049  -1.195  0.00  0.00    -0.075 A 
ATOM      5  S   UNL d   1      -0.240   0.414  -0.284  0.00  0.00     0.015 SA
ATOM      6  C4  UNL d   1      -0.849  -0.360   1.107  0.00  0.00     0.022 A 
ATOM      7  C5  UNL d   1      -1.061  -1.703   0.898  0.00  0.00     0.026 A 
ATOM      8  C6  UNL d   1      -0.719  -2.122  -0.432  0.00  0.00    -0.082 A 
ATOM      9  C7  UNL d   1      -0.787  -3.397  -1.042  0.00  0.00     0.045 A 
ENDROOT
TORSDOF 0
ENDMDL
