MODEL 1
REMARK minimizedAffinity -3.10135198
REMARK minimizedRMSD -1
REMARK  0 active torsions:
REMARK  status: ('A' for Active; 'I' for Inactive)
ROOT
ATOM      1  C   UNL d   1      -1.018  -0.409   2.094  0.00  0.00    -0.002 A 
ATOM      2  C1  UNL d   1      -1.152  -1.760   1.807  0.00  0.00     0.010 A 
ATOM      3  C2  UNL d   1      -0.964  -2.231   0.506  0.00  0.00     0.041 A 
ATOM      4  C3  UNL d   1      -0.633  -1.314  -0.510  0.00  0.00    -0.075 A 
ATOM      5  S   UNL d   1      -0.355  -1.663  -2.176  0.00  0.00     0.015 SA
ATOM      6  C4  UNL d   1      -0.051  -0.027  -2.545  0.00  0.00     0.022 A 
ATOM      7  C5  UNL d   1      -0.155   0.780  -1.436  0.00  0.00     0.026 A 
ATOM      8  C6  UNL d   1      -0.492   0.051  -0.245  0.00  0.00    -0.082 A 
ATOM      9  C7  UNL d   1      -0.690   0.498   1.083  0.00  0.00     0.045 A 
ENDROOT
TORSDOF 0
ENDMDL
