MODEL 1
REMARK minimizedAffinity -1.39729047
REMARK minimizedRMSD -1
REMARK  0 active torsions:
REMARK  status: ('A' for Active; 'I' for Inactive)
ROOT
ATOM      1  O1  BZF d   1       2.563   3.139   0.043  0.00  0.00    -0.204 OA
ATOM      2  C2  BZF d   1       3.696   3.004   0.822  0.00  0.00     0.174 A 
ATOM      3  C3  BZF d   1       3.778   1.760   1.335  0.00  0.00    -0.012 A 
ATOM      4  C3A BZF d   1       2.673   1.047   0.772  0.00  0.00    -0.107 A 
ATOM      5  C4  BZF d   1       2.228  -0.239   0.889  0.00  0.00     0.055 A 
ATOM      6  C5  BZF d   1       1.075  -0.598   0.266  0.00  0.00    -0.016 A 
ATOM      7  C6  BZF d   1       0.341   0.303  -0.478  0.00  0.00     0.022 A 
ATOM      8  C7  BZF d   1       0.745   1.588  -0.627  0.00  0.00     0.029 A 
ATOM      9  C7A BZF d   1       1.927   1.945  -0.025  0.00  0.00     0.058 A 
ENDROOT
TORSDOF 0
ENDMDL
