MODEL 1
REMARK minimizedAffinity -1.38352001
REMARK minimizedRMSD -1
REMARK  0 active torsions:
REMARK  status: ('A' for Active; 'I' for Inactive)
ROOT
ATOM      1  O1  BZF d   1       0.944  -0.661   0.848  0.00  0.00    -0.204 OA
ATOM      2  C2  BZF d   1       1.181   0.487   0.117  0.00  0.00     0.174 A 
ATOM      3  C3  BZF d   1       0.207   0.682  -0.795  0.00  0.00    -0.012 A 
ATOM      4  C3A BZF d   1      -0.742  -0.363  -0.563  0.00  0.00    -0.107 A 
ATOM      5  C4  BZF d   1      -1.935  -0.694  -1.140  0.00  0.00     0.055 A 
ATOM      6  C5  BZF d   1      -2.578  -1.817  -0.728  0.00  0.00    -0.016 A 
ATOM      7  C6  BZF d   1      -2.057  -2.635   0.253  0.00  0.00     0.022 A 
ATOM      8  C7  BZF d   1      -0.880  -2.345   0.859  0.00  0.00     0.029 A 
ATOM      9  C7A BZF d   1      -0.243  -1.192   0.468  0.00  0.00     0.058 A 
ENDROOT
TORSDOF 0
ENDMDL
