MODEL 1
REMARK minimizedAffinity -2.4086926
REMARK minimizedRMSD -1
REMARK  0 active torsions:
REMARK  status: ('A' for Active; 'I' for Inactive)
ROOT
ATOM      1  O1  BZF d   1       1.386   1.001  -1.489  0.00  0.00    -0.204 OA
ATOM      2  C2  BZF d   1       1.012  -0.201  -0.920  0.00  0.00     0.174 A 
ATOM      3  C3  BZF d   1       1.317  -0.226   0.393  0.00  0.00    -0.012 A 
ATOM      4  C3A BZF d   1       1.837   1.076   0.683  0.00  0.00    -0.107 A 
ATOM      5  C4  BZF d   1       2.299   1.670   1.822  0.00  0.00     0.055 A 
ATOM      6  C5  BZF d   1       2.804   2.930   1.752  0.00  0.00    -0.016 A 
ATOM      7  C6  BZF d   1       2.867   3.621   0.560  0.00  0.00     0.022 A 
ATOM      8  C7  BZF d   1       2.416   3.075  -0.596  0.00  0.00     0.029 A 
ATOM      9  C7A BZF d   1       1.875   1.815  -0.522  0.00  0.00     0.058 A 
ENDROOT
TORSDOF 0
ENDMDL
