MODEL 1
REMARK minimizedAffinity -3.96456313
REMARK minimizedRMSD -1
REMARK  0 active torsions:
REMARK  status: ('A' for Active; 'I' for Inactive)
ROOT
ATOM      1  O1  BZF d   1       0.988  -1.372   0.998  0.00  0.00    -0.204 OA
ATOM      2  C2  BZF d   1       0.265  -2.205   1.829  0.00  0.00     0.174 A 
ATOM      3  C3  BZF d   1      -1.045  -2.181   1.509  0.00  0.00    -0.012 A 
ATOM      4  C3A BZF d   1      -1.134  -1.347   0.350  0.00  0.00    -0.107 A 
ATOM      5  C4  BZF d   1      -2.171  -0.950  -0.444  0.00  0.00     0.055 A 
ATOM      6  C5  BZF d   1      -1.932  -0.073  -1.454  0.00  0.00    -0.016 A 
ATOM      7  C6  BZF d   1      -0.671   0.432  -1.694  0.00  0.00     0.022 A 
ATOM      8  C7  BZF d   1       0.391   0.064  -0.936  0.00  0.00     0.029 A 
ATOM      9  C7A BZF d   1       0.158  -0.848   0.064  0.00  0.00     0.058 A 
ENDROOT
TORSDOF 0
ENDMDL
