MODEL 1
REMARK minimizedAffinity 1.17021322
REMARK minimizedRMSD -1
REMARK  0 active torsions:
REMARK  status: ('A' for Active; 'I' for Inactive)
ROOT
ATOM      1  O1  BZF d   1      -0.008  -0.907   0.901  0.00  0.00    -0.204 OA
ATOM      2  C2  BZF d   1       1.279  -0.406   0.864  0.00  0.00     0.174 A 
ATOM      3  C3  BZF d   1       1.511   0.231  -0.302  0.00  0.00    -0.012 A 
ATOM      4  C3A BZF d   1       0.264   0.201  -1.002  0.00  0.00    -0.107 A 
ATOM      5  C4  BZF d   1      -0.146   0.685  -2.211  0.00  0.00     0.055 A 
ATOM      6  C5  BZF d   1      -1.411   0.424  -2.634  0.00  0.00    -0.016 A 
ATOM      7  C6  BZF d   1      -2.289  -0.323  -1.876  0.00  0.00     0.022 A 
ATOM      8  C7  BZF d   1      -1.930  -0.820  -0.667  0.00  0.00     0.029 A 
ATOM      9  C7A BZF d   1      -0.664  -0.529  -0.223  0.00  0.00     0.058 A 
ENDROOT
TORSDOF 0
ENDMDL
