MODEL 1
REMARK minimizedAffinity -3.82362199
REMARK minimizedRMSD -1
REMARK  0 active torsions:
REMARK  status: ('A' for Active; 'I' for Inactive)
ROOT
ATOM      1  O1  BZF d   1       3.872   4.959  -1.169  0.00  0.00    -0.204 OA
ATOM      2  C2  BZF d   1       4.626   4.384  -2.174  0.00  0.00     0.174 A 
ATOM      3  C3  BZF d   1       4.639   3.041  -2.053  0.00  0.00    -0.012 A 
ATOM      4  C3A BZF d   1       3.767   2.754  -0.956  0.00  0.00    -0.107 A 
ATOM      5  C4  BZF d   1       3.358   1.595  -0.360  0.00  0.00     0.055 A 
ATOM      6  C5  BZF d   1       2.559   1.662   0.737  0.00  0.00    -0.016 A 
ATOM      7  C6  BZF d   1       2.156   2.870   1.269  0.00  0.00     0.022 A 
ATOM      8  C7  BZF d   1       2.532   4.046   0.710  0.00  0.00     0.029 A 
ATOM      9  C7A BZF d   1       3.312   3.980  -0.419  0.00  0.00     0.058 A 
ENDROOT
TORSDOF 0
ENDMDL
