MODEL 1
REMARK minimizedAffinity -1.15987313
REMARK minimizedRMSD -1
REMARK  0 active torsions:
REMARK  status: ('A' for Active; 'I' for Inactive)
ROOT
ATOM      1  O1  BZF d   1       2.094   0.774  -0.502  0.00  0.00    -0.204 OA
ATOM      2  C2  BZF d   1       0.785   0.641  -0.078  0.00  0.00     0.174 A 
ATOM      3  C3  BZF d   1       0.421   1.689   0.688  0.00  0.00    -0.012 A 
ATOM      4  C3A BZF d   1       1.545   2.575   0.672  0.00  0.00    -0.107 A 
ATOM      5  C4  BZF d   1       1.787   3.795   1.237  0.00  0.00     0.055 A 
ATOM      6  C5  BZF d   1       3.013   4.360   1.088  0.00  0.00    -0.016 A 
ATOM      7  C6  BZF d   1       4.022   3.732   0.386  0.00  0.00     0.022 A 
ATOM      8  C7  BZF d   1       3.828   2.523  -0.196  0.00  0.00     0.029 A 
ATOM      9  C7A BZF d   1       2.579   1.965  -0.075  0.00  0.00     0.058 A 
ENDROOT
TORSDOF 0
ENDMDL
