MODEL 1
REMARK minimizedAffinity -2.94258904
REMARK minimizedRMSD -1
REMARK  0 active torsions:
REMARK  status: ('A' for Active; 'I' for Inactive)
ROOT
ATOM      1  O1  BZF d   1      -2.136  -0.398  -1.447  0.00  0.00    -0.204 OA
ATOM      2  C2  BZF d   1      -1.600   0.461  -2.388  0.00  0.00     0.174 A 
ATOM      3  C3  BZF d   1      -0.319   0.757  -2.091  0.00  0.00    -0.012 A 
ATOM      4  C3A BZF d   1      -0.007  -0.033  -0.940  0.00  0.00    -0.107 A 
ATOM      5  C4  BZF d   1       1.120  -0.188  -0.184  0.00  0.00     0.055 A 
ATOM      6  C5  BZF d   1       1.073  -0.982   0.918  0.00  0.00    -0.016 A 
ATOM      7  C6  BZF d   1      -0.084  -1.631   1.296  0.00  0.00     0.022 A 
ATOM      8  C7  BZF d   1      -1.225  -1.513   0.575  0.00  0.00     0.029 A 
ATOM      9  C7A BZF d   1      -1.172  -0.737  -0.558  0.00  0.00     0.058 A 
ENDROOT
TORSDOF 0
ENDMDL
