MODEL 1
REMARK minimizedAffinity 5.62567186
REMARK minimizedRMSD -1
REMARK  0 active torsions:
REMARK  status: ('A' for Active; 'I' for Inactive)
ROOT
ATOM      1  O1  BZF d   1      -2.621   1.131  -1.244  0.00  0.00    -0.204 OA
ATOM      2  C2  BZF d   1      -2.168   1.770  -2.382  0.00  0.00     0.174 A 
ATOM      3  C3  BZF d   1      -1.592   0.890  -3.227  0.00  0.00    -0.012 A 
ATOM      4  C3A BZF d   1      -1.775  -0.392  -2.618  0.00  0.00    -0.107 A 
ATOM      5  C4  BZF d   1      -1.435  -1.662  -2.985  0.00  0.00     0.055 A 
ATOM      6  C5  BZF d   1      -1.693  -2.688  -2.131  0.00  0.00    -0.016 A 
ATOM      7  C6  BZF d   1      -2.284  -2.478  -0.902  0.00  0.00     0.022 A 
ATOM      8  C7  BZF d   1      -2.644  -1.236  -0.497  0.00  0.00     0.029 A 
ATOM      9  C7A BZF d   1      -2.414  -0.202  -1.371  0.00  0.00     0.058 A 
ENDROOT
TORSDOF 0
ENDMDL
