MODEL 1
REMARK minimizedAffinity -4.37952709
REMARK minimizedRMSD -1
REMARK  0 active torsions:
REMARK  status: ('A' for Active; 'I' for Inactive)
ROOT
ATOM      1  O1  BZF d   1       0.544  -0.627   0.614  0.00  0.00    -0.204 OA
ATOM      2  C2  BZF d   1       0.653   0.611   0.010  0.00  0.00     0.174 A 
ATOM      3  C3  BZF d   1      -0.438   0.876  -0.738  0.00  0.00    -0.012 A 
ATOM      4  C3A BZF d   1      -1.322  -0.228  -0.518  0.00  0.00    -0.107 A 
ATOM      5  C4  BZF d   1      -2.572  -0.534  -0.973  0.00  0.00     0.055 A 
ATOM      6  C5  BZF d   1      -3.128  -1.724  -0.626  0.00  0.00    -0.016 A 
ATOM      7  C6  BZF d   1      -2.461  -2.633   0.169  0.00  0.00     0.022 A 
ATOM      8  C7  BZF d   1      -1.220  -2.372   0.648  0.00  0.00     0.029 A 
ATOM      9  C7A BZF d   1      -0.670  -1.155   0.327  0.00  0.00     0.058 A 
ENDROOT
TORSDOF 0
ENDMDL
