MODEL 1
REMARK minimizedAffinity -3.29203629
REMARK minimizedRMSD -1
REMARK  0 active torsions:
REMARK  status: ('A' for Active; 'I' for Inactive)
ROOT
ATOM      1  O1  BZF d   1       1.785   0.176   2.206  0.00  0.00    -0.204 OA
ATOM      2  C2  BZF d   1       1.889  -0.688   1.133  0.00  0.00     0.174 A 
ATOM      3  C3  BZF d   1       2.327  -0.037   0.035  0.00  0.00    -0.012 A 
ATOM      4  C3A BZF d   1       2.596   1.298   0.472  0.00  0.00    -0.107 A 
ATOM      5  C4  BZF d   1       3.069   2.415  -0.156  0.00  0.00     0.055 A 
ATOM      6  C5  BZF d   1       3.146   3.581   0.537  0.00  0.00    -0.016 A 
ATOM      7  C6  BZF d   1       2.754   3.668   1.857  0.00  0.00     0.022 A 
ATOM      8  C7  BZF d   1       2.284   2.586   2.525  0.00  0.00     0.029 A 
ATOM      9  C7A BZF d   1       2.235   1.399   1.836  0.00  0.00     0.058 A 
ENDROOT
TORSDOF 0
ENDMDL
