MODEL 1
REMARK minimizedAffinity -4.28722095
REMARK minimizedRMSD -1
REMARK  0 active torsions:
REMARK  status: ('A' for Active; 'I' for Inactive)
ROOT
ATOM      1  O1  BZF d   1       0.590  -0.274   1.117  0.00  0.00    -0.204 OA
ATOM      2  C2  BZF d   1       1.779   0.371   0.835  0.00  0.00     0.174 A 
ATOM      3  C3  BZF d   1       1.772   0.860  -0.421  0.00  0.00    -0.012 A 
ATOM      4  C3A BZF d   1       0.464   0.578  -0.928  0.00  0.00    -0.107 A 
ATOM      5  C4  BZF d   1      -0.158   0.833  -2.117  0.00  0.00     0.055 A 
ATOM      6  C5  BZF d   1      -1.416   0.360  -2.319  0.00  0.00    -0.016 A 
ATOM      7  C6  BZF d   1      -2.079  -0.374  -1.358  0.00  0.00     0.022 A 
ATOM      8  C7  BZF d   1      -1.505  -0.647  -0.160  0.00  0.00     0.029 A 
ATOM      9  C7A BZF d   1      -0.247  -0.143   0.060  0.00  0.00     0.058 A 
ENDROOT
TORSDOF 0
ENDMDL
