MODEL 1
REMARK minimizedAffinity -3.30876207
REMARK minimizedRMSD -1
REMARK  0 active torsions:
REMARK  status: ('A' for Active; 'I' for Inactive)
ROOT
ATOM      1  O1  BZF d   1       1.002  -0.301   0.983  0.00  0.00    -0.204 OA
ATOM      2  C2  BZF d   1       1.786   0.732   0.507  0.00  0.00     0.174 A 
ATOM      3  C3  BZF d   1       1.206   1.320  -0.559  0.00  0.00    -0.012 A 
ATOM      4  C3A BZF d   1      -0.060   0.669  -0.705  0.00  0.00    -0.107 A 
ATOM      5  C4  BZF d   1      -1.099   0.823  -1.578  0.00  0.00     0.055 A 
ATOM      6  C5  BZF d   1      -2.161  -0.022  -1.496  0.00  0.00    -0.016 A 
ATOM      7  C6  BZF d   1      -2.213  -1.033  -0.559  0.00  0.00     0.022 A 
ATOM      8  C7  BZF d   1      -1.209  -1.221   0.331  0.00  0.00     0.029 A 
ATOM      9  C7A BZF d   1      -0.150  -0.349   0.272  0.00  0.00     0.058 A 
ENDROOT
TORSDOF 0
ENDMDL
