MODEL 1
REMARK minimizedAffinity -1.67403805
REMARK minimizedRMSD -1
REMARK  0 active torsions:
REMARK  status: ('A' for Active; 'I' for Inactive)
ROOT
ATOM      1  O1  BZF d   1       1.230   1.369  -0.563  0.00  0.00    -0.204 OA
ATOM      2  C2  BZF d   1       1.798   0.748   0.532  0.00  0.00     0.174 A 
ATOM      3  C3  BZF d   1       1.044  -0.296   0.934  0.00  0.00    -0.012 A 
ATOM      4  C3A BZF d   1      -0.016  -0.385  -0.022  0.00  0.00    -0.107 A 
ATOM      5  C4  BZF d   1      -1.078  -1.231  -0.171  0.00  0.00     0.055 A 
ATOM      6  C5  BZF d   1      -1.970  -1.002  -1.170  0.00  0.00    -0.016 A 
ATOM      7  C6  BZF d   1      -1.835   0.066  -2.034  0.00  0.00     0.022 A 
ATOM      8  C7  BZF d   1      -0.795   0.929  -1.929  0.00  0.00     0.029 A 
ATOM      9  C7A BZF d   1       0.126   0.681  -0.941  0.00  0.00     0.058 A 
ENDROOT
TORSDOF 0
ENDMDL
