MODEL 1
REMARK minimizedAffinity -1.94201756
REMARK minimizedRMSD -1
REMARK  0 active torsions:
REMARK  status: ('A' for Active; 'I' for Inactive)
ROOT
ATOM      1  O1  BZF d   1       3.947   2.695  -1.949  0.00  0.00    -0.204 OA
ATOM      2  C2  BZF d   1       4.348   4.001  -2.151  0.00  0.00     0.174 A 
ATOM      3  C3  BZF d   1       4.035   4.768  -1.086  0.00  0.00    -0.012 A 
ATOM      4  C3A BZF d   1       3.482   3.866  -0.123  0.00  0.00    -0.107 A 
ATOM      5  C4  BZF d   1       2.999   4.026   1.144  0.00  0.00     0.055 A 
ATOM      6  C5  BZF d   1       2.463   2.956   1.788  0.00  0.00    -0.016 A 
ATOM      7  C6  BZF d   1       2.390   1.713   1.193  0.00  0.00     0.022 A 
ATOM      8  C7  BZF d   1       2.861   1.504  -0.061  0.00  0.00     0.029 A 
ATOM      9  C7A BZF d   1       3.433   2.576  -0.701  0.00  0.00     0.058 A 
ENDROOT
TORSDOF 0
ENDMDL
