MODEL 1
REMARK minimizedAffinity -0.633859634
REMARK minimizedRMSD -1
REMARK  0 active torsions:
REMARK  status: ('A' for Active; 'I' for Inactive)
ROOT
ATOM      1  O1  BZF d   1       0.661  -0.206   0.559  0.00  0.00    -0.204 OA
ATOM      2  C2  BZF d   1       0.596   0.783  -0.404  0.00  0.00     0.174 A 
ATOM      3  C3  BZF d   1      -0.490   0.619  -1.186  0.00  0.00    -0.012 A 
ATOM      4  C3A BZF d   1      -1.195  -0.491  -0.623  0.00  0.00    -0.107 A 
ATOM      5  C4  BZF d   1      -2.360  -1.126  -0.947  0.00  0.00     0.055 A 
ATOM      6  C5  BZF d   1      -2.733  -2.225  -0.240  0.00  0.00    -0.016 A 
ATOM      7  C6  BZF d   1      -1.963  -2.719   0.793  0.00  0.00     0.022 A 
ATOM      8  C7  BZF d   1      -0.802  -2.120   1.155  0.00  0.00     0.029 A 
ATOM      9  C7A BZF d   1      -0.440  -0.990   0.463  0.00  0.00     0.058 A 
ENDROOT
TORSDOF 0
ENDMDL
