MODEL 1
REMARK minimizedAffinity -1.72695923
REMARK minimizedRMSD -1
REMARK  0 active torsions:
REMARK  status: ('A' for Active; 'I' for Inactive)
ROOT
ATOM      1  C   UNL d   1       0.952   0.466  -1.503  0.00  0.00     0.077 C 
ATOM      2  C1  UNL d   1       0.390   0.127  -0.154  0.00  0.00    -0.074 A 
ATOM      3  C2  UNL d   1       1.086   0.448   1.016  0.00  0.00    -0.005 A 
ATOM      4  C3  UNL d   1       0.546   0.135   2.263  0.00  0.00     0.006 A 
ATOM      5  C4  UNL d   1      -0.692  -0.502   2.353  0.00  0.00    -0.005 A 
ATOM      6  C5  UNL d   1      -1.402  -0.831   1.194  0.00  0.00    -0.074 A 
ATOM      7  C6  UNL d   1      -2.739  -1.507   1.274  0.00  0.00     0.077 C 
ATOM      8  C7  UNL d   1      -0.857  -0.506  -0.055  0.00  0.00    -0.001 A 
ENDROOT
TORSDOF 0
ENDMDL
