MODEL 1
REMARK minimizedAffinity -3.19601917
REMARK minimizedRMSD -1
REMARK  0 active torsions:
REMARK  status: ('A' for Active; 'I' for Inactive)
ROOT
ATOM      1  C   UNL d   1      -1.569  -0.778   3.557  0.00  0.00     0.077 C 
ATOM      2  C1  UNL d   1      -0.675  -0.431   2.404  0.00  0.00    -0.074 A 
ATOM      3  C2  UNL d   1       0.573   0.164   2.616  0.00  0.00    -0.005 A 
ATOM      4  C3  UNL d   1       1.398   0.472   1.534  0.00  0.00     0.006 A 
ATOM      5  C4  UNL d   1       0.984   0.189   0.232  0.00  0.00    -0.005 A 
ATOM      6  C5  UNL d   1      -0.260  -0.407   0.001  0.00  0.00    -0.074 A 
ATOM      7  C6  UNL d   1      -0.715  -0.727  -1.392  0.00  0.00     0.077 C 
ATOM      8  C7  UNL d   1      -1.080  -0.720   1.093  0.00  0.00    -0.001 A 
ENDROOT
TORSDOF 0
ENDMDL
