MODEL 1
REMARK minimizedAffinity -2.33547139
REMARK minimizedRMSD -1
REMARK  0 active torsions:
REMARK  status: ('A' for Active; 'I' for Inactive)
ROOT
ATOM      1  C   UNL d   1      -0.365  -0.033  -1.394  0.00  0.00     0.077 C 
ATOM      2  C1  UNL d   1       0.147   0.066   0.012  0.00  0.00    -0.074 A 
ATOM      3  C2  UNL d   1       1.457   0.481   0.272  0.00  0.00    -0.005 A 
ATOM      4  C3  UNL d   1       1.916   0.578   1.586  0.00  0.00     0.006 A 
ATOM      5  C4  UNL d   1       1.072   0.259   2.650  0.00  0.00    -0.005 A 
ATOM      6  C5  UNL d   1      -0.241  -0.158   2.409  0.00  0.00    -0.074 A 
ATOM      7  C6  UNL d   1      -1.164  -0.494   3.542  0.00  0.00     0.077 C 
ATOM      8  C7  UNL d   1      -0.697  -0.245   1.087  0.00  0.00    -0.001 A 
ENDROOT
TORSDOF 0
ENDMDL
