MODEL 1
REMARK minimizedAffinity -2.92145967
REMARK minimizedRMSD -1
REMARK  0 active torsions:
REMARK  status: ('A' for Active; 'I' for Inactive)
ROOT
ATOM      1  C   UNL d   1       2.003  -2.277  -0.545  0.00  0.00     0.077 C 
ATOM      2  C1  UNL d   1       0.932  -1.371  -0.013  0.00  0.00    -0.074 A 
ATOM      3  C2  UNL d   1       0.118  -0.634  -0.880  0.00  0.00    -0.005 A 
ATOM      4  C3  UNL d   1      -0.879   0.197  -0.371  0.00  0.00     0.006 A 
ATOM      5  C4  UNL d   1      -1.073   0.301   1.008  0.00  0.00    -0.005 A 
ATOM      6  C5  UNL d   1      -0.268  -0.429   1.889  0.00  0.00    -0.074 A 
ATOM      7  C6  UNL d   1      -0.469  -0.337   3.373  0.00  0.00     0.077 C 
ATOM      8  C7  UNL d   1       0.727  -1.267   1.370  0.00  0.00    -0.001 A 
ENDROOT
TORSDOF 0
ENDMDL
