MODEL 1
REMARK minimizedAffinity -3.89991903
REMARK minimizedRMSD -1
REMARK  0 active torsions:
REMARK  status: ('A' for Active; 'I' for Inactive)
ROOT
ATOM      1  C   UNL d   1      -0.203  -0.970   2.447  0.00  0.00     0.077 C 
ATOM      2  C1  UNL d   1      -0.614  -0.533   1.073  0.00  0.00    -0.074 A 
ATOM      3  C2  UNL d   1      -1.865   0.051   0.849  0.00  0.00    -0.005 A 
ATOM      4  C3  UNL d   1      -2.230   0.462  -0.433  0.00  0.00     0.006 A 
ATOM      5  C4  UNL d   1      -1.350   0.292  -1.502  0.00  0.00    -0.005 A 
ATOM      6  C5  UNL d   1      -0.094  -0.289  -1.297  0.00  0.00    -0.074 A 
ATOM      7  C6  UNL d   1       0.868  -0.469  -2.434  0.00  0.00     0.077 C 
ATOM      8  C7  UNL d   1       0.268  -0.692  -0.005  0.00  0.00    -0.001 A 
ENDROOT
TORSDOF 0
ENDMDL
