MODEL 1
REMARK minimizedAffinity -3.89189267
REMARK minimizedRMSD -1
REMARK  0 active torsions:
REMARK  status: ('A' for Active; 'I' for Inactive)
ROOT
ATOM      1  C   UNL d   1       0.080  -0.974  -1.834  0.00  0.00     0.077 C 
ATOM      2  C1  UNL d   1       0.321  -0.487  -0.437  0.00  0.00    -0.074 A 
ATOM      3  C2  UNL d   1       1.197   0.575  -0.187  0.00  0.00    -0.005 A 
ATOM      4  C3  UNL d   1       1.404   1.024   1.117  0.00  0.00     0.006 A 
ATOM      5  C4  UNL d   1       0.738   0.417   2.183  0.00  0.00    -0.005 A 
ATOM      6  C5  UNL d   1      -0.141  -0.645   1.953  0.00  0.00    -0.074 A 
ATOM      7  C6  UNL d   1      -0.872  -1.302   3.086  0.00  0.00     0.077 C 
ATOM      8  C7  UNL d   1      -0.350  -1.086   0.639  0.00  0.00    -0.001 A 
ENDROOT
TORSDOF 0
ENDMDL
