MODEL 1
REMARK minimizedAffinity -3.85635257
REMARK minimizedRMSD -1
REMARK  0 active torsions:
REMARK  status: ('A' for Active; 'I' for Inactive)
ROOT
ATOM      1  C   UNL d   1       3.367   1.051  -3.575  0.00  0.00     0.077 C 
ATOM      2  C1  UNL d   1       2.103   0.308  -3.260  0.00  0.00    -0.074 A 
ATOM      3  C2  UNL d   1       1.655  -0.730  -4.083  0.00  0.00    -0.005 A 
ATOM      4  C3  UNL d   1       0.482  -1.418  -3.772  0.00  0.00     0.006 A 
ATOM      5  C4  UNL d   1      -0.253  -1.076  -2.637  0.00  0.00    -0.005 A 
ATOM      6  C5  UNL d   1       0.180  -0.042  -1.801  0.00  0.00    -0.074 A 
ATOM      7  C6  UNL d   1      -0.593   0.331  -0.571  0.00  0.00     0.077 C 
ATOM      8  C7  UNL d   1       1.363   0.640  -2.116  0.00  0.00    -0.001 A 
ENDROOT
TORSDOF 0
ENDMDL
