MODEL 1
REMARK minimizedAffinity -2.40788984
REMARK minimizedRMSD -1
REMARK  0 active torsions:
REMARK  status: ('A' for Active; 'I' for Inactive)
ROOT
ATOM      1  C   UNL d   1      -3.003   1.179  -0.518  0.00  0.00     0.077 C 
ATOM      2  C1  UNL d   1      -1.689   0.799   0.097  0.00  0.00    -0.074 A 
ATOM      3  C2  UNL d   1      -0.481   1.150  -0.514  0.00  0.00    -0.005 A 
ATOM      4  C3  UNL d   1       0.734   0.798   0.075  0.00  0.00     0.006 A 
ATOM      5  C4  UNL d   1       0.752   0.093   1.279  0.00  0.00    -0.005 A 
ATOM      6  C5  UNL d   1      -0.446  -0.265   1.906  0.00  0.00    -0.074 A 
ATOM      7  C6  UNL d   1      -0.443  -1.013   3.205  0.00  0.00     0.077 C 
ATOM      8  C7  UNL d   1      -1.662   0.098   1.311  0.00  0.00    -0.001 A 
ENDROOT
TORSDOF 0
ENDMDL
