MODEL 1
REMARK minimizedAffinity -4.82722807
REMARK minimizedRMSD -1
REMARK  0 active torsions:
REMARK  status: ('A' for Active; 'I' for Inactive)
ROOT
ATOM      1  C   UNL d   1       0.536   0.326  -2.213  0.00  0.00     0.077 C 
ATOM      2  C1  UNL d   1      -0.490   0.116  -1.139  0.00  0.00    -0.074 A 
ATOM      3  C2  UNL d   1      -1.856   0.213  -1.422  0.00  0.00    -0.005 A 
ATOM      4  C3  UNL d   1      -2.799   0.006  -0.415  0.00  0.00     0.006 A 
ATOM      5  C4  UNL d   1      -2.386  -0.300   0.882  0.00  0.00    -0.005 A 
ATOM      6  C5  UNL d   1      -1.024  -0.402   1.183  0.00  0.00    -0.074 A 
ATOM      7  C6  UNL d   1      -0.564  -0.739   2.570  0.00  0.00     0.077 C 
ATOM      8  C7  UNL d   1      -0.083  -0.199   0.165  0.00  0.00    -0.001 A 
ENDROOT
TORSDOF 0
ENDMDL
