MODEL 1
REMARK minimizedAffinity -3.95930314
REMARK minimizedRMSD -1
REMARK  0 active torsions:
REMARK  status: ('A' for Active; 'I' for Inactive)
ROOT
ATOM      1  C   UNL d   1      -2.860   0.761  -0.757  0.00  0.00     0.077 C 
ATOM      2  C1  UNL d   1      -1.565   0.427  -0.077  0.00  0.00    -0.074 A 
ATOM      3  C2  UNL d   1      -0.339   0.746  -0.669  0.00  0.00    -0.005 A 
ATOM      4  C3  UNL d   1       0.857   0.437  -0.021  0.00  0.00     0.006 A 
ATOM      5  C4  UNL d   1       0.838  -0.191   1.225  0.00  0.00    -0.005 A 
ATOM      6  C5  UNL d   1      -0.378  -0.516   1.834  0.00  0.00    -0.074 A 
ATOM      7  C6  UNL d   1      -0.416  -1.183   3.177  0.00  0.00     0.077 C 
ATOM      8  C7  UNL d   1      -1.576  -0.197   1.178  0.00  0.00    -0.001 A 
ENDROOT
TORSDOF 0
ENDMDL
