MODEL 1
REMARK minimizedAffinity -5.29783869
REMARK minimizedRMSD -1
REMARK  0 active torsions:
REMARK  status: ('A' for Active; 'I' for Inactive)
ROOT
ATOM      1  C   UNL d   1      -0.415  -0.969   2.736  0.00  0.00     0.077 C 
ATOM      2  C1  UNL d   1       0.062  -0.319   1.471  0.00  0.00    -0.074 A 
ATOM      3  C2  UNL d   1       0.795   0.871   1.506  0.00  0.00    -0.005 A 
ATOM      4  C3  UNL d   1       1.240   1.459   0.322  0.00  0.00     0.006 A 
ATOM      5  C4  UNL d   1       0.957   0.863  -0.907  0.00  0.00    -0.005 A 
ATOM      6  C5  UNL d   1       0.226  -0.328  -0.962  0.00  0.00    -0.074 A 
ATOM      7  C6  UNL d   1      -0.079  -0.987  -2.275  0.00  0.00     0.077 C 
ATOM      8  C7  UNL d   1      -0.212  -0.916   0.233  0.00  0.00    -0.001 A 
ENDROOT
TORSDOF 0
ENDMDL
