MODEL 1
REMARK minimizedAffinity -3.60546279
REMARK minimizedRMSD -1
REMARK  0 active torsions:
REMARK  status: ('A' for Active; 'I' for Inactive)
ROOT
ATOM      1  C   UNL d   1      -1.413  -0.781   3.638  0.00  0.00     0.077 C 
ATOM      2  C1  UNL d   1      -0.508  -0.428   2.495  0.00  0.00    -0.074 A 
ATOM      3  C2  UNL d   1       0.576   0.437   2.677  0.00  0.00    -0.005 A 
ATOM      4  C3  UNL d   1       1.414   0.749   1.607  0.00  0.00     0.006 A 
ATOM      5  C4  UNL d   1       1.178   0.199   0.346  0.00  0.00    -0.005 A 
ATOM      6  C5  UNL d   1       0.100  -0.669   0.146  0.00  0.00    -0.074 A 
ATOM      7  C6  UNL d   1      -0.162  -1.276  -1.201  0.00  0.00     0.077 C 
ATOM      8  C7  UNL d   1      -0.734  -0.983   1.227  0.00  0.00    -0.001 A 
ENDROOT
TORSDOF 0
ENDMDL
