MODEL 1
REMARK minimizedAffinity -3.87888861
REMARK minimizedRMSD -1
REMARK  0 active torsions:
REMARK  status: ('A' for Active; 'I' for Inactive)
ROOT
ATOM      1  C   UNL d   1      -1.069  -1.142   2.988  0.00  0.00     0.077 C 
ATOM      2  C1  UNL d   1      -0.234  -0.516   1.911  0.00  0.00    -0.074 A 
ATOM      3  C2  UNL d   1       0.630   0.545   2.197  0.00  0.00    -0.005 A 
ATOM      4  C3  UNL d   1       1.408   1.111   1.187  0.00  0.00     0.006 A 
ATOM      5  C4  UNL d   1       1.329   0.622  -0.118  0.00  0.00    -0.005 A 
ATOM      6  C5  UNL d   1       0.472  -0.439  -0.423  0.00  0.00    -0.074 A 
ATOM      7  C6  UNL d   1       0.383  -0.983  -1.817  0.00  0.00     0.077 C 
ATOM      8  C7  UNL d   1      -0.301  -1.007   0.599  0.00  0.00    -0.001 A 
ENDROOT
TORSDOF 0
ENDMDL
