MODEL 1
REMARK minimizedAffinity -3.41288662
REMARK minimizedRMSD -1
REMARK  0 active torsions:
REMARK  status: ('A' for Active; 'I' for Inactive)
ROOT
ATOM      1  C   UNL d   1      -0.999  -1.309   2.572  0.00  0.00     0.077 C 
ATOM      2  C1  UNL d   1      -0.302  -0.624   1.434  0.00  0.00    -0.074 A 
ATOM      3  C2  UNL d   1       0.497   0.503   1.653  0.00  0.00    -0.005 A 
ATOM      4  C3  UNL d   1       1.146   1.123   0.586  0.00  0.00     0.006 A 
ATOM      5  C4  UNL d   1       1.004   0.624  -0.709  0.00  0.00    -0.005 A 
ATOM      6  C5  UNL d   1       0.209  -0.502  -0.948  0.00  0.00    -0.074 A 
ATOM      7  C6  UNL d   1       0.053  -1.057  -2.333  0.00  0.00     0.077 C 
ATOM      8  C7  UNL d   1      -0.434  -1.124   0.131  0.00  0.00    -0.001 A 
ENDROOT
TORSDOF 0
ENDMDL
