MODEL 1
REMARK minimizedAffinity -4.65681601
REMARK minimizedRMSD -1
REMARK  1 active torsions:
REMARK  status: ('A' for Active; 'I' for Inactive)
REMARK    1  A    between atoms: C1_2  and  C2_3 
ROOT
ATOM      1  C2  UNL d   1      -0.079   0.043  -0.408  0.00  0.00    -0.073 A 
ATOM      2  C3  UNL d   1       0.475  -0.508   0.753  0.00  0.00    -0.002 A 
ATOM      3  C4  UNL d   1       0.085  -0.042   2.009  0.00  0.00     0.004 A 
ATOM      4  C5  UNL d   1      -0.865   0.973   2.118  0.00  0.00    -0.004 A 
ATOM      5  C6  UNL d   1      -1.438   1.528   0.970  0.00  0.00    -0.075 A 
ATOM      6  C7  UNL d   1      -2.460   2.622   1.070  0.00  0.00     0.076 C 
ATOM      7  C8  UNL d   1      -1.040   1.057  -0.289  0.00  0.00     0.001 A 
ENDROOT
BRANCH   1   8
ATOM      8  C1  UNL d   1       0.334  -0.461  -1.767  0.00  0.00     0.053 C 
ATOM      9  C   UNL d   1       0.161  -1.966  -1.893  0.00  0.00     0.018 C 
ENDBRANCH   1   8
TORSDOF 1
ENDMDL
