MODEL 1
REMARK minimizedAffinity -5.20454645
REMARK minimizedRMSD -1
REMARK  1 active torsions:
REMARK  status: ('A' for Active; 'I' for Inactive)
REMARK    1  A    between atoms: C1_2  and  C2_3 
ROOT
ATOM      1  C2  UNL d   1       0.599  -0.645  -0.367  0.00  0.00    -0.073 A 
ATOM      2  C3  UNL d   1      -0.073  -0.627   0.861  0.00  0.00    -0.002 A 
ATOM      3  C4  UNL d   1      -0.787   0.505   1.256  0.00  0.00     0.004 A 
ATOM      4  C5  UNL d   1      -0.843   1.625   0.428  0.00  0.00    -0.004 A 
ATOM      5  C6  UNL d   1      -0.188   1.622  -0.808  0.00  0.00    -0.075 A 
ATOM      6  C7  UNL d   1      -0.236   2.820  -1.710  0.00  0.00     0.076 C 
ATOM      7  C8  UNL d   1       0.530   0.483  -1.197  0.00  0.00     0.001 A 
ENDROOT
BRANCH   1   8
ATOM      8  C1  UNL d   1       1.366  -1.867  -0.801  0.00  0.00     0.053 C 
ATOM      9  C   UNL d   1       0.699  -2.573  -1.971  0.00  0.00     0.018 C 
ENDBRANCH   1   8
TORSDOF 1
ENDMDL
