MODEL 1
REMARK minimizedAffinity 0.419112355
REMARK minimizedRMSD -1
REMARK  1 active torsions:
REMARK  status: ('A' for Active; 'I' for Inactive)
REMARK    1  A    between atoms: C1_2  and  C2_3 
ROOT
ATOM      1  C2  UNL d   1       0.160  -0.526  -0.085  0.00  0.00    -0.073 A 
ATOM      2  C3  UNL d   1      -1.150  -0.401   0.390  0.00  0.00    -0.002 A 
ATOM      3  C4  UNL d   1      -1.923   0.709   0.045  0.00  0.00     0.004 A 
ATOM      4  C5  UNL d   1      -1.396   1.701  -0.782  0.00  0.00    -0.004 A 
ATOM      5  C6  UNL d   1      -0.093   1.589  -1.277  0.00  0.00    -0.075 A 
ATOM      6  C7  UNL d   1       0.489   2.648  -2.166  0.00  0.00     0.076 C 
ATOM      7  C8  UNL d   1       0.677   0.472  -0.924  0.00  0.00     0.001 A 
ENDROOT
BRANCH   1   8
ATOM      8  C1  UNL d   1       0.995  -1.726   0.279  0.00  0.00     0.053 C 
ATOM      9  C   UNL d   1       0.969  -2.789  -0.808  0.00  0.00     0.018 C 
ENDBRANCH   1   8
TORSDOF 1
ENDMDL
