MODEL 1
REMARK minimizedAffinity -5.56270933
REMARK minimizedRMSD -1
REMARK  1 active torsions:
REMARK  status: ('A' for Active; 'I' for Inactive)
REMARK    1  A    between atoms: C1_2  and  C2_3 
ROOT
ATOM      1  C2  UNL d   1       0.363  -0.617  -0.758  0.00  0.00    -0.073 A 
ATOM      2  C3  UNL d   1       1.123   0.428  -1.297  0.00  0.00    -0.002 A 
ATOM      3  C4  UNL d   1       0.745   1.754  -1.087  0.00  0.00     0.004 A 
ATOM      4  C5  UNL d   1      -0.390   2.050  -0.332  0.00  0.00    -0.004 A 
ATOM      5  C6  UNL d   1      -1.155   1.020   0.225  0.00  0.00    -0.075 A 
ATOM      6  C7  UNL d   1      -2.380   1.321   1.038  0.00  0.00     0.076 C 
ATOM      7  C8  UNL d   1      -0.771  -0.310   0.007  0.00  0.00     0.001 A 
ENDROOT
BRANCH   1   8
ATOM      8  C1  UNL d   1       0.771  -2.052  -0.977  0.00  0.00     0.053 C 
ATOM      9  C   UNL d   1       0.468  -2.521  -2.391  0.00  0.00     0.018 C 
ENDBRANCH   1   8
TORSDOF 1
ENDMDL
