MODEL 1
REMARK minimizedAffinity -4.48482609
REMARK minimizedRMSD -1
REMARK  1 active torsions:
REMARK  status: ('A' for Active; 'I' for Inactive)
REMARK    1  A    between atoms: C1_2  and  C2_3 
ROOT
ATOM      1  C2  UNL d   1      -0.906   2.427  -0.342  0.00  0.00    -0.073 A 
ATOM      2  C3  UNL d   1      -1.084   2.768   1.004  0.00  0.00    -0.002 A 
ATOM      3  C4  UNL d   1      -1.012   1.789   1.995  0.00  0.00     0.004 A 
ATOM      4  C5  UNL d   1      -0.754   0.461   1.653  0.00  0.00    -0.004 A 
ATOM      5  C6  UNL d   1      -0.561   0.102   0.315  0.00  0.00    -0.075 A 
ATOM      6  C7  UNL d   1      -0.286  -1.322  -0.069  0.00  0.00     0.076 C 
ATOM      7  C8  UNL d   1      -0.638   1.091  -0.675  0.00  0.00     0.001 A 
ENDROOT
BRANCH   1   8
ATOM      8  C1  UNL d   1      -0.977   3.482  -1.415  0.00  0.00     0.053 C 
ATOM      9  C   UNL d   1       0.357   3.667  -2.121  0.00  0.00     0.018 C 
ENDBRANCH   1   8
TORSDOF 1
ENDMDL
