MODEL 1
REMARK minimizedAffinity -3.97131205
REMARK minimizedRMSD -1
REMARK  1 active torsions:
REMARK  status: ('A' for Active; 'I' for Inactive)
REMARK    1  A    between atoms: C1_2  and  C2_3 
ROOT
ATOM      1  C2  UNL d   1       0.212  -0.396  -0.246  0.00  0.00    -0.073 A 
ATOM      2  C3  UNL d   1       0.767  -0.914   0.930  0.00  0.00    -0.002 A 
ATOM      3  C4  UNL d   1       0.326  -0.464   2.175  0.00  0.00     0.004 A 
ATOM      4  C5  UNL d   1      -0.678   0.501   2.258  0.00  0.00    -0.004 A 
ATOM      5  C6  UNL d   1      -1.253   1.022   1.094  0.00  0.00    -0.075 A 
ATOM      6  C7  UNL d   1      -2.331   2.063   1.166  0.00  0.00     0.076 C 
ATOM      7  C8  UNL d   1      -0.803   0.568  -0.152  0.00  0.00     0.001 A 
ENDROOT
BRANCH   1   8
ATOM      8  C1  UNL d   1       0.680  -0.883  -1.593  0.00  0.00     0.053 C 
ATOM      9  C   UNL d   1      -0.055  -2.139  -2.032  0.00  0.00     0.018 C 
ENDBRANCH   1   8
TORSDOF 1
ENDMDL
