MODEL 1
REMARK minimizedAffinity -3.08339667
REMARK minimizedRMSD -1
REMARK  1 active torsions:
REMARK  status: ('A' for Active; 'I' for Inactive)
REMARK    1  A    between atoms: C1_2  and  C2_3 
ROOT
ATOM      1  C2  UNL d   1       0.317  -0.444  -0.485  0.00  0.00    -0.073 A 
ATOM      2  C3  UNL d   1       0.959   0.301  -1.480  0.00  0.00    -0.002 A 
ATOM      3  C4  UNL d   1       0.556   1.609  -1.752  0.00  0.00     0.004 A 
ATOM      4  C5  UNL d   1      -0.487   2.187  -1.029  0.00  0.00    -0.004 A 
ATOM      5  C6  UNL d   1      -1.134   1.462  -0.023  0.00  0.00    -0.075 A 
ATOM      6  C7  UNL d   1      -2.260   2.069   0.762  0.00  0.00     0.076 C 
ATOM      7  C8  UNL d   1      -0.725   0.148   0.243  0.00  0.00     0.001 A 
ENDROOT
BRANCH   1   8
ATOM      8  C1  UNL d   1       0.753  -1.855  -0.183  0.00  0.00     0.053 C 
ATOM      9  C   UNL d   1       0.776  -2.724  -1.431  0.00  0.00     0.018 C 
ENDBRANCH   1   8
TORSDOF 1
ENDMDL
