MODEL 1
REMARK minimizedAffinity -4.48486185
REMARK minimizedRMSD -1
REMARK  1 active torsions:
REMARK  status: ('A' for Active; 'I' for Inactive)
REMARK    1  A    between atoms: C1_2  and  C2_3 
ROOT
ATOM      1  C2  UNL d   1      -0.542  -0.240  -0.328  0.00  0.00    -0.073 A 
ATOM      2  C3  UNL d   1       0.674   0.448  -0.250  0.00  0.00    -0.002 A 
ATOM      3  C4  UNL d   1       1.789  -0.009  -0.955  0.00  0.00     0.004 A 
ATOM      4  C5  UNL d   1       1.698  -1.152  -1.748  0.00  0.00    -0.004 A 
ATOM      5  C6  UNL d   1       0.488  -1.847  -1.848  0.00  0.00    -0.075 A 
ATOM      6  C7  UNL d   1       0.373  -3.079  -2.696  0.00  0.00     0.076 C 
ATOM      7  C8  UNL d   1      -0.627  -1.383  -1.136  0.00  0.00     0.001 A 
ENDROOT
BRANCH   1   8
ATOM      8  C1  UNL d   1      -1.750   0.254   0.425  0.00  0.00     0.053 C 
ATOM      9  C   UNL d   1      -1.374   1.233   1.526  0.00  0.00     0.018 C 
ENDBRANCH   1   8
TORSDOF 1
ENDMDL
