MODEL 1
REMARK minimizedAffinity -5.57604551
REMARK minimizedRMSD -1
REMARK  1 active torsions:
REMARK  status: ('A' for Active; 'I' for Inactive)
REMARK    1  A    between atoms: C1_2  and  C2_3 
ROOT
ATOM      1  C2  UNL d   1       0.063   0.351  -0.109  0.00  0.00    -0.073 A 
ATOM      2  C3  UNL d   1      -0.918   1.302  -0.411  0.00  0.00    -0.002 A 
ATOM      3  C4  UNL d   1      -1.959   1.550   0.484  0.00  0.00     0.004 A 
ATOM      4  C5  UNL d   1      -2.027   0.856   1.691  0.00  0.00    -0.004 A 
ATOM      5  C6  UNL d   1      -1.050  -0.090   2.017  0.00  0.00    -0.075 A 
ATOM      6  C7  UNL d   1      -1.111  -0.846   3.312  0.00  0.00     0.076 C 
ATOM      7  C8  UNL d   1      -0.009  -0.335   1.112  0.00  0.00     0.001 A 
ENDROOT
BRANCH   1   8
ATOM      8  C1  UNL d   1       1.193   0.084  -1.069  0.00  0.00     0.053 C 
ATOM      9  C   UNL d   1       1.824   1.370  -1.578  0.00  0.00     0.018 C 
ENDBRANCH   1   8
TORSDOF 1
ENDMDL
