MODEL 1
REMARK minimizedAffinity -4.10697317
REMARK minimizedRMSD -1
REMARK  1 active torsions:
REMARK  status: ('A' for Active; 'I' for Inactive)
REMARK    1  A    between atoms: C1_2  and  C2_3 
ROOT
ATOM      1  C2  UNL d   1      -0.483   1.147   0.843  0.00  0.00    -0.073 A 
ATOM      2  C3  UNL d   1      -0.074   2.279   0.129  0.00  0.00    -0.002 A 
ATOM      3  C4  UNL d   1       0.807   2.153  -0.946  0.00  0.00     0.004 A 
ATOM      4  C5  UNL d   1       1.283   0.897  -1.321  0.00  0.00    -0.004 A 
ATOM      5  C6  UNL d   1       0.877  -0.247  -0.626  0.00  0.00    -0.075 A 
ATOM      6  C7  UNL d   1       1.382  -1.606  -1.015  0.00  0.00     0.076 C 
ATOM      7  C8  UNL d   1      -0.006  -0.113   0.454  0.00  0.00     0.001 A 
ENDROOT
BRANCH   1   8
ATOM      8  C1  UNL d   1      -1.439   1.277   2.000  0.00  0.00     0.053 C 
ATOM      9  C   UNL d   1      -2.275   2.544   1.910  0.00  0.00     0.018 C 
ENDBRANCH   1   8
TORSDOF 1
ENDMDL
