MODEL 1
REMARK minimizedAffinity -4.37059736
REMARK minimizedRMSD -1
REMARK  1 active torsions:
REMARK  status: ('A' for Active; 'I' for Inactive)
REMARK    1  A    between atoms: C1_2  and  C2_3 
ROOT
ATOM      1  C2  UNL d   1       0.672  -1.636  -1.682  0.00  0.00    -0.073 A 
ATOM      2  C3  UNL d   1       0.205  -1.651  -3.001  0.00  0.00    -0.002 A 
ATOM      3  C4  UNL d   1       0.094  -2.856  -3.695  0.00  0.00     0.004 A 
ATOM      4  C5  UNL d   1       0.440  -4.057  -3.077  0.00  0.00    -0.004 A 
ATOM      5  C6  UNL d   1       0.897  -4.064  -1.755  0.00  0.00    -0.075 A 
ATOM      6  C7  UNL d   1       1.276  -5.347  -1.076  0.00  0.00     0.076 C 
ATOM      7  C8  UNL d   1       1.009  -2.849  -1.065  0.00  0.00     0.001 A 
ENDROOT
BRANCH   1   8
ATOM      8  C1  UNL d   1       0.788  -0.337  -0.926  0.00  0.00     0.053 C 
ATOM      9  C   UNL d   1      -0.539   0.088  -0.316  0.00  0.00     0.018 C 
ENDBRANCH   1   8
TORSDOF 1
ENDMDL
