MODEL 1
REMARK minimizedAffinity -4.66870928
REMARK minimizedRMSD -1
REMARK  1 active torsions:
REMARK  status: ('A' for Active; 'I' for Inactive)
REMARK    1  A    between atoms: C1_2  and  C2_3 
ROOT
ATOM      1  C2  UNL d   1      -0.092  -0.060   0.353  0.00  0.00    -0.073 A 
ATOM      2  C3  UNL d   1      -0.833  -1.082   0.956  0.00  0.00    -0.002 A 
ATOM      3  C4  UNL d   1      -2.047  -0.797   1.582  0.00  0.00     0.004 A 
ATOM      4  C5  UNL d   1      -2.535   0.509   1.606  0.00  0.00    -0.004 A 
ATOM      5  C6  UNL d   1      -1.814   1.543   0.999  0.00  0.00    -0.075 A 
ATOM      6  C7  UNL d   1      -2.324   2.954   1.018  0.00  0.00     0.076 C 
ATOM      7  C8  UNL d   1      -0.595   1.249   0.374  0.00  0.00     0.001 A 
ENDROOT
BRANCH   1   8
ATOM      8  C1  UNL d   1       1.216  -0.364  -0.330  0.00  0.00     0.053 C 
ATOM      9  C   UNL d   1       1.226  -1.752  -0.952  0.00  0.00     0.018 C 
ENDBRANCH   1   8
TORSDOF 1
ENDMDL
