MODEL 1
REMARK minimizedAffinity 0.68748039
REMARK minimizedRMSD -1
REMARK  2 active torsions:
REMARK  status: ('A' for Active; 'I' for Inactive)
REMARK    1  A    between atoms: C1_2  and  C2_3 
REMARK    2  A    between atoms: C2_3  and  C3_4 
ROOT
ATOM      1  C3  UNL d   1       2.521  -0.001  -1.504  0.00  0.00    -0.075 A 
ATOM      2  C4  UNL d   1       2.191   1.347  -1.305  0.00  0.00     0.002 A 
ATOM      3  C5  UNL d   1       1.096   1.699  -0.515  0.00  0.00     0.002 A 
ATOM      4  C6  UNL d   1       0.312   0.710   0.075  0.00  0.00    -0.004 A 
ATOM      5  C7  UNL d   1       0.622  -0.633  -0.129  0.00  0.00     0.002 A 
ATOM      6  C8  UNL d   1       1.720  -0.988  -0.915  0.00  0.00     0.002 A 
ENDROOT
BRANCH   1   7
ATOM      7  C2  UNL d   1       3.723  -0.388  -2.333  0.00  0.00     0.056 C 
BRANCH   7   8
ATOM      8  C1  UNL d   1       4.061  -1.881  -2.283  0.00  0.00     0.007 C 
ATOM      9  C   UNL d   1       4.498  -2.444  -3.629  0.00  0.00     0.009 C 
ENDBRANCH   7   8
ENDBRANCH   1   7
TORSDOF 2
ENDMDL
