MODEL 1
REMARK minimizedAffinity -5.44218969
REMARK minimizedRMSD -1
REMARK  2 active torsions:
REMARK  status: ('A' for Active; 'I' for Inactive)
REMARK    1  A    between atoms: C1_2  and  C2_3 
REMARK    2  A    between atoms: C2_3  and  C3_4 
ROOT
ATOM      1  C3  UNL d   1      -4.083  -1.276  -5.610  0.00  0.00    -0.075 A 
ATOM      2  C4  UNL d   1      -5.019  -2.307  -5.443  0.00  0.00     0.002 A 
ATOM      3  C5  UNL d   1      -4.604  -3.639  -5.392  0.00  0.00     0.002 A 
ATOM      4  C6  UNL d   1      -3.254  -3.956  -5.518  0.00  0.00    -0.004 A 
ATOM      5  C7  UNL d   1      -2.317  -2.942  -5.702  0.00  0.00     0.002 A 
ATOM      6  C8  UNL d   1      -2.728  -1.608  -5.749  0.00  0.00     0.002 A 
ENDROOT
BRANCH   1   7
ATOM      7  C2  UNL d   1      -4.521   0.168  -5.637  0.00  0.00     0.056 C 
BRANCH   7   8
ATOM      8  C1  UNL d   1      -3.363   1.171  -5.662  0.00  0.00     0.007 C 
ATOM      9  C   UNL d   1      -3.824   2.622  -5.605  0.00  0.00     0.009 C 
ENDBRANCH   7   8
ENDBRANCH   1   7
TORSDOF 2
ENDMDL
