MODEL 1
REMARK minimizedAffinity 4.69738674
REMARK minimizedRMSD -1
REMARK  2 active torsions:
REMARK  status: ('A' for Active; 'I' for Inactive)
REMARK    1  A    between atoms: C1_2  and  C2_3 
REMARK    2  A    between atoms: C2_3  and  C3_4 
ROOT
ATOM      1  C3  UNL d   1      -3.676  -3.178  -4.865  0.00  0.00    -0.075 A 
ATOM      2  C4  UNL d   1      -3.149  -4.466  -4.690  0.00  0.00     0.002 A 
ATOM      3  C5  UNL d   1      -1.877  -4.643  -4.145  0.00  0.00     0.002 A 
ATOM      4  C6  UNL d   1      -1.113  -3.537  -3.779  0.00  0.00    -0.004 A 
ATOM      5  C7  UNL d   1      -1.619  -2.253  -3.964  0.00  0.00     0.002 A 
ATOM      6  C8  UNL d   1      -2.894  -2.073  -4.505  0.00  0.00     0.002 A 
ENDROOT
BRANCH   1   7
ATOM      7  C2  UNL d   1      -5.063  -2.981  -5.427  0.00  0.00     0.056 C 
BRANCH   7   8
ATOM      8  C1  UNL d   1      -5.631  -1.575  -5.208  0.00  0.00     0.007 C 
ATOM      9  C   UNL d   1      -5.996  -1.294  -3.756  0.00  0.00     0.009 C 
ENDBRANCH   7   8
ENDBRANCH   1   7
TORSDOF 2
ENDMDL
