MODEL 1
REMARK minimizedAffinity 7.26426268
REMARK minimizedRMSD -1
REMARK  2 active torsions:
REMARK  status: ('A' for Active; 'I' for Inactive)
REMARK    1  A    between atoms: C1_2  and  C2_3 
REMARK    2  A    between atoms: C2_3  and  C3_4 
ROOT
ATOM      1  C3  UNL d   1      -3.365  -3.662  -4.728  0.00  0.00    -0.075 A 
ATOM      2  C4  UNL d   1      -3.970  -2.397  -4.717  0.00  0.00     0.002 A 
ATOM      3  C5  UNL d   1      -5.282  -2.235  -5.164  0.00  0.00     0.002 A 
ATOM      4  C6  UNL d   1      -6.000  -3.331  -5.636  0.00  0.00    -0.004 A 
ATOM      5  C7  UNL d   1      -5.403  -4.590  -5.668  0.00  0.00     0.002 A 
ATOM      6  C8  UNL d   1      -4.092  -4.755  -5.217  0.00  0.00     0.002 A 
ENDROOT
BRANCH   1   7
ATOM      7  C2  UNL d   1      -1.956  -3.848  -4.218  0.00  0.00     0.056 C 
BRANCH   7   8
ATOM      8  C1  UNL d   1      -1.510  -5.312  -4.139  0.00  0.00     0.007 C 
ATOM      9  C   UNL d   1      -0.047  -5.515  -4.512  0.00  0.00     0.009 C 
ENDBRANCH   7   8
ENDBRANCH   1   7
TORSDOF 2
ENDMDL
