MODEL 1
REMARK minimizedAffinity 5.25323248
REMARK minimizedRMSD -1
REMARK  2 active torsions:
REMARK  status: ('A' for Active; 'I' for Inactive)
REMARK    1  A    between atoms: C1_2  and  C2_3 
REMARK    2  A    between atoms: C2_3  and  C3_4 
ROOT
ATOM      1  C3  UNL d   1       0.853  -0.040  -0.172  0.00  0.00    -0.075 A 
ATOM      2  C4  UNL d   1       1.430   0.618  -1.269  0.00  0.00     0.002 A 
ATOM      3  C5  UNL d   1       1.851   1.943  -1.159  0.00  0.00     0.002 A 
ATOM      4  C6  UNL d   1       1.692   2.630   0.043  0.00  0.00    -0.004 A 
ATOM      5  C7  UNL d   1       1.105   1.992   1.134  0.00  0.00     0.002 A 
ATOM      6  C8  UNL d   1       0.687   0.665   1.028  0.00  0.00     0.002 A 
ENDROOT
BRANCH   1   7
ATOM      7  C2  UNL d   1       0.423  -1.483  -0.276  0.00  0.00     0.056 C 
BRANCH   7   8
ATOM      8  C1  UNL d   1      -0.933  -1.682  -0.962  0.00  0.00     0.007 C 
ATOM      9  C   UNL d   1      -0.813  -2.133  -2.411  0.00  0.00     0.009 C 
ENDBRANCH   7   8
ENDBRANCH   1   7
TORSDOF 2
ENDMDL
