MODEL 1
REMARK minimizedAffinity -2.87876916
REMARK minimizedRMSD -1
REMARK  2 active torsions:
REMARK  status: ('A' for Active; 'I' for Inactive)
REMARK    1  A    between atoms: C1_2  and  C2_3 
REMARK    2  A    between atoms: C2_3  and  C3_4 
ROOT
ATOM      1  C3  UNL d   1      -2.700  -3.074  -4.223  0.00  0.00    -0.075 A 
ATOM      2  C4  UNL d   1      -2.698  -4.432  -4.573  0.00  0.00     0.002 A 
ATOM      3  C5  UNL d   1      -3.703  -4.955  -5.387  0.00  0.00     0.002 A 
ATOM      4  C6  UNL d   1      -4.726  -4.132  -5.851  0.00  0.00    -0.004 A 
ATOM      5  C7  UNL d   1      -4.748  -2.785  -5.496  0.00  0.00     0.002 A 
ATOM      6  C8  UNL d   1      -3.741  -2.258  -4.686  0.00  0.00     0.002 A 
ENDROOT
BRANCH   1   7
ATOM      7  C2  UNL d   1      -1.599  -2.495  -3.367  0.00  0.00     0.056 C 
BRANCH   7   8
ATOM      8  C1  UNL d   1      -2.077  -1.960  -2.013  0.00  0.00     0.007 C 
ATOM      9  C   UNL d   1      -1.049  -1.078  -1.318  0.00  0.00     0.009 C 
ENDBRANCH   7   8
ENDBRANCH   1   7
TORSDOF 2
ENDMDL
