MODEL 1
REMARK minimizedAffinity 2.03076696
REMARK minimizedRMSD -1
REMARK  2 active torsions:
REMARK  status: ('A' for Active; 'I' for Inactive)
REMARK    1  A    between atoms: C1_2  and  C2_3 
REMARK    2  A    between atoms: C2_3  and  C3_4 
ROOT
ATOM      1  C3  UNL d   1       0.116  -0.679  -1.456  0.00  0.00    -0.075 A 
ATOM      2  C4  UNL d   1       0.263   0.489  -2.218  0.00  0.00     0.002 A 
ATOM      3  C5  UNL d   1       0.566   1.704  -1.601  0.00  0.00     0.002 A 
ATOM      4  C6  UNL d   1       0.715   1.768  -0.218  0.00  0.00    -0.004 A 
ATOM      5  C7  UNL d   1       0.554   0.617   0.551  0.00  0.00     0.002 A 
ATOM      6  C8  UNL d   1       0.256  -0.600  -0.064  0.00  0.00     0.002 A 
ENDROOT
BRANCH   1   7
ATOM      7  C2  UNL d   1      -0.182  -2.002  -2.119  0.00  0.00     0.056 C 
BRANCH   7   8
ATOM      8  C1  UNL d   1      -1.347  -1.952  -3.114  0.00  0.00     0.007 C 
ATOM      9  C   UNL d   1      -1.385  -3.149  -4.055  0.00  0.00     0.009 C 
ENDBRANCH   7   8
ENDBRANCH   1   7
TORSDOF 2
ENDMDL
