MODEL 1
REMARK minimizedAffinity 3.99945307
REMARK minimizedRMSD -1
REMARK  2 active torsions:
REMARK  status: ('A' for Active; 'I' for Inactive)
REMARK    1  A    between atoms: C1_2  and  C2_3 
REMARK    2  A    between atoms: C2_3  and  C3_4 
ROOT
ATOM      1  C3  UNL d   1      -1.628  -2.791  -4.133  0.00  0.00    -0.075 A 
ATOM      2  C4  UNL d   1      -1.205  -1.883  -3.152  0.00  0.00     0.002 A 
ATOM      3  C5  UNL d   1       0.007  -2.072  -2.487  0.00  0.00     0.002 A 
ATOM      4  C6  UNL d   1       0.804  -3.174  -2.786  0.00  0.00    -0.004 A 
ATOM      5  C7  UNL d   1       0.386  -4.092  -3.747  0.00  0.00     0.002 A 
ATOM      6  C8  UNL d   1      -0.824  -3.903  -4.417  0.00  0.00     0.002 A 
ENDROOT
BRANCH   1   7
ATOM      7  C2  UNL d   1      -2.925  -2.577  -4.876  0.00  0.00     0.056 C 
BRANCH   7   8
ATOM      8  C1  UNL d   1      -3.845  -3.801  -4.892  0.00  0.00     0.007 C 
ATOM      9  C   UNL d   1      -4.889  -3.754  -6.000  0.00  0.00     0.009 C 
ENDBRANCH   7   8
ENDBRANCH   1   7
TORSDOF 2
ENDMDL
