MODEL 1
REMARK minimizedAffinity 2.80710196
REMARK minimizedRMSD -1
REMARK  2 active torsions:
REMARK  status: ('A' for Active; 'I' for Inactive)
REMARK    1  A    between atoms: C1_2  and  C2_3 
REMARK    2  A    between atoms: C2_3  and  C3_4 
ROOT
ATOM      1  C3  UNL d   1      -4.961   3.459  -5.916  0.00  0.00    -0.075 A 
ATOM      2  C4  UNL d   1      -5.580   4.711  -5.780  0.00  0.00     0.002 A 
ATOM      3  C5  UNL d   1      -4.816   5.877  -5.733  0.00  0.00     0.002 A 
ATOM      4  C6  UNL d   1      -3.427   5.807  -5.810  0.00  0.00    -0.004 A 
ATOM      5  C7  UNL d   1      -2.800   4.568  -5.928  0.00  0.00     0.002 A 
ATOM      6  C8  UNL d   1      -3.563   3.400  -5.980  0.00  0.00     0.002 A 
ENDROOT
BRANCH   1   7
ATOM      7  C2  UNL d   1      -5.784   2.196  -5.997  0.00  0.00     0.056 C 
BRANCH   7   8
ATOM      8  C1  UNL d   1      -4.990   0.915  -5.718  0.00  0.00     0.007 C 
ATOM      9  C   UNL d   1      -5.839  -0.201  -5.125  0.00  0.00     0.009 C 
ENDBRANCH   7   8
ENDBRANCH   1   7
TORSDOF 2
ENDMDL
