MODEL 1
REMARK minimizedAffinity 0.630980909
REMARK minimizedRMSD -1
REMARK  2 active torsions:
REMARK  status: ('A' for Active; 'I' for Inactive)
REMARK    1  A    between atoms: C1_2  and  C2_3 
REMARK    2  A    between atoms: C2_3  and  C3_4 
ROOT
ATOM      1  C3  UNL d   1       2.627   0.975  -0.752  0.00  0.00    -0.075 A 
ATOM      2  C4  UNL d   1       1.965  -0.236  -1.003  0.00  0.00     0.002 A 
ATOM      3  C5  UNL d   1       0.804  -0.567  -0.303  0.00  0.00     0.002 A 
ATOM      4  C6  UNL d   1       0.297   0.300   0.662  0.00  0.00    -0.004 A 
ATOM      5  C7  UNL d   1       0.956   1.498   0.932  0.00  0.00     0.002 A 
ATOM      6  C8  UNL d   1       2.115   1.834   0.230  0.00  0.00     0.002 A 
ENDROOT
BRANCH   1   7
ATOM      7  C2  UNL d   1       3.866   1.353  -1.526  0.00  0.00     0.056 C 
BRANCH   7   8
ATOM      8  C1  UNL d   1       5.144   0.663  -1.035  0.00  0.00     0.007 C 
ATOM      9  C   UNL d   1       5.337  -0.729  -1.620  0.00  0.00     0.009 C 
ENDBRANCH   7   8
ENDBRANCH   1   7
TORSDOF 2
ENDMDL
