MODEL 1
REMARK minimizedAffinity 2.77192283
REMARK minimizedRMSD -1
REMARK  2 active torsions:
REMARK  status: ('A' for Active; 'I' for Inactive)
REMARK    1  A    between atoms: C1_2  and  C2_3 
REMARK    2  A    between atoms: C2_3  and  C3_4 
ROOT
ATOM      1  C3  UNL d   1       0.300   0.579  -0.493  0.00  0.00    -0.075 A 
ATOM      2  C4  UNL d   1      -0.001  -0.117  -1.673  0.00  0.00     0.002 A 
ATOM      3  C5  UNL d   1      -0.447  -1.438  -1.622  0.00  0.00     0.002 A 
ATOM      4  C6  UNL d   1      -0.588  -2.082  -0.395  0.00  0.00    -0.004 A 
ATOM      5  C7  UNL d   1      -0.277  -1.405   0.782  0.00  0.00     0.002 A 
ATOM      6  C8  UNL d   1       0.166  -0.082   0.735  0.00  0.00     0.002 A 
ENDROOT
BRANCH   1   7
ATOM      7  C2  UNL d   1       0.755   2.018  -0.540  0.00  0.00     0.056 C 
BRANCH   7   8
ATOM      8  C1  UNL d   1       2.209   2.227  -0.101  0.00  0.00     0.007 C 
ATOM      9  C   UNL d   1       3.219   1.888  -1.189  0.00  0.00     0.009 C 
ENDBRANCH   7   8
ENDBRANCH   1   7
TORSDOF 2
ENDMDL
