MODEL 1
REMARK minimizedAffinity 0.832595408
REMARK minimizedRMSD -1
REMARK  2 active torsions:
REMARK  status: ('A' for Active; 'I' for Inactive)
REMARK    1  A    between atoms: C1_2  and  C2_3 
REMARK    2  A    between atoms: C2_3  and  C3_4 
ROOT
ATOM      1  C3  UNL d   1      -3.226   3.856  -5.863  0.00  0.00    -0.075 A 
ATOM      2  C4  UNL d   1      -3.743   5.153  -6.000  0.00  0.00     0.002 A 
ATOM      3  C5  UNL d   1      -5.121   5.370  -5.998  0.00  0.00     0.002 A 
ATOM      4  C6  UNL d   1      -5.998   4.296  -5.870  0.00  0.00    -0.004 A 
ATOM      5  C7  UNL d   1      -5.497   3.002  -5.750  0.00  0.00     0.002 A 
ATOM      6  C8  UNL d   1      -4.118   2.782  -5.747  0.00  0.00     0.002 A 
ENDROOT
BRANCH   1   7
ATOM      7  C2  UNL d   1      -1.735   3.617  -5.835  0.00  0.00     0.056 C 
BRANCH   7   8
ATOM      8  C1  UNL d   1      -0.903   4.890  -5.647  0.00  0.00     0.007 C 
ATOM      9  C   UNL d   1      -0.980   5.456  -4.235  0.00  0.00     0.009 C 
ENDBRANCH   7   8
ENDBRANCH   1   7
TORSDOF 2
ENDMDL
