MODEL 1
REMARK minimizedAffinity 0.0969467014
REMARK minimizedRMSD -1
REMARK  2 active torsions:
REMARK  status: ('A' for Active; 'I' for Inactive)
REMARK    1  A    between atoms: C1_2  and  C2_3 
REMARK    2  A    between atoms: C2_3  and  C3_4 
ROOT
ATOM      1  C3  UNL d   1      -1.229  -2.291  -2.605  0.00  0.00    -0.075 A 
ATOM      2  C4  UNL d   1      -0.350  -1.201  -2.515  0.00  0.00     0.002 A 
ATOM      3  C5  UNL d   1       0.161  -0.803  -1.279  0.00  0.00     0.002 A 
ATOM      4  C6  UNL d   1      -0.208  -1.481  -0.119  0.00  0.00    -0.004 A 
ATOM      5  C7  UNL d   1      -1.093  -2.554  -0.194  0.00  0.00     0.002 A 
ATOM      6  C8  UNL d   1      -1.602  -2.957  -1.430  0.00  0.00     0.002 A 
ENDROOT
BRANCH   1   7
ATOM      7  C2  UNL d   1      -1.762  -2.745  -3.942  0.00  0.00     0.056 C 
BRANCH   7   8
ATOM      8  C1  UNL d   1      -1.582  -4.243  -4.210  0.00  0.00     0.007 C 
ATOM      9  C   UNL d   1      -0.133  -4.636  -4.470  0.00  0.00     0.009 C 
ENDBRANCH   7   8
ENDBRANCH   1   7
TORSDOF 2
ENDMDL
