MODEL 1
REMARK minimizedAffinity -2.23281479
REMARK minimizedRMSD -1
REMARK  1 active torsions:
REMARK  status: ('A' for Active; 'I' for Inactive)
REMARK    1  A    between atoms: C1_2  and  C2_3 
ROOT
ATOM      1  C2  UNL d   1      -0.660  -1.605  -0.126  0.00  0.00    -0.076 A 
ATOM      2  C3  UNL d   1      -1.748  -2.302  -0.680  0.00  0.00     0.004 A 
ATOM      3  C4  UNL d   1      -1.552  -3.287  -1.646  0.00  0.00    -0.003 A 
ATOM      4  C5  UNL d   1      -0.265  -3.593  -2.073  0.00  0.00     0.000 A 
ATOM      5  C6  UNL d   1       0.828  -2.924  -1.522  0.00  0.00     0.000 A 
ATOM      6  C7  UNL d   1       0.649  -1.939  -0.536  0.00  0.00    -0.073 A 
ATOM      7  C8  UNL d   1       1.862  -1.245   0.020  0.00  0.00     0.078 C 
ENDROOT
BRANCH   1   8
ATOM      8  C1  UNL d   1      -0.935  -0.527   0.898  0.00  0.00     0.053 C 
ATOM      9  C   UNL d   1      -0.763   0.873   0.331  0.00  0.00     0.018 C 
ENDBRANCH   1   8
TORSDOF 1
ENDMDL
