MODEL 1
REMARK minimizedAffinity -5.0566287
REMARK minimizedRMSD -1
REMARK  1 active torsions:
REMARK  status: ('A' for Active; 'I' for Inactive)
REMARK    1  A    between atoms: C1_2  and  C2_3 
ROOT
ATOM      1  C2  UNL d   1       0.192   0.321   0.122  0.00  0.00    -0.076 A 
ATOM      2  C3  UNL d   1      -1.185   0.517  -0.082  0.00  0.00     0.004 A 
ATOM      3  C4  UNL d   1      -1.733   1.798  -0.101  0.00  0.00    -0.003 A 
ATOM      4  C5  UNL d   1      -0.912   2.905   0.084  0.00  0.00     0.000 A 
ATOM      5  C6  UNL d   1       0.459   2.731   0.271  0.00  0.00     0.000 A 
ATOM      6  C7  UNL d   1       1.029   1.447   0.276  0.00  0.00    -0.073 A 
ATOM      7  C8  UNL d   1       2.513   1.317   0.487  0.00  0.00     0.078 C 
ENDROOT
BRANCH   1   8
ATOM      8  C1  UNL d   1       0.725  -1.093   0.159  0.00  0.00     0.053 C 
ATOM      9  C   UNL d   1      -0.017  -2.021  -0.790  0.00  0.00     0.018 C 
ENDBRANCH   1   8
TORSDOF 1
ENDMDL
