MODEL 1
REMARK minimizedAffinity -5.76719046
REMARK minimizedRMSD -1
REMARK  1 active torsions:
REMARK  status: ('A' for Active; 'I' for Inactive)
REMARK    1  A    between atoms: C1_2  and  C2_3 
ROOT
ATOM      1  C2  UNL d   1      -0.133  -0.121   0.144  0.00  0.00    -0.076 A 
ATOM      2  C3  UNL d   1       1.139   0.392  -0.164  0.00  0.00     0.004 A 
ATOM      3  C4  UNL d   1       1.371   1.767  -0.188  0.00  0.00    -0.003 A 
ATOM      4  C5  UNL d   1       0.335   2.650   0.097  0.00  0.00     0.000 A 
ATOM      5  C6  UNL d   1      -0.928   2.157   0.422  0.00  0.00     0.000 A 
ATOM      6  C7  UNL d   1      -1.175   0.774   0.466  0.00  0.00    -0.073 A 
ATOM      7  C8  UNL d   1      -2.558   0.299   0.817  0.00  0.00     0.078 C 
ENDROOT
BRANCH   1   8
ATOM      8  C1  UNL d   1      -0.332  -1.620   0.128  0.00  0.00     0.053 C 
ATOM      9  C   UNL d   1       0.190  -2.263  -1.148  0.00  0.00     0.018 C 
ENDBRANCH   1   8
TORSDOF 1
ENDMDL
