MODEL 1
REMARK minimizedAffinity -5.78227472
REMARK minimizedRMSD -1
REMARK  1 active torsions:
REMARK  status: ('A' for Active; 'I' for Inactive)
REMARK    1  A    between atoms: C1_2  and  C2_3 
ROOT
ATOM      1  C2  UNL d   1       0.057   0.176  -0.157  0.00  0.00    -0.076 A 
ATOM      2  C3  UNL d   1       1.287   0.592  -0.696  0.00  0.00     0.004 A 
ATOM      3  C4  UNL d   1       1.540   1.939  -0.951  0.00  0.00    -0.003 A 
ATOM      4  C5  UNL d   1       0.568   2.892  -0.669  0.00  0.00     0.000 A 
ATOM      5  C6  UNL d   1      -0.651   2.499  -0.117  0.00  0.00     0.000 A 
ATOM      6  C7  UNL d   1      -0.916   1.147   0.161  0.00  0.00    -0.073 A 
ATOM      7  C8  UNL d   1      -2.250   0.780   0.751  0.00  0.00     0.078 C 
ENDROOT
BRANCH   1   8
ATOM      8  C1  UNL d   1      -0.171  -1.301   0.073  0.00  0.00     0.053 C 
ATOM      9  C   UNL d   1      -0.113  -2.107  -1.216  0.00  0.00     0.018 C 
ENDBRANCH   1   8
TORSDOF 1
ENDMDL
