MODEL 1
REMARK minimizedAffinity -5.84996462
REMARK minimizedRMSD -1
REMARK  1 active torsions:
REMARK  status: ('A' for Active; 'I' for Inactive)
REMARK    1  A    between atoms: C1_2  and  C2_3 
ROOT
ATOM      1  C2  UNL d   1      -0.064   0.215   0.172  0.00  0.00    -0.076 A 
ATOM      2  C3  UNL d   1       1.094   0.926  -0.189  0.00  0.00     0.004 A 
ATOM      3  C4  UNL d   1       1.032   2.279  -0.518  0.00  0.00    -0.003 A 
ATOM      4  C5  UNL d   1      -0.189   2.943  -0.492  0.00  0.00     0.000 A 
ATOM      5  C6  UNL d   1      -1.345   2.258  -0.119  0.00  0.00     0.000 A 
ATOM      6  C7  UNL d   1      -1.297   0.898   0.231  0.00  0.00    -0.073 A 
ATOM      7  C8  UNL d   1      -2.576   0.207   0.619  0.00  0.00     0.078 C 
ENDROOT
BRANCH   1   8
ATOM      8  C1  UNL d   1       0.061  -1.258   0.492  0.00  0.00     0.053 C 
ATOM      9  C   UNL d   1      -0.048  -2.135  -0.745  0.00  0.00     0.018 C 
ENDBRANCH   1   8
TORSDOF 1
ENDMDL
