MODEL 1
REMARK minimizedAffinity -2.08299565
REMARK minimizedRMSD -1
REMARK  1 active torsions:
REMARK  status: ('A' for Active; 'I' for Inactive)
REMARK    1  A    between atoms: C1_2  and  C2_3 
ROOT
ATOM      1  C2  UNL d   1       0.206   0.632  -0.373  0.00  0.00    -0.076 A 
ATOM      2  C3  UNL d   1       1.408   1.295  -0.676  0.00  0.00     0.004 A 
ATOM      3  C4  UNL d   1       1.630   2.605  -0.255  0.00  0.00    -0.003 A 
ATOM      4  C5  UNL d   1       0.654   3.273   0.476  0.00  0.00     0.000 A 
ATOM      5  C6  UNL d   1      -0.537   2.625   0.801  0.00  0.00     0.000 A 
ATOM      6  C7  UNL d   1      -0.770   1.298   0.398  0.00  0.00    -0.073 A 
ATOM      7  C8  UNL d   1      -2.075   0.650   0.770  0.00  0.00     0.078 C 
ENDROOT
BRANCH   1   8
ATOM      8  C1  UNL d   1       0.010  -0.779  -0.880  0.00  0.00     0.053 C 
ATOM      9  C   UNL d   1       0.575  -1.823   0.071  0.00  0.00     0.018 C 
ENDBRANCH   1   8
TORSDOF 1
ENDMDL
