MODEL 1
REMARK minimizedAffinity -6.48940802
REMARK minimizedRMSD -1
REMARK  1 active torsions:
REMARK  status: ('A' for Active; 'I' for Inactive)
REMARK    1  A    between atoms: C1_2  and  C2_3 
ROOT
ATOM      1  C2  UNL d   1      -0.208  -0.047  -0.115  0.00  0.00    -0.076 A 
ATOM      2  C3  UNL d   1       1.185   0.139  -0.091  0.00  0.00     0.004 A 
ATOM      3  C4  UNL d   1       1.738   1.370   0.259  0.00  0.00    -0.003 A 
ATOM      4  C5  UNL d   1       0.907   2.434   0.591  0.00  0.00     0.000 A 
ATOM      5  C6  UNL d   1      -0.476   2.262   0.590  0.00  0.00     0.000 A 
ATOM      6  C7  UNL d   1      -1.050   1.024   0.255  0.00  0.00    -0.073 A 
ATOM      7  C8  UNL d   1      -2.549   0.896   0.264  0.00  0.00     0.078 C 
ENDROOT
BRANCH   1   8
ATOM      8  C1  UNL d   1      -0.752  -1.396  -0.529  0.00  0.00     0.053 C 
ATOM      9  C   UNL d   1      -0.111  -1.915  -1.807  0.00  0.00     0.018 C 
ENDBRANCH   1   8
TORSDOF 1
ENDMDL
