MODEL 1
REMARK minimizedAffinity -3.22942781
REMARK minimizedRMSD -1
REMARK  1 active torsions:
REMARK  status: ('A' for Active; 'I' for Inactive)
REMARK    1  A    between atoms: C1_2  and  C2_3 
ROOT
ATOM      1  C2  UNL d   1      -0.246  -0.198  -0.080  0.00  0.00    -0.076 A 
ATOM      2  C3  UNL d   1      -1.507   0.421  -0.029  0.00  0.00     0.004 A 
ATOM      3  C4  UNL d   1      -1.625   1.790   0.203  0.00  0.00    -0.003 A 
ATOM      4  C5  UNL d   1      -0.484   2.563   0.388  0.00  0.00     0.000 A 
ATOM      5  C6  UNL d   1       0.776   1.969   0.323  0.00  0.00     0.000 A 
ATOM      6  C7  UNL d   1       0.913   0.592   0.073  0.00  0.00    -0.073 A 
ATOM      7  C8  UNL d   1       2.296   0.003   0.019  0.00  0.00     0.078 C 
ENDROOT
BRANCH   1   8
ATOM      8  C1  UNL d   1      -0.181  -1.691  -0.309  0.00  0.00     0.053 C 
ATOM      9  C   UNL d   1      -0.352  -2.065  -1.773  0.00  0.00     0.018 C 
ENDBRANCH   1   8
TORSDOF 1
ENDMDL
