MODEL 1
REMARK minimizedAffinity -3.62844658
REMARK minimizedRMSD -1
REMARK  1 active torsions:
REMARK  status: ('A' for Active; 'I' for Inactive)
REMARK    1  A    between atoms: C1_2  and  C2_3 
ROOT
ATOM      1  C2  UNL d   1       0.005  -0.137  -0.015  0.00  0.00    -0.076 A 
ATOM      2  C3  UNL d   1      -1.159   0.633  -0.181  0.00  0.00     0.004 A 
ATOM      3  C4  UNL d   1      -1.107   2.026  -0.159  0.00  0.00    -0.003 A 
ATOM      4  C5  UNL d   1       0.111   2.671   0.028  0.00  0.00     0.000 A 
ATOM      5  C6  UNL d   1       1.278   1.923   0.176  0.00  0.00     0.000 A 
ATOM      6  C7  UNL d   1       1.245   0.519   0.141  0.00  0.00    -0.073 A 
ATOM      7  C8  UNL d   1       2.534  -0.238   0.313  0.00  0.00     0.078 C 
ENDROOT
BRANCH   1   8
ATOM      8  C1  UNL d   1      -0.117  -1.644  -0.020  0.00  0.00     0.053 C 
ATOM      9  C   UNL d   1      -0.063  -2.228  -1.423  0.00  0.00     0.018 C 
ENDBRANCH   1   8
TORSDOF 1
ENDMDL
