MODEL 1
REMARK minimizedAffinity -1.21205544
REMARK minimizedRMSD -1
REMARK  1 active torsions:
REMARK  status: ('A' for Active; 'I' for Inactive)
REMARK    1  A    between atoms: C1_2  and  C2_3 
ROOT
ATOM      1  C2  UNL d   1      -0.597   0.819   0.682  0.00  0.00    -0.076 A 
ATOM      2  C3  UNL d   1      -0.526   2.146   1.139  0.00  0.00     0.004 A 
ATOM      3  C4  UNL d   1       0.198   3.109   0.438  0.00  0.00    -0.003 A 
ATOM      4  C5  UNL d   1       0.862   2.760  -0.733  0.00  0.00     0.000 A 
ATOM      5  C6  UNL d   1       0.788   1.452  -1.211  0.00  0.00     0.000 A 
ATOM      6  C7  UNL d   1       0.049   0.473  -0.524  0.00  0.00    -0.073 A 
ATOM      7  C8  UNL d   1       0.008  -0.923  -1.082  0.00  0.00     0.078 C 
ENDROOT
BRANCH   1   8
ATOM      8  C1  UNL d   1      -1.374  -0.188   1.499  0.00  0.00     0.053 C 
ATOM      9  C   UNL d   1      -2.829   0.213   1.689  0.00  0.00     0.018 C 
ENDBRANCH   1   8
TORSDOF 1
ENDMDL
