MODEL 1
REMARK minimizedAffinity -4.23012304
REMARK minimizedRMSD -1
REMARK  1 active torsions:
REMARK  status: ('A' for Active; 'I' for Inactive)
REMARK    1  A    between atoms: C1_2  and  C2_3 
ROOT
ATOM      1  C2  UNL d   1       0.213   0.518  -0.145  0.00  0.00    -0.076 A 
ATOM      2  C3  UNL d   1       1.114   1.324  -0.862  0.00  0.00     0.004 A 
ATOM      3  C4  UNL d   1       0.922   2.701  -0.963  0.00  0.00    -0.003 A 
ATOM      4  C5  UNL d   1      -0.175   3.294  -0.346  0.00  0.00     0.000 A 
ATOM      5  C6  UNL d   1      -1.069   2.512   0.384  0.00  0.00     0.000 A 
ATOM      6  C7  UNL d   1      -0.880   1.125   0.509  0.00  0.00    -0.073 A 
ATOM      7  C8  UNL d   1      -1.879   0.329   1.304  0.00  0.00     0.078 C 
ENDROOT
BRANCH   1   8
ATOM      8  C1  UNL d   1       0.458  -0.973  -0.093  0.00  0.00     0.053 C 
ATOM      9  C   UNL d   1      -0.132  -1.703  -1.291  0.00  0.00     0.018 C 
ENDBRANCH   1   8
TORSDOF 1
ENDMDL
