MODEL 1
REMARK minimizedAffinity -5.17380238
REMARK minimizedRMSD -1
REMARK  1 active torsions:
REMARK  status: ('A' for Active; 'I' for Inactive)
REMARK    1  A    between atoms: C1_2  and  C2_3 
ROOT
ATOM      1  C2  UNL d   1      -0.081   0.489   0.524  0.00  0.00    -0.077 A 
ATOM      2  C3  UNL d   1      -0.849   0.513   1.697  0.00  0.00     0.002 A 
ATOM      3  C4  UNL d   1      -1.787   1.525   1.907  0.00  0.00     0.002 A 
ATOM      4  C5  UNL d   1      -1.969   2.519   0.947  0.00  0.00    -0.004 A 
ATOM      5  C6  UNL d   1      -1.210   2.505  -0.222  0.00  0.00     0.002 A 
ATOM      6  C7  UNL d   1      -0.271   1.495  -0.433  0.00  0.00     0.002 A 
ENDROOT
BRANCH   1   7
ATOM      7  C1  UNL d   1       0.896  -0.629   0.273  0.00  0.00     0.055 C 
ATOM      8  C   UNL d   1       1.489  -0.543  -1.126  0.00  0.00     0.019 C 
ENDBRANCH   1   7
TORSDOF 1
ENDMDL
