MODEL 1
REMARK minimizedAffinity -4.64453125
REMARK minimizedRMSD -1
REMARK  1 active torsions:
REMARK  status: ('A' for Active; 'I' for Inactive)
REMARK    1  A    between atoms: C1_2  and  C2_3 
ROOT
ATOM      1  C2  UNL d   1       0.567  -1.172  -1.293  0.00  0.00    -0.077 A 
ATOM      2  C3  UNL d   1      -0.038  -1.165  -2.558  0.00  0.00     0.002 A 
ATOM      3  C4  UNL d   1      -0.243  -2.360  -3.250  0.00  0.00     0.002 A 
ATOM      4  C5  UNL d   1       0.151  -3.571  -2.684  0.00  0.00    -0.004 A 
ATOM      5  C6  UNL d   1       0.755  -3.588  -1.428  0.00  0.00     0.002 A 
ATOM      6  C7  UNL d   1       0.961  -2.394  -0.735  0.00  0.00     0.002 A 
ENDROOT
BRANCH   1   7
ATOM      7  C1  UNL d   1       0.743   0.111  -0.524  0.00  0.00     0.055 C 
ATOM      8  C   UNL d   1       0.034   0.053   0.820  0.00  0.00     0.019 C 
ENDBRANCH   1   7
TORSDOF 1
ENDMDL
