MODEL 1
REMARK minimizedAffinity -5.78870249
REMARK minimizedRMSD -1
REMARK  1 active torsions:
REMARK  status: ('A' for Active; 'I' for Inactive)
REMARK    1  A    between atoms: C1_2  and  C2_3 
ROOT
ATOM      1  C2  UNL d   1      -0.634   1.395   0.476  0.00  0.00    -0.077 A 
ATOM      2  C3  UNL d   1      -0.261   2.236  -0.582  0.00  0.00     0.002 A 
ATOM      3  C4  UNL d   1      -0.851   3.493  -0.726  0.00  0.00     0.002 A 
ATOM      4  C5  UNL d   1      -1.813   3.922   0.186  0.00  0.00    -0.004 A 
ATOM      5  C6  UNL d   1      -2.192   3.091   1.240  0.00  0.00     0.002 A 
ATOM      6  C7  UNL d   1      -1.605   1.834   1.385  0.00  0.00     0.002 A 
ENDROOT
BRANCH   1   7
ATOM      7  C1  UNL d   1       0.037   0.058   0.661  0.00  0.00     0.055 C 
ATOM      8  C   UNL d   1       0.943  -0.274  -0.515  0.00  0.00     0.019 C 
ENDBRANCH   1   7
TORSDOF 1
ENDMDL
