MODEL 1
REMARK minimizedAffinity -5.08482361
REMARK minimizedRMSD -1
REMARK  1 active torsions:
REMARK  status: ('A' for Active; 'I' for Inactive)
REMARK    1  A    between atoms: C1_2  and  C2_3 
ROOT
ATOM      1  C2  UNL d   1      -1.070   0.532   0.503  0.00  0.00    -0.077 A 
ATOM      2  C3  UNL d   1      -0.455  -0.208   1.522  0.00  0.00     0.002 A 
ATOM      3  C4  UNL d   1       0.746  -0.879   1.282  0.00  0.00     0.002 A 
ATOM      4  C5  UNL d   1       1.344  -0.812   0.026  0.00  0.00    -0.004 A 
ATOM      5  C6  UNL d   1       0.740  -0.080  -0.995  0.00  0.00     0.002 A 
ATOM      6  C7  UNL d   1      -0.461   0.590  -0.758  0.00  0.00     0.002 A 
ENDROOT
BRANCH   1   7
ATOM      7  C1  UNL d   1      -2.339   1.296   0.774  0.00  0.00     0.055 C 
ATOM      8  C   UNL d   1      -2.141   2.327   1.876  0.00  0.00     0.019 C 
ENDBRANCH   1   7
TORSDOF 1
ENDMDL
