MODEL 1
REMARK minimizedAffinity -3.85204959
REMARK minimizedRMSD -1
REMARK  1 active torsions:
REMARK  status: ('A' for Active; 'I' for Inactive)
REMARK    1  A    between atoms: C1_2  and  C2_3 
ROOT
ATOM      1  C2  UNL d   1      -0.088   0.257   0.269  0.00  0.00    -0.077 A 
ATOM      2  C3  UNL d   1      -0.041   1.532  -0.312  0.00  0.00     0.002 A 
ATOM      3  C4  UNL d   1      -0.748   2.593   0.257  0.00  0.00     0.002 A 
ATOM      4  C5  UNL d   1      -1.504   2.391   1.410  0.00  0.00    -0.004 A 
ATOM      5  C6  UNL d   1      -1.559   1.126   1.993  0.00  0.00     0.002 A 
ATOM      6  C7  UNL d   1      -0.853   0.064   1.426  0.00  0.00     0.002 A 
ENDROOT
BRANCH   1   7
ATOM      7  C1  UNL d   1       0.714  -0.878  -0.314  0.00  0.00     0.055 C 
ATOM      8  C   UNL d   1       0.014  -1.488  -1.520  0.00  0.00     0.019 C 
ENDBRANCH   1   7
TORSDOF 1
ENDMDL
