MODEL 1
REMARK minimizedAffinity -1.23391259
REMARK minimizedRMSD -1
REMARK  1 active torsions:
REMARK  status: ('A' for Active; 'I' for Inactive)
REMARK    1  A    between atoms: C1_2  and  C2_3 
ROOT
ATOM      1  C2  UNL d   1       0.288  -0.508  -0.087  0.00  0.00    -0.077 A 
ATOM      2  C3  UNL d   1      -0.336   0.739  -0.233  0.00  0.00     0.002 A 
ATOM      3  C4  UNL d   1      -1.114   1.266   0.800  0.00  0.00     0.002 A 
ATOM      4  C5  UNL d   1      -1.271   0.555   1.987  0.00  0.00    -0.004 A 
ATOM      5  C6  UNL d   1      -0.656  -0.687   2.142  0.00  0.00     0.002 A 
ATOM      6  C7  UNL d   1       0.120  -1.216   1.110  0.00  0.00     0.002 A 
ENDROOT
BRANCH   1   7
ATOM      7  C1  UNL d   1       1.167  -1.055  -1.181  0.00  0.00     0.055 C 
ATOM      8  C   UNL d   1       1.075  -2.572  -1.258  0.00  0.00     0.019 C 
ENDBRANCH   1   7
TORSDOF 1
ENDMDL
