MODEL 1
REMARK minimizedAffinity -5.3682704
REMARK minimizedRMSD -1
REMARK  1 active torsions:
REMARK  status: ('A' for Active; 'I' for Inactive)
REMARK    1  A    between atoms: C1_2  and  C2_3 
ROOT
ATOM      1  C2  UNL d   1      -0.933   1.948   0.735  0.00  0.00    -0.077 A 
ATOM      2  C3  UNL d   1      -1.517   1.539   1.942  0.00  0.00     0.002 A 
ATOM      3  C4  UNL d   1      -1.241   0.275   2.467  0.00  0.00     0.002 A 
ATOM      4  C5  UNL d   1      -0.377  -0.588   1.794  0.00  0.00    -0.004 A 
ATOM      5  C6  UNL d   1       0.207  -0.191   0.592  0.00  0.00     0.002 A 
ATOM      6  C7  UNL d   1      -0.069   1.072   0.065  0.00  0.00     0.002 A 
ENDROOT
BRANCH   1   7
ATOM      7  C1  UNL d   1      -1.190   3.330   0.192  0.00  0.00     0.055 C 
ATOM      8  C   UNL d   1      -0.072   3.776  -0.738  0.00  0.00     0.019 C 
ENDBRANCH   1   7
TORSDOF 1
ENDMDL
