MODEL 1
REMARK minimizedAffinity -5.66684341
REMARK minimizedRMSD -1
REMARK  1 active torsions:
REMARK  status: ('A' for Active; 'I' for Inactive)
REMARK    1  A    between atoms: C1_2  and  C2_3 
ROOT
ATOM      1  C2  UNL d   1      -0.575   1.177  -0.490  0.00  0.00    -0.077 A 
ATOM      2  C3  UNL d   1      -0.164   2.377  -1.087  0.00  0.00     0.002 A 
ATOM      3  C4  UNL d   1      -0.783   3.582  -0.748  0.00  0.00     0.002 A 
ATOM      4  C5  UNL d   1      -1.811   3.599   0.191  0.00  0.00    -0.004 A 
ATOM      5  C6  UNL d   1      -2.228   2.410   0.789  0.00  0.00     0.002 A 
ATOM      6  C7  UNL d   1      -1.612   1.205   0.451  0.00  0.00     0.002 A 
ENDROOT
BRANCH   1   7
ATOM      7  C1  UNL d   1       0.124  -0.117  -0.818  0.00  0.00     0.055 C 
ATOM      8  C   UNL d   1       0.465  -0.897   0.443  0.00  0.00     0.019 C 
ENDBRANCH   1   7
TORSDOF 1
ENDMDL
