MODEL 1
REMARK minimizedAffinity -4.42587185
REMARK minimizedRMSD -1
REMARK  1 active torsions:
REMARK  status: ('A' for Active; 'I' for Inactive)
REMARK    1  A    between atoms: C1_2  and  C2_3 
ROOT
ATOM      1  C2  UNL d   1       0.057  -0.045   0.082  0.00  0.00    -0.077 A 
ATOM      2  C3  UNL d   1      -1.028   0.618  -0.509  0.00  0.00     0.002 A 
ATOM      3  C4  UNL d   1      -1.919   1.353   0.276  0.00  0.00     0.002 A 
ATOM      4  C5  UNL d   1      -1.732   1.434   1.654  0.00  0.00    -0.004 A 
ATOM      5  C6  UNL d   1      -0.658   0.777   2.251  0.00  0.00     0.002 A 
ATOM      6  C7  UNL d   1       0.233   0.041   1.469  0.00  0.00     0.002 A 
ENDROOT
BRANCH   1   7
ATOM      7  C1  UNL d   1       1.047  -0.797  -0.768  0.00  0.00     0.055 C 
ATOM      8  C   UNL d   1       0.343  -1.707  -1.764  0.00  0.00     0.019 C 
ENDBRANCH   1   7
TORSDOF 1
ENDMDL
