MODEL 1
REMARK minimizedAffinity -4.49897814
REMARK minimizedRMSD -1
REMARK  1 active torsions:
REMARK  status: ('A' for Active; 'I' for Inactive)
REMARK    1  A    between atoms: C1_2  and  C2_3 
ROOT
ATOM      1  C2  UNL d   1       0.442  -1.137  -0.911  0.00  0.00    -0.077 A 
ATOM      2  C3  UNL d   1      -0.489  -1.170  -1.959  0.00  0.00     0.002 A 
ATOM      3  C4  UNL d   1      -0.483  -2.223  -2.877  0.00  0.00     0.002 A 
ATOM      4  C5  UNL d   1       0.449  -3.251  -2.753  0.00  0.00    -0.004 A 
ATOM      5  C6  UNL d   1       1.380  -3.227  -1.716  0.00  0.00     0.002 A 
ATOM      6  C7  UNL d   1       1.376  -2.175  -0.798  0.00  0.00     0.002 A 
ENDROOT
BRANCH   1   7
ATOM      7  C1  UNL d   1       0.405  -0.029   0.108  0.00  0.00     0.055 C 
ATOM      8  C   UNL d   1      -0.308  -0.469   1.379  0.00  0.00     0.019 C 
ENDBRANCH   1   7
TORSDOF 1
ENDMDL
