MODEL 1
REMARK minimizedAffinity -3.28004861
REMARK minimizedRMSD -1
REMARK  1 active torsions:
REMARK  status: ('A' for Active; 'I' for Inactive)
REMARK    1  A    between atoms: C1_2  and  C2_3 
ROOT
ATOM      1  C2  UNL d   1       0.351  -0.736  -0.309  0.00  0.00    -0.077 A 
ATOM      2  C3  UNL d   1      -0.076   0.501  -0.811  0.00  0.00     0.002 A 
ATOM      3  C4  UNL d   1      -0.859   1.349  -0.027  0.00  0.00     0.002 A 
ATOM      4  C5  UNL d   1      -1.218   0.972   1.266  0.00  0.00    -0.004 A 
ATOM      5  C6  UNL d   1      -0.800  -0.258   1.773  0.00  0.00     0.002 A 
ATOM      6  C7  UNL d   1      -0.018  -1.108   0.990  0.00  0.00     0.002 A 
ENDROOT
BRANCH   1   7
ATOM      7  C1  UNL d   1       1.237  -1.631  -1.136  0.00  0.00     0.055 C 
ATOM      8  C   UNL d   1       0.481  -2.220  -2.318  0.00  0.00     0.019 C 
ENDBRANCH   1   7
TORSDOF 1
ENDMDL
