MODEL 1
REMARK minimizedAffinity -5.6315279
REMARK minimizedRMSD -1
REMARK  1 active torsions:
REMARK  status: ('A' for Active; 'I' for Inactive)
REMARK    1  A    between atoms: C1_2  and  C2_3 
ROOT
ATOM      1  C2  UNL d   1      -0.329   0.949   0.496  0.00  0.00    -0.077 A 
ATOM      2  C3  UNL d   1       0.039   2.089  -0.233  0.00  0.00     0.002 A 
ATOM      3  C4  UNL d   1      -0.734   3.250  -0.165  0.00  0.00     0.002 A 
ATOM      4  C5  UNL d   1      -1.875   3.284   0.633  0.00  0.00    -0.004 A 
ATOM      5  C6  UNL d   1      -2.250   2.155   1.360  0.00  0.00     0.002 A 
ATOM      6  C7  UNL d   1      -1.480   0.993   1.292  0.00  0.00     0.002 A 
ENDROOT
BRANCH   1   7
ATOM      7  C1  UNL d   1       0.530  -0.289   0.462  0.00  0.00     0.055 C 
ATOM      8  C   UNL d   1       1.574  -0.208  -0.642  0.00  0.00     0.019 C 
ENDBRANCH   1   7
TORSDOF 1
ENDMDL
