MODEL 1
REMARK minimizedAffinity -5.29974794
REMARK minimizedRMSD -1
REMARK  1 active torsions:
REMARK  status: ('A' for Active; 'I' for Inactive)
REMARK    1  A    between atoms: C1_2  and  C2_3 
ROOT
ATOM      1  C2  UNL d   1      -0.763   0.444   0.567  0.00  0.00    -0.077 A 
ATOM      2  C3  UNL d   1      -1.674   1.081   1.421  0.00  0.00     0.002 A 
ATOM      3  C4  UNL d   1      -1.948   2.442   1.273  0.00  0.00     0.002 A 
ATOM      4  C5  UNL d   1      -1.319   3.176   0.270  0.00  0.00    -0.004 A 
ATOM      5  C6  UNL d   1      -0.410   2.552  -0.583  0.00  0.00     0.002 A 
ATOM      6  C7  UNL d   1      -0.134   1.192  -0.436  0.00  0.00     0.002 A 
ENDROOT
BRANCH   1   7
ATOM      7  C1  UNL d   1      -0.503  -1.035   0.694  0.00  0.00     0.055 C 
ATOM      8  C   UNL d   1       0.322  -1.554  -0.474  0.00  0.00     0.019 C 
ENDBRANCH   1   7
TORSDOF 1
ENDMDL
