MODEL 1
REMARK minimizedAffinity 10.793231
REMARK minimizedRMSD -1
REMARK  0 active torsions:
REMARK  status: ('A' for Active; 'I' for Inactive)
ROOT
ATOM      1  C4' PXY d   1       3.805   0.053   0.568  0.00  0.00     0.077 C 
ATOM      2  C1' PXY d   1       1.722  -2.158   5.486  0.00  0.00     0.077 C 
ATOM      3  C1  PXY d   1       2.257  -1.573   4.193  0.00  0.00    -0.082 A 
ATOM      4  C2  PXY d   1       3.332  -2.102   3.632  0.00  0.00     0.003 A 
ATOM      5  C3  PXY d   1       3.847  -1.566   2.480  0.00  0.00     0.003 A 
ATOM      6  C4  PXY d   1       3.225  -0.511   1.868  0.00  0.00    -0.082 A 
ATOM      7  C5  PXY d   1       2.121   0.027   2.429  0.00  0.00     0.003 A 
ATOM      8  C6  PXY d   1       1.638  -0.506   3.620  0.00  0.00     0.003 A 
ENDROOT
TORSDOF 0
ENDMDL
