MODEL 1
REMARK minimizedAffinity 10.2684383
REMARK minimizedRMSD -1
REMARK  0 active torsions:
REMARK  status: ('A' for Active; 'I' for Inactive)
ROOT
ATOM      1  C4' PXY d   1       1.583  -5.999   5.589  0.00  0.00     0.077 C 
ATOM      2  C1' PXY d   1       2.849  -1.147   2.712  0.00  0.00     0.077 C 
ATOM      3  C1  PXY d   1       2.516  -2.413   3.478  0.00  0.00    -0.082 A 
ATOM      4  C2  PXY d   1       2.943  -3.581   3.027  0.00  0.00     0.003 A 
ATOM      5  C3  PXY d   1       2.624  -4.739   3.690  0.00  0.00     0.003 A 
ATOM      6  C4  PXY d   1       1.904  -4.695   4.854  0.00  0.00    -0.082 A 
ATOM      7  C5  PXY d   1       1.474  -3.505   5.326  0.00  0.00     0.003 A 
ATOM      8  C6  PXY d   1       1.774  -2.346   4.616  0.00  0.00     0.003 A 
ENDROOT
TORSDOF 0
ENDMDL
