MODEL 1
REMARK minimizedAffinity 6.62948799
REMARK minimizedRMSD -1
REMARK  0 active torsions:
REMARK  status: ('A' for Active; 'I' for Inactive)
ROOT
ATOM      1  C4' PXY d   1       2.083  -3.299   4.907  0.00  0.00     0.077 C 
ATOM      2  C1' PXY d   1       3.128   1.302   1.568  0.00  0.00     0.077 C 
ATOM      3  C1  PXY d   1       2.867   0.092   2.442  0.00  0.00    -0.082 A 
ATOM      4  C2  PXY d   1       1.637  -0.385   2.549  0.00  0.00     0.003 A 
ATOM      5  C3  PXY d   1       1.377  -1.459   3.360  0.00  0.00     0.003 A 
ATOM      6  C4  PXY d   1       2.396  -2.085   4.028  0.00  0.00    -0.082 A 
ATOM      7  C5  PXY d   1       3.655  -1.611   3.916  0.00  0.00     0.003 A 
ATOM      8  C6  PXY d   1       3.891  -0.494   3.120  0.00  0.00     0.003 A 
ENDROOT
TORSDOF 0
ENDMDL
