MODEL 1
REMARK minimizedAffinity 4.75168037
REMARK minimizedRMSD -1
REMARK  0 active torsions:
REMARK  status: ('A' for Active; 'I' for Inactive)
ROOT
ATOM      1  C4' PXY d   1       1.665  -1.151   2.642  0.00  0.00     0.077 C 
ATOM      2  C1' PXY d   1       5.993  -2.997   6.000  0.00  0.00     0.077 C 
ATOM      3  C1  PXY d   1       4.849  -2.518   5.128  0.00  0.00    -0.082 A 
ATOM      4  C2  PXY d   1       5.043  -2.346   3.831  0.00  0.00     0.003 A 
ATOM      5  C3  PXY d   1       4.029  -1.882   3.033  0.00  0.00     0.003 A 
ATOM      6  C4  PXY d   1       2.788  -1.643   3.559  0.00  0.00    -0.082 A 
ATOM      7  C5  PXY d   1       2.579  -1.826   4.880  0.00  0.00     0.003 A 
ATOM      8  C6  PXY d   1       3.633  -2.257   5.680  0.00  0.00     0.003 A 
ENDROOT
TORSDOF 0
ENDMDL
