MODEL 1
REMARK minimizedAffinity 1.90573561
REMARK minimizedRMSD -1
REMARK  0 active torsions:
REMARK  status: ('A' for Active; 'I' for Inactive)
ROOT
ATOM      1  C4' PXY d   1       5.999  -3.444   6.000  0.00  0.00     0.077 C 
ATOM      2  C1' PXY d   1       1.683  -1.175   2.895  0.00  0.00     0.077 C 
ATOM      3  C1  PXY d   1       2.807  -1.769   3.720  0.00  0.00    -0.082 A 
ATOM      4  C2  PXY d   1       4.055  -1.675   3.289  0.00  0.00     0.003 A 
ATOM      5  C3  PXY d   1       5.081  -2.234   4.007  0.00  0.00     0.003 A 
ATOM      6  C4  PXY d   1       4.833  -2.851   5.204  0.00  0.00    -0.082 A 
ATOM      7  C5  PXY d   1       3.564  -2.942   5.656  0.00  0.00     0.003 A 
ATOM      8  C6  PXY d   1       2.532  -2.403   4.892  0.00  0.00     0.003 A 
ENDROOT
TORSDOF 0
ENDMDL
