MODEL 1
REMARK minimizedAffinity 10.5546999
REMARK minimizedRMSD -1
REMARK  0 active torsions:
REMARK  status: ('A' for Active; 'I' for Inactive)
ROOT
ATOM      1  C4' PXY d   1       5.998  -2.257   6.000  0.00  0.00     0.077 C 
ATOM      2  C1' PXY d   1       1.283  -1.768   2.692  0.00  0.00     0.077 C 
ATOM      3  C1  PXY d   1       2.514  -1.907   3.566  0.00  0.00    -0.082 A 
ATOM      4  C2  PXY d   1       3.291  -0.856   3.772  0.00  0.00     0.003 A 
ATOM      5  C3  PXY d   1       4.426  -0.971   4.534  0.00  0.00     0.003 A 
ATOM      6  C4  PXY d   1       4.740  -2.161   5.133  0.00  0.00    -0.082 A 
ATOM      7  C5  PXY d   1       3.947  -3.235   4.935  0.00  0.00     0.003 A 
ATOM      8  C6  PXY d   1       2.822  -3.108   4.126  0.00  0.00     0.003 A 
ENDROOT
TORSDOF 0
ENDMDL
