MODEL 1
REMARK minimizedAffinity 15.3675337
REMARK minimizedRMSD -1
REMARK  0 active torsions:
REMARK  status: ('A' for Active; 'I' for Inactive)
ROOT
ATOM      1  C4' PXY d   1       2.613   0.548   1.864  0.00  0.00     0.077 C 
ATOM      2  C1' PXY d   1      -1.779  -1.400  -1.350  0.00  0.00     0.077 C 
ATOM      3  C1  PXY d   1      -0.621  -0.901  -0.509  0.00  0.00    -0.082 A 
ATOM      4  C2  PXY d   1      -0.828   0.042   0.395  0.00  0.00     0.003 A 
ATOM      5  C3  PXY d   1       0.214   0.529   1.142  0.00  0.00     0.003 A 
ATOM      6  C4  PXY d   1       1.471   0.007   0.999  0.00  0.00    -0.082 A 
ATOM      7  C5  PXY d   1       1.689  -0.963   0.086  0.00  0.00     0.003 A 
ATOM      8  C6  PXY d   1       0.626  -1.414  -0.691  0.00  0.00     0.003 A 
ENDROOT
TORSDOF 0
ENDMDL
