MODEL 1
REMARK minimizedAffinity 5.13341665
REMARK minimizedRMSD -1
REMARK  0 active torsions:
REMARK  status: ('A' for Active; 'I' for Inactive)
ROOT
ATOM      1  C4' PXY d   1       5.994  -2.907   5.996  0.00  0.00     0.077 C 
ATOM      2  C1' PXY d   1       0.877  -1.955   3.481  0.00  0.00     0.077 C 
ATOM      3  C1  PXY d   1       2.224  -2.207   4.128  0.00  0.00    -0.082 A 
ATOM      4  C2  PXY d   1       2.280  -2.608   5.388  0.00  0.00     0.003 A 
ATOM      5  C3  PXY d   1       3.490  -2.809   5.999  0.00  0.00     0.003 A 
ATOM      6  C4  PXY d   1       4.655  -2.650   5.298  0.00  0.00    -0.082 A 
ATOM      7  C5  PXY d   1       4.607  -2.251   4.009  0.00  0.00     0.003 A 
ATOM      8  C6  PXY d   1       3.369  -2.012   3.420  0.00  0.00     0.003 A 
ENDROOT
TORSDOF 0
ENDMDL
