MODEL 1
REMARK minimizedAffinity 11.1360044
REMARK minimizedRMSD -1
REMARK  0 active torsions:
REMARK  status: ('A' for Active; 'I' for Inactive)
ROOT
ATOM      1  C4' PXY d   1       2.465   2.440   1.343  0.00  0.00     0.077 C 
ATOM      2  C1' PXY d   1       3.000  -2.983   3.272  0.00  0.00     0.077 C 
ATOM      3  C1  PXY d   1       2.848  -1.560   2.771  0.00  0.00    -0.082 A 
ATOM      4  C2  PXY d   1       3.582  -1.143   1.752  0.00  0.00     0.003 A 
ATOM      5  C3  PXY d   1       3.480   0.150   1.307  0.00  0.00     0.003 A 
ATOM      6  C4  PXY d   1       2.579   1.010   1.876  0.00  0.00    -0.082 A 
ATOM      7  C5  PXY d   1       1.819   0.589   2.910  0.00  0.00     0.003 A 
ATOM      8  C6  PXY d   1       1.967  -0.715   3.373  0.00  0.00     0.003 A 
ENDROOT
TORSDOF 0
ENDMDL
