MODEL 1
REMARK minimizedAffinity 12.7186117
REMARK minimizedRMSD -1
REMARK  0 active torsions:
REMARK  status: ('A' for Active; 'I' for Inactive)
ROOT
ATOM      1  C4' PXY d   1       4.504  -2.827   5.515  0.00  0.00     0.077 C 
ATOM      2  C1' PXY d   1       0.812  -0.555   1.690  0.00  0.00     0.077 C 
ATOM      3  C1  PXY d   1       1.772  -1.148   2.703  0.00  0.00    -0.082 A 
ATOM      4  C2  PXY d   1       3.060  -1.230   2.413  0.00  0.00     0.003 A 
ATOM      5  C3  PXY d   1       3.938  -1.792   3.305  0.00  0.00     0.003 A 
ATOM      6  C4  PXY d   1       3.500  -2.227   4.527  0.00  0.00    -0.082 A 
ATOM      7  C5  PXY d   1       2.188  -2.138   4.834  0.00  0.00     0.003 A 
ATOM      8  C6  PXY d   1       1.308  -1.601   3.899  0.00  0.00     0.003 A 
ENDROOT
TORSDOF 0
ENDMDL
