MODEL 1
REMARK minimizedAffinity 2.89740157
REMARK minimizedRMSD -1
REMARK  0 active torsions:
REMARK  status: ('A' for Active; 'I' for Inactive)
ROOT
ATOM      1  C4' PXY d   1       2.203  -5.319   4.494  0.00  0.00     0.077 C 
ATOM      2  C1' PXY d   1       2.646  -0.181   1.883  0.00  0.00     0.077 C 
ATOM      3  C1  PXY d   1       2.530  -1.534   2.556  0.00  0.00    -0.082 A 
ATOM      4  C2  PXY d   1       1.975  -1.624   3.754  0.00  0.00     0.003 A 
ATOM      5  C3  PXY d   1       1.892  -2.835   4.391  0.00  0.00     0.003 A 
ATOM      6  C4  PXY d   1       2.332  -3.975   3.773  0.00  0.00    -0.082 A 
ATOM      7  C5  PXY d   1       2.889  -3.893   2.546  0.00  0.00     0.003 A 
ATOM      8  C6  PXY d   1       3.002  -2.648   1.934  0.00  0.00     0.003 A 
ENDROOT
TORSDOF 0
ENDMDL
