MODEL 1
REMARK minimizedAffinity 6.16385508
REMARK minimizedRMSD -1
REMARK  0 active torsions:
REMARK  status: ('A' for Active; 'I' for Inactive)
ROOT
ATOM      1  C4' PXY d   1       3.805  -5.998  -5.987  0.00  0.00     0.077 C 
ATOM      2  C1' PXY d   1       2.995  -5.982  -0.264  0.00  0.00     0.077 C 
ATOM      3  C1  PXY d   1       3.196  -5.991  -1.766  0.00  0.00    -0.082 A 
ATOM      4  C2  PXY d   1       4.422  -6.000  -2.263  0.00  0.00     0.003 A 
ATOM      5  C3  PXY d   1       4.622  -5.976  -3.619  0.00  0.00     0.003 A 
ATOM      6  C4  PXY d   1       3.555  -5.998  -4.477  0.00  0.00    -0.082 A 
ATOM      7  C5  PXY d   1       2.301  -6.000  -3.978  0.00  0.00     0.003 A 
ATOM      8  C6  PXY d   1       2.119  -5.982  -2.598  0.00  0.00     0.003 A 
ENDROOT
TORSDOF 0
ENDMDL
