MODEL 1
REMARK minimizedAffinity -3.98877263
REMARK minimizedRMSD -1
REMARK  0 active torsions:
REMARK  status: ('A' for Active; 'I' for Inactive)
ROOT
ATOM      1  C   UNL d   1      -2.474  -4.006  -4.869  0.00  0.00     0.078 C 
ATOM      2  C1  UNL d   1      -3.612  -3.030  -4.840  0.00  0.00    -0.077 A 
ATOM      3  C2  UNL d   1      -3.377  -1.650  -4.803  0.00  0.00    -0.001 A 
ATOM      4  C3  UNL d   1      -4.446  -0.753  -4.766  0.00  0.00     0.003 A 
ATOM      5  C4  UNL d   1      -5.757  -1.226  -4.765  0.00  0.00    -0.005 A 
ATOM      6  C5  UNL d   1      -6.000  -2.598  -4.799  0.00  0.00     0.003 A 
ATOM      7  C6  UNL d   1      -4.932  -3.496  -4.836  0.00  0.00    -0.001 A 
ENDROOT
TORSDOF 0
ENDMDL
