MODEL 1
REMARK minimizedAffinity -3.28484869
REMARK minimizedRMSD -1
REMARK  0 active torsions:
REMARK  status: ('A' for Active; 'I' for Inactive)
ROOT
ATOM      1  C   UNL d   1      -0.753  -5.937  -5.902  0.00  0.00     0.078 C 
ATOM      2  C1  UNL d   1      -1.955  -5.103  -5.573  0.00  0.00    -0.077 A 
ATOM      3  C2  UNL d   1      -2.049  -3.773  -6.000  0.00  0.00    -0.001 A 
ATOM      4  C3  UNL d   1      -3.169  -3.006  -5.678  0.00  0.00     0.003 A 
ATOM      5  C4  UNL d   1      -4.204  -3.559  -4.927  0.00  0.00    -0.005 A 
ATOM      6  C5  UNL d   1      -4.119  -4.882  -4.496  0.00  0.00     0.003 A 
ATOM      7  C6  UNL d   1      -2.999  -5.650  -4.817  0.00  0.00    -0.001 A 
ENDROOT
TORSDOF 0
ENDMDL
