MODEL 1
REMARK minimizedAffinity -3.22873735
REMARK minimizedRMSD -1
REMARK  0 active torsions:
REMARK  status: ('A' for Active; 'I' for Inactive)
ROOT
ATOM      1  C   UNL d   1      -2.968  -5.823  -5.431  0.00  0.00     0.078 C 
ATOM      2  C1  UNL d   1      -4.016  -4.828  -5.031  0.00  0.00    -0.077 A 
ATOM      3  C2  UNL d   1      -4.454  -4.735  -3.704  0.00  0.00    -0.001 A 
ATOM      4  C3  UNL d   1      -5.438  -3.811  -3.349  0.00  0.00     0.003 A 
ATOM      5  C4  UNL d   1      -5.992  -2.973  -4.314  0.00  0.00    -0.005 A 
ATOM      6  C5  UNL d   1      -5.564  -3.059  -5.637  0.00  0.00     0.003 A 
ATOM      7  C6  UNL d   1      -4.581  -3.983  -5.995  0.00  0.00    -0.001 A 
ENDROOT
TORSDOF 0
ENDMDL
