MODEL 1
REMARK minimizedAffinity -3.05720806
REMARK minimizedRMSD -1
REMARK  0 active torsions:
REMARK  status: ('A' for Active; 'I' for Inactive)
ROOT
ATOM      1  C   UNL d   1      -5.119  -3.042  -4.881  0.00  0.00     0.078 C 
ATOM      2  C1  UNL d   1      -3.829  -3.807  -4.873  0.00  0.00    -0.077 A 
ATOM      3  C2  UNL d   1      -3.434  -4.542  -3.749  0.00  0.00    -0.001 A 
ATOM      4  C3  UNL d   1      -2.227  -5.242  -3.752  0.00  0.00     0.003 A 
ATOM      5  C4  UNL d   1      -1.404  -5.213  -4.877  0.00  0.00    -0.005 A 
ATOM      6  C5  UNL d   1      -1.788  -4.483  -5.999  0.00  0.00     0.003 A 
ATOM      7  C6  UNL d   1      -2.995  -3.782  -5.998  0.00  0.00    -0.001 A 
ENDROOT
TORSDOF 0
ENDMDL
