MODEL 1
REMARK minimizedAffinity -2.27258015
REMARK minimizedRMSD -1
REMARK  0 active torsions:
REMARK  status: ('A' for Active; 'I' for Inactive)
ROOT
ATOM      1  C   UNL d   1      -5.692  -1.739  -5.027  0.00  0.00     0.078 C 
ATOM      2  C1  UNL d   1      -5.393  -3.209  -5.053  0.00  0.00    -0.077 A 
ATOM      3  C2  UNL d   1      -6.000  -4.052  -5.992  0.00  0.00    -0.001 A 
ATOM      4  C3  UNL d   1      -5.720  -5.419  -5.998  0.00  0.00     0.003 A 
ATOM      5  C4  UNL d   1      -4.833  -5.956  -5.066  0.00  0.00    -0.005 A 
ATOM      6  C5  UNL d   1      -4.226  -5.125  -4.126  0.00  0.00     0.003 A 
ATOM      7  C6  UNL d   1      -4.505  -3.757  -4.119  0.00  0.00    -0.001 A 
ENDROOT
TORSDOF 0
ENDMDL
