MODEL 1
REMARK minimizedAffinity -3.40093064
REMARK minimizedRMSD -1
REMARK  0 active torsions:
REMARK  status: ('A' for Active; 'I' for Inactive)
ROOT
ATOM      1  C   UNL d   1      -5.106  -2.775  -4.107  0.00  0.00     0.078 C 
ATOM      2  C1  UNL d   1      -4.295  -3.845  -4.775  0.00  0.00    -0.077 A 
ATOM      3  C2  UNL d   1      -4.913  -4.941  -5.389  0.00  0.00    -0.001 A 
ATOM      4  C3  UNL d   1      -4.145  -5.935  -5.998  0.00  0.00     0.003 A 
ATOM      5  C4  UNL d   1      -2.754  -5.842  -6.000  0.00  0.00    -0.005 A 
ATOM      6  C5  UNL d   1      -2.130  -4.755  -5.390  0.00  0.00     0.003 A 
ATOM      7  C6  UNL d   1      -2.897  -3.761  -4.780  0.00  0.00    -0.001 A 
ENDROOT
TORSDOF 0
ENDMDL
