MODEL 1
REMARK minimizedAffinity -3.59731126
REMARK minimizedRMSD -1
REMARK  0 active torsions:
REMARK  status: ('A' for Active; 'I' for Inactive)
ROOT
ATOM      1  C   UNL d   1      -2.013  -4.730  -5.253  0.00  0.00     0.078 C 
ATOM      2  C1  UNL d   1      -3.396  -4.193  -5.471  0.00  0.00    -0.077 A 
ATOM      3  C2  UNL d   1      -3.658  -2.820  -5.392  0.00  0.00    -0.001 A 
ATOM      4  C3  UNL d   1      -4.952  -2.336  -5.587  0.00  0.00     0.003 A 
ATOM      5  C4  UNL d   1      -5.995  -3.218  -5.861  0.00  0.00    -0.005 A 
ATOM      6  C5  UNL d   1      -5.745  -4.587  -5.940  0.00  0.00     0.003 A 
ATOM      7  C6  UNL d   1      -4.451  -5.073  -5.745  0.00  0.00    -0.001 A 
ENDROOT
TORSDOF 0
ENDMDL
