MODEL 1
REMARK minimizedAffinity 2.5390985
REMARK minimizedRMSD -1
REMARK  0 active torsions:
REMARK  status: ('A' for Active; 'I' for Inactive)
ROOT
ATOM      1  C   UNL d   1      -4.791  -4.129  -4.138  0.00  0.00     0.078 C 
ATOM      2  C1  UNL d   1      -3.472  -4.785  -4.421  0.00  0.00    -0.077 A 
ATOM      3  C2  UNL d   1      -2.733  -5.390  -3.398  0.00  0.00    -0.001 A 
ATOM      4  C3  UNL d   1      -1.502  -5.988  -3.674  0.00  0.00     0.003 A 
ATOM      5  C4  UNL d   1      -0.999  -5.984  -4.974  0.00  0.00    -0.005 A 
ATOM      6  C5  UNL d   1      -1.726  -5.382  -5.998  0.00  0.00     0.003 A 
ATOM      7  C6  UNL d   1      -2.957  -4.784  -5.724  0.00  0.00    -0.001 A 
ENDROOT
TORSDOF 0
ENDMDL
