MODEL 1
REMARK minimizedAffinity -1.26986039
REMARK minimizedRMSD -1
REMARK  0 active torsions:
REMARK  status: ('A' for Active; 'I' for Inactive)
ROOT
ATOM      1  C   UNL d   1      -2.627  -5.251  -3.166  0.00  0.00     0.078 C 
ATOM      2  C1  UNL d   1      -3.799  -4.985  -4.063  0.00  0.00    -0.077 A 
ATOM      3  C2  UNL d   1      -4.462  -3.752  -4.038  0.00  0.00    -0.001 A 
ATOM      4  C3  UNL d   1      -5.557  -3.522  -4.872  0.00  0.00     0.003 A 
ATOM      5  C4  UNL d   1      -6.000  -4.521  -5.736  0.00  0.00    -0.005 A 
ATOM      6  C5  UNL d   1      -5.348  -5.752  -5.767  0.00  0.00     0.003 A 
ATOM      7  C6  UNL d   1      -4.253  -5.984  -4.934  0.00  0.00    -0.001 A 
ENDROOT
TORSDOF 0
ENDMDL
