MODEL 1
REMARK minimizedAffinity -3.47200036
REMARK minimizedRMSD -1
REMARK  0 active torsions:
REMARK  status: ('A' for Active; 'I' for Inactive)
ROOT
ATOM      1  C   UNL d   1      -2.237  -4.755  -5.625  0.00  0.00     0.078 C 
ATOM      2  C1  UNL d   1      -3.542  -4.027  -5.503  0.00  0.00    -0.077 A 
ATOM      3  C2  UNL d   1      -3.605  -2.634  -5.624  0.00  0.00    -0.001 A 
ATOM      4  C3  UNL d   1      -4.826  -1.969  -5.498  0.00  0.00     0.003 A 
ATOM      5  C4  UNL d   1      -5.993  -2.689  -5.249  0.00  0.00    -0.005 A 
ATOM      6  C5  UNL d   1      -5.940  -4.076  -5.125  0.00  0.00     0.003 A 
ATOM      7  C6  UNL d   1      -4.720  -4.742  -5.250  0.00  0.00    -0.001 A 
ENDROOT
TORSDOF 0
ENDMDL
