MODEL 1
REMARK minimizedAffinity 1.39855361
REMARK minimizedRMSD -1
REMARK  0 active torsions:
REMARK  status: ('A' for Active; 'I' for Inactive)
ROOT
ATOM      1  C   UNL d   1      -6.000  -1.499  -4.620  0.00  0.00     0.078 C 
ATOM      2  C1  UNL d   1      -5.136  -2.724  -4.661  0.00  0.00    -0.077 A 
ATOM      3  C2  UNL d   1      -5.694  -3.994  -4.847  0.00  0.00    -0.001 A 
ATOM      4  C3  UNL d   1      -4.879  -5.127  -4.873  0.00  0.00     0.003 A 
ATOM      5  C4  UNL d   1      -3.500  -5.000  -4.712  0.00  0.00    -0.005 A 
ATOM      6  C5  UNL d   1      -2.936  -3.740  -4.524  0.00  0.00     0.003 A 
ATOM      7  C6  UNL d   1      -3.750  -2.607  -4.497  0.00  0.00    -0.001 A 
ENDROOT
TORSDOF 0
ENDMDL
