MODEL 1
REMARK minimizedAffinity -2.99967265
REMARK minimizedRMSD -1
REMARK  0 active torsions:
REMARK  status: ('A' for Active; 'I' for Inactive)
ROOT
ATOM      1  C   UNL d   1      -5.999  -3.007  -4.879  0.00  0.00     0.078 C 
ATOM      2  C1  UNL d   1      -4.771  -3.866  -4.851  0.00  0.00    -0.077 A 
ATOM      3  C2  UNL d   1      -4.390  -4.542  -3.685  0.00  0.00    -0.001 A 
ATOM      4  C3  UNL d   1      -3.238  -5.331  -3.671  0.00  0.00     0.003 A 
ATOM      5  C4  UNL d   1      -2.458  -5.451  -4.820  0.00  0.00    -0.005 A 
ATOM      6  C5  UNL d   1      -2.829  -4.781  -5.984  0.00  0.00     0.003 A 
ATOM      7  C6  UNL d   1      -3.980  -3.992  -6.000  0.00  0.00    -0.001 A 
ENDROOT
TORSDOF 0
ENDMDL
