MODEL 1
REMARK minimizedAffinity -2.93934035
REMARK minimizedRMSD -1
REMARK  0 active torsions:
REMARK  status: ('A' for Active; 'I' for Inactive)
ROOT
ATOM      1  C   UNL d   1      -1.555  -4.939  -4.489  0.00  0.00     0.078 C 
ATOM      2  C1  UNL d   1      -3.004  -4.931  -4.876  0.00  0.00    -0.077 A 
ATOM      3  C2  UNL d   1      -3.847  -3.880  -4.493  0.00  0.00    -0.001 A 
ATOM      4  C3  UNL d   1      -5.195  -3.890  -4.851  0.00  0.00     0.003 A 
ATOM      5  C4  UNL d   1      -5.714  -4.949  -5.594  0.00  0.00    -0.005 A 
ATOM      6  C5  UNL d   1      -4.884  -6.000  -5.978  0.00  0.00     0.003 A 
ATOM      7  C6  UNL d   1      -3.535  -5.992  -5.620  0.00  0.00    -0.001 A 
ENDROOT
TORSDOF 0
ENDMDL
