MODEL 1
REMARK minimizedAffinity -3.34402466
REMARK minimizedRMSD -1
REMARK  0 active torsions:
REMARK  status: ('A' for Active; 'I' for Inactive)
ROOT
ATOM      1  C   UNL d   1      -5.990  -4.283  -4.235  0.00  0.00     0.078 C 
ATOM      2  C1  UNL d   1      -4.609  -4.606  -4.722  0.00  0.00    -0.077 A 
ATOM      3  C2  UNL d   1      -4.378  -5.705  -5.559  0.00  0.00    -0.001 A 
ATOM      4  C3  UNL d   1      -3.086  -6.000  -5.996  0.00  0.00     0.003 A 
ATOM      5  C4  UNL d   1      -2.014  -5.202  -5.602  0.00  0.00    -0.005 A 
ATOM      6  C5  UNL d   1      -2.234  -4.107  -4.767  0.00  0.00     0.003 A 
ATOM      7  C6  UNL d   1      -3.525  -3.811  -4.329  0.00  0.00    -0.001 A 
ENDROOT
TORSDOF 0
ENDMDL
