MODEL 1
REMARK minimizedAffinity -4.41722298
REMARK minimizedRMSD -1
REMARK  0 active torsions:
REMARK  status: ('A' for Active; 'I' for Inactive)
ROOT
ATOM      1  C   UNL d   1      -2.694  -3.800  -2.389  0.00  0.00     0.078 C 
ATOM      2  C1  UNL d   1      -2.270  -4.492  -3.650  0.00  0.00    -0.077 A 
ATOM      3  C2  UNL d   1      -3.000  -4.343  -4.835  0.00  0.00    -0.001 A 
ATOM      4  C3  UNL d   1      -2.599  -5.001  -5.999  0.00  0.00     0.003 A 
ATOM      5  C4  UNL d   1      -1.468  -5.814  -5.989  0.00  0.00    -0.005 A 
ATOM      6  C5  UNL d   1      -0.736  -5.971  -4.813  0.00  0.00     0.003 A 
ATOM      7  C6  UNL d   1      -1.135  -5.314  -3.648  0.00  0.00    -0.001 A 
ENDROOT
TORSDOF 0
ENDMDL
