MODEL 1
REMARK minimizedAffinity -0.803709745
REMARK minimizedRMSD -1
REMARK  0 active torsions:
REMARK  status: ('A' for Active; 'I' for Inactive)
ROOT
ATOM      1  C2' OXE d   1      -0.748  -0.832  -0.776  0.00  0.00     0.078 C 
ATOM      2  C1' OXE d   1      -1.040  -0.868   2.015  0.00  0.00     0.078 C 
ATOM      3  C1  OXE d   1      -0.275   0.279   1.403  0.00  0.00    -0.078 A 
ATOM      4  C2  OXE d   1      -0.097   0.264   0.040  0.00  0.00    -0.078 A 
ATOM      5  C3  OXE d   1       0.553   1.326  -0.582  0.00  0.00     0.003 A 
ATOM      6  C4  OXE d   1       1.161   2.330   0.182  0.00  0.00    -0.002 A 
ATOM      7  C5  OXE d   1       1.025   2.343   1.574  0.00  0.00    -0.002 A 
ATOM      8  C6  OXE d   1       0.276   1.350   2.195  0.00  0.00     0.003 A 
ENDROOT
TORSDOF 0
ENDMDL
