MODEL 1
REMARK minimizedAffinity -3.08624601
REMARK minimizedRMSD -1
REMARK  0 active torsions:
REMARK  status: ('A' for Active; 'I' for Inactive)
ROOT
ATOM      1  C2' OXE d   1       0.807   2.532   1.424  0.00  0.00     0.078 C 
ATOM      2  C1' OXE d   1      -1.575   1.202   2.087  0.00  0.00     0.078 C 
ATOM      3  C1  OXE d   1      -0.704   0.594   1.017  0.00  0.00    -0.078 A 
ATOM      4  C2  OXE d   1       0.436   1.276   0.665  0.00  0.00    -0.078 A 
ATOM      5  C3  OXE d   1       1.302   0.730  -0.278  0.00  0.00     0.003 A 
ATOM      6  C4  OXE d   1       0.946  -0.427  -0.982  0.00  0.00    -0.002 A 
ATOM      7  C5  OXE d   1      -0.230  -1.115  -0.668  0.00  0.00    -0.002 A 
ATOM      8  C6  OXE d   1      -1.044  -0.643   0.356  0.00  0.00     0.003 A 
ENDROOT
TORSDOF 0
ENDMDL
