MODEL 1
REMARK minimizedAffinity -4.29269028
REMARK minimizedRMSD -1
REMARK  0 active torsions:
REMARK  status: ('A' for Active; 'I' for Inactive)
ROOT
ATOM      1  C2' OXE d   1      -0.741   0.102  -1.069  0.00  0.00     0.078 C 
ATOM      2  C1' OXE d   1      -0.869  -0.718   1.612  0.00  0.00     0.078 C 
ATOM      3  C1  OXE d   1       0.068   0.411   1.266  0.00  0.00    -0.078 A 
ATOM      4  C2  OXE d   1       0.159   0.775  -0.056  0.00  0.00    -0.078 A 
ATOM      5  C3  OXE d   1       0.968   1.848  -0.421  0.00  0.00     0.003 A 
ATOM      6  C4  OXE d   1       1.805   2.458   0.521  0.00  0.00    -0.002 A 
ATOM      7  C5  OXE d   1       1.757   2.076   1.866  0.00  0.00    -0.002 A 
ATOM      8  C6  OXE d   1       0.865   1.085   2.262  0.00  0.00     0.003 A 
ENDROOT
TORSDOF 0
ENDMDL
