MODEL 1
REMARK minimizedAffinity -4.91556168
REMARK minimizedRMSD -1
REMARK  0 active torsions:
REMARK  status: ('A' for Active; 'I' for Inactive)
ROOT
ATOM      1  C2' OXE d   1      -1.317   0.880   1.484  0.00  0.00     0.078 C 
ATOM      2  C1' OXE d   1       1.000   2.427   1.144  0.00  0.00     0.078 C 
ATOM      3  C1  OXE d   1       0.957   1.070   0.486  0.00  0.00    -0.078 A 
ATOM      4  C2  OXE d   1      -0.162   0.301   0.697  0.00  0.00    -0.078 A 
ATOM      5  C3  OXE d   1      -0.276  -0.936   0.068  0.00  0.00     0.003 A 
ATOM      6  C4  OXE d   1       0.801  -1.468  -0.650  0.00  0.00    -0.002 A 
ATOM      7  C5  OXE d   1       1.966  -0.718  -0.843  0.00  0.00    -0.002 A 
ATOM      8  C6  OXE d   1       2.043   0.568  -0.318  0.00  0.00     0.003 A 
ENDROOT
TORSDOF 0
ENDMDL
