MODEL 1
REMARK minimizedAffinity -0.541183293
REMARK minimizedRMSD -1
REMARK  0 active torsions:
REMARK  status: ('A' for Active; 'I' for Inactive)
ROOT
ATOM      1  C2' OXE d   1       4.423   2.429  -5.624  0.00  0.00     0.078 C 
ATOM      2  C1' OXE d   1       1.812   3.388  -6.000  0.00  0.00     0.078 C 
ATOM      3  C1  OXE d   1       2.312   3.246  -4.584  0.00  0.00    -0.078 A 
ATOM      4  C2  OXE d   1       3.574   2.732  -4.409  0.00  0.00    -0.078 A 
ATOM      5  C3  OXE d   1       4.105   2.632  -3.126  0.00  0.00     0.003 A 
ATOM      6  C4  OXE d   1       3.310   2.904  -2.006  0.00  0.00    -0.002 A 
ATOM      7  C5  OXE d   1       2.008   3.392  -2.162  0.00  0.00    -0.002 A 
ATOM      8  C6  OXE d   1       1.510   3.608  -3.442  0.00  0.00     0.003 A 
ENDROOT
TORSDOF 0
ENDMDL
