MODEL 1
REMARK minimizedAffinity -2.54627633
REMARK minimizedRMSD -1
REMARK  0 active torsions:
REMARK  status: ('A' for Active; 'I' for Inactive)
ROOT
ATOM      1  C2' OXE d   1      -0.809  -0.789   2.099  0.00  0.00     0.078 C 
ATOM      2  C1' OXE d   1      -0.962  -0.657  -0.701  0.00  0.00     0.078 C 
ATOM      3  C1  OXE d   1      -0.290   0.484   0.022  0.00  0.00    -0.078 A 
ATOM      4  C2  OXE d   1      -0.261   0.434   1.395  0.00  0.00    -0.078 A 
ATOM      5  C3  OXE d   1       0.395   1.433   2.108  0.00  0.00     0.003 A 
ATOM      6  C4  OXE d   1       0.890   2.565   1.449  0.00  0.00    -0.002 A 
ATOM      7  C5  OXE d   1       0.835   2.656   0.054  0.00  0.00    -0.002 A 
ATOM      8  C6  OXE d   1       0.288   1.606  -0.676  0.00  0.00     0.003 A 
ENDROOT
TORSDOF 0
ENDMDL
