MODEL 1
REMARK minimizedAffinity -2.66603684
REMARK minimizedRMSD -1
REMARK  0 active torsions:
REMARK  status: ('A' for Active; 'I' for Inactive)
ROOT
ATOM      1  C2' OXE d   1      -0.593  -0.142  -1.459  0.00  0.00     0.078 C 
ATOM      2  C1' OXE d   1       1.268   1.939  -1.168  0.00  0.00     0.078 C 
ATOM      3  C1  OXE d   1       0.601   1.413   0.078  0.00  0.00    -0.078 A 
ATOM      4  C2  OXE d   1      -0.343   0.426  -0.079  0.00  0.00    -0.078 A 
ATOM      5  C3  OXE d   1      -0.949  -0.133   1.043  0.00  0.00     0.003 A 
ATOM      6  C4  OXE d   1      -0.719   0.405   2.315  0.00  0.00    -0.002 A 
ATOM      7  C5  OXE d   1       0.209   1.437   2.492  0.00  0.00    -0.002 A 
ATOM      8  C6  OXE d   1       0.907   1.922   1.392  0.00  0.00     0.003 A 
ENDROOT
TORSDOF 0
ENDMDL
