MODEL 1
REMARK minimizedAffinity -4.35983419
REMARK minimizedRMSD -1
REMARK  0 active torsions:
REMARK  status: ('A' for Active; 'I' for Inactive)
ROOT
ATOM      1  C2' OXE d   1      -0.990  -0.901  -0.461  0.00  0.00     0.078 C 
ATOM      2  C1' OXE d   1      -1.980  -0.095   2.039  0.00  0.00     0.078 C 
ATOM      3  C1  OXE d   1      -0.644   0.452   1.602  0.00  0.00    -0.078 A 
ATOM      4  C2  OXE d   1      -0.145   0.016   0.398  0.00  0.00    -0.078 A 
ATOM      5  C3  OXE d   1       1.057   0.531  -0.077  0.00  0.00     0.003 A 
ATOM      6  C4  OXE d   1       1.836   1.370   0.728  0.00  0.00    -0.002 A 
ATOM      7  C5  OXE d   1       1.366   1.795   1.974  0.00  0.00    -0.002 A 
ATOM      8  C6  OXE d   1       0.111   1.380   2.407  0.00  0.00     0.003 A 
ENDROOT
TORSDOF 0
ENDMDL
