MODEL 1
REMARK minimizedAffinity -5.2052536
REMARK minimizedRMSD -1
REMARK  0 active torsions:
REMARK  status: ('A' for Active; 'I' for Inactive)
ROOT
ATOM      1  C2' OXE d   1       1.832  -0.853  -0.555  0.00  0.00     0.078 C 
ATOM      2  C1' OXE d   1      -0.392  -1.027   1.149  0.00  0.00     0.078 C 
ATOM      3  C1  OXE d   1       0.185   0.341   0.883  0.00  0.00    -0.078 A 
ATOM      4  C2  OXE d   1       1.301   0.412   0.085  0.00  0.00    -0.078 A 
ATOM      5  C3  OXE d   1       1.841   1.654  -0.236  0.00  0.00     0.003 A 
ATOM      6  C4  OXE d   1       1.350   2.818   0.368  0.00  0.00    -0.002 A 
ATOM      7  C5  OXE d   1       0.238   2.763   1.215  0.00  0.00    -0.002 A 
ATOM      8  C6  OXE d   1      -0.381   1.540   1.449  0.00  0.00     0.003 A 
ENDROOT
TORSDOF 0
ENDMDL
