MODEL 1
REMARK minimizedAffinity -3.00523138
REMARK minimizedRMSD -1
REMARK  0 active torsions:
REMARK  status: ('A' for Active; 'I' for Inactive)
ROOT
ATOM      1  C2' OXE d   1       0.186  -1.541  -0.823  0.00  0.00     0.078 C 
ATOM      2  C1' OXE d   1       2.600  -0.108  -0.888  0.00  0.00     0.078 C 
ATOM      3  C1  OXE d   1       1.516   0.380   0.041  0.00  0.00    -0.078 A 
ATOM      4  C2  OXE d   1       0.321  -0.299   0.031  0.00  0.00    -0.078 A 
ATOM      5  C3  OXE d   1      -0.692   0.076   0.908  0.00  0.00     0.003 A 
ATOM      6  C4  OXE d   1      -0.563   1.232   1.687  0.00  0.00    -0.002 A 
ATOM      7  C5  OXE d   1       0.630   1.962   1.683  0.00  0.00    -0.002 A 
ATOM      8  C6  OXE d   1       1.692   1.526   0.898  0.00  0.00     0.003 A 
ENDROOT
TORSDOF 0
ENDMDL
