MODEL 1
REMARK minimizedAffinity -2.90241075
REMARK minimizedRMSD -1
REMARK  0 active torsions:
REMARK  status: ('A' for Active; 'I' for Inactive)
ROOT
ATOM      1  C2' OXE d   1      -0.598   0.402   1.467  0.00  0.00     0.078 C 
ATOM      2  C1' OXE d   1       0.417  -1.232  -0.577  0.00  0.00     0.078 C 
ATOM      3  C1  OXE d   1       1.367  -0.270   0.091  0.00  0.00    -0.078 A 
ATOM      4  C2  OXE d   1       0.851   0.559   1.059  0.00  0.00    -0.078 A 
ATOM      5  C3  OXE d   1       1.695   1.427   1.745  0.00  0.00     0.003 A 
ATOM      6  C4  OXE d   1       3.031   1.573   1.354  0.00  0.00    -0.002 A 
ATOM      7  C5  OXE d   1       3.568   0.767   0.344  0.00  0.00    -0.002 A 
ATOM      8  C6  OXE d   1       2.761  -0.187  -0.267  0.00  0.00     0.003 A 
ENDROOT
TORSDOF 0
ENDMDL
