MODEL 1
REMARK minimizedAffinity -5.85618067
REMARK minimizedRMSD -1
REMARK  0 active torsions:
REMARK  status: ('A' for Active; 'I' for Inactive)
ROOT
ATOM      1  C2' OXE d   1       0.004  -0.847  -0.170  0.00  0.00     0.078 C 
ATOM      2  C1' OXE d   1      -0.247   1.291   1.632  0.00  0.00     0.078 C 
ATOM      3  C1  OXE d   1       1.121   1.007   1.063  0.00  0.00    -0.078 A 
ATOM      4  C2  OXE d   1       1.243  -0.070   0.218  0.00  0.00    -0.078 A 
ATOM      5  C3  OXE d   1       2.471  -0.343  -0.377  0.00  0.00     0.003 A 
ATOM      6  C4  OXE d   1       3.615   0.374  -0.004  0.00  0.00    -0.002 A 
ATOM      7  C5  OXE d   1       3.519   1.450   0.885  0.00  0.00    -0.002 A 
ATOM      8  C6  OXE d   1       2.275   1.805   1.394  0.00  0.00     0.003 A 
ENDROOT
TORSDOF 0
ENDMDL
