MODEL 1
REMARK minimizedAffinity -4.98823786
REMARK minimizedRMSD -1
REMARK  0 active torsions:
REMARK  status: ('A' for Active; 'I' for Inactive)
ROOT
ATOM      1  C2' OXE d   1       2.690   0.123  -0.702  0.00  0.00     0.078 C 
ATOM      2  C1' OXE d   1       0.138  -0.980  -0.315  0.00  0.00     0.078 C 
ATOM      3  C1  OXE d   1       0.551   0.167   0.573  0.00  0.00    -0.078 A 
ATOM      4  C2  OXE d   1       1.819   0.669   0.409  0.00  0.00    -0.078 A 
ATOM      5  C3  OXE d   1       2.231   1.763   1.165  0.00  0.00     0.003 A 
ATOM      6  C4  OXE d   1       1.422   2.256   2.196  0.00  0.00    -0.002 A 
ATOM      7  C5  OXE d   1       0.142   1.733   2.407  0.00  0.00    -0.002 A 
ATOM      8  C6  OXE d   1      -0.324   0.718   1.579  0.00  0.00     0.003 A 
ENDROOT
TORSDOF 0
ENDMDL
