MODEL 1
REMARK minimizedAffinity -3.12457776
REMARK minimizedRMSD -1
REMARK  0 active torsions:
REMARK  status: ('A' for Active; 'I' for Inactive)
ROOT
ATOM      1  C2' OXE d   1      -1.840  -1.066  -3.355  0.00  0.00     0.078 C 
ATOM      2  C1' OXE d   1      -0.975  -1.763  -0.777  0.00  0.00     0.078 C 
ATOM      3  C1  OXE d   1      -2.424  -2.001  -1.121  0.00  0.00    -0.078 A 
ATOM      4  C2  OXE d   1      -2.849  -1.614  -2.369  0.00  0.00    -0.078 A 
ATOM      5  C3  OXE d   1      -4.163  -1.861  -2.756  0.00  0.00     0.003 A 
ATOM      6  C4  OXE d   1      -5.092  -2.359  -1.835  0.00  0.00    -0.002 A 
ATOM      7  C5  OXE d   1      -4.689  -2.722  -0.546  0.00  0.00    -0.002 A 
ATOM      8  C6  OXE d   1      -3.352  -2.590  -0.187  0.00  0.00     0.003 A 
ENDROOT
TORSDOF 0
ENDMDL
