MODEL 1
REMARK minimizedAffinity -2.64357281
REMARK minimizedRMSD -1
REMARK  0 active torsions:
REMARK  status: ('A' for Active; 'I' for Inactive)
ROOT
ATOM      1  C2' OXE d   1      -2.867  -2.596  -1.059  0.00  0.00     0.078 C 
ATOM      2  C1' OXE d   1      -2.266  -1.029  -3.310  0.00  0.00     0.078 C 
ATOM      3  C1  OXE d   1      -1.523  -0.738  -2.031  0.00  0.00    -0.078 A 
ATOM      4  C2  OXE d   1      -1.856  -1.478  -0.922  0.00  0.00    -0.078 A 
ATOM      5  C3  OXE d   1      -1.162  -1.287   0.269  0.00  0.00     0.003 A 
ATOM      6  C4  OXE d   1      -0.236  -0.244   0.390  0.00  0.00    -0.002 A 
ATOM      7  C5  OXE d   1       0.090   0.548  -0.716  0.00  0.00    -0.002 A 
ATOM      8  C6  OXE d   1      -0.512   0.287  -1.942  0.00  0.00     0.003 A 
ENDROOT
TORSDOF 0
ENDMDL
