MODEL 1
REMARK minimizedAffinity -3.81579828
REMARK minimizedRMSD -1
REMARK  0 active torsions:
REMARK  status: ('A' for Active; 'I' for Inactive)
ROOT
ATOM      1  C2' OXE d   1      -1.282   1.162   2.162  0.00  0.00     0.078 C 
ATOM      2  C1' OXE d   1       0.566   2.891   0.949  0.00  0.00     0.078 C 
ATOM      3  C1  OXE d   1       0.694   1.415   0.668  0.00  0.00    -0.078 A 
ATOM      4  C2  OXE d   1      -0.185   0.572   1.302  0.00  0.00    -0.078 A 
ATOM      5  C3  OXE d   1      -0.146  -0.794   1.035  0.00  0.00     0.003 A 
ATOM      6  C4  OXE d   1       0.878  -1.333   0.247  0.00  0.00    -0.002 A 
ATOM      7  C5  OXE d   1       1.809  -0.495  -0.377  0.00  0.00    -0.002 A 
ATOM      8  C6  OXE d   1       1.705   0.882  -0.212  0.00  0.00     0.003 A 
ENDROOT
TORSDOF 0
ENDMDL
