MODEL 1
REMARK minimizedAffinity -5.18931627
REMARK minimizedRMSD -1
REMARK  0 active torsions:
REMARK  status: ('A' for Active; 'I' for Inactive)
ROOT
ATOM      1  C2' OXE d   1      -0.321  -0.914  -0.609  0.00  0.00     0.078 C 
ATOM      2  C1' OXE d   1      -1.218  -0.532   2.024  0.00  0.00     0.078 C 
ATOM      3  C1  OXE d   1      -0.277   0.495   1.445  0.00  0.00    -0.078 A 
ATOM      4  C2  OXE d   1       0.194   0.275   0.173  0.00  0.00    -0.078 A 
ATOM      5  C3  OXE d   1       1.021   1.219  -0.429  0.00  0.00     0.003 A 
ATOM      6  C4  OXE d   1       1.501   2.311   0.304  0.00  0.00    -0.002 A 
ATOM      7  C5  OXE d   1       1.065   2.533   1.615  0.00  0.00    -0.002 A 
ATOM      8  C6  OXE d   1       0.146   1.659   2.184  0.00  0.00     0.003 A 
ENDROOT
TORSDOF 0
ENDMDL
