MODEL 1
REMARK minimizedAffinity -4.53404713
REMARK minimizedRMSD -1
REMARK  0 active torsions:
REMARK  status: ('A' for Active; 'I' for Inactive)
ROOT
ATOM      1  C2' OXE d   1       1.498   2.554   1.376  0.00  0.00     0.078 C 
ATOM      2  C1' OXE d   1       2.707   1.037  -0.652  0.00  0.00     0.078 C 
ATOM      3  C1  OXE d   1       1.413   0.527  -0.070  0.00  0.00    -0.078 A 
ATOM      4  C2  OXE d   1       0.852   1.251   0.955  0.00  0.00    -0.078 A 
ATOM      5  C3  OXE d   1      -0.370   0.855   1.491  0.00  0.00     0.003 A 
ATOM      6  C4  OXE d   1      -0.955  -0.356   1.103  0.00  0.00    -0.002 A 
ATOM      7  C5  OXE d   1      -0.380  -1.129   0.089  0.00  0.00    -0.002 A 
ATOM      8  C6  OXE d   1       0.779  -0.681  -0.536  0.00  0.00     0.003 A 
ENDROOT
TORSDOF 0
ENDMDL
