MODEL 1
REMARK minimizedAffinity 0.575146914
REMARK minimizedRMSD -1
REMARK  1 active torsions:
REMARK  status: ('A' for Active; 'I' for Inactive)
REMARK    1  A    between atoms: C1_2  and  C2_3 
ROOT
ATOM      1  C2  UNL d   1       1.175  -0.770  -0.218  0.00  0.00    -0.081 A 
ATOM      2  C3  UNL d   1       0.827  -0.976   1.123  0.00  0.00     0.006 A 
ATOM      3  C4  UNL d   1      -0.514  -0.960   1.517  0.00  0.00     0.002 A 
ATOM      4  C5  UNL d   1      -1.527  -0.746   0.576  0.00  0.00    -0.080 A 
ATOM      5  C6  UNL d   1      -2.971  -0.757   0.981  0.00  0.00     0.076 C 
ATOM      6  C7  UNL d   1      -1.178  -0.522  -0.760  0.00  0.00     0.002 A 
ATOM      7  C8  UNL d   1       0.162  -0.537  -1.154  0.00  0.00     0.006 A 
ENDROOT
BRANCH   1   8
ATOM      8  C1  UNL d   1       2.615  -0.851  -0.657  0.00  0.00     0.054 C 
ATOM      9  C   UNL d   1       2.836  -0.110  -1.968  0.00  0.00     0.018 C 
ENDBRANCH   1   8
TORSDOF 1
ENDMDL
