MODEL 1
REMARK minimizedAffinity 3.08445239
REMARK minimizedRMSD -1
REMARK  1 active torsions:
REMARK  status: ('A' for Active; 'I' for Inactive)
REMARK    1  A    between atoms: C1_2  and  C2_3 
ROOT
ATOM      1  C2  UNL d   1      -0.636  -0.458   1.560  0.00  0.00    -0.081 A 
ATOM      2  C3  UNL d   1       0.411  -0.814   0.702  0.00  0.00     0.006 A 
ATOM      3  C4  UNL d   1       1.129  -1.994   0.911  0.00  0.00     0.002 A 
ATOM      4  C5  UNL d   1       0.806  -2.841   1.977  0.00  0.00    -0.080 A 
ATOM      5  C6  UNL d   1       1.548  -4.126   2.196  0.00  0.00     0.076 C 
ATOM      6  C7  UNL d   1      -0.229  -2.477   2.845  0.00  0.00     0.002 A 
ATOM      7  C8  UNL d   1      -0.946  -1.297   2.636  0.00  0.00     0.006 A 
ENDROOT
BRANCH   1   8
ATOM      8  C1  UNL d   1      -1.454   0.781   1.298  0.00  0.00     0.054 C 
ATOM      9  C   UNL d   1      -1.825   0.899  -0.173  0.00  0.00     0.018 C 
ENDBRANCH   1   8
TORSDOF 1
ENDMDL
