MODEL 1
REMARK minimizedAffinity 7.46530485
REMARK minimizedRMSD -1
REMARK  1 active torsions:
REMARK  status: ('A' for Active; 'I' for Inactive)
REMARK    1  A    between atoms: C1_2  and  C2_3 
ROOT
ATOM      1  C2  UNL d   1       0.106  -2.367   2.237  0.00  0.00    -0.081 A 
ATOM      2  C3  UNL d   1      -0.743  -1.924   3.259  0.00  0.00     0.006 A 
ATOM      3  C4  UNL d   1      -1.370  -0.679   3.169  0.00  0.00     0.002 A 
ATOM      4  C5  UNL d   1      -1.167   0.139   2.053  0.00  0.00    -0.080 A 
ATOM      5  C6  UNL d   1      -1.859   1.464   1.930  0.00  0.00     0.076 C 
ATOM      6  C7  UNL d   1      -0.306  -0.296   1.040  0.00  0.00     0.002 A 
ATOM      7  C8  UNL d   1       0.323  -1.540   1.129  0.00  0.00     0.006 A 
ENDROOT
BRANCH   1   8
ATOM      8  C1  UNL d   1       0.733  -3.736   2.300  0.00  0.00     0.054 C 
ATOM      9  C   UNL d   1       2.197  -3.694   1.886  0.00  0.00     0.018 C 
ENDBRANCH   1   8
TORSDOF 1
ENDMDL
