MODEL 1
REMARK minimizedAffinity -1.0294745
REMARK minimizedRMSD -1
REMARK  1 active torsions:
REMARK  status: ('A' for Active; 'I' for Inactive)
REMARK    1  A    between atoms: C1_2  and  C2_3 
ROOT
ATOM      1  C2  UNL d   1      -0.510  -0.786   0.931  0.00  0.00    -0.081 A 
ATOM      2  C3  UNL d   1       0.557  -1.180   0.114  0.00  0.00     0.006 A 
ATOM      3  C4  UNL d   1       1.595  -1.959   0.632  0.00  0.00     0.002 A 
ATOM      4  C5  UNL d   1       1.580  -2.363   1.971  0.00  0.00    -0.080 A 
ATOM      5  C6  UNL d   1       2.672  -3.225   2.531  0.00  0.00     0.076 C 
ATOM      6  C7  UNL d   1       0.523  -1.956   2.791  0.00  0.00     0.002 A 
ATOM      7  C8  UNL d   1      -0.515  -1.176   2.275  0.00  0.00     0.006 A 
ENDROOT
BRANCH   1   8
ATOM      8  C1  UNL d   1      -1.663  -0.001   0.360  0.00  0.00     0.054 C 
ATOM      9  C   UNL d   1      -2.979  -0.393   1.018  0.00  0.00     0.018 C 
ENDBRANCH   1   8
TORSDOF 1
ENDMDL
