MODEL 1
REMARK minimizedAffinity -3.55120993
REMARK minimizedRMSD -1
REMARK  1 active torsions:
REMARK  status: ('A' for Active; 'I' for Inactive)
REMARK    1  A    between atoms: C1_2  and  C2_3 
ROOT
ATOM      1  C2  UNL d   1       3.979   5.503   4.657  0.00  0.00    -0.081 A 
ATOM      2  C3  UNL d   1       3.302   5.142   3.486  0.00  0.00     0.006 A 
ATOM      3  C4  UNL d   1       3.949   5.195   2.249  0.00  0.00     0.002 A 
ATOM      4  C5  UNL d   1       5.285   5.602   2.163  0.00  0.00    -0.080 A 
ATOM      5  C6  UNL d   1       6.000   5.634   0.845  0.00  0.00     0.076 C 
ATOM      6  C7  UNL d   1       5.956   5.979   3.331  0.00  0.00     0.002 A 
ATOM      7  C8  UNL d   1       5.310   5.927   4.568  0.00  0.00     0.006 A 
ENDROOT
BRANCH   1   8
ATOM      8  C1  UNL d   1       3.305   5.385   6.000  0.00  0.00     0.054 C 
ATOM      9  C   UNL d   1       1.913   6.000   5.975  0.00  0.00     0.018 C 
ENDBRANCH   1   8
TORSDOF 1
ENDMDL
