MODEL 1
REMARK minimizedAffinity -3.41076159
REMARK minimizedRMSD -1
REMARK  1 active torsions:
REMARK  status: ('A' for Active; 'I' for Inactive)
REMARK    1  A    between atoms: C1_2  and  C2_3 
ROOT
ATOM      1  C2  UNL d   1       1.021  -2.503   1.772  0.00  0.00    -0.081 A 
ATOM      2  C3  UNL d   1       0.650  -2.024   0.509  0.00  0.00     0.006 A 
ATOM      3  C4  UNL d   1      -0.408  -1.123   0.377  0.00  0.00     0.002 A 
ATOM      4  C5  UNL d   1      -1.108  -0.679   1.504  0.00  0.00    -0.080 A 
ATOM      5  C6  UNL d   1      -2.227   0.312   1.378  0.00  0.00     0.076 C 
ATOM      6  C7  UNL d   1      -0.749  -1.171   2.763  0.00  0.00     0.002 A 
ATOM      7  C8  UNL d   1       0.309  -2.073   2.897  0.00  0.00     0.006 A 
ENDROOT
BRANCH   1   8
ATOM      8  C1  UNL d   1       2.203  -3.425   1.925  0.00  0.00     0.054 C 
ATOM      9  C   UNL d   1       1.973  -4.745   1.204  0.00  0.00     0.018 C 
ENDBRANCH   1   8
TORSDOF 1
ENDMDL
