MODEL 1
REMARK minimizedAffinity 2.71561623
REMARK minimizedRMSD -1
REMARK  0 active torsions:
REMARK  status: ('A' for Active; 'I' for Inactive)
ROOT
ATOM      1  C4' PXY d   1       4.160  -0.250   0.746  0.00  0.00     0.077 C 
ATOM      2  C1' PXY d   1      -1.509  -0.328  -0.383  0.00  0.00     0.077 C 
ATOM      3  C1  PXY d   1      -0.020  -0.304  -0.099  0.00  0.00    -0.082 A 
ATOM      4  C2  PXY d   1       0.469  -1.032   0.891  0.00  0.00     0.003 A 
ATOM      5  C3  PXY d   1       1.809  -0.998   1.182  0.00  0.00     0.003 A 
ATOM      6  C4  PXY d   1       2.664  -0.251   0.417  0.00  0.00    -0.082 A 
ATOM      7  C5  PXY d   1       2.175   0.487  -0.602  0.00  0.00     0.003 A 
ATOM      8  C6  PXY d   1       0.806   0.470  -0.854  0.00  0.00     0.003 A 
ENDROOT
TORSDOF 0
ENDMDL
