MODEL 1
REMARK minimizedAffinity -4.50215149
REMARK minimizedRMSD -1
REMARK  0 active torsions:
REMARK  status: ('A' for Active; 'I' for Inactive)
ROOT
ATOM      1  C4' PXY d   1      -5.988   1.057  -1.575  0.00  0.00     0.077 C 
ATOM      2  C1' PXY d   1      -3.357   5.998  -0.133  0.00  0.00     0.077 C 
ATOM      3  C1  PXY d   1      -4.055   4.703  -0.501  0.00  0.00    -0.082 A 
ATOM      4  C2  PXY d   1      -3.421   3.805  -1.236  0.00  0.00     0.003 A 
ATOM      5  C3  PXY d   1      -4.049   2.643  -1.605  0.00  0.00     0.003 A 
ATOM      6  C4  PXY d   1      -5.320   2.374  -1.172  0.00  0.00    -0.082 A 
ATOM      7  C5  PXY d   1      -5.969   3.281  -0.412  0.00  0.00     0.003 A 
ATOM      8  C6  PXY d   1      -5.330   4.473  -0.083  0.00  0.00     0.003 A 
ENDROOT
TORSDOF 0
ENDMDL
