MODEL 1
REMARK minimizedAffinity 0.142581269
REMARK minimizedRMSD -1
REMARK  0 active torsions:
REMARK  status: ('A' for Active; 'I' for Inactive)
ROOT
ATOM      1  C4' PXY d   1      -1.221  -1.343  -1.470  0.00  0.00     0.077 C 
ATOM      2  C1' PXY d   1       3.708   0.332   1.042  0.00  0.00     0.077 C 
ATOM      3  C1  PXY d   1       2.410  -0.108   0.395  0.00  0.00    -0.082 A 
ATOM      4  C2  PXY d   1       2.432  -0.661  -0.807  0.00  0.00     0.003 A 
ATOM      5  C3  PXY d   1       1.265  -1.035  -1.420  0.00  0.00     0.003 A 
ATOM      6  C4  PXY d   1       0.066  -0.892  -0.774  0.00  0.00    -0.082 A 
ATOM      7  C5  PXY d   1       0.036  -0.339   0.457  0.00  0.00     0.003 A 
ATOM      8  C6  PXY d   1       1.228   0.073   1.045  0.00  0.00     0.003 A 
ENDROOT
TORSDOF 0
ENDMDL
