MODEL 1
REMARK minimizedAffinity 4.88137913
REMARK minimizedRMSD -1
REMARK  0 active torsions:
REMARK  status: ('A' for Active; 'I' for Inactive)
ROOT
ATOM      1  C4' PXY d   1      -3.433  -0.315  -0.463  0.00  0.00     0.077 C 
ATOM      2  C1' PXY d   1      -0.595   1.538   4.220  0.00  0.00     0.077 C 
ATOM      3  C1  PXY d   1      -1.338   1.040   2.995  0.00  0.00    -0.082 A 
ATOM      4  C2  PXY d   1      -1.423   1.811   1.923  0.00  0.00     0.003 A 
ATOM      5  C3  PXY d   1      -2.118   1.389   0.819  0.00  0.00     0.003 A 
ATOM      6  C4  PXY d   1      -2.685   0.143   0.792  0.00  0.00    -0.082 A 
ATOM      7  C5  PXY d   1      -2.593  -0.654   1.878  0.00  0.00     0.003 A 
ATOM      8  C6  PXY d   1      -1.919  -0.191   3.004  0.00  0.00     0.003 A 
ENDROOT
TORSDOF 0
ENDMDL
