MODEL 1
REMARK minimizedAffinity 3.97659564
REMARK minimizedRMSD -1
REMARK  0 active torsions:
REMARK  status: ('A' for Active; 'I' for Inactive)
ROOT
ATOM      1  C4' PXY d   1      -4.197   0.942   0.038  0.00  0.00     0.077 C 
ATOM      2  C1' PXY d   1       0.124  -0.107   3.730  0.00  0.00     0.077 C 
ATOM      3  C1  PXY d   1      -1.012   0.155   2.762  0.00  0.00    -0.082 A 
ATOM      4  C2  PXY d   1      -0.969   1.218   1.975  0.00  0.00     0.003 A 
ATOM      5  C3  PXY d   1      -2.003   1.488   1.116  0.00  0.00     0.003 A 
ATOM      6  C4  PXY d   1      -3.068   0.632   1.024  0.00  0.00    -0.082 A 
ATOM      7  C5  PXY d   1      -3.114  -0.460   1.816  0.00  0.00     0.003 A 
ATOM      8  C6  PXY d   1      -2.074  -0.694   2.710  0.00  0.00     0.003 A 
ENDROOT
TORSDOF 0
ENDMDL
