MODEL 1
REMARK minimizedAffinity 1.32495451
REMARK minimizedRMSD -1
REMARK  0 active torsions:
REMARK  status: ('A' for Active; 'I' for Inactive)
ROOT
ATOM      1  C4' PXY d   1      -3.741   0.979   1.147  0.00  0.00     0.077 C 
ATOM      2  C1' PXY d   1       1.813  -0.060   2.368  0.00  0.00     0.077 C 
ATOM      3  C1  PXY d   1       0.355   0.218   2.060  0.00  0.00    -0.082 A 
ATOM      4  C2  PXY d   1      -0.254  -0.468   1.106  0.00  0.00     0.003 A 
ATOM      5  C3  PXY d   1      -1.563  -0.208   0.792  0.00  0.00     0.003 A 
ATOM      6  C4  PXY d   1      -2.272   0.727   1.499  0.00  0.00    -0.082 A 
ATOM      7  C5  PXY d   1      -1.661   1.423   2.481  0.00  0.00     0.003 A 
ATOM      8  C6  PXY d   1      -0.320   1.172   2.756  0.00  0.00     0.003 A 
ENDROOT
TORSDOF 0
ENDMDL
