MODEL 1
REMARK minimizedAffinity 1.74748337
REMARK minimizedRMSD -1
REMARK  0 active torsions:
REMARK  status: ('A' for Active; 'I' for Inactive)
ROOT
ATOM      1  C4' PXY d   1      -4.460   0.988  -1.083  0.00  0.00     0.077 C 
ATOM      2  C1' PXY d   1      -1.160  -1.045   3.206  0.00  0.00     0.077 C 
ATOM      3  C1  PXY d   1      -2.028  -0.501   2.088  0.00  0.00    -0.082 A 
ATOM      4  C2  PXY d   1      -2.564  -1.335   1.211  0.00  0.00     0.003 A 
ATOM      5  C3  PXY d   1      -3.325  -0.857   0.175  0.00  0.00     0.003 A 
ATOM      6  C4  PXY d   1      -3.584   0.483   0.067  0.00  0.00    -0.082 A 
ATOM      7  C5  PXY d   1      -3.050   1.339   0.964  0.00  0.00     0.003 A 
ATOM      8  C6  PXY d   1      -2.247   0.838   1.984  0.00  0.00     0.003 A 
ENDROOT
TORSDOF 0
ENDMDL
