MODEL 1
REMARK minimizedAffinity 2.61409378
REMARK minimizedRMSD -1
REMARK  0 active torsions:
REMARK  status: ('A' for Active; 'I' for Inactive)
ROOT
ATOM      1  C4' PXY d   1       0.741   0.159  -5.259  0.00  0.00     0.077 C 
ATOM      2  C1' PXY d   1      -1.801  -5.020  -4.894  0.00  0.00     0.077 C 
ATOM      3  C1  PXY d   1      -1.123  -3.667  -4.992  0.00  0.00    -0.082 A 
ATOM      4  C2  PXY d   1      -1.684  -2.612  -4.425  0.00  0.00     0.003 A 
ATOM      5  C3  PXY d   1      -1.101  -1.375  -4.531  0.00  0.00     0.003 A 
ATOM      6  C4  PXY d   1       0.097  -1.227  -5.178  0.00  0.00    -0.082 A 
ATOM      7  C5  PXY d   1       0.681  -2.301  -5.750  0.00  0.00     0.003 A 
ATOM      8  C6  PXY d   1       0.052  -3.540  -5.666  0.00  0.00     0.003 A 
ENDROOT
TORSDOF 0
ENDMDL
