MODEL 1
REMARK minimizedAffinity 8.39062405
REMARK minimizedRMSD -1
REMARK  0 active torsions:
REMARK  status: ('A' for Active; 'I' for Inactive)
ROOT
ATOM      1  C4' PXY d   1      -0.184   0.753   1.159  0.00  0.00     0.077 C 
ATOM      2  C1' PXY d   1      -4.748  -1.258   4.081  0.00  0.00     0.077 C 
ATOM      3  C1  PXY d   1      -3.559  -0.721   3.311  0.00  0.00    -0.082 A 
ATOM      4  C2  PXY d   1      -2.591  -1.545   2.943  0.00  0.00     0.003 A 
ATOM      5  C3  PXY d   1      -1.493  -1.070   2.273  0.00  0.00     0.003 A 
ATOM      6  C4  PXY d   1      -1.409   0.253   1.930  0.00  0.00    -0.082 A 
ATOM      7  C5  PXY d   1      -2.397   1.098   2.292  0.00  0.00     0.003 A 
ATOM      8  C6  PXY d   1      -3.484   0.604   3.007  0.00  0.00     0.003 A 
ENDROOT
TORSDOF 0
ENDMDL
