MODEL 1
REMARK minimizedAffinity 0.832839608
REMARK minimizedRMSD -1
REMARK  1 active torsions:
REMARK  status: ('A' for Active; 'I' for Inactive)
REMARK    1  A    between atoms: C1_2  and  C2_3 
ROOT
ATOM      1  C2  UNL d   1      -0.471  -1.025  -3.330  0.00  0.00    -0.076 A 
ATOM      2  C3  UNL d   1      -0.736   0.321  -3.641  0.00  0.00     0.004 A 
ATOM      3  C4  UNL d   1      -0.812   0.750  -4.965  0.00  0.00    -0.003 A 
ATOM      4  C5  UNL d   1      -0.627  -0.160  -6.000  0.00  0.00     0.000 A 
ATOM      5  C6  UNL d   1      -0.381  -1.502  -5.710  0.00  0.00     0.000 A 
ATOM      6  C7  UNL d   1      -0.317  -1.954  -4.381  0.00  0.00    -0.073 A 
ATOM      7  C8  UNL d   1      -0.043  -3.411  -4.127  0.00  0.00     0.078 C 
ENDROOT
BRANCH   1   8
ATOM      8  C1  UNL d   1      -0.373  -1.426  -1.876  0.00  0.00     0.053 C 
ATOM      9  C   UNL d   1      -1.499  -2.355  -1.450  0.00  0.00     0.018 C 
ENDBRANCH   1   8
TORSDOF 1
ENDMDL
