MODEL 1
REMARK minimizedAffinity 3.13606262
REMARK minimizedRMSD -1
REMARK  1 active torsions:
REMARK  status: ('A' for Active; 'I' for Inactive)
REMARK    1  A    between atoms: C1_2  and  C2_3 
ROOT
ATOM      1  C2  UNL d   1      -0.337  -1.144  -3.671  0.00  0.00    -0.076 A 
ATOM      2  C3  UNL d   1      -0.713   0.160  -3.302  0.00  0.00     0.004 A 
ATOM      3  C4  UNL d   1      -1.010   1.121  -4.267  0.00  0.00    -0.003 A 
ATOM      4  C5  UNL d   1      -0.939   0.793  -5.616  0.00  0.00     0.000 A 
ATOM      5  C6  UNL d   1      -0.585  -0.500  -6.000  0.00  0.00     0.000 A 
ATOM      6  C7  UNL d   1      -0.298  -1.485  -5.040  0.00  0.00    -0.073 A 
ATOM      7  C8  UNL d   1       0.084  -2.862  -5.510  0.00  0.00     0.078 C 
ENDROOT
BRANCH   1   8
ATOM      8  C1  UNL d   1       0.000  -2.136  -2.581  0.00  0.00     0.053 C 
ATOM      9  C   UNL d   1      -0.780  -1.883  -1.300  0.00  0.00     0.018 C 
ENDBRANCH   1   8
TORSDOF 1
ENDMDL
