MODEL 1
REMARK minimizedAffinity 6.15856647
REMARK minimizedRMSD -1
REMARK  1 active torsions:
REMARK  status: ('A' for Active; 'I' for Inactive)
REMARK    1  A    between atoms: C1_2  and  C2_3 
ROOT
ATOM      1  C2  UNL d   1       0.597   0.068  -5.373  0.00  0.00    -0.076 A 
ATOM      2  C3  UNL d   1       1.121  -1.098  -4.790  0.00  0.00     0.004 A 
ATOM      3  C4  UNL d   1       0.284  -2.041  -4.195  0.00  0.00    -0.003 A 
ATOM      4  C5  UNL d   1      -1.090  -1.834  -4.175  0.00  0.00     0.000 A 
ATOM      5  C6  UNL d   1      -1.629  -0.691  -4.765  0.00  0.00     0.000 A 
ATOM      6  C7  UNL d   1      -0.801   0.262  -5.383  0.00  0.00    -0.073 A 
ATOM      7  C8  UNL d   1      -1.436   1.479  -5.999  0.00  0.00     0.078 C 
ENDROOT
BRANCH   1   8
ATOM      8  C1  UNL d   1       1.555   1.068  -5.980  0.00  0.00     0.053 C 
ATOM      9  C   UNL d   1       2.990   0.564  -5.996  0.00  0.00     0.018 C 
ENDBRANCH   1   8
TORSDOF 1
ENDMDL
