MODEL 1
REMARK minimizedAffinity -2.95554447
REMARK minimizedRMSD -1
REMARK  1 active torsions:
REMARK  status: ('A' for Active; 'I' for Inactive)
REMARK    1  A    between atoms: C1_2  and  C2_3 
ROOT
ATOM      1  C2  UNL d   1       1.335  -0.449  -5.010  0.00  0.00    -0.076 A 
ATOM      2  C3  UNL d   1       1.673  -1.433  -4.064  0.00  0.00     0.004 A 
ATOM      3  C4  UNL d   1       0.748  -1.862  -3.114  0.00  0.00    -0.003 A 
ATOM      4  C5  UNL d   1      -0.530  -1.316  -3.095  0.00  0.00     0.000 A 
ATOM      5  C6  UNL d   1      -0.889  -0.352  -4.037  0.00  0.00     0.000 A 
ATOM      6  C7  UNL d   1       0.026   0.080  -5.012  0.00  0.00    -0.073 A 
ATOM      7  C8  UNL d   1      -0.412   1.126  -6.000  0.00  0.00     0.078 C 
ENDROOT
BRANCH   1   8
ATOM      8  C1  UNL d   1       2.388  -0.004  -6.000  0.00  0.00     0.053 C 
ATOM      9  C   UNL d   1       3.533   0.743  -5.334  0.00  0.00     0.018 C 
ENDBRANCH   1   8
TORSDOF 1
ENDMDL
