MODEL 1
REMARK minimizedAffinity 0.894609451
REMARK minimizedRMSD -1
REMARK  1 active torsions:
REMARK  status: ('A' for Active; 'I' for Inactive)
REMARK    1  A    between atoms: C1_2  and  C2_3 
ROOT
ATOM      1  C2  UNL d   1      -2.891  -0.612  -5.607  0.00  0.00    -0.076 A 
ATOM      2  C3  UNL d   1      -3.009  -1.965  -5.969  0.00  0.00     0.004 A 
ATOM      3  C4  UNL d   1      -1.893  -2.800  -5.998  0.00  0.00    -0.003 A 
ATOM      4  C5  UNL d   1      -0.641  -2.295  -5.665  0.00  0.00     0.000 A 
ATOM      5  C6  UNL d   1      -0.508  -0.960  -5.286  0.00  0.00     0.000 A 
ATOM      6  C7  UNL d   1      -1.625  -0.109  -5.236  0.00  0.00    -0.073 A 
ATOM      7  C8  UNL d   1      -1.423   1.325  -4.827  0.00  0.00     0.078 C 
ENDROOT
BRANCH   1   8
ATOM      8  C1  UNL d   1      -4.131   0.253  -5.620  0.00  0.00     0.053 C 
ATOM      9  C   UNL d   1      -5.117  -0.126  -4.525  0.00  0.00     0.018 C 
ENDBRANCH   1   8
TORSDOF 1
ENDMDL
