MODEL 1
REMARK minimizedAffinity -3.85179853
REMARK minimizedRMSD -1
REMARK  0 active torsions:
REMARK  status: ('A' for Active; 'I' for Inactive)
ROOT
ATOM      1  C4' PXY d   1       2.095  -1.174   3.282  0.00  0.00     0.077 C 
ATOM      2  C1' PXY d   1      -1.118  -0.092  -1.400  0.00  0.00     0.077 C 
ATOM      3  C1  PXY d   1      -0.284  -0.370  -0.165  0.00  0.00    -0.082 A 
ATOM      4  C2  PXY d   1       1.020  -0.555  -0.284  0.00  0.00     0.003 A 
ATOM      5  C3  PXY d   1       1.784  -0.839   0.818  0.00  0.00     0.003 A 
ATOM      6  C4  PXY d   1       1.216  -0.882   2.063  0.00  0.00    -0.082 A 
ATOM      7  C5  PXY d   1      -0.113  -0.683   2.195  0.00  0.00     0.003 A 
ATOM      8  C6  PXY d   1      -0.878  -0.437   1.058  0.00  0.00     0.003 A 
ENDROOT
TORSDOF 0
ENDMDL
