MODEL 1
REMARK minimizedAffinity -2.21385908
REMARK minimizedRMSD -1
REMARK  0 active torsions:
REMARK  status: ('A' for Active; 'I' for Inactive)
ROOT
ATOM      1  C4' PXY d   1      -0.641   0.457  -1.595  0.00  0.00     0.077 C 
ATOM      2  C1' PXY d   1       1.723  -2.530   2.752  0.00  0.00     0.077 C 
ATOM      3  C1  PXY d   1       1.091  -1.746   1.619  0.00  0.00    -0.082 A 
ATOM      4  C2  PXY d   1       1.594  -1.841   0.398  0.00  0.00     0.003 A 
ATOM      5  C3  PXY d   1       1.055  -1.115  -0.632  0.00  0.00     0.003 A 
ATOM      6  C4  PXY d   1      -0.042  -0.323  -0.422  0.00  0.00    -0.082 A 
ATOM      7  C5  PXY d   1      -0.567  -0.229   0.818  0.00  0.00     0.003 A 
ATOM      8  C6  PXY d   1       0.020  -0.943   1.859  0.00  0.00     0.003 A 
ENDROOT
TORSDOF 0
ENDMDL
