MODEL 1
REMARK minimizedAffinity -4.76400518
REMARK minimizedRMSD -1
REMARK  0 active torsions:
REMARK  status: ('A' for Active; 'I' for Inactive)
ROOT
ATOM      1  C4' PXY d   1       1.501  -1.270   2.746  0.00  0.00     0.077 C 
ATOM      2  C1' PXY d   1      -0.816   1.004  -2.037  0.00  0.00     0.077 C 
ATOM      3  C1  PXY d   1      -0.202   0.399  -0.790  0.00  0.00    -0.082 A 
ATOM      4  C2  PXY d   1      -0.811   0.545   0.376  0.00  0.00     0.003 A 
ATOM      5  C3  PXY d   1      -0.253   0.032   1.518  0.00  0.00     0.003 A 
ATOM      6  C4  PXY d   1       0.913  -0.684   1.460  0.00  0.00    -0.082 A 
ATOM      7  C5  PXY d   1       1.534  -0.847   0.272  0.00  0.00     0.003 A 
ATOM      8  C6  PXY d   1       0.973  -0.283  -0.870  0.00  0.00     0.003 A 
ENDROOT
TORSDOF 0
ENDMDL
