MODEL 1
REMARK minimizedAffinity -2.71362329
REMARK minimizedRMSD -1
REMARK  0 active torsions:
REMARK  status: ('A' for Active; 'I' for Inactive)
ROOT
ATOM      1  C4' PXY d   1      -0.460   2.259  -2.827  0.00  0.00     0.077 C 
ATOM      2  C1' PXY d   1      -0.142  -0.717   2.118  0.00  0.00     0.077 C 
ATOM      3  C1  PXY d   1      -0.228   0.053   0.815  0.00  0.00    -0.082 A 
ATOM      4  C2  PXY d   1       0.387   1.219   0.702  0.00  0.00     0.003 A 
ATOM      5  C3  PXY d   1       0.293   1.943  -0.459  0.00  0.00     0.003 A 
ATOM      6  C4  PXY d   1      -0.393   1.443  -1.533  0.00  0.00    -0.082 A 
ATOM      7  C5  PXY d   1      -1.013   0.249  -1.430  0.00  0.00     0.003 A 
ATOM      8  C6  PXY d   1      -0.940  -0.451  -0.229  0.00  0.00     0.003 A 
ENDROOT
TORSDOF 0
ENDMDL
