MODEL 1
REMARK minimizedAffinity -4.91485596
REMARK minimizedRMSD -1
REMARK  0 active torsions:
REMARK  status: ('A' for Active; 'I' for Inactive)
ROOT
ATOM      1  C4' PXY d   1      -1.148   1.438  -2.401  0.00  0.00     0.077 C 
ATOM      2  C1' PXY d   1       0.161  -1.057   2.646  0.00  0.00     0.077 C 
ATOM      3  C1  PXY d   1      -0.170  -0.404   1.319  0.00  0.00    -0.082 A 
ATOM      4  C2  PXY d   1      -1.247   0.358   1.215  0.00  0.00     0.003 A 
ATOM      5  C3  PXY d   1      -1.578   0.931   0.014  0.00  0.00     0.003 A 
ATOM      6  C4  PXY d   1      -0.770   0.766  -1.078  0.00  0.00    -0.082 A 
ATOM      7  C5  PXY d   1       0.336  -0.001  -0.978  0.00  0.00     0.003 A 
ATOM      8  C6  PXY d   1       0.633  -0.607   0.239  0.00  0.00     0.003 A 
ENDROOT
TORSDOF 0
ENDMDL
