MODEL 1
REMARK minimizedAffinity -4.55464125
REMARK minimizedRMSD -1
REMARK  0 active torsions:
REMARK  status: ('A' for Active; 'I' for Inactive)
ROOT
ATOM      1  C4' PXY d   1      -1.033  -0.036  -1.361  0.00  0.00     0.077 C 
ATOM      2  C1' PXY d   1       2.174  -1.975   3.040  0.00  0.00     0.077 C 
ATOM      3  C1  PXY d   1       1.322  -1.470   1.892  0.00  0.00    -0.082 A 
ATOM      4  C2  PXY d   1       1.848  -1.369   0.682  0.00  0.00     0.003 A 
ATOM      5  C3  PXY d   1       1.101  -0.885  -0.361  0.00  0.00     0.003 A 
ATOM      6  C4  PXY d   1      -0.213  -0.550  -0.175  0.00  0.00    -0.082 A 
ATOM      7  C5  PXY d   1      -0.760  -0.660   1.055  0.00  0.00     0.003 A 
ATOM      8  C6  PXY d   1       0.026  -1.115   2.109  0.00  0.00     0.003 A 
ENDROOT
TORSDOF 0
ENDMDL
