MODEL 1
REMARK minimizedAffinity -4.15769386
REMARK minimizedRMSD -1
REMARK  0 active torsions:
REMARK  status: ('A' for Active; 'I' for Inactive)
ROOT
ATOM      1  C4' PXY d   1       3.725  -1.593  -0.607  0.00  0.00     0.077 C 
ATOM      2  C1' PXY d   1      -1.611   0.141   0.784  0.00  0.00     0.077 C 
ATOM      3  C1  PXY d   1      -0.207  -0.306   0.428  0.00  0.00    -0.082 A 
ATOM      4  C2  PXY d   1       0.036  -0.808  -0.772  0.00  0.00     0.003 A 
ATOM      5  C3  PXY d   1       1.293  -1.247  -1.099  0.00  0.00     0.003 A 
ATOM      6  C4  PXY d   1       2.325  -1.121  -0.207  0.00  0.00    -0.082 A 
ATOM      7  C5  PXY d   1       2.088  -0.599   1.015  0.00  0.00     0.003 A 
ATOM      8  C6  PXY d   1       0.796  -0.198   1.342  0.00  0.00     0.003 A 
ENDROOT
TORSDOF 0
ENDMDL
