MODEL 1
REMARK minimizedAffinity -4.34354639
REMARK minimizedRMSD -1
REMARK  0 active torsions:
REMARK  status: ('A' for Active; 'I' for Inactive)
ROOT
ATOM      1  C4' PXY d   1       2.586  -1.722   3.053  0.00  0.00     0.077 C 
ATOM      2  C1' PXY d   1      -1.134   0.778  -0.598  0.00  0.00     0.077 C 
ATOM      3  C1  PXY d   1      -0.167   0.123   0.369  0.00  0.00    -0.082 A 
ATOM      4  C2  PXY d   1       1.136   0.241   0.172  0.00  0.00     0.003 A 
ATOM      5  C3  PXY d   1       2.023  -0.372   1.018  0.00  0.00     0.003 A 
ATOM      6  C4  PXY d   1       1.573  -1.069   2.108  0.00  0.00    -0.082 A 
ATOM      7  C5  PXY d   1       0.246  -1.185   2.321  0.00  0.00     0.003 A 
ATOM      8  C6  PXY d   1      -0.640  -0.590   1.427  0.00  0.00     0.003 A 
ENDROOT
TORSDOF 0
ENDMDL
