MODEL 1
REMARK minimizedAffinity -2.66251493
REMARK minimizedRMSD -1
REMARK  0 active torsions:
REMARK  status: ('A' for Active; 'I' for Inactive)
ROOT
ATOM      1  N1  IND d   1      -1.342   0.345   0.757  0.00  0.00    -0.196 N 
ATOM      2  C2  IND d   1      -0.387   1.295   0.529  0.00  0.00     0.054 A 
ATOM      3  C3  IND d   1       0.785   0.712   0.191  0.00  0.00    -0.031 A 
ATOM      4  C4  IND d   1       1.334  -1.780  -0.149  0.00  0.00     0.051 A 
ATOM      5  C5  IND d   1       0.795  -3.029  -0.021  0.00  0.00    -0.031 A 
ATOM      6  C6  IND d   1      -0.512  -3.221   0.378  0.00  0.00     0.015 A 
ATOM      7  C7  IND d   1      -1.335  -2.166   0.654  0.00  0.00    -0.016 A 
ATOM      8  C8  IND d   1      -0.788  -0.897   0.533  0.00  0.00    -0.047 A 
ATOM      9  C9  IND d   1       0.550  -0.697   0.169  0.00  0.00    -0.096 A 
ATOM     10  HN1 IND d   1      -2.153   0.496   1.000  0.00  0.00     0.298 HD
ENDROOT
TORSDOF 0
ENDMDL
