MODEL 1
REMARK minimizedAffinity -4.26137877
REMARK minimizedRMSD -1
REMARK  0 active torsions:
REMARK  status: ('A' for Active; 'I' for Inactive)
ROOT
ATOM      1  N1  IND d   1       0.054  -2.640   0.974  0.00  0.00    -0.196 N 
ATOM      2  C2  IND d   1       0.647  -3.203  -0.121  0.00  0.00     0.054 A 
ATOM      3  C3  IND d   1       0.909  -2.258  -1.052  0.00  0.00    -0.031 A 
ATOM      4  C4  IND d   1       0.543   0.288  -0.946  0.00  0.00     0.051 A 
ATOM      5  C5  IND d   1      -0.002   1.266  -0.163  0.00  0.00    -0.031 A 
ATOM      6  C6  IND d   1      -0.566   0.987   1.065  0.00  0.00     0.015 A 
ATOM      7  C7  IND d   1      -0.595  -0.285   1.563  0.00  0.00    -0.016 A 
ATOM      8  C8  IND d   1      -0.048  -1.281   0.768  0.00  0.00    -0.047 A 
ATOM      9  C9  IND d   1       0.487  -1.011  -0.498  0.00  0.00    -0.096 A 
ATOM     10  HN1 IND d   1      -0.210  -3.062   1.675  0.00  0.00     0.298 HD
ENDROOT
TORSDOF 0
ENDMDL
