MODEL 1
REMARK minimizedAffinity -3.54492497
REMARK minimizedRMSD -1
REMARK  0 active torsions:
REMARK  status: ('A' for Active; 'I' for Inactive)
ROOT
ATOM      1  N1  IND d   1      -1.239  -2.417   0.266  0.00  0.00    -0.196 N 
ATOM      2  C2  IND d   1      -0.252  -3.259  -0.165  0.00  0.00     0.054 A 
ATOM      3  C3  IND d   1       0.879  -2.565  -0.423  0.00  0.00    -0.031 A 
ATOM      4  C4  IND d   1       1.366  -0.056  -0.113  0.00  0.00     0.051 A 
ATOM      5  C5  IND d   1       0.764   1.125   0.221  0.00  0.00    -0.031 A 
ATOM      6  C6  IND d   1      -0.562   1.186   0.597  0.00  0.00     0.015 A 
ATOM      7  C7  IND d   1      -1.336   0.062   0.665  0.00  0.00    -0.016 A 
ATOM      8  C8  IND d   1      -0.730  -1.137   0.320  0.00  0.00    -0.047 A 
ATOM      9  C9  IND d   1       0.603  -1.200  -0.104  0.00  0.00    -0.096 A 
ATOM     10  HN1 IND d   1      -2.042  -2.647   0.469  0.00  0.00     0.298 HD
ENDROOT
TORSDOF 0
ENDMDL
