MODEL 1
REMARK minimizedAffinity -1.45004582
REMARK minimizedRMSD -1
REMARK  0 active torsions:
REMARK  status: ('A' for Active; 'I' for Inactive)
ROOT
ATOM      1  N1  IND d   1       1.599   0.315   0.217  0.00  0.00    -0.196 N 
ATOM      2  C2  IND d   1       0.913   1.436  -0.158  0.00  0.00     0.054 A 
ATOM      3  C3  IND d   1      -0.415   1.188  -0.186  0.00  0.00    -0.031 A 
ATOM      4  C4  IND d   1      -1.692  -0.956   0.445  0.00  0.00     0.051 A 
ATOM      5  C5  IND d   1      -1.496  -2.258   0.812  0.00  0.00    -0.031 A 
ATOM      6  C6  IND d   1      -0.233  -2.778   1.007  0.00  0.00     0.015 A 
ATOM      7  C7  IND d   1       0.886  -2.010   0.851  0.00  0.00    -0.016 A 
ATOM      8  C8  IND d   1       0.691  -0.689   0.471  0.00  0.00    -0.047 A 
ATOM      9  C9  IND d   1      -0.587  -0.167   0.231  0.00  0.00    -0.096 A 
ATOM     10  HN1 IND d   1       2.453   0.248   0.283  0.00  0.00     0.298 HD
ENDROOT
TORSDOF 0
ENDMDL
