MODEL 1
REMARK minimizedAffinity -4.62878942
REMARK minimizedRMSD -1
REMARK  0 active torsions:
REMARK  status: ('A' for Active; 'I' for Inactive)
ROOT
ATOM      1  N1  IND d   1       1.544   1.060  -0.132  0.00  0.00    -0.196 N 
ATOM      2  C2  IND d   1       0.747   2.148   0.090  0.00  0.00     0.054 A 
ATOM      3  C3  IND d   1      -0.489   1.756   0.472  0.00  0.00    -0.031 A 
ATOM      4  C4  IND d   1      -1.394  -0.616   0.898  0.00  0.00     0.051 A 
ATOM      5  C5  IND d   1      -1.051  -1.934   0.795  0.00  0.00    -0.031 A 
ATOM      6  C6  IND d   1       0.202  -2.331   0.372  0.00  0.00     0.015 A 
ATOM      7  C7  IND d   1       1.165  -1.418   0.045  0.00  0.00    -0.016 A 
ATOM      8  C8  IND d   1       0.817  -0.078   0.142  0.00  0.00    -0.047 A 
ATOM      9  C9  IND d   1      -0.466   0.329   0.530  0.00  0.00    -0.096 A 
ATOM     10  HN1 IND d   1       2.361   1.082  -0.398  0.00  0.00     0.298 HD
ENDROOT
TORSDOF 0
ENDMDL
