MODEL 1
REMARK minimizedAffinity 0.0132407397
REMARK minimizedRMSD -1
REMARK  0 active torsions:
REMARK  status: ('A' for Active; 'I' for Inactive)
ROOT
ATOM      1  N1  IND d   1       0.824   1.467  -0.952  0.00  0.00    -0.196 N 
ATOM      2  C2  IND d   1       0.392   2.194   0.122  0.00  0.00     0.054 A 
ATOM      3  C3  IND d   1      -0.096   1.374   1.080  0.00  0.00    -0.031 A 
ATOM      4  C4  IND d   1      -0.189  -1.198   1.139  0.00  0.00     0.051 A 
ATOM      5  C5  IND d   1       0.055  -2.303   0.372  0.00  0.00    -0.031 A 
ATOM      6  C6  IND d   1       0.580  -2.206  -0.900  0.00  0.00     0.015 A 
ATOM      7  C7  IND d   1       0.894  -0.995  -1.451  0.00  0.00    -0.016 A 
ATOM      8  C8  IND d   1       0.641   0.129  -0.678  0.00  0.00    -0.047 A 
ATOM      9  C9  IND d   1       0.069   0.039   0.597  0.00  0.00    -0.096 A 
ATOM     10  HN1 IND d   1       1.154   1.790  -1.677  0.00  0.00     0.298 HD
ENDROOT
TORSDOF 0
ENDMDL
