MODEL 1
REMARK minimizedAffinity -3.19141722
REMARK minimizedRMSD -1
REMARK  0 active torsions:
REMARK  status: ('A' for Active; 'I' for Inactive)
ROOT
ATOM      1  N1  IND d   1      -1.400   0.077   0.273  0.00  0.00    -0.196 N 
ATOM      2  C2  IND d   1      -0.556   1.113  -0.015  0.00  0.00     0.054 A 
ATOM      3  C3  IND d   1       0.707   0.659  -0.176  0.00  0.00    -0.031 A 
ATOM      4  C4  IND d   1       1.598  -1.755  -0.112  0.00  0.00     0.051 A 
ATOM      5  C5  IND d   1       1.212  -3.039   0.151  0.00  0.00    -0.031 A 
ATOM      6  C6  IND d   1      -0.092  -3.357   0.473  0.00  0.00     0.015 A 
ATOM      7  C7  IND d   1      -1.064  -2.399   0.532  0.00  0.00    -0.016 A 
ATOM      8  C8  IND d   1      -0.674  -1.093   0.272  0.00  0.00    -0.047 A 
ATOM      9  C9  IND d   1       0.656  -0.759  -0.013  0.00  0.00    -0.096 A 
ATOM     10  HN1 IND d   1      -2.243   0.146   0.430  0.00  0.00     0.298 HD
ENDROOT
TORSDOF 0
ENDMDL
