MODEL 1
REMARK minimizedAffinity -4.34491205
REMARK minimizedRMSD -1
REMARK  0 active torsions:
REMARK  status: ('A' for Active; 'I' for Inactive)
ROOT
ATOM      1  N1  IND d   1       0.059   0.522  -0.915  0.00  0.00    -0.196 N 
ATOM      2  C2  IND d   1      -0.455   0.561   0.351  0.00  0.00     0.054 A 
ATOM      3  C3  IND d   1      -0.683  -0.692   0.805  0.00  0.00    -0.031 A 
ATOM      4  C4  IND d   1      -0.191  -2.954  -0.321  0.00  0.00     0.051 A 
ATOM      5  C5  IND d   1       0.245  -3.500  -1.496  0.00  0.00    -0.031 A 
ATOM      6  C6  IND d   1       0.652  -2.718  -2.557  0.00  0.00     0.015 A 
ATOM      7  C7  IND d   1       0.649  -1.354  -2.479  0.00  0.00    -0.016 A 
ATOM      8  C8  IND d   1       0.200  -0.795  -1.290  0.00  0.00    -0.047 A 
ATOM      9  C9  IND d   1      -0.254  -1.584  -0.225  0.00  0.00    -0.096 A 
ATOM     10  HN1 IND d   1       0.261   1.206  -1.395  0.00  0.00     0.298 HD
ENDROOT
TORSDOF 0
ENDMDL
