MODEL 1
REMARK minimizedAffinity -4.91600943
REMARK minimizedRMSD -1
REMARK  0 active torsions:
REMARK  status: ('A' for Active; 'I' for Inactive)
ROOT
ATOM      1  N1  IND d   1      -0.741  -0.565   1.256  0.00  0.00    -0.196 N 
ATOM      2  C2  IND d   1      -0.396  -1.870   1.476  0.00  0.00     0.054 A 
ATOM      3  C3  IND d   1       0.034  -2.443   0.330  0.00  0.00    -0.031 A 
ATOM      4  C4  IND d   1       0.352  -1.398  -2.002  0.00  0.00     0.051 A 
ATOM      5  C5  IND d   1       0.138  -0.246  -2.704  0.00  0.00    -0.031 A 
ATOM      6  C6  IND d   1      -0.388   0.883  -2.110  0.00  0.00     0.015 A 
ATOM      7  C7  IND d   1      -0.710   0.905  -0.782  0.00  0.00    -0.016 A 
ATOM      8  C8  IND d   1      -0.501  -0.266  -0.068  0.00  0.00    -0.047 A 
ATOM      9  C9  IND d   1      -0.007  -1.428  -0.675  0.00  0.00    -0.096 A 
ATOM     10  HN1 IND d   1      -1.054  -0.023   1.844  0.00  0.00     0.298 HD
ENDROOT
TORSDOF 0
ENDMDL
