MODEL 1
REMARK minimizedAffinity -3.11503005
REMARK minimizedRMSD -1
REMARK  0 active torsions:
REMARK  status: ('A' for Active; 'I' for Inactive)
ROOT
ATOM      1  N1  IND d   1       1.525   0.542   0.113  0.00  0.00    -0.196 N 
ATOM      2  C2  IND d   1       0.713   1.615  -0.130  0.00  0.00     0.054 A 
ATOM      3  C3  IND d   1      -0.586   1.249  -0.051  0.00  0.00    -0.031 A 
ATOM      4  C4  IND d   1      -1.609  -1.033   0.563  0.00  0.00     0.051 A 
ATOM      5  C5  IND d   1      -1.268  -2.328   0.832  0.00  0.00    -0.031 A 
ATOM      6  C6  IND d   1       0.048  -2.741   0.879  0.00  0.00     0.015 A 
ATOM      7  C7  IND d   1       1.077  -1.868   0.669  0.00  0.00    -0.016 A 
ATOM      8  C8  IND d   1       0.734  -0.553   0.388  0.00  0.00    -0.047 A 
ATOM      9  C9  IND d   1      -0.600  -0.137   0.297  0.00  0.00    -0.096 A 
ATOM     10  HN1 IND d   1       2.384   0.549   0.097  0.00  0.00     0.298 HD
ENDROOT
TORSDOF 0
ENDMDL
