MODEL 1
REMARK minimizedAffinity 1.24176848
REMARK minimizedRMSD -1
REMARK  0 active torsions:
REMARK  status: ('A' for Active; 'I' for Inactive)
ROOT
ATOM      1  N1  IND d   1       1.127   0.912  -1.777  0.00  0.00    -0.196 N 
ATOM      2  C2  IND d   1      -0.081   0.415  -1.375  0.00  0.00     0.054 A 
ATOM      3  C3  IND d   1      -0.546   1.111  -0.314  0.00  0.00    -0.031 A 
ATOM      4  C4  IND d   1       0.460   3.168   0.862  0.00  0.00     0.051 A 
ATOM      5  C5  IND d   1       1.570   3.965   0.876  0.00  0.00    -0.031 A 
ATOM      6  C6  IND d   1       2.609   3.783  -0.014  0.00  0.00     0.015 A 
ATOM      7  C7  IND d   1       2.572   2.800  -0.962  0.00  0.00    -0.016 A 
ATOM      8  C8  IND d   1       1.449   1.985  -0.974  0.00  0.00    -0.047 A 
ATOM      9  C9  IND d   1       0.411   2.137  -0.046  0.00  0.00    -0.096 A 
ATOM     10  HN1 IND d   1       1.606   0.607  -2.422  0.00  0.00     0.298 HD
ENDROOT
TORSDOF 0
ENDMDL
