MODEL 1
REMARK minimizedAffinity -6.42003536
REMARK minimizedRMSD -1
REMARK  0 active torsions:
REMARK  status: ('A' for Active; 'I' for Inactive)
ROOT
ATOM      1  N1  IND d   1      -0.333   0.136  -1.656  0.00  0.00    -0.196 N 
ATOM      2  C2  IND d   1      -0.418   0.674  -0.402  0.00  0.00     0.054 A 
ATOM      3  C3  IND d   1      -0.237  -0.285   0.534  0.00  0.00    -0.031 A 
ATOM      4  C4  IND d   1       0.311  -2.782   0.232  0.00  0.00     0.051 A 
ATOM      5  C5  IND d   1       0.452  -3.746  -0.726  0.00  0.00    -0.031 A 
ATOM      6  C6  IND d   1       0.339  -3.458  -2.071  0.00  0.00     0.015 A 
ATOM      7  C7  IND d   1       0.091  -2.189  -2.510  0.00  0.00    -0.016 A 
ATOM      8  C8  IND d   1      -0.060  -1.209  -1.539  0.00  0.00    -0.047 A 
ATOM      9  C9  IND d   1       0.011  -1.502  -0.171  0.00  0.00    -0.096 A 
ATOM     10  HN1 IND d   1      -0.434   0.566  -2.394  0.00  0.00     0.298 HD
ENDROOT
TORSDOF 0
ENDMDL
