MODEL 1
REMARK minimizedAffinity -3.87221789
REMARK minimizedRMSD -1
REMARK  0 active torsions:
REMARK  status: ('A' for Active; 'I' for Inactive)
ROOT
ATOM      1  N1  IND d   1      -0.355  -1.486   1.302  0.00  0.00    -0.196 N 
ATOM      2  C2  IND d   1      -0.062  -2.800   1.066  0.00  0.00     0.054 A 
ATOM      3  C3  IND d   1       0.295  -2.978  -0.226  0.00  0.00    -0.031 A 
ATOM      4  C4  IND d   1       0.567  -1.236  -2.102  0.00  0.00     0.051 A 
ATOM      5  C5  IND d   1       0.379   0.089  -2.377  0.00  0.00    -0.031 A 
ATOM      6  C6  IND d   1      -0.070   0.976  -1.420  0.00  0.00     0.015 A 
ATOM      7  C7  IND d   1      -0.338   0.570  -0.143  0.00  0.00    -0.016 A 
ATOM      8  C8  IND d   1      -0.154  -0.776   0.138  0.00  0.00    -0.047 A 
ATOM      9  C9  IND d   1       0.261  -1.689  -0.840  0.00  0.00    -0.096 A 
ATOM     10  HN1 IND d   1      -0.619  -1.157   2.051  0.00  0.00     0.298 HD
ENDROOT
TORSDOF 0
ENDMDL
