MODEL 1
REMARK minimizedAffinity -1.32027972
REMARK minimizedRMSD -1
REMARK  0 active torsions:
REMARK  status: ('A' for Active; 'I' for Inactive)
ROOT
ATOM      1  N1  IND d   1       0.778  -3.252   0.221  0.00  0.00    -0.196 N 
ATOM      2  C2  IND d   1      -0.429  -3.852   0.447  0.00  0.00     0.054 A 
ATOM      3  C3  IND d   1      -1.401  -2.920   0.574  0.00  0.00    -0.031 A 
ATOM      4  C4  IND d   1      -1.252  -0.360   0.345  0.00  0.00     0.051 A 
ATOM      5  C5  IND d   1      -0.353   0.656   0.178  0.00  0.00    -0.031 A 
ATOM      6  C6  IND d   1       0.995   0.416   0.010  0.00  0.00     0.015 A 
ATOM      7  C7  IND d   1       1.496  -0.855  -0.008  0.00  0.00    -0.016 A 
ATOM      8  C8  IND d   1       0.587  -1.889   0.169  0.00  0.00    -0.047 A 
ATOM      9  C9  IND d   1      -0.776  -1.650   0.382  0.00  0.00    -0.096 A 
ATOM     10  HN1 IND d   1       1.530  -3.658   0.128  0.00  0.00     0.298 HD
ENDROOT
TORSDOF 0
ENDMDL
