MODEL 1
REMARK minimizedAffinity -5.75372791
REMARK minimizedRMSD -1
REMARK  0 active torsions:
REMARK  status: ('A' for Active; 'I' for Inactive)
ROOT
ATOM      1  N1  IND d   1       0.417  -1.106  -2.751  0.00  0.00    -0.196 N 
ATOM      2  C2  IND d   1       0.457  -2.441  -3.041  0.00  0.00     0.054 A 
ATOM      3  C3  IND d   1       0.143  -3.170  -1.946  0.00  0.00    -0.031 A 
ATOM      4  C4  IND d   1      -0.568  -2.377   0.397  0.00  0.00     0.051 A 
ATOM      5  C5  IND d   1      -0.715  -1.248   1.154  0.00  0.00    -0.031 A 
ATOM      6  C6  IND d   1      -0.491   0.011   0.636  0.00  0.00     0.015 A 
ATOM      7  C7  IND d   1      -0.120   0.190  -0.666  0.00  0.00    -0.016 A 
ATOM      8  C8  IND d   1       0.038  -0.954  -1.435  0.00  0.00    -0.047 A 
ATOM      9  C9  IND d   1      -0.147  -2.237  -0.904  0.00  0.00    -0.096 A 
ATOM     10  HN1 IND d   1       0.599  -0.468  -3.298  0.00  0.00     0.298 HD
ENDROOT
TORSDOF 0
ENDMDL
