MODEL 1
REMARK minimizedAffinity -4.83966303
REMARK minimizedRMSD -1
REMARK  0 active torsions:
REMARK  status: ('A' for Active; 'I' for Inactive)
ROOT
ATOM      1  N1  IND d   1      -0.683   1.723   0.758  0.00  0.00    -0.196 N 
ATOM      2  C2  IND d   1       0.147   2.176  -0.229  0.00  0.00     0.054 A 
ATOM      3  C3  IND d   1       0.753   1.137  -0.847  0.00  0.00    -0.031 A 
ATOM      4  C4  IND d   1       0.452  -1.392  -0.469  0.00  0.00     0.051 A 
ATOM      5  C5  IND d   1      -0.172  -2.292   0.348  0.00  0.00    -0.031 A 
ATOM      6  C6  IND d   1      -1.017  -1.892   1.363  0.00  0.00     0.015 A 
ATOM      7  C7  IND d   1      -1.280  -0.571   1.591  0.00  0.00    -0.016 A 
ATOM      8  C8  IND d   1      -0.643   0.346   0.768  0.00  0.00    -0.047 A 
ATOM      9  C9  IND d   1       0.249  -0.052  -0.236  0.00  0.00    -0.096 A 
ATOM     10  HN1 IND d   1      -1.152   2.216   1.284  0.00  0.00     0.298 HD
ENDROOT
TORSDOF 0
ENDMDL
