MODEL 1
REMARK minimizedAffinity -3.82785034
REMARK minimizedRMSD -1
REMARK  0 active torsions:
REMARK  status: ('A' for Active; 'I' for Inactive)
ROOT
ATOM      1  C   UNL d   1       0.105  -2.385   1.939  0.00  0.00     0.020 A 
ATOM      2  C1  UNL d   1       1.431  -2.596   1.564  0.00  0.00     0.020 A 
ATOM      3  C2  UNL d   1       2.038  -1.745   0.637  0.00  0.00     0.034 A 
ATOM      4  C3  UNL d   1       1.319  -0.680   0.082  0.00  0.00     0.017 A 
ATOM      5  C4  UNL d   1      -0.012  -0.469   0.460  0.00  0.00     0.017 A 
ATOM      6  C5  UNL d   1      -0.615  -1.324   1.388  0.00  0.00     0.034 A 
ATOM      7 Cl   UNL d   1      -0.964   0.823  -0.182  0.00  0.00    -0.070 Cl
ATOM      8 Cl1  UNL d   1       2.133   0.331  -1.057  0.00  0.00    -0.070 Cl
ENDROOT
TORSDOF 0
ENDMDL
