MODEL 1
REMARK minimizedAffinity -3.68712044
REMARK minimizedRMSD -1
REMARK  0 active torsions:
REMARK  status: ('A' for Active; 'I' for Inactive)
ROOT
ATOM      1  C   UNL d   1       0.207  -1.971   1.786  0.00  0.00     0.020 A 
ATOM      2  C1  UNL d   1       1.409  -2.372   1.203  0.00  0.00     0.020 A 
ATOM      3  C2  UNL d   1       2.020  -1.566   0.240  0.00  0.00     0.034 A 
ATOM      4  C3  UNL d   1       1.430  -0.355  -0.142  0.00  0.00     0.017 A 
ATOM      5  C4  UNL d   1       0.224   0.045   0.443  0.00  0.00     0.017 A 
ATOM      6  C5  UNL d   1      -0.384  -0.765   1.407  0.00  0.00     0.034 A 
ATOM      7 Cl   UNL d   1      -0.564   1.525   0.023  0.00  0.00    -0.070 Cl
ATOM      8 Cl1  UNL d   1       2.242   0.591  -1.338  0.00  0.00    -0.070 Cl
ENDROOT
TORSDOF 0
ENDMDL
