MODEL 1
REMARK minimizedAffinity -5.09081316
REMARK minimizedRMSD -1
REMARK  0 active torsions:
REMARK  status: ('A' for Active; 'I' for Inactive)
ROOT
ATOM      1  C   UNL d   1       1.650  -2.802   0.925  0.00  0.00     0.020 A 
ATOM      2  C1  UNL d   1       1.972  -1.849  -0.040  0.00  0.00     0.020 A 
ATOM      3  C2  UNL d   1       1.253  -0.654  -0.108  0.00  0.00     0.034 A 
ATOM      4  C3  UNL d   1       0.209  -0.408   0.792  0.00  0.00     0.017 A 
ATOM      5  C4  UNL d   1      -0.113  -1.365   1.761  0.00  0.00     0.017 A 
ATOM      6  C5  UNL d   1       0.610  -2.561   1.824  0.00  0.00     0.034 A 
ATOM      7 Cl   UNL d   1      -1.387  -1.134   2.905  0.00  0.00    -0.070 Cl
ATOM      8 Cl1  UNL d   1      -0.637   1.092   0.651  0.00  0.00    -0.070 Cl
ENDROOT
TORSDOF 0
ENDMDL
