MODEL 1
REMARK minimizedAffinity -3.54796934
REMARK minimizedRMSD -1
REMARK  0 active torsions:
REMARK  status: ('A' for Active; 'I' for Inactive)
ROOT
ATOM      1  C   UNL d   1      -0.084   4.374  -4.890  0.00  0.00     0.020 A 
ATOM      2  C1  UNL d   1       0.363   4.746  -3.623  0.00  0.00     0.020 A 
ATOM      3  C2  UNL d   1       0.033   3.969  -2.510  0.00  0.00     0.034 A 
ATOM      4  C3  UNL d   1      -0.745   2.816  -2.662  0.00  0.00     0.017 A 
ATOM      5  C4  UNL d   1      -1.194   2.444  -3.935  0.00  0.00     0.017 A 
ATOM      6  C5  UNL d   1      -0.861   3.225  -5.045  0.00  0.00     0.034 A 
ATOM      7 Cl   UNL d   1      -2.158   1.035  -4.202  0.00  0.00    -0.070 Cl
ATOM      8 Cl1  UNL d   1      -1.114   1.903  -1.243  0.00  0.00    -0.070 Cl
ENDROOT
TORSDOF 0
ENDMDL
