MODEL 1
REMARK minimizedAffinity -3.67623472
REMARK minimizedRMSD -1
REMARK  0 active torsions:
REMARK  status: ('A' for Active; 'I' for Inactive)
ROOT
ATOM      1  C   UNL d   1      -1.732   1.722  -1.964  0.00  0.00     0.020 A 
ATOM      2  C1  UNL d   1      -2.415   1.297  -3.103  0.00  0.00     0.020 A 
ATOM      3  C2  UNL d   1      -2.157   1.900  -4.337  0.00  0.00     0.034 A 
ATOM      4  C3  UNL d   1      -1.215   2.929  -4.434  0.00  0.00     0.017 A 
ATOM      5  C4  UNL d   1      -0.530   3.355  -3.290  0.00  0.00     0.017 A 
ATOM      6  C5  UNL d   1      -0.791   2.748  -2.057  0.00  0.00     0.034 A 
ATOM      7 Cl   UNL d   1       0.648   4.620  -3.331  0.00  0.00    -0.070 Cl
ATOM      8 Cl1  UNL d   1      -0.946   3.629  -5.991  0.00  0.00    -0.070 Cl
ENDROOT
TORSDOF 0
ENDMDL
