MODEL 1
REMARK minimizedAffinity -4.61447573
REMARK minimizedRMSD -1
REMARK  0 active torsions:
REMARK  status: ('A' for Active; 'I' for Inactive)
ROOT
ATOM      1  C   UNL d   1      -0.477   1.039  -0.237  0.00  0.00     0.020 A 
ATOM      2  C1  UNL d   1       0.757   0.692  -0.786  0.00  0.00     0.020 A 
ATOM      3  C2  UNL d   1       1.414  -0.461  -0.352  0.00  0.00     0.034 A 
ATOM      4  C3  UNL d   1       0.837  -1.271   0.633  0.00  0.00     0.017 A 
ATOM      5  C4  UNL d   1      -0.402  -0.922   1.183  0.00  0.00     0.017 A 
ATOM      6  C5  UNL d   1      -1.055   0.234   0.745  0.00  0.00     0.034 A 
ATOM      7 Cl   UNL d   1      -1.176  -1.872   2.402  0.00  0.00    -0.070 Cl
ATOM      8 Cl1  UNL d   1       1.705  -2.683   1.122  0.00  0.00    -0.070 Cl
ENDROOT
TORSDOF 0
ENDMDL
