MODEL 1
REMARK minimizedAffinity -3.76774454
REMARK minimizedRMSD -1
REMARK  0 active torsions:
REMARK  status: ('A' for Active; 'I' for Inactive)
ROOT
ATOM      1  C   UNL d   1      -0.069   3.586  -3.926  0.00  0.00     0.020 A 
ATOM      2  C1  UNL d   1      -1.187   3.292  -4.706  0.00  0.00     0.020 A 
ATOM      3  C2  UNL d   1      -2.203   2.483  -4.194  0.00  0.00     0.034 A 
ATOM      4  C3  UNL d   1      -2.103   1.964  -2.897  0.00  0.00     0.017 A 
ATOM      5  C4  UNL d   1      -0.980   2.259  -2.115  0.00  0.00     0.017 A 
ATOM      6  C5  UNL d   1       0.034   3.070  -2.634  0.00  0.00     0.034 A 
ATOM      7 Cl   UNL d   1      -0.786   1.656  -0.507  0.00  0.00    -0.070 Cl
ATOM      8 Cl1  UNL d   1      -3.397   0.971  -2.328  0.00  0.00    -0.070 Cl
ENDROOT
TORSDOF 0
ENDMDL
