MODEL 1
REMARK minimizedAffinity -0.789058924
REMARK minimizedRMSD -1
REMARK  0 active torsions:
REMARK  status: ('A' for Active; 'I' for Inactive)
ROOT
ATOM      1  C   UNL d   1      -1.383   3.752  -4.439  0.00  0.00     0.020 A 
ATOM      2  C1  UNL d   1      -0.255   3.980  -3.651  0.00  0.00     0.020 A 
ATOM      3  C2  UNL d   1      -0.018   3.188  -2.526  0.00  0.00     0.034 A 
ATOM      4  C3  UNL d   1      -0.910   2.165  -2.184  0.00  0.00     0.017 A 
ATOM      5  C4  UNL d   1      -2.042   1.937  -2.975  0.00  0.00     0.017 A 
ATOM      6  C5  UNL d   1      -2.274   2.733  -4.101  0.00  0.00     0.034 A 
ATOM      7 Cl   UNL d   1      -3.188   0.693  -2.618  0.00  0.00    -0.070 Cl
ATOM      8 Cl1  UNL d   1      -0.554   1.224  -0.779  0.00  0.00    -0.070 Cl
ENDROOT
TORSDOF 0
ENDMDL
