MODEL 1
REMARK minimizedAffinity -3.91659999
REMARK minimizedRMSD -1
REMARK  0 active torsions:
REMARK  status: ('A' for Active; 'I' for Inactive)
ROOT
ATOM      1  C   UNL d   1      -2.575   1.455  -3.769  0.00  0.00     0.020 A 
ATOM      2  C1  UNL d   1      -2.739   0.750  -2.577  0.00  0.00     0.020 A 
ATOM      3  C2  UNL d   1      -1.831   0.927  -1.531  0.00  0.00     0.034 A 
ATOM      4  C3  UNL d   1      -0.755   1.810  -1.674  0.00  0.00     0.017 A 
ATOM      5  C4  UNL d   1      -0.591   2.517  -2.871  0.00  0.00     0.017 A 
ATOM      6  C5  UNL d   1      -1.503   2.337  -3.915  0.00  0.00     0.034 A 
ATOM      7 Cl   UNL d   1       0.712   3.625  -3.122  0.00  0.00    -0.070 Cl
ATOM      8 Cl1  UNL d   1       0.329   1.979  -0.339  0.00  0.00    -0.070 Cl
ENDROOT
TORSDOF 0
ENDMDL
