MODEL 1
REMARK minimizedAffinity -2.23606443
REMARK minimizedRMSD -1
REMARK  0 active torsions:
REMARK  status: ('A' for Active; 'I' for Inactive)
ROOT
ATOM      1  C   UNL d   1      -0.390   3.642  -3.809  0.00  0.00     0.020 A 
ATOM      2  C1  UNL d   1      -1.365   2.931  -4.508  0.00  0.00     0.020 A 
ATOM      3  C2  UNL d   1      -2.044   1.882  -3.885  0.00  0.00     0.034 A 
ATOM      4  C3  UNL d   1      -1.749   1.539  -2.561  0.00  0.00     0.017 A 
ATOM      5  C4  UNL d   1      -0.770   2.254  -1.860  0.00  0.00     0.017 A 
ATOM      6  C5  UNL d   1      -0.093   3.304  -2.488  0.00  0.00     0.034 A 
ATOM      7 Cl   UNL d   1      -0.350   1.890  -0.223  0.00  0.00    -0.070 Cl
ATOM      8 Cl1  UNL d   1      -2.628   0.230  -1.854  0.00  0.00    -0.070 Cl
ENDROOT
TORSDOF 0
ENDMDL
