MODEL 1
REMARK minimizedAffinity -2.93884039
REMARK minimizedRMSD -1
REMARK  0 active torsions:
REMARK  status: ('A' for Active; 'I' for Inactive)
ROOT
ATOM      1  C   UNL d   1       1.980  -1.563   1.157  0.00  0.00     0.020 A 
ATOM      2  C1  UNL d   1       2.217  -1.235  -0.178  0.00  0.00     0.020 A 
ATOM      3  C2  UNL d   1       1.330  -0.400  -0.860  0.00  0.00     0.034 A 
ATOM      4  C3  UNL d   1       0.201   0.110  -0.208  0.00  0.00     0.017 A 
ATOM      5  C4  UNL d   1      -0.037  -0.219   1.131  0.00  0.00     0.017 A 
ATOM      6  C5  UNL d   1       0.855  -1.056   1.809  0.00  0.00     0.034 A 
ATOM      7 Cl   UNL d   1      -1.408   0.371   2.002  0.00  0.00    -0.070 Cl
ATOM      8 Cl1  UNL d   1      -0.854   1.137  -1.113  0.00  0.00    -0.070 Cl
ENDROOT
TORSDOF 0
ENDMDL
