MODEL 1
REMARK minimizedAffinity -4.60429907
REMARK minimizedRMSD -1
REMARK  0 active torsions:
REMARK  status: ('A' for Active; 'I' for Inactive)
ROOT
ATOM      1  C   UNL d   1       0.112   4.136  -4.074  0.00  0.00     0.020 A 
ATOM      2  C1  UNL d   1      -0.267   3.185  -5.021  0.00  0.00     0.020 A 
ATOM      3  C2  UNL d   1      -1.079   2.112  -4.646  0.00  0.00     0.034 A 
ATOM      4  C3  UNL d   1      -1.514   1.988  -3.321  0.00  0.00     0.017 A 
ATOM      5  C4  UNL d   1      -1.133   2.944  -2.372  0.00  0.00     0.017 A 
ATOM      6  C5  UNL d   1      -0.320   4.016  -2.753  0.00  0.00     0.034 A 
ATOM      7 Cl   UNL d   1      -1.631   2.858  -0.719  0.00  0.00    -0.070 Cl
ATOM      8 Cl1  UNL d   1      -2.517   0.637  -2.928  0.00  0.00    -0.070 Cl
ENDROOT
TORSDOF 0
ENDMDL
