MODEL 1
REMARK minimizedAffinity -3.45245194
REMARK minimizedRMSD -1
REMARK  0 active torsions:
REMARK  status: ('A' for Active; 'I' for Inactive)
ROOT
ATOM      1  C   UNL d   1      -0.023   3.791  -5.025  0.00  0.00     0.020 A 
ATOM      2  C1  UNL d   1       0.784   4.023  -3.912  0.00  0.00     0.020 A 
ATOM      3  C2  UNL d   1       0.422   3.504  -2.667  0.00  0.00     0.034 A 
ATOM      4  C3  UNL d   1      -0.749   2.750  -2.532  0.00  0.00     0.017 A 
ATOM      5  C4  UNL d   1      -1.559   2.518  -3.650  0.00  0.00     0.017 A 
ATOM      6  C5  UNL d   1      -1.192   3.041  -4.894  0.00  0.00     0.034 A 
ATOM      7 Cl   UNL d   1      -3.020   1.599  -3.562  0.00  0.00    -0.070 Cl
ATOM      8 Cl1  UNL d   1      -1.135   2.139  -0.963  0.00  0.00    -0.070 Cl
ENDROOT
TORSDOF 0
ENDMDL
