MODEL 1
REMARK minimizedAffinity -4.09598494
REMARK minimizedRMSD -1
REMARK  0 active torsions:
REMARK  status: ('A' for Active; 'I' for Inactive)
ROOT
ATOM      1  C   UNL d   1       0.432   3.555  -4.029  0.00  0.00     0.020 A 
ATOM      2  C1  UNL d   1      -0.677   3.424  -4.865  0.00  0.00     0.020 A 
ATOM      3  C2  UNL d   1      -1.780   2.676  -4.449  0.00  0.00     0.034 A 
ATOM      4  C3  UNL d   1      -1.777   2.054  -3.195  0.00  0.00     0.017 A 
ATOM      5  C4  UNL d   1      -0.664   2.186  -2.357  0.00  0.00     0.017 A 
ATOM      6  C5  UNL d   1       0.438   2.937  -2.778  0.00  0.00     0.034 A 
ATOM      7 Cl   UNL d   1      -0.587   1.449  -0.796  0.00  0.00    -0.070 Cl
ATOM      8 Cl1  UNL d   1      -3.175   1.144  -2.746  0.00  0.00    -0.070 Cl
ENDROOT
TORSDOF 0
ENDMDL
