MODEL 1
REMARK minimizedAffinity -5.12344551
REMARK minimizedRMSD -1
REMARK  0 active torsions:
REMARK  status: ('A' for Active; 'I' for Inactive)
ROOT
ATOM      1  C   UNL d   1      -1.203   3.642  -4.704  0.00  0.00     0.020 A 
ATOM      2  C1  UNL d   1      -0.120   4.129  -3.972  0.00  0.00     0.020 A 
ATOM      3  C2  UNL d   1       0.117   3.658  -2.679  0.00  0.00     0.034 A 
ATOM      4  C3  UNL d   1      -0.729   2.697  -2.114  0.00  0.00     0.017 A 
ATOM      5  C4  UNL d   1      -1.816   2.209  -2.849  0.00  0.00     0.017 A 
ATOM      6  C5  UNL d   1      -2.049   2.685  -4.143  0.00  0.00     0.034 A 
ATOM      7 Cl   UNL d   1      -2.904   1.023  -2.218  0.00  0.00    -0.070 Cl
ATOM      8 Cl1  UNL d   1      -0.376   2.159  -0.510  0.00  0.00    -0.070 Cl
ENDROOT
TORSDOF 0
ENDMDL
