MODEL 1
REMARK minimizedAffinity -2.73876262
REMARK minimizedRMSD -1
REMARK  0 active torsions:
REMARK  status: ('A' for Active; 'I' for Inactive)
ROOT
ATOM      1  C   UNL d   1      -0.714   2.864  -4.288  0.00  0.00     0.020 A 
ATOM      2  C1  UNL d   1       0.353   3.029  -3.405  0.00  0.00     0.020 A 
ATOM      3  C2  UNL d   1       0.267   2.528  -2.105  0.00  0.00     0.034 A 
ATOM      4  C3  UNL d   1      -0.889   1.860  -1.683  0.00  0.00     0.017 A 
ATOM      5  C4  UNL d   1      -1.959   1.695  -2.570  0.00  0.00     0.017 A 
ATOM      6  C5  UNL d   1      -1.867   2.199  -3.871  0.00  0.00     0.034 A 
ATOM      7 Cl   UNL d   1      -3.417   0.883  -2.122  0.00  0.00    -0.070 Cl
ATOM      8 Cl1  UNL d   1      -0.927   1.266  -0.061  0.00  0.00    -0.070 Cl
ENDROOT
TORSDOF 0
ENDMDL
