MODEL 1
REMARK minimizedAffinity -2.03549409
REMARK minimizedRMSD -1
REMARK  0 active torsions:
REMARK  status: ('A' for Active; 'I' for Inactive)
ROOT
ATOM      1  C   UNL d   1       2.105  -1.536   1.164  0.00  0.00     0.020 A 
ATOM      2  C1  UNL d   1       2.322  -0.937  -0.076  0.00  0.00     0.020 A 
ATOM      3  C2  UNL d   1       1.331  -0.135  -0.646  0.00  0.00     0.034 A 
ATOM      4  C3  UNL d   1       0.119   0.070   0.024  0.00  0.00     0.017 A 
ATOM      5  C4  UNL d   1      -0.097  -0.532   1.269  0.00  0.00     0.017 A 
ATOM      6  C5  UNL d   1       0.899  -1.334   1.835  0.00  0.00     0.034 A 
ATOM      7 Cl   UNL d   1      -1.566  -0.326   2.156  0.00  0.00    -0.070 Cl
ATOM      8 Cl1  UNL d   1      -1.062   1.073  -0.740  0.00  0.00    -0.070 Cl
ENDROOT
TORSDOF 0
ENDMDL
