MODEL 1
REMARK minimizedAffinity -2.03924942
REMARK minimizedRMSD -1
REMARK  0 active torsions:
REMARK  status: ('A' for Active; 'I' for Inactive)
ROOT
ATOM      1  C   UNL d   1       2.268  -0.581  -0.077  0.00  0.00     0.020 A 
ATOM      2  C1  UNL d   1       1.268   0.251  -0.579  0.00  0.00     0.020 A 
ATOM      3  C2  UNL d   1       0.062   0.388   0.112  0.00  0.00     0.034 A 
ATOM      4  C3  UNL d   1      -0.148  -0.308   1.308  0.00  0.00     0.017 A 
ATOM      5  C4  UNL d   1       0.856  -1.143   1.811  0.00  0.00     0.017 A 
ATOM      6  C5  UNL d   1       2.062  -1.277   1.115  0.00  0.00     0.034 A 
ATOM      7 Cl   UNL d   1       0.671  -2.034   3.280  0.00  0.00    -0.070 Cl
ATOM      8 Cl1  UNL d   1      -1.663  -0.091   2.109  0.00  0.00    -0.070 Cl
ENDROOT
TORSDOF 0
ENDMDL
