MODEL 1
REMARK minimizedAffinity -4.78086519
REMARK minimizedRMSD -1
REMARK  1 active torsions:
REMARK  status: ('A' for Active; 'I' for Inactive)
REMARK    1  A    between atoms: C1_2  and  C2_3 
ROOT
ATOM      1  C2  UNL d   1       0.038  -0.677   0.163  0.00  0.00    -0.077 A 
ATOM      2  C3  UNL d   1      -0.588  -1.705   0.882  0.00  0.00     0.002 A 
ATOM      3  C4  UNL d   1      -1.906  -2.066   0.596  0.00  0.00     0.002 A 
ATOM      4  C5  UNL d   1      -2.608  -1.406  -0.410  0.00  0.00    -0.004 A 
ATOM      5  C6  UNL d   1      -1.995  -0.381  -1.130  0.00  0.00     0.002 A 
ATOM      6  C7  UNL d   1      -0.678  -0.019  -0.845  0.00  0.00     0.002 A 
ENDROOT
BRANCH   1   7
ATOM      7  C1  UNL d   1       1.476  -0.320   0.436  0.00  0.00     0.055 C 
ATOM      8  C   UNL d   1       1.668   1.187   0.508  0.00  0.00     0.019 C 
ENDBRANCH   1   7
TORSDOF 1
ENDMDL
