MODEL 1
REMARK minimizedAffinity -3.85640311
REMARK minimizedRMSD -1
REMARK  1 active torsions:
REMARK  status: ('A' for Active; 'I' for Inactive)
REMARK    1  A    between atoms: C1_2  and  C2_3 
ROOT
ATOM      1  C2  UNL d   1      -1.252  -0.696   0.649  0.00  0.00    -0.077 A 
ATOM      2  C3  UNL d   1      -0.834  -1.717   1.514  0.00  0.00     0.002 A 
ATOM      3  C4  UNL d   1      -1.594  -2.881   1.651  0.00  0.00     0.002 A 
ATOM      4  C5  UNL d   1      -2.772  -3.035   0.923  0.00  0.00    -0.004 A 
ATOM      5  C6  UNL d   1      -3.196  -2.024   0.062  0.00  0.00     0.002 A 
ATOM      6  C7  UNL d   1      -2.439  -0.860  -0.075  0.00  0.00     0.002 A 
ENDROOT
BRANCH   1   7
ATOM      7  C1  UNL d   1      -0.409   0.539   0.463  0.00  0.00     0.055 C 
ATOM      8  C   UNL d   1       0.973   0.190  -0.072  0.00  0.00     0.019 C 
ENDBRANCH   1   7
TORSDOF 1
ENDMDL
