MODEL 1
REMARK minimizedAffinity -3.20259476
REMARK minimizedRMSD -1
REMARK  1 active torsions:
REMARK  status: ('A' for Active; 'I' for Inactive)
REMARK    1  A    between atoms: C1_2  and  C2_3 
ROOT
ATOM      1  C2  UNL d   1       1.718   0.690   0.142  0.00  0.00    -0.077 A 
ATOM      2  C3  UNL d   1       0.409   1.093  -0.156  0.00  0.00     0.002 A 
ATOM      3  C4  UNL d   1      -0.670   0.254   0.127  0.00  0.00     0.002 A 
ATOM      4  C5  UNL d   1      -0.452  -0.991   0.713  0.00  0.00    -0.004 A 
ATOM      5  C6  UNL d   1       0.846  -1.402   1.012  0.00  0.00     0.002 A 
ATOM      6  C7  UNL d   1       1.926  -0.565   0.729  0.00  0.00     0.002 A 
ENDROOT
BRANCH   1   7
ATOM      7  C1  UNL d   1       2.879   1.614  -0.117  0.00  0.00     0.055 C 
ATOM      8  C   UNL d   1       2.686   2.954   0.579  0.00  0.00     0.019 C 
ENDBRANCH   1   7
TORSDOF 1
ENDMDL
