MODEL 1
REMARK minimizedAffinity -5.03027773
REMARK minimizedRMSD -1
REMARK  1 active torsions:
REMARK  status: ('A' for Active; 'I' for Inactive)
REMARK    1  A    between atoms: C1_2  and  C2_3 
ROOT
ATOM      1  C2  UNL d   1      -1.810  -1.709   0.096  0.00  0.00    -0.077 A 
ATOM      2  C3  UNL d   1      -2.672  -1.330  -0.943  0.00  0.00     0.002 A 
ATOM      3  C4  UNL d   1      -2.337  -0.269  -1.787  0.00  0.00     0.002 A 
ATOM      4  C5  UNL d   1      -1.139   0.418  -1.603  0.00  0.00    -0.004 A 
ATOM      5  C6  UNL d   1      -0.276   0.050  -0.571  0.00  0.00     0.002 A 
ATOM      6  C7  UNL d   1      -0.610  -1.010   0.274  0.00  0.00     0.002 A 
ENDROOT
BRANCH   1   7
ATOM      7  C1  UNL d   1      -2.147  -2.885   0.976  0.00  0.00     0.055 C 
ATOM      8  C   UNL d   1      -1.104  -3.075   2.068  0.00  0.00     0.019 C 
ENDBRANCH   1   7
TORSDOF 1
ENDMDL
