MODEL 1
REMARK minimizedAffinity -3.66156507
REMARK minimizedRMSD -1
REMARK  1 active torsions:
REMARK  status: ('A' for Active; 'I' for Inactive)
REMARK    1  A    between atoms: C1_2  and  C2_3 
ROOT
ATOM      1  C2  UNL d   1       0.537   1.460   0.510  0.00  0.00    -0.077 A 
ATOM      2  C3  UNL d   1       0.815   0.091   0.394  0.00  0.00     0.002 A 
ATOM      3  C4  UNL d   1      -0.091  -0.762  -0.239  0.00  0.00     0.002 A 
ATOM      4  C5  UNL d   1      -1.278  -0.256  -0.764  0.00  0.00    -0.004 A 
ATOM      5  C6  UNL d   1      -1.564   1.104  -0.652  0.00  0.00     0.002 A 
ATOM      6  C7  UNL d   1      -0.660   1.959  -0.019  0.00  0.00     0.002 A 
ENDROOT
BRANCH   1   7
ATOM      7  C1  UNL d   1       1.536   2.390   1.148  0.00  0.00     0.055 C 
ATOM      8  C   UNL d   1       2.964   1.968   0.836  0.00  0.00     0.019 C 
ENDBRANCH   1   7
TORSDOF 1
ENDMDL
