MODEL 1
REMARK minimizedAffinity -3.77741742
REMARK minimizedRMSD -1
REMARK  1 active torsions:
REMARK  status: ('A' for Active; 'I' for Inactive)
REMARK    1  A    between atoms: C1_2  and  C2_3 
ROOT
ATOM      1  C2  UNL d   1      -0.575  -0.180  -0.260  0.00  0.00    -0.077 A 
ATOM      2  C3  UNL d   1      -1.417   0.506  -1.147  0.00  0.00     0.002 A 
ATOM      3  C4  UNL d   1      -2.620  -0.066  -1.564  0.00  0.00     0.002 A 
ATOM      4  C5  UNL d   1      -2.995  -1.324  -1.096  0.00  0.00    -0.004 A 
ATOM      5  C6  UNL d   1      -2.163  -2.015  -0.215  0.00  0.00     0.002 A 
ATOM      6  C7  UNL d   1      -0.959  -1.445   0.201  0.00  0.00     0.002 A 
ENDROOT
BRANCH   1   7
ATOM      7  C1  UNL d   1       0.700   0.457   0.229  0.00  0.00     0.055 C 
ATOM      8  C   UNL d   1       1.732  -0.594   0.611  0.00  0.00     0.019 C 
ENDBRANCH   1   7
TORSDOF 1
ENDMDL
