MODEL 1
REMARK minimizedAffinity -4.36314678
REMARK minimizedRMSD -1
REMARK  1 active torsions:
REMARK  status: ('A' for Active; 'I' for Inactive)
REMARK    1  A    between atoms: C1_2  and  C2_3 
ROOT
ATOM      1  C2  UNL d   1      -0.329   0.212  -0.174  0.00  0.00    -0.077 A 
ATOM      2  C3  UNL d   1      -1.033  -0.131   0.989  0.00  0.00     0.002 A 
ATOM      3  C4  UNL d   1      -2.372  -0.522   0.914  0.00  0.00     0.002 A 
ATOM      4  C5  UNL d   1      -3.015  -0.578  -0.321  0.00  0.00    -0.004 A 
ATOM      5  C6  UNL d   1      -2.323  -0.237  -1.482  0.00  0.00     0.002 A 
ATOM      6  C7  UNL d   1      -0.986   0.155  -1.409  0.00  0.00     0.002 A 
ENDROOT
BRANCH   1   7
ATOM      7  C1  UNL d   1       1.128   0.586  -0.101  0.00  0.00     0.055 C 
ATOM      8  C   UNL d   1       1.818  -0.098   1.070  0.00  0.00     0.019 C 
ENDBRANCH   1   7
TORSDOF 1
ENDMDL
