MODEL 1
REMARK minimizedAffinity -3.01872015
REMARK minimizedRMSD -1
REMARK  1 active torsions:
REMARK  status: ('A' for Active; 'I' for Inactive)
REMARK    1  A    between atoms: C1_2  and  C2_3 
ROOT
ATOM      1  C2  UNL d   1      -0.785   0.043   0.093  0.00  0.00    -0.077 A 
ATOM      2  C3  UNL d   1      -1.064  -0.314  -1.233  0.00  0.00     0.002 A 
ATOM      3  C4  UNL d   1      -2.207  -1.054  -1.540  0.00  0.00     0.002 A 
ATOM      4  C5  UNL d   1      -3.082  -1.441  -0.527  0.00  0.00    -0.004 A 
ATOM      5  C6  UNL d   1      -2.812  -1.092   0.796  0.00  0.00     0.002 A 
ATOM      6  C7  UNL d   1      -1.670  -0.353   1.105  0.00  0.00     0.002 A 
ENDROOT
BRANCH   1   7
ATOM      7  C1  UNL d   1       0.421   0.884   0.421  0.00  0.00     0.055 C 
ATOM      8  C   UNL d   1       1.702   0.065   0.352  0.00  0.00     0.019 C 
ENDBRANCH   1   7
TORSDOF 1
ENDMDL
