MODEL 1
REMARK minimizedAffinity -4.92244053
REMARK minimizedRMSD -1
REMARK  1 active torsions:
REMARK  status: ('A' for Active; 'I' for Inactive)
REMARK    1  A    between atoms: C1_2  and  C2_3 
ROOT
ATOM      1  C2  UNL d   1       0.036  -0.435   0.102  0.00  0.00    -0.077 A 
ATOM      2  C3  UNL d   1      -0.651  -1.109   1.121  0.00  0.00     0.002 A 
ATOM      3  C4  UNL d   1      -2.002  -1.427   0.972  0.00  0.00     0.002 A 
ATOM      4  C5  UNL d   1      -2.677  -1.078  -0.196  0.00  0.00    -0.004 A 
ATOM      5  C6  UNL d   1      -2.003  -0.406  -1.215  0.00  0.00     0.002 A 
ATOM      6  C7  UNL d   1      -0.653  -0.086  -1.067  0.00  0.00     0.002 A 
ENDROOT
BRANCH   1   7
ATOM      7  C1  UNL d   1       1.506  -0.134   0.240  0.00  0.00     0.055 C 
ATOM      8  C   UNL d   1       1.743   1.055   1.160  0.00  0.00     0.019 C 
ENDBRANCH   1   7
TORSDOF 1
ENDMDL
