MODEL 1
REMARK minimizedAffinity -6.04900789
REMARK minimizedRMSD -1
REMARK  1 active torsions:
REMARK  status: ('A' for Active; 'I' for Inactive)
REMARK    1  A    between atoms: C1_2  and  C2_3 
ROOT
ATOM      1  C2  UNL d   1      -1.961  -0.951   0.054  0.00  0.00    -0.077 A 
ATOM      2  C3  UNL d   1      -2.019  -0.440  -1.250  0.00  0.00     0.002 A 
ATOM      3  C4  UNL d   1      -0.977   0.345  -1.748  0.00  0.00     0.002 A 
ATOM      4  C5  UNL d   1       0.132   0.621  -0.950  0.00  0.00    -0.004 A 
ATOM      5  C6  UNL d   1       0.198   0.119   0.349  0.00  0.00     0.002 A 
ATOM      6  C7  UNL d   1      -0.843  -0.664   0.849  0.00  0.00     0.002 A 
ENDROOT
BRANCH   1   7
ATOM      7  C1  UNL d   1      -3.061  -1.838   0.576  0.00  0.00     0.055 C 
ATOM      8  C   UNL d   1      -2.497  -3.034   1.330  0.00  0.00     0.019 C 
ENDBRANCH   1   7
TORSDOF 1
ENDMDL
