MODEL 1
REMARK minimizedAffinity -0.655380547
REMARK minimizedRMSD -1
REMARK  1 active torsions:
REMARK  status: ('A' for Active; 'I' for Inactive)
REMARK    1  A    between atoms: C1_2  and  C2_3 
ROOT
ATOM      1  C2  UNL d   1       0.947   0.346  -1.257  0.00  0.00    -0.081 A 
ATOM      2  C3  UNL d   1       1.944   0.038  -0.323  0.00  0.00     0.006 A 
ATOM      3  C4  UNL d   1       1.608  -0.513   0.916  0.00  0.00     0.002 A 
ATOM      4  C5  UNL d   1       0.272  -0.772   1.239  0.00  0.00    -0.080 A 
ATOM      5  C6  UNL d   1      -0.100  -1.391   2.553  0.00  0.00     0.076 C 
ATOM      6  C7  UNL d   1      -0.726  -0.448   0.313  0.00  0.00     0.002 A 
ATOM      7  C8  UNL d   1      -0.391   0.103  -0.926  0.00  0.00     0.006 A 
ENDROOT
BRANCH   1   8
ATOM      8  C1  UNL d   1       1.311   0.880  -2.618  0.00  0.00     0.054 C 
ATOM      9  C   UNL d   1       1.441   2.396  -2.602  0.00  0.00     0.018 C 
ENDBRANCH   1   8
TORSDOF 1
ENDMDL
