MODEL 1
REMARK minimizedAffinity -4.80614138
REMARK minimizedRMSD -1
REMARK  1 active torsions:
REMARK  status: ('A' for Active; 'I' for Inactive)
REMARK    1  A    between atoms: C1_2  and  C2_3 
ROOT
ATOM      1  C2  UNL d   1      -0.275   0.745  -1.145  0.00  0.00    -0.081 A 
ATOM      2  C3  UNL d   1      -0.116  -0.644  -1.057  0.00  0.00     0.006 A 
ATOM      3  C4  UNL d   1       0.306  -1.234   0.137  0.00  0.00     0.002 A 
ATOM      4  C5  UNL d   1       0.568  -0.447   1.264  0.00  0.00    -0.080 A 
ATOM      5  C6  UNL d   1       0.992  -1.071   2.560  0.00  0.00     0.076 C 
ATOM      6  C7  UNL d   1       0.426   0.942   1.171  0.00  0.00     0.002 A 
ATOM      7  C8  UNL d   1       0.005   1.532  -0.023  0.00  0.00     0.006 A 
ENDROOT
BRANCH   1   8
ATOM      8  C1  UNL d   1      -0.792   1.378  -2.412  0.00  0.00     0.054 C 
ATOM      9  C   UNL d   1      -0.033   2.655  -2.742  0.00  0.00     0.018 C 
ENDBRANCH   1   8
TORSDOF 1
ENDMDL
