MODEL 1
REMARK minimizedAffinity -3.36029959
REMARK minimizedRMSD -1
REMARK  1 active torsions:
REMARK  status: ('A' for Active; 'I' for Inactive)
REMARK    1  A    between atoms: C1_2  and  C2_3 
ROOT
ATOM      1  C2  UNL d   1      -0.387   0.337  -0.479  0.00  0.00    -0.081 A 
ATOM      2  C3  UNL d   1      -1.306   0.153   0.561  0.00  0.00     0.006 A 
ATOM      3  C4  UNL d   1      -0.880  -0.310   1.808  0.00  0.00     0.002 A 
ATOM      4  C5  UNL d   1       0.472  -0.590   2.038  0.00  0.00    -0.080 A 
ATOM      5  C6  UNL d   1       0.946  -1.059   3.381  0.00  0.00     0.076 C 
ATOM      6  C7  UNL d   1       1.387  -0.423   0.993  0.00  0.00     0.002 A 
ATOM      7  C8  UNL d   1       0.962   0.040  -0.254  0.00  0.00     0.006 A 
ENDROOT
BRANCH   1   8
ATOM      8  C1  UNL d   1      -0.833   0.898  -1.805  0.00  0.00     0.054 C 
ATOM      9  C   UNL d   1      -0.497   2.378  -1.921  0.00  0.00     0.018 C 
ENDBRANCH   1   8
TORSDOF 1
ENDMDL
