MODEL 1
REMARK minimizedAffinity -5.07841063
REMARK minimizedRMSD -1
REMARK  1 active torsions:
REMARK  status: ('A' for Active; 'I' for Inactive)
REMARK    1  A    between atoms: C1_2  and  C2_3 
ROOT
ATOM      1  C2  UNL d   1      -0.023  -0.314   1.256  0.00  0.00    -0.081 A 
ATOM      2  C3  UNL d   1      -0.352  -0.887   0.021  0.00  0.00     0.006 A 
ATOM      3  C4  UNL d   1      -0.482  -0.088  -1.118  0.00  0.00     0.002 A 
ATOM      4  C5  UNL d   1      -0.276   1.294  -1.043  0.00  0.00    -0.080 A 
ATOM      5  C6  UNL d   1      -0.382   2.158  -2.264  0.00  0.00     0.076 C 
ATOM      6  C7  UNL d   1       0.036   1.868   0.194  0.00  0.00     0.002 A 
ATOM      7  C8  UNL d   1       0.165   1.070   1.333  0.00  0.00     0.006 A 
ENDROOT
BRANCH   1   8
ATOM      8  C1  UNL d   1       0.181  -1.181   2.472  0.00  0.00     0.054 C 
ATOM      9  C   UNL d   1       1.470  -0.823   3.197  0.00  0.00     0.018 C 
ENDBRANCH   1   8
TORSDOF 1
ENDMDL
