MODEL 1
REMARK minimizedAffinity -5.7101922
REMARK minimizedRMSD -1
REMARK  0 active torsions:
REMARK  status: ('A' for Active; 'I' for Inactive)
ROOT
ATOM      1  C1  DEN d   1       0.488  -0.080  -1.602  0.00  0.00     0.130 A 
ATOM      2  C2  DEN d   1      -0.052   1.048  -0.848  0.00  0.00    -0.031 A 
ATOM      3  C3  DEN d   1      -0.700   0.517   0.367  0.00  0.00     0.027 A 
ATOM      4  C4  DEN d   1      -0.916  -1.930   1.154  0.00  0.00     0.027 A 
ATOM      5  C5  DEN d   1      -0.625  -3.239   0.841  0.00  0.00    -0.003 A 
ATOM      6  C6  DEN d   1       0.021  -3.587  -0.315  0.00  0.00     0.001 A 
ATOM      7  C7  DEN d   1       0.439  -2.610  -1.180  0.00  0.00     0.017 A 
ATOM      8  C8  DEN d   1       0.143  -1.288  -0.875  0.00  0.00    -0.094 A 
ATOM      9  C9  DEN d   1      -0.500  -0.956   0.305  0.00  0.00    -0.072 A 
ENDROOT
TORSDOF 0
ENDMDL
