MODEL 1
REMARK minimizedAffinity -2.83577132
REMARK minimizedRMSD -1
REMARK  0 active torsions:
REMARK  status: ('A' for Active; 'I' for Inactive)
ROOT
ATOM      1  C1  DEN d   1      -0.335   1.451   0.978  0.00  0.00     0.130 A 
ATOM      2  C2  DEN d   1       0.263   1.490  -0.354  0.00  0.00    -0.031 A 
ATOM      3  C3  DEN d   1       0.319   0.107  -0.870  0.00  0.00     0.027 A 
ATOM      4  C4  DEN d   1      -0.463  -2.077   0.256  0.00  0.00     0.027 A 
ATOM      5  C5  DEN d   1      -1.025  -2.616   1.393  0.00  0.00    -0.003 A 
ATOM      6  C6  DEN d   1      -1.362  -1.847   2.475  0.00  0.00     0.001 A 
ATOM      7  C7  DEN d   1      -1.182  -0.490   2.426  0.00  0.00     0.017 A 
ATOM      8  C8  DEN d   1      -0.609   0.059   1.287  0.00  0.00    -0.094 A 
ATOM      9  C9  DEN d   1      -0.286  -0.733   0.198  0.00  0.00    -0.072 A 
ENDROOT
TORSDOF 0
ENDMDL
