MODEL 1
REMARK minimizedAffinity 5.17863894
REMARK minimizedRMSD -1
REMARK  0 active torsions:
REMARK  status: ('A' for Active; 'I' for Inactive)
ROOT
ATOM      1  C1  DEN d   1      -0.769   5.992   2.244  0.00  0.00     0.130 A 
ATOM      2  C2  DEN d   1      -0.477   6.000   3.675  0.00  0.00    -0.031 A 
ATOM      3  C3  DEN d   1       0.817   5.319   3.881  0.00  0.00     0.027 A 
ATOM      4  C4  DEN d   1       2.392   4.263   2.132  0.00  0.00     0.027 A 
ATOM      5  C5  DEN d   1       2.564   4.000   0.791  0.00  0.00    -0.003 A 
ATOM      6  C6  DEN d   1       1.630   4.349  -0.148  0.00  0.00     0.001 A 
ATOM      7  C7  DEN d   1       0.501   5.022   0.236  0.00  0.00     0.017 A 
ATOM      8  C8  DEN d   1       0.316   5.284   1.587  0.00  0.00    -0.094 A 
ATOM      9  C9  DEN d   1       1.277   4.934   2.520  0.00  0.00    -0.072 A 
ENDROOT
TORSDOF 0
ENDMDL
