MODEL 1
REMARK minimizedAffinity 2.01979542
REMARK minimizedRMSD -1
REMARK  0 active torsions:
REMARK  status: ('A' for Active; 'I' for Inactive)
ROOT
ATOM      1  C1  DEN d   1      -0.803   0.957  -0.131  0.00  0.00     0.130 A 
ATOM      2  C2  DEN d   1      -1.395   1.183   1.185  0.00  0.00    -0.031 A 
ATOM      3  C3  DEN d   1      -1.897  -0.111   1.688  0.00  0.00     0.027 A 
ATOM      4  C4  DEN d   1      -1.810  -2.432   0.566  0.00  0.00     0.027 A 
ATOM      5  C5  DEN d   1      -1.414  -3.121  -0.559  0.00  0.00    -0.003 A 
ATOM      6  C6  DEN d   1      -0.823  -2.498  -1.626  0.00  0.00     0.001 A 
ATOM      7  C7  DEN d   1      -0.569  -1.153  -1.571  0.00  0.00     0.017 A 
ATOM      8  C8  DEN d   1      -0.971  -0.450  -0.443  0.00  0.00    -0.094 A 
ATOM      9  C9  DEN d   1      -1.557  -1.100   0.630  0.00  0.00    -0.072 A 
ENDROOT
TORSDOF 0
ENDMDL
