MODEL 1
REMARK minimizedAffinity -2.71039081
REMARK minimizedRMSD -1
REMARK  0 active torsions:
REMARK  status: ('A' for Active; 'I' for Inactive)
ROOT
ATOM      1  C1  DEN d   1      -1.468  -2.060   0.698  0.00  0.00     0.130 A 
ATOM      2  C2  DEN d   1      -1.580  -1.705   2.110  0.00  0.00    -0.031 A 
ATOM      3  C3  DEN d   1      -1.063  -0.332   2.278  0.00  0.00     0.027 A 
ATOM      4  C4  DEN d   1      -0.111   1.272   0.497  0.00  0.00     0.027 A 
ATOM      5  C5  DEN d   1       0.195   1.412  -0.839  0.00  0.00    -0.003 A 
ATOM      6  C6  DEN d   1       0.003   0.401  -1.742  0.00  0.00     0.001 A 
ATOM      7  C7  DEN d   1      -0.553  -0.781  -1.330  0.00  0.00     0.017 A 
ATOM      8  C8  DEN d   1      -0.859  -0.932   0.017  0.00  0.00    -0.094 A 
ATOM      9  C9  DEN d   1      -0.668   0.107   0.912  0.00  0.00    -0.072 A 
ENDROOT
TORSDOF 0
ENDMDL
