MODEL 1
REMARK minimizedAffinity -3.78445959
REMARK minimizedRMSD -1
REMARK  0 active torsions:
REMARK  status: ('A' for Active; 'I' for Inactive)
ROOT
ATOM      1  C1  DEN d   1      -0.567  -0.372   0.497  0.00  0.00     0.130 A 
ATOM      2  C2  DEN d   1      -1.138  -1.250   1.515  0.00  0.00    -0.031 A 
ATOM      3  C3  DEN d   1      -1.169  -2.622   0.969  0.00  0.00     0.027 A 
ATOM      4  C4  DEN d   1      -0.387  -3.468  -1.339  0.00  0.00     0.027 A 
ATOM      5  C5  DEN d   1       0.157  -3.091  -2.547  0.00  0.00    -0.003 A 
ATOM      6  C6  DEN d   1       0.464  -1.788  -2.835  0.00  0.00     0.001 A 
ATOM      7  C7  DEN d   1       0.271  -0.819  -1.886  0.00  0.00     0.017 A 
ATOM      8  C8  DEN d   1      -0.284  -1.190  -0.668  0.00  0.00    -0.094 A 
ATOM      9  C9  DEN d   1      -0.576  -2.515  -0.392  0.00  0.00    -0.072 A 
ENDROOT
TORSDOF 0
ENDMDL
