MODEL 1
REMARK minimizedAffinity -5.0345068
REMARK minimizedRMSD -1
REMARK  0 active torsions:
REMARK  status: ('A' for Active; 'I' for Inactive)
ROOT
ATOM      1  C1  DEN d   1      -0.167  -3.873  -1.484  0.00  0.00     0.130 A 
ATOM      2  C2  DEN d   1       0.402  -3.399  -2.743  0.00  0.00    -0.031 A 
ATOM      3  C3  DEN d   1       0.740  -1.971  -2.582  0.00  0.00     0.027 A 
ATOM      4  C4  DEN d   1       0.444  -0.457  -0.515  0.00  0.00     0.027 A 
ATOM      5  C5  DEN d   1      -0.008  -0.408   0.786  0.00  0.00    -0.003 A 
ATOM      6  C6  DEN d   1      -0.570  -1.493   1.404  0.00  0.00     0.001 A 
ATOM      7  C7  DEN d   1      -0.655  -2.686   0.737  0.00  0.00     0.017 A 
ATOM      8  C8  DEN d   1      -0.209  -2.741  -0.577  0.00  0.00    -0.094 A 
ATOM      9  C9  DEN d   1       0.368  -1.637  -1.180  0.00  0.00    -0.072 A 
ENDROOT
TORSDOF 0
ENDMDL
