MODEL 1
REMARK minimizedAffinity 4.28258705
REMARK minimizedRMSD -1
REMARK  0 active torsions:
REMARK  status: ('A' for Active; 'I' for Inactive)
ROOT
ATOM      1  C1  DEN d   1      -0.372   0.105  -1.511  0.00  0.00     0.130 A 
ATOM      2  C2  DEN d   1      -0.209   1.277  -0.654  0.00  0.00    -0.031 A 
ATOM      3  C3  DEN d   1      -0.700   0.927   0.695  0.00  0.00     0.027 A 
ATOM      4  C4  DEN d   1      -1.684  -1.304   1.535  0.00  0.00     0.027 A 
ATOM      5  C5  DEN d   1      -2.032  -2.586   1.171  0.00  0.00    -0.003 A 
ATOM      6  C6  DEN d   1      -1.883  -3.046  -0.111  0.00  0.00     0.001 A 
ATOM      7  C7  DEN d   1      -1.331  -2.232  -1.065  0.00  0.00     0.017 A 
ATOM      8  C8  DEN d   1      -0.985  -0.936  -0.706  0.00  0.00    -0.094 A 
ATOM      9  C9  DEN d   1      -1.132  -0.493   0.597  0.00  0.00    -0.072 A 
ENDROOT
TORSDOF 0
ENDMDL
