MODEL 1
REMARK minimizedAffinity -5.3929553
REMARK minimizedRMSD -1
REMARK  0 active torsions:
REMARK  status: ('A' for Active; 'I' for Inactive)
ROOT
ATOM      1  C1  DEN d   1      -0.001  -0.520  -2.407  0.00  0.00     0.130 A 
ATOM      2  C2  DEN d   1      -0.085   0.806  -1.800  0.00  0.00    -0.031 A 
ATOM      3  C3  DEN d   1      -0.203   0.632  -0.339  0.00  0.00     0.027 A 
ATOM      4  C4  DEN d   1      -0.259  -1.550   1.037  0.00  0.00     0.027 A 
ATOM      5  C5  DEN d   1      -0.229  -2.925   0.962  0.00  0.00    -0.003 A 
ATOM      6  C6  DEN d   1      -0.156  -3.590  -0.233  0.00  0.00     0.001 A 
ATOM      7  C7  DEN d   1      -0.065  -2.879  -1.401  0.00  0.00     0.017 A 
ATOM      8  C8  DEN d   1      -0.101  -1.493  -1.334  0.00  0.00    -0.094 A 
ATOM      9  C9  DEN d   1      -0.164  -0.839  -0.115  0.00  0.00    -0.072 A 
ENDROOT
TORSDOF 0
ENDMDL
