MODEL 1
REMARK minimizedAffinity -5.45236301
REMARK minimizedRMSD -1
REMARK  0 active torsions:
REMARK  status: ('A' for Active; 'I' for Inactive)
ROOT
ATOM      1  C1  DEN d   1      -0.752  -0.078   0.626  0.00  0.00     0.130 A 
ATOM      2  C2  DEN d   1      -1.201  -0.905   1.743  0.00  0.00    -0.031 A 
ATOM      3  C3  DEN d   1      -1.123  -2.319   1.325  0.00  0.00     0.027 A 
ATOM      4  C4  DEN d   1      -0.350  -3.303  -0.930  0.00  0.00     0.027 A 
ATOM      5  C5  DEN d   1       0.113  -2.994  -2.191  0.00  0.00    -0.003 A 
ATOM      6  C6  DEN d   1       0.286  -1.702  -2.608  0.00  0.00     0.001 A 
ATOM      7  C7  DEN d   1       0.037  -0.670  -1.742  0.00  0.00     0.017 A 
ATOM      8  C8  DEN d   1      -0.436  -0.973  -0.473  0.00  0.00    -0.094 A 
ATOM      9  C9  DEN d   1      -0.593  -2.287  -0.065  0.00  0.00    -0.072 A 
ENDROOT
TORSDOF 0
ENDMDL
