MODEL 1
REMARK minimizedAffinity 0.0711963773
REMARK minimizedRMSD -1
REMARK  0 active torsions:
REMARK  status: ('A' for Active; 'I' for Inactive)
ROOT
ATOM      1  C1  DEN d   1      -0.159   1.841   0.686  0.00  0.00     0.130 A 
ATOM      2  C2  DEN d   1       0.495   1.270  -0.488  0.00  0.00    -0.031 A 
ATOM      3  C3  DEN d   1      -0.244   0.051  -0.874  0.00  0.00     0.027 A 
ATOM      4  C4  DEN d   1      -2.329  -0.998   0.224  0.00  0.00     0.027 A 
ATOM      5  C5  DEN d   1      -3.236  -0.878   1.253  0.00  0.00    -0.003 A 
ATOM      6  C6  DEN d   1      -3.162   0.129   2.178  0.00  0.00     0.001 A 
ATOM      7  C7  DEN d   1      -2.185   1.083   2.066  0.00  0.00     0.017 A 
ATOM      8  C8  DEN d   1      -1.262   0.964   1.035  0.00  0.00    -0.094 A 
ATOM      9  C9  DEN d   1      -1.362  -0.054   0.103  0.00  0.00    -0.072 A 
ENDROOT
TORSDOF 0
ENDMDL
