MODEL 1
REMARK minimizedAffinity -4.0430088
REMARK minimizedRMSD -1
REMARK  0 active torsions:
REMARK  status: ('A' for Active; 'I' for Inactive)
ROOT
ATOM      1  C1  DEN d   1       0.192  -1.166  -2.225  0.00  0.00     0.130 A 
ATOM      2  C2  DEN d   1       0.529  -2.534  -2.608  0.00  0.00    -0.031 A 
ATOM      3  C3  DEN d   1       0.248  -3.413  -1.455  0.00  0.00     0.027 A 
ATOM      4  C4  DEN d   1      -0.675  -2.792   0.872  0.00  0.00     0.027 A 
ATOM      5  C5  DEN d   1      -1.100  -1.753   1.670  0.00  0.00    -0.003 A 
ATOM      6  C6  DEN d   1      -1.091  -0.452   1.242  0.00  0.00     0.001 A 
ATOM      7  C7  DEN d   1      -0.692  -0.161  -0.036  0.00  0.00     0.017 A 
ATOM      8  C8  DEN d   1      -0.256  -1.203  -0.844  0.00  0.00    -0.094 A 
ATOM      9  C9  DEN d   1      -0.283  -2.512  -0.397  0.00  0.00    -0.072 A 
ENDROOT
TORSDOF 0
ENDMDL
