MODEL 1
REMARK minimizedAffinity 5.60239601
REMARK minimizedRMSD -1
REMARK  0 active torsions:
REMARK  status: ('A' for Active; 'I' for Inactive)
ROOT
ATOM      1  C1  DEN d   1      -0.265  -0.838  -1.029  0.00  0.00     0.130 A 
ATOM      2  C2  DEN d   1      -0.067   0.605  -1.132  0.00  0.00    -0.031 A 
ATOM      3  C3  DEN d   1      -0.628   1.230   0.083  0.00  0.00     0.027 A 
ATOM      4  C4  DEN d   1      -1.773   0.109   2.104  0.00  0.00     0.027 A 
ATOM      5  C5  DEN d   1      -2.181  -1.094   2.638  0.00  0.00    -0.003 A 
ATOM      6  C6  DEN d   1      -2.011  -2.281   1.978  0.00  0.00     0.001 A 
ATOM      7  C7  DEN d   1      -1.376  -2.298   0.764  0.00  0.00     0.017 A 
ATOM      8  C8  DEN d   1      -0.969  -1.089   0.215  0.00  0.00    -0.094 A 
ATOM      9  C9  DEN d   1      -1.139   0.100   0.904  0.00  0.00    -0.072 A 
ENDROOT
TORSDOF 0
ENDMDL
