MODEL 1
REMARK minimizedAffinity -2.43900466
REMARK minimizedRMSD -1
REMARK  0 active torsions:
REMARK  status: ('A' for Active; 'I' for Inactive)
ROOT
ATOM      1  C   UNL d   1      -0.960  -0.892   3.275  0.00  0.00     0.077 C 
ATOM      2  C1  UNL d   1      -0.212  -0.363   2.088  0.00  0.00    -0.074 A 
ATOM      3  C2  UNL d   1       0.787   0.603   2.241  0.00  0.00    -0.005 A 
ATOM      4  C3  UNL d   1       1.481   1.080   1.128  0.00  0.00     0.006 A 
ATOM      5  C4  UNL d   1       1.183   0.595  -0.146  0.00  0.00    -0.005 A 
ATOM      6  C5  UNL d   1       0.187  -0.371  -0.318  0.00  0.00    -0.074 A 
ATOM      7  C6  UNL d   1      -0.140  -0.909  -1.679  0.00  0.00     0.077 C 
ATOM      8  C7  UNL d   1      -0.501  -0.850   0.806  0.00  0.00    -0.001 A 
ENDROOT
TORSDOF 0
ENDMDL
