MODEL 1
REMARK minimizedAffinity -1.50136209
REMARK minimizedRMSD -1
REMARK  0 active torsions:
REMARK  status: ('A' for Active; 'I' for Inactive)
ROOT
ATOM      1  C   UNL d   1      -3.417  -0.156   0.883  0.00  0.00     0.077 C 
ATOM      2  C1  UNL d   1      -1.938  -0.029   0.664  0.00  0.00    -0.074 A 
ATOM      3  C2  UNL d   1      -1.038  -0.184   1.723  0.00  0.00    -0.005 A 
ATOM      4  C3  UNL d   1       0.334  -0.071   1.501  0.00  0.00     0.006 A 
ATOM      5  C4  UNL d   1       0.820   0.196   0.221  0.00  0.00    -0.005 A 
ATOM      6  C5  UNL d   1      -0.065   0.354  -0.850  0.00  0.00    -0.074 A 
ATOM      7  C6  UNL d   1       0.441   0.632  -2.235  0.00  0.00     0.077 C 
ATOM      8  C7  UNL d   1      -1.442   0.233  -0.621  0.00  0.00    -0.001 A 
ENDROOT
TORSDOF 0
ENDMDL
