MODEL 1
REMARK minimizedAffinity -2.21337867
REMARK minimizedRMSD -1
REMARK  0 active torsions:
REMARK  status: ('A' for Active; 'I' for Inactive)
ROOT
ATOM      1  C   UNL d   1       3.633  -0.298  -3.607  0.00  0.00     0.077 C 
ATOM      2  C1  UNL d   1       2.201  -0.515  -3.217  0.00  0.00    -0.074 A 
ATOM      3  C2  UNL d   1       1.330  -1.227  -4.048  0.00  0.00    -0.005 A 
ATOM      4  C3  UNL d   1       0.003  -1.429  -3.667  0.00  0.00     0.006 A 
ATOM      5  C4  UNL d   1      -0.465  -0.923  -2.454  0.00  0.00    -0.005 A 
ATOM      6  C5  UNL d   1       0.392  -0.209  -1.610  0.00  0.00    -0.074 A 
ATOM      7  C6  UNL d   1      -0.092   0.334  -0.298  0.00  0.00     0.077 C 
ATOM      8  C7  UNL d   1       1.726  -0.016  -1.996  0.00  0.00    -0.001 A 
ENDROOT
TORSDOF 0
ENDMDL
