MODEL 1
REMARK minimizedAffinity -4.62914658
REMARK minimizedRMSD -1
REMARK  0 active torsions:
REMARK  status: ('A' for Active; 'I' for Inactive)
ROOT
ATOM      1  C   UNL d   1      -0.834  -1.224   2.889  0.00  0.00     0.077 C 
ATOM      2  C1  UNL d   1      -0.131  -0.700   1.672  0.00  0.00    -0.074 A 
ATOM      3  C2  UNL d   1       0.691   0.430   1.747  0.00  0.00    -0.005 A 
ATOM      4  C3  UNL d   1       1.346   0.900   0.609  0.00  0.00     0.006 A 
ATOM      5  C4  UNL d   1       1.186   0.246  -0.614  0.00  0.00    -0.005 A 
ATOM      6  C5  UNL d   1       0.370  -0.885  -0.708  0.00  0.00    -0.074 A 
ATOM      7  C6  UNL d   1       0.195  -1.605  -2.012  0.00  0.00     0.077 C 
ATOM      8  C7  UNL d   1      -0.280  -1.355   0.442  0.00  0.00    -0.001 A 
ENDROOT
TORSDOF 0
ENDMDL
