MODEL 1
REMARK minimizedAffinity -3.48636723
REMARK minimizedRMSD -1
REMARK  0 active torsions:
REMARK  status: ('A' for Active; 'I' for Inactive)
ROOT
ATOM      1  C   UNL d   1      -2.984   0.830  -1.237  0.00  0.00     0.077 C 
ATOM      2  C1  UNL d   1      -1.793   0.562  -0.366  0.00  0.00    -0.074 A 
ATOM      3  C2  UNL d   1      -0.508   0.936  -0.770  0.00  0.00    -0.005 A 
ATOM      4  C3  UNL d   1       0.589   0.688   0.055  0.00  0.00     0.006 A 
ATOM      5  C4  UNL d   1       0.412   0.066   1.291  0.00  0.00    -0.005 A 
ATOM      6  C5  UNL d   1      -0.866  -0.314   1.713  0.00  0.00    -0.074 A 
ATOM      7  C6  UNL d   1      -1.075  -0.975   3.043  0.00  0.00     0.077 C 
ATOM      8  C7  UNL d   1      -1.964  -0.056   0.881  0.00  0.00    -0.001 A 
ENDROOT
TORSDOF 0
ENDMDL
