MODEL 1
REMARK minimizedAffinity -4.94321012
REMARK minimizedRMSD -1
REMARK  0 active torsions:
REMARK  status: ('A' for Active; 'I' for Inactive)
ROOT
ATOM      1  C   UNL d   1       2.434   1.668   0.393  0.00  0.00     0.077 C 
ATOM      2  C1  UNL d   1       1.135   0.921   0.319  0.00  0.00    -0.074 A 
ATOM      3  C2  UNL d   1       0.318   1.013  -0.812  0.00  0.00    -0.005 A 
ATOM      4  C3  UNL d   1      -0.883   0.305  -0.871  0.00  0.00     0.006 A 
ATOM      5  C4  UNL d   1      -1.277  -0.500   0.199  0.00  0.00    -0.005 A 
ATOM      6  C5  UNL d   1      -0.472  -0.604   1.337  0.00  0.00    -0.074 A 
ATOM      7  C6  UNL d   1      -0.876  -1.473   2.492  0.00  0.00     0.077 C 
ATOM      8  C7  UNL d   1       0.736   0.105   1.386  0.00  0.00    -0.001 A 
ENDROOT
TORSDOF 0
ENDMDL
