MODEL 1
REMARK minimizedAffinity -5.38264608
REMARK minimizedRMSD -1
REMARK  0 active torsions:
REMARK  status: ('A' for Active; 'I' for Inactive)
ROOT
ATOM      1  C   UNL d   1       0.366   0.498  -0.896  0.00  0.00     0.077 C 
ATOM      2  C1  UNL d   1      -0.157   0.332   0.500  0.00  0.00    -0.074 A 
ATOM      3  C2  UNL d   1       0.634   0.654   1.607  0.00  0.00    -0.005 A 
ATOM      4  C3  UNL d   1       0.131   0.504   2.899  0.00  0.00     0.006 A 
ATOM      5  C4  UNL d   1      -1.167   0.030   3.097  0.00  0.00    -0.005 A 
ATOM      6  C5  UNL d   1      -1.973  -0.296   2.002  0.00  0.00    -0.074 A 
ATOM      7  C6  UNL d   1      -3.374  -0.797   2.197  0.00  0.00     0.077 C 
ATOM      8  C7  UNL d   1      -1.463  -0.136   0.707  0.00  0.00    -0.001 A 
ENDROOT
TORSDOF 0
ENDMDL
