MODEL 1
REMARK minimizedAffinity -5.69672155
REMARK minimizedRMSD -1
REMARK  0 active torsions:
REMARK  status: ('A' for Active; 'I' for Inactive)
ROOT
ATOM      1  C   UNL d   1       2.351   0.753   0.752  0.00  0.00     0.077 C 
ATOM      2  C1  UNL d   1       1.008   0.227   1.166  0.00  0.00    -0.074 A 
ATOM      3  C2  UNL d   1       0.854  -0.496   2.353  0.00  0.00    -0.005 A 
ATOM      4  C3  UNL d   1      -0.403  -0.971   2.729  0.00  0.00     0.006 A 
ATOM      5  C4  UNL d   1      -1.515  -0.728   1.923  0.00  0.00    -0.005 A 
ATOM      6  C5  UNL d   1      -1.381  -0.006   0.732  0.00  0.00    -0.074 A 
ATOM      7  C6  UNL d   1      -2.568   0.272  -0.140  0.00  0.00     0.077 C 
ATOM      8  C7  UNL d   1      -0.116   0.473   0.365  0.00  0.00    -0.001 A 
ENDROOT
TORSDOF 0
ENDMDL
