MODEL 1
REMARK minimizedAffinity -4.38766766
REMARK minimizedRMSD -1
REMARK  0 active torsions:
REMARK  status: ('A' for Active; 'I' for Inactive)
ROOT
ATOM      1  C   UNL d   1      -3.175   0.164   0.574  0.00  0.00     0.077 C 
ATOM      2  C1  UNL d   1      -1.696  -0.086   0.559  0.00  0.00    -0.074 A 
ATOM      3  C2  UNL d   1      -1.007  -0.394   1.736  0.00  0.00    -0.005 A 
ATOM      4  C3  UNL d   1       0.367  -0.634   1.705  0.00  0.00     0.006 A 
ATOM      5  C4  UNL d   1       1.064  -0.569   0.498  0.00  0.00    -0.005 A 
ATOM      6  C5  UNL d   1       0.392  -0.264  -0.690  0.00  0.00    -0.074 A 
ATOM      7  C6  UNL d   1       1.124  -0.199  -1.997  0.00  0.00     0.077 C 
ATOM      8  C7  UNL d   1      -0.990  -0.031  -0.651  0.00  0.00    -0.001 A 
ENDROOT
TORSDOF 0
ENDMDL
