MODEL 1
REMARK minimizedAffinity -4.25214052
REMARK minimizedRMSD -1
REMARK  0 active torsions:
REMARK  status: ('A' for Active; 'I' for Inactive)
ROOT
ATOM      1  C   UNL d   1      -2.472   0.659  -1.069  0.00  0.00     0.077 C 
ATOM      2  C1  UNL d   1      -1.205   0.434  -0.299  0.00  0.00    -0.074 A 
ATOM      3  C2  UNL d   1       0.035   0.409  -0.946  0.00  0.00    -0.005 A 
ATOM      4  C3  UNL d   1       1.205   0.208  -0.215  0.00  0.00     0.006 A 
ATOM      5  C4  UNL d   1       1.148   0.030   1.168  0.00  0.00    -0.005 A 
ATOM      6  C5  UNL d   1      -0.082   0.052   1.832  0.00  0.00    -0.074 A 
ATOM      7  C6  UNL d   1      -0.160  -0.128   3.319  0.00  0.00     0.077 C 
ATOM      8  C7  UNL d   1      -1.253   0.262   1.092  0.00  0.00    -0.001 A 
ENDROOT
TORSDOF 0
ENDMDL
