MODEL 1
REMARK minimizedAffinity 10.1442871
REMARK minimizedRMSD -1
REMARK  0 active torsions:
REMARK  status: ('A' for Active; 'I' for Inactive)
ROOT
ATOM      1  C   UNL d   1      -1.212  -0.348   5.994  0.00  0.00     0.077 C 
ATOM      2  C1  UNL d   1      -0.918  -1.026   4.689  0.00  0.00    -0.074 A 
ATOM      3  C2  UNL d   1      -1.769  -2.016   4.186  0.00  0.00    -0.005 A 
ATOM      4  C3  UNL d   1      -1.487  -2.632   2.966  0.00  0.00     0.006 A 
ATOM      5  C4  UNL d   1      -0.355  -2.264   2.239  0.00  0.00    -0.005 A 
ATOM      6  C5  UNL d   1       0.507  -1.276   2.726  0.00  0.00    -0.074 A 
ATOM      7  C6  UNL d   1       1.723  -0.862   1.951  0.00  0.00     0.077 C 
ATOM      8  C7  UNL d   1       0.213  -0.657   3.949  0.00  0.00    -0.001 A 
ENDROOT
TORSDOF 0
ENDMDL
