MODEL 1
REMARK minimizedAffinity 18.5970497
REMARK minimizedRMSD -1
REMARK  0 active torsions:
REMARK  status: ('A' for Active; 'I' for Inactive)
ROOT
ATOM      1  C   UNL d   1      -5.128   4.752  -0.238  0.00  0.00     0.077 C 
ATOM      2  C1  UNL d   1      -4.003   4.726  -1.230  0.00  0.00    -0.074 A 
ATOM      3  C2  UNL d   1      -3.514   5.908  -1.794  0.00  0.00    -0.005 A 
ATOM      4  C3  UNL d   1      -2.461   5.869  -2.707  0.00  0.00     0.006 A 
ATOM      5  C4  UNL d   1      -1.887   4.648  -3.066  0.00  0.00    -0.005 A 
ATOM      6  C5  UNL d   1      -2.362   3.455  -2.511  0.00  0.00    -0.074 A 
ATOM      7  C6  UNL d   1      -1.750   2.136  -2.878  0.00  0.00     0.077 C 
ATOM      8  C7  UNL d   1      -3.416   3.504  -1.588  0.00  0.00    -0.001 A 
ENDROOT
TORSDOF 0
ENDMDL
