MODEL 1
REMARK minimizedAffinity 10.7755966
REMARK minimizedRMSD -1
REMARK  0 active torsions:
REMARK  status: ('A' for Active; 'I' for Inactive)
ROOT
ATOM      1  C   UNL d   1       4.128   0.834   2.681  0.00  0.00     0.077 C 
ATOM      2  C1  UNL d   1       2.791   0.188   2.892  0.00  0.00    -0.074 A 
ATOM      3  C2  UNL d   1       2.272  -0.714   1.958  0.00  0.00    -0.005 A 
ATOM      4  C3  UNL d   1       1.032  -1.314   2.172  0.00  0.00     0.006 A 
ATOM      5  C4  UNL d   1       0.298  -1.018   3.322  0.00  0.00    -0.005 A 
ATOM      6  C5  UNL d   1       0.801  -0.120   4.268  0.00  0.00    -0.074 A 
ATOM      7  C6  UNL d   1       0.029   0.201   5.514  0.00  0.00     0.077 C 
ATOM      8  C7  UNL d   1       2.051   0.474   4.049  0.00  0.00    -0.001 A 
ENDROOT
TORSDOF 0
ENDMDL
