MODEL 1
REMARK minimizedAffinity 5.20679188
REMARK minimizedRMSD -1
REMARK  0 active torsions:
REMARK  status: ('A' for Active; 'I' for Inactive)
ROOT
ATOM      1  C   UNL d   1      -4.751   3.808  -0.575  0.00  0.00     0.077 C 
ATOM      2  C1  UNL d   1      -3.522   3.522  -1.385  0.00  0.00    -0.074 A 
ATOM      3  C2  UNL d   1      -2.587   2.572  -0.961  0.00  0.00    -0.005 A 
ATOM      4  C3  UNL d   1      -1.452   2.310  -1.730  0.00  0.00     0.006 A 
ATOM      5  C4  UNL d   1      -1.242   2.994  -2.928  0.00  0.00    -0.005 A 
ATOM      6  C5  UNL d   1      -2.167   3.947  -3.368  0.00  0.00    -0.074 A 
ATOM      7  C6  UNL d   1      -1.961   4.684  -4.658  0.00  0.00     0.077 C 
ATOM      8  C7  UNL d   1      -3.307   4.200  -2.594  0.00  0.00    -0.001 A 
ENDROOT
TORSDOF 0
ENDMDL
