MODEL 1
REMARK minimizedAffinity 16.7020702
REMARK minimizedRMSD -1
REMARK  0 active torsions:
REMARK  status: ('A' for Active; 'I' for Inactive)
ROOT
ATOM      1  C   UNL d   1      -1.369   2.672  -3.381  0.00  0.00     0.077 C 
ATOM      2  C1  UNL d   1      -2.265   3.695  -2.748  0.00  0.00    -0.074 A 
ATOM      3  C2  UNL d   1      -2.071   5.061  -2.976  0.00  0.00    -0.005 A 
ATOM      4  C3  UNL d   1      -2.919   6.000  -2.388  0.00  0.00     0.006 A 
ATOM      5  C4  UNL d   1      -3.967   5.583  -1.567  0.00  0.00    -0.005 A 
ATOM      6  C5  UNL d   1      -4.178   4.221  -1.329  0.00  0.00    -0.074 A 
ATOM      7  C6  UNL d   1      -5.306   3.755  -0.457  0.00  0.00     0.077 C 
ATOM      8  C7  UNL d   1      -3.326   3.283  -1.929  0.00  0.00    -0.001 A 
ENDROOT
TORSDOF 0
ENDMDL
