MODEL 1
REMARK minimizedAffinity 2.44919276
REMARK minimizedRMSD -1
REMARK  0 active torsions:
REMARK  status: ('A' for Active; 'I' for Inactive)
ROOT
ATOM      1  C   UNL d   1      -2.694  -4.179   5.239  0.00  0.00     0.077 C 
ATOM      2  C1  UNL d   1      -1.639  -3.130   5.043  0.00  0.00    -0.074 A 
ATOM      3  C2  UNL d   1      -1.433  -2.131   6.000  0.00  0.00    -0.005 A 
ATOM      4  C3  UNL d   1      -0.442  -1.168   5.809  0.00  0.00     0.006 A 
ATOM      5  C4  UNL d   1       0.351  -1.194   4.661  0.00  0.00    -0.005 A 
ATOM      6  C5  UNL d   1       0.160  -2.186   3.694  0.00  0.00    -0.074 A 
ATOM      7  C6  UNL d   1       1.010  -2.235   2.459  0.00  0.00     0.077 C 
ATOM      8  C7  UNL d   1      -0.833  -3.155   3.896  0.00  0.00    -0.001 A 
ENDROOT
TORSDOF 0
ENDMDL
