MODEL 1
REMARK minimizedAffinity 15.0696993
REMARK minimizedRMSD -1
REMARK  0 active torsions:
REMARK  status: ('A' for Active; 'I' for Inactive)
ROOT
ATOM      1  C   UNL d   1       0.098  -2.025   1.382  0.00  0.00     0.077 C 
ATOM      2  C1  UNL d   1       0.912  -1.130   2.267  0.00  0.00    -0.074 A 
ATOM      3  C2  UNL d   1       0.447  -0.752   3.531  0.00  0.00    -0.005 A 
ATOM      4  C3  UNL d   1       1.220   0.074   4.347  0.00  0.00     0.006 A 
ATOM      5  C4  UNL d   1       2.464   0.530   3.909  0.00  0.00    -0.005 A 
ATOM      6  C5  UNL d   1       2.946   0.162   2.649  0.00  0.00    -0.074 A 
ATOM      7  C6  UNL d   1       4.285   0.636   2.166  0.00  0.00     0.077 C 
ATOM      8  C7  UNL d   1       2.166  -0.674   1.837  0.00  0.00    -0.001 A 
ENDROOT
TORSDOF 0
ENDMDL
