MODEL 1
REMARK minimizedAffinity 8.7834034
REMARK minimizedRMSD -1
REMARK  0 active torsions:
REMARK  status: ('A' for Active; 'I' for Inactive)
ROOT
ATOM      1  C   UNL d   1      -1.980  -3.967   2.068  0.00  0.00     0.077 C 
ATOM      2  C1  UNL d   1      -1.209  -2.808   2.625  0.00  0.00    -0.074 A 
ATOM      3  C2  UNL d   1      -0.074  -2.318   1.970  0.00  0.00    -0.005 A 
ATOM      4  C3  UNL d   1       0.628  -1.233   2.496  0.00  0.00     0.006 A 
ATOM      5  C4  UNL d   1       0.203  -0.628   3.679  0.00  0.00    -0.005 A 
ATOM      6  C5  UNL d   1      -0.930  -1.103   4.347  0.00  0.00    -0.074 A 
ATOM      7  C6  UNL d   1      -1.406  -0.458   5.615  0.00  0.00     0.077 C 
ATOM      8  C7  UNL d   1      -1.634  -2.189   3.809  0.00  0.00    -0.001 A 
ENDROOT
TORSDOF 0
ENDMDL
