MODEL 1
REMARK minimizedAffinity 11.5512905
REMARK minimizedRMSD -1
REMARK  0 active torsions:
REMARK  status: ('A' for Active; 'I' for Inactive)
ROOT
ATOM      1  C   UNL d   1      -0.373  -0.197   4.758  0.00  0.00     0.077 C 
ATOM      2  C1  UNL d   1       0.659  -0.421   3.694  0.00  0.00    -0.074 A 
ATOM      3  C2  UNL d   1       0.416  -1.294   2.629  0.00  0.00    -0.005 A 
ATOM      4  C3  UNL d   1       1.382  -1.485   1.641  0.00  0.00     0.006 A 
ATOM      5  C4  UNL d   1       2.599  -0.805   1.708  0.00  0.00    -0.005 A 
ATOM      6  C5  UNL d   1       2.859   0.073   2.764  0.00  0.00    -0.074 A 
ATOM      7  C6  UNL d   1       4.158   0.820   2.846  0.00  0.00     0.077 C 
ATOM      8  C7  UNL d   1       1.881   0.265   3.749  0.00  0.00    -0.001 A 
ENDROOT
TORSDOF 0
ENDMDL
