MODEL 1
REMARK minimizedAffinity 6.73992634
REMARK minimizedRMSD -1
REMARK  0 active torsions:
REMARK  status: ('A' for Active; 'I' for Inactive)
ROOT
ATOM      1  C   UNL d   1       1.503   5.998   0.701  0.00  0.00     0.077 C 
ATOM      2  C1  UNL d   1       1.065   4.808  -0.100  0.00  0.00    -0.074 A 
ATOM      3  C2  UNL d   1       1.463   4.652  -1.431  0.00  0.00    -0.005 A 
ATOM      4  C3  UNL d   1       1.056   3.535  -2.161  0.00  0.00     0.006 A 
ATOM      5  C4  UNL d   1       0.247   2.565  -1.567  0.00  0.00    -0.005 A 
ATOM      6  C5  UNL d   1      -0.161   2.704  -0.237  0.00  0.00    -0.074 A 
ATOM      7  C6  UNL d   1      -1.022   1.666   0.419  0.00  0.00     0.077 C 
ATOM      8  C7  UNL d   1       0.259   3.826   0.492  0.00  0.00    -0.001 A 
ENDROOT
TORSDOF 0
ENDMDL
