MODEL 1
REMARK minimizedAffinity 7.24572372
REMARK minimizedRMSD -1
REMARK  0 active torsions:
REMARK  status: ('A' for Active; 'I' for Inactive)
ROOT
ATOM      1  C   UNL d   1       0.362  -0.134   3.479  0.00  0.00     0.077 C 
ATOM      2  C1  UNL d   1       0.606  -1.184   2.436  0.00  0.00    -0.074 A 
ATOM      3  C2  UNL d   1       1.898  -1.654   2.177  0.00  0.00    -0.005 A 
ATOM      4  C3  UNL d   1       2.108  -2.637   1.210  0.00  0.00     0.006 A 
ATOM      5  C4  UNL d   1       1.031  -3.158   0.493  0.00  0.00    -0.005 A 
ATOM      6  C5  UNL d   1      -0.268  -2.701   0.738  0.00  0.00    -0.074 A 
ATOM      7  C6  UNL d   1      -1.438  -3.258  -0.017  0.00  0.00     0.077 C 
ATOM      8  C7  UNL d   1      -0.472  -1.718   1.717  0.00  0.00    -0.001 A 
ENDROOT
TORSDOF 0
ENDMDL
