MODEL 1
REMARK minimizedAffinity 6.18081331
REMARK minimizedRMSD -1
REMARK  0 active torsions:
REMARK  status: ('A' for Active; 'I' for Inactive)
ROOT
ATOM      1  C   UNL d   1       1.879   6.000  -2.372  0.00  0.00     0.077 C 
ATOM      2  C1  UNL d   1       1.192   4.946  -1.555  0.00  0.00    -0.074 A 
ATOM      3  C2  UNL d   1       1.485   4.784  -0.197  0.00  0.00    -0.005 A 
ATOM      4  C3  UNL d   1       0.831   3.806   0.552  0.00  0.00     0.006 A 
ATOM      5  C4  UNL d   1      -0.122   2.982  -0.048  0.00  0.00    -0.005 A 
ATOM      6  C5  UNL d   1      -0.429   3.130  -1.404  0.00  0.00    -0.074 A 
ATOM      7  C6  UNL d   1      -1.457   2.259  -2.062  0.00  0.00     0.077 C 
ATOM      8  C7  UNL d   1       0.228   4.119  -2.148  0.00  0.00    -0.001 A 
ENDROOT
TORSDOF 0
ENDMDL
