MODEL 1
REMARK minimizedAffinity 9.10637951
REMARK minimizedRMSD -1
REMARK  0 active torsions:
REMARK  status: ('A' for Active; 'I' for Inactive)
ROOT
ATOM      1  C   UNL d   1      -4.453   3.004  -1.115  0.00  0.00     0.077 C 
ATOM      2  C1  UNL d   1      -3.007   2.943  -1.511  0.00  0.00    -0.074 A 
ATOM      3  C2  UNL d   1      -2.629   2.961  -2.857  0.00  0.00    -0.005 A 
ATOM      4  C3  UNL d   1      -1.280   2.912  -3.209  0.00  0.00     0.006 A 
ATOM      5  C4  UNL d   1      -0.298   2.846  -2.220  0.00  0.00    -0.005 A 
ATOM      6  C5  UNL d   1      -0.657   2.829  -0.869  0.00  0.00    -0.074 A 
ATOM      7  C6  UNL d   1       0.387   2.768   0.206  0.00  0.00     0.077 C 
ATOM      8  C7  UNL d   1      -2.014   2.884  -0.523  0.00  0.00    -0.001 A 
ENDROOT
TORSDOF 0
ENDMDL
