MODEL 1
REMARK minimizedAffinity 12.7446661
REMARK minimizedRMSD -1
REMARK  0 active torsions:
REMARK  status: ('A' for Active; 'I' for Inactive)
ROOT
ATOM      1  C   UNL d   1       1.117   6.000  -0.361  0.00  0.00     0.077 C 
ATOM      2  C1  UNL d   1       0.908   4.515  -0.348  0.00  0.00    -0.074 A 
ATOM      3  C2  UNL d   1       1.752   3.676   0.388  0.00  0.00    -0.005 A 
ATOM      4  C3  UNL d   1       1.540   2.298   0.398  0.00  0.00     0.006 A 
ATOM      5  C4  UNL d   1       0.483   1.745  -0.326  0.00  0.00    -0.005 A 
ATOM      6  C5  UNL d   1      -0.372   2.567  -1.066  0.00  0.00    -0.074 A 
ATOM      7  C6  UNL d   1      -1.519   1.990  -1.841  0.00  0.00     0.077 C 
ATOM      8  C7  UNL d   1      -0.156   3.952  -1.066  0.00  0.00    -0.001 A 
ENDROOT
TORSDOF 0
ENDMDL
