MODEL 1
REMARK minimizedAffinity 5.66309071
REMARK minimizedRMSD -1
REMARK  0 active torsions:
REMARK  status: ('A' for Active; 'I' for Inactive)
ROOT
ATOM      1  C   UNL d   1      -1.871   5.999  -5.995  0.00  0.00     0.077 C 
ATOM      2  C1  UNL d   1      -2.238   5.243  -4.753  0.00  0.00    -0.074 A 
ATOM      3  C2  UNL d   1      -2.054   3.858  -4.674  0.00  0.00    -0.005 A 
ATOM      4  C3  UNL d   1      -2.391   3.170  -3.508  0.00  0.00     0.006 A 
ATOM      5  C4  UNL d   1      -2.915   3.857  -2.413  0.00  0.00    -0.005 A 
ATOM      6  C5  UNL d   1      -3.105   5.241  -2.473  0.00  0.00    -0.074 A 
ATOM      7  C6  UNL d   1      -3.657   5.996  -1.301  0.00  0.00     0.077 C 
ATOM      8  C7  UNL d   1      -2.757   5.927  -3.645  0.00  0.00    -0.001 A 
ENDROOT
TORSDOF 0
ENDMDL
