MODEL 1
REMARK minimizedAffinity -5.71653795
REMARK minimizedRMSD -1
REMARK  3 active torsions:
REMARK  status: ('A' for Active; 'I' for Inactive)
REMARK    1  A    between atoms: C3'_2  and  C2'_3 
REMARK    2  A    between atoms: C2'_3  and  C1'_4 
REMARK    3  A    between atoms: C1'_4  and  C1_5 
ROOT
ATOM      1  C1  N4B d   1      -0.215   0.240  -0.075  0.00  0.00    -0.075 A 
ATOM      2  C2  N4B d   1      -0.226  -1.067   0.459  0.00  0.00     0.002 A 
ATOM      3  C3  N4B d   1       0.957  -1.732   0.672  0.00  0.00     0.002 A 
ATOM      4  C4  N4B d   1       2.157  -1.119   0.342  0.00  0.00    -0.004 A 
ATOM      5  C5  N4B d   1       2.160   0.154  -0.148  0.00  0.00     0.002 A 
ATOM      6  C6  N4B d   1       0.979   0.835  -0.364  0.00  0.00     0.002 A 
ENDROOT
BRANCH   1   7
ATOM      7  C1' N4B d   1      -1.486   0.974  -0.405  0.00  0.00     0.057 C 
BRANCH   7   8
ATOM      8  C2' N4B d   1      -1.389   1.531  -1.822  0.00  0.00     0.009 C 
BRANCH   8   9
ATOM      9  C3' N4B d   1      -2.416   0.903  -2.750  0.00  0.00     0.004 C 
ATOM     10  C4' N4B d   1      -3.727   0.639  -2.072  0.00  0.00     0.003 C 
ENDBRANCH   8   9
ENDBRANCH   7   8
ENDBRANCH   1   7
TORSDOF 3
ENDMDL
