MODEL 1
REMARK minimizedAffinity -4.83128548
REMARK minimizedRMSD -1
REMARK  3 active torsions:
REMARK  status: ('A' for Active; 'I' for Inactive)
REMARK    1  A    between atoms: C3'_2  and  C2'_3 
REMARK    2  A    between atoms: C2'_3  and  C1'_4 
REMARK    3  A    between atoms: C1'_4  and  C1_5 
ROOT
ATOM      1  C1  N4B d   1      -0.360   0.424   0.369  0.00  0.00    -0.075 A 
ATOM      2  C2  N4B d   1      -0.762  -0.749   1.045  0.00  0.00     0.002 A 
ATOM      3  C3  N4B d   1       0.131  -1.776   1.228  0.00  0.00     0.002 A 
ATOM      4  C4  N4B d   1       1.421  -1.660   0.731  0.00  0.00    -0.004 A 
ATOM      5  C5  N4B d   1       1.808  -0.514   0.102  0.00  0.00     0.002 A 
ATOM      6  C6  N4B d   1       0.922   0.528  -0.086  0.00  0.00     0.002 A 
ENDROOT
BRANCH   1   7
ATOM      7  C1' N4B d   1      -1.326   1.538   0.069  0.00  0.00     0.057 C 
BRANCH   7   8
ATOM      8  C2' N4B d   1      -1.367   1.773  -1.438  0.00  0.00     0.009 C 
BRANCH   8   9
ATOM      9  C3' N4B d   1      -2.604   1.164  -2.075  0.00  0.00     0.004 C 
ATOM     10  C4' N4B d   1      -2.953   1.797  -3.388  0.00  0.00     0.003 C 
ENDBRANCH   8   9
ENDBRANCH   7   8
ENDBRANCH   1   7
TORSDOF 3
ENDMDL
