MODEL 1
REMARK minimizedAffinity -2.00054002
REMARK minimizedRMSD -1
REMARK  3 active torsions:
REMARK  status: ('A' for Active; 'I' for Inactive)
REMARK    1  A    between atoms: C3'_2  and  C2'_3 
REMARK    2  A    between atoms: C2'_3  and  C1'_4 
REMARK    3  A    between atoms: C1'_4  and  C1_5 
ROOT
ATOM      1  C1  N4B d   1       0.118  -0.557   0.151  0.00  0.00    -0.075 A 
ATOM      2  C2  N4B d   1       0.077  -1.674   1.015  0.00  0.00     0.002 A 
ATOM      3  C3  N4B d   1       1.125  -2.560   1.041  0.00  0.00     0.002 A 
ATOM      4  C4  N4B d   1       2.212  -2.362   0.203  0.00  0.00    -0.004 A 
ATOM      5  C5  N4B d   1       2.255  -1.268  -0.610  0.00  0.00     0.002 A 
ATOM      6  C6  N4B d   1       1.211  -0.366  -0.644  0.00  0.00     0.002 A 
ENDROOT
BRANCH   1   7
ATOM      7  C1' N4B d   1      -1.042   0.392   0.025  0.00  0.00     0.057 C 
BRANCH   7   8
ATOM      8  C2' N4B d   1      -0.970   1.094  -1.328  0.00  0.00     0.009 C 
BRANCH   8   9
ATOM      9  C3' N4B d   1      -2.097   0.665  -2.252  0.00  0.00     0.004 C 
ATOM     10  C4' N4B d   1      -2.006   1.293  -3.610  0.00  0.00     0.003 C 
ENDBRANCH   8   9
ENDBRANCH   7   8
ENDBRANCH   1   7
TORSDOF 3
ENDMDL
