MODEL 1
REMARK minimizedAffinity -5.97674084
REMARK minimizedRMSD -1
REMARK  3 active torsions:
REMARK  status: ('A' for Active; 'I' for Inactive)
REMARK    1  A    between atoms: C3'_2  and  C2'_3 
REMARK    2  A    between atoms: C2'_3  and  C1'_4 
REMARK    3  A    between atoms: C1'_4  and  C1_5 
ROOT
ATOM      1  C1  N4B d   1      -0.243  -0.061   0.304  0.00  0.00    -0.075 A 
ATOM      2  C2  N4B d   1       1.119   0.008  -0.061  0.00  0.00     0.002 A 
ATOM      3  C3  N4B d   1       1.969  -1.021   0.261  0.00  0.00     0.002 A 
ATOM      4  C4  N4B d   1       1.486  -2.116   0.961  0.00  0.00    -0.004 A 
ATOM      5  C5  N4B d   1       0.163  -2.187   1.288  0.00  0.00     0.002 A 
ATOM      6  C6  N4B d   1      -0.704  -1.161   0.967  0.00  0.00     0.002 A 
ENDROOT
BRANCH   1   7
ATOM      7  C1' N4B d   1      -1.192   1.078   0.049  0.00  0.00     0.057 C 
BRANCH   7   8
ATOM      8  C2' N4B d   1      -1.042   1.542  -1.397  0.00  0.00     0.009 C 
BRANCH   8   9
ATOM      9  C3' N4B d   1      -2.350   1.446  -2.163  0.00  0.00     0.004 C 
ATOM     10  C4' N4B d   1      -2.147   1.233  -3.634  0.00  0.00     0.003 C 
ENDBRANCH   8   9
ENDBRANCH   7   8
ENDBRANCH   1   7
TORSDOF 3
ENDMDL
