MODEL 1
REMARK minimizedAffinity -5.15306759
REMARK minimizedRMSD -1
REMARK  3 active torsions:
REMARK  status: ('A' for Active; 'I' for Inactive)
REMARK    1  A    between atoms: C3'_2  and  C2'_3 
REMARK    2  A    between atoms: C2'_3  and  C1'_4 
REMARK    3  A    between atoms: C1'_4  and  C1_5 
ROOT
ATOM      1  C1  N4B d   1      -0.083   0.418   0.156  0.00  0.00    -0.075 A 
ATOM      2  C2  N4B d   1       1.282   0.664  -0.113  0.00  0.00     0.002 A 
ATOM      3  C3  N4B d   1       2.201  -0.348   0.018  0.00  0.00     0.002 A 
ATOM      4  C4  N4B d   1       1.784  -1.603   0.434  0.00  0.00    -0.004 A 
ATOM      5  C5  N4B d   1       0.460  -1.840   0.667  0.00  0.00     0.002 A 
ATOM      6  C6  N4B d   1      -0.475  -0.833   0.535  0.00  0.00     0.002 A 
ENDROOT
BRANCH   1   7
ATOM      7  C1' N4B d   1      -1.112   1.514   0.109  0.00  0.00     0.057 C 
BRANCH   7   8
ATOM      8  C2' N4B d   1      -1.394   1.874  -1.346  0.00  0.00     0.009 C 
BRANCH   8   9
ATOM      9  C3' N4B d   1      -2.818   1.531  -1.751  0.00  0.00     0.004 C 
ATOM     10  C4' N4B d   1      -2.996   1.450  -3.238  0.00  0.00     0.003 C 
ENDBRANCH   8   9
ENDBRANCH   7   8
ENDBRANCH   1   7
TORSDOF 3
ENDMDL
