MODEL 1
REMARK minimizedAffinity -4.55094719
REMARK minimizedRMSD -1
REMARK  3 active torsions:
REMARK  status: ('A' for Active; 'I' for Inactive)
REMARK    1  A    between atoms: C3'_2  and  C2'_3 
REMARK    2  A    between atoms: C2'_3  and  C1'_4 
REMARK    3  A    between atoms: C1'_4  and  C1_5 
ROOT
ATOM      1  C1  N4B d   1       0.096  -0.085   0.075  0.00  0.00    -0.075 A 
ATOM      2  C2  N4B d   1       1.396  -0.019  -0.472  0.00  0.00     0.002 A 
ATOM      3  C3  N4B d   1       2.268  -1.066  -0.299  0.00  0.00     0.002 A 
ATOM      4  C4  N4B d   1       1.870  -2.176   0.431  0.00  0.00    -0.004 A 
ATOM      5  C5  N4B d   1       0.604  -2.243   0.934  0.00  0.00     0.002 A 
ATOM      6  C6  N4B d   1      -0.285  -1.200   0.764  0.00  0.00     0.002 A 
ENDROOT
BRANCH   1   7
ATOM      7  C1' N4B d   1      -0.864   1.070  -0.016  0.00  0.00     0.057 C 
BRANCH   7   8
ATOM      8  C2' N4B d   1      -0.778   1.684  -1.410  0.00  0.00     0.009 C 
BRANCH   8   9
ATOM      9  C3' N4B d   1      -2.035   1.424  -2.223  0.00  0.00     0.004 C 
ATOM     10  C4' N4B d   1      -1.800   1.516  -3.701  0.00  0.00     0.003 C 
ENDBRANCH   8   9
ENDBRANCH   7   8
ENDBRANCH   1   7
TORSDOF 3
ENDMDL
