MODEL 1
REMARK minimizedAffinity -0.672560751
REMARK minimizedRMSD -1
REMARK  3 active torsions:
REMARK  status: ('A' for Active; 'I' for Inactive)
REMARK    1  A    between atoms: C3'_2  and  C2'_3 
REMARK    2  A    between atoms: C2'_3  and  C1'_4 
REMARK    3  A    between atoms: C1'_4  and  C1_5 
ROOT
ATOM      1  C1  N4B d   1      -0.850   0.625  -0.707  0.00  0.00    -0.075 A 
ATOM      2  C2  N4B d   1      -1.637  -0.099  -1.629  0.00  0.00     0.002 A 
ATOM      3  C3  N4B d   1      -2.182   0.539  -2.717  0.00  0.00     0.002 A 
ATOM      4  C4  N4B d   1      -1.969   1.898  -2.892  0.00  0.00    -0.004 A 
ATOM      5  C5  N4B d   1      -1.186   2.585  -2.011  0.00  0.00     0.002 A 
ATOM      6  C6  N4B d   1      -0.630   1.956  -0.916  0.00  0.00     0.002 A 
ENDROOT
BRANCH   1   7
ATOM      7  C1' N4B d   1      -0.305  -0.010   0.543  0.00  0.00     0.057 C 
BRANCH   7   8
ATOM      8  C2' N4B d   1       1.040  -0.657   0.230  0.00  0.00     0.009 C 
BRANCH   8   9
ATOM      9  C3' N4B d   1       1.757  -1.115   1.489  0.00  0.00     0.004 C 
ATOM     10  C4' N4B d   1       2.176  -2.553   1.428  0.00  0.00     0.003 C 
ENDBRANCH   8   9
ENDBRANCH   7   8
ENDBRANCH   1   7
TORSDOF 3
ENDMDL
