MODEL 1
REMARK minimizedAffinity -1.37819982
REMARK minimizedRMSD -1
REMARK  1 active torsions:
REMARK  status: ('A' for Active; 'I' for Inactive)
REMARK    1  A    between atoms: C1_2  and  C2_3 
ROOT
ATOM      1  C2  UNL d   1      -0.063  -1.277   2.011  0.00  0.00    -0.077 A 
ATOM      2  C3  UNL d   1       0.999  -0.489   1.548  0.00  0.00     0.002 A 
ATOM      3  C4  UNL d   1       0.817   0.380   0.470  0.00  0.00     0.002 A 
ATOM      4  C5  UNL d   1      -0.428   0.471  -0.150  0.00  0.00    -0.004 A 
ATOM      5  C6  UNL d   1      -1.490  -0.310   0.302  0.00  0.00     0.002 A 
ATOM      6  C7  UNL d   1      -1.309  -1.180   1.379  0.00  0.00     0.002 A 
ENDROOT
BRANCH   1   7
ATOM      7  C1  UNL d   1       0.119  -2.179   3.205  0.00  0.00     0.055 C 
ATOM      8  C   UNL d   1      -0.880  -3.327   3.189  0.00  0.00     0.019 C 
ENDBRANCH   1   7
TORSDOF 1
ENDMDL
