MODEL 1
REMARK minimizedAffinity -4.85826635
REMARK minimizedRMSD -1
REMARK  1 active torsions:
REMARK  status: ('A' for Active; 'I' for Inactive)
REMARK    1  A    between atoms: C1_2  and  C2_3 
ROOT
ATOM      1  C2  UNL d   1      -0.008  -0.414   1.376  0.00  0.00    -0.077 A 
ATOM      2  C3  UNL d   1      -1.286  -0.020   0.957  0.00  0.00     0.002 A 
ATOM      3  C4  UNL d   1      -1.526   0.288  -0.384  0.00  0.00     0.002 A 
ATOM      4  C5  UNL d   1      -0.494   0.201  -1.316  0.00  0.00    -0.004 A 
ATOM      5  C6  UNL d   1       0.781  -0.188  -0.908  0.00  0.00     0.002 A 
ATOM      6  C7  UNL d   1       1.023  -0.496   0.431  0.00  0.00     0.002 A 
ENDROOT
BRANCH   1   7
ATOM      7  C1  UNL d   1       0.241  -0.795   2.812  0.00  0.00     0.055 C 
ATOM      8  C   UNL d   1       1.674  -0.490   3.225  0.00  0.00     0.019 C 
ENDBRANCH   1   7
TORSDOF 1
ENDMDL
