MODEL 1
REMARK minimizedAffinity -5.4078846
REMARK minimizedRMSD -1
REMARK  1 active torsions:
REMARK  status: ('A' for Active; 'I' for Inactive)
REMARK    1  A    between atoms: C1_2  and  C2_3 
ROOT
ATOM      1  C2  UNL d   1      -0.296   0.062   0.055  0.00  0.00    -0.077 A 
ATOM      2  C3  UNL d   1      -1.237   0.049   1.094  0.00  0.00     0.002 A 
ATOM      3  C4  UNL d   1      -0.848  -0.274   2.395  0.00  0.00     0.002 A 
ATOM      4  C5  UNL d   1       0.483  -0.582   2.670  0.00  0.00    -0.004 A 
ATOM      5  C6  UNL d   1       1.426  -0.574   1.643  0.00  0.00     0.002 A 
ATOM      6  C7  UNL d   1       1.038  -0.253   0.341  0.00  0.00     0.002 A 
ENDROOT
BRANCH   1   7
ATOM      7  C1  UNL d   1      -0.704   0.458  -1.340  0.00  0.00     0.055 C 
ATOM      8  C   UNL d   1      -0.021   1.747  -1.772  0.00  0.00     0.019 C 
ENDBRANCH   1   7
TORSDOF 1
ENDMDL
