MODEL 1
REMARK minimizedAffinity 0.863884985
REMARK minimizedRMSD -1
REMARK  1 active torsions:
REMARK  status: ('A' for Active; 'I' for Inactive)
REMARK    1  A    between atoms: C1_2  and  C2_3 
ROOT
ATOM      1  C2  UNL d   1      -0.346  -0.709   2.357  0.00  0.00    -0.077 A 
ATOM      2  C3  UNL d   1       0.010  -1.751   3.225  0.00  0.00     0.002 A 
ATOM      3  C4  UNL d   1       1.220  -1.710   3.919  0.00  0.00     0.002 A 
ATOM      4  C5  UNL d   1       2.083  -0.628   3.755  0.00  0.00    -0.004 A 
ATOM      5  C6  UNL d   1       1.740   0.412   2.893  0.00  0.00     0.002 A 
ATOM      6  C7  UNL d   1       0.530   0.373   2.197  0.00  0.00     0.002 A 
ENDROOT
BRANCH   1   7
ATOM      7  C1  UNL d   1      -1.673  -0.727   1.645  0.00  0.00     0.055 C 
ATOM      8  C   UNL d   1      -2.624   0.312   2.220  0.00  0.00     0.019 C 
ENDBRANCH   1   7
TORSDOF 1
ENDMDL
