MODEL 1
REMARK minimizedAffinity -3.3665719
REMARK minimizedRMSD -1
REMARK  1 active torsions:
REMARK  status: ('A' for Active; 'I' for Inactive)
REMARK    1  A    between atoms: C1_2  and  C2_3 
ROOT
ATOM      1  C2  UNL d   1       0.227   0.093   0.713  0.00  0.00    -0.077 A 
ATOM      2  C3  UNL d   1      -0.517   0.694  -0.312  0.00  0.00     0.002 A 
ATOM      3  C4  UNL d   1      -0.333   0.304  -1.640  0.00  0.00     0.002 A 
ATOM      4  C5  UNL d   1       0.591  -0.690  -1.954  0.00  0.00    -0.004 A 
ATOM      5  C6  UNL d   1       1.337  -1.292  -0.942  0.00  0.00     0.002 A 
ATOM      6  C7  UNL d   1       1.155  -0.903   0.386  0.00  0.00     0.002 A 
ENDROOT
BRANCH   1   7
ATOM      7  C1  UNL d   1      -0.006   0.477   2.151  0.00  0.00     0.055 C 
ATOM      8  C   UNL d   1       0.775  -0.422   3.098  0.00  0.00     0.019 C 
ENDBRANCH   1   7
TORSDOF 1
ENDMDL
