MODEL 1
REMARK minimizedAffinity -4.94581461
REMARK minimizedRMSD -1
REMARK  0 active torsions:
REMARK  status: ('A' for Active; 'I' for Inactive)
ROOT
ATOM      1  C1  DEN d   1       0.642   0.438   3.768  0.00  0.00     0.130 A 
ATOM      2  C2  DEN d   1       2.043   0.046   3.639  0.00  0.00    -0.031 A 
ATOM      3  C3  DEN d   1       2.310  -0.231   2.214  0.00  0.00     0.027 A 
ATOM      4  C4  DEN d   1       0.700  -0.088   0.204  0.00  0.00     0.027 A 
ATOM      5  C5  DEN d   1      -0.593   0.189  -0.182  0.00  0.00    -0.003 A 
ATOM      6  C6  DEN d   1      -1.565   0.532   0.720  0.00  0.00     0.001 A 
ATOM      7  C7  DEN d   1      -1.249   0.652   2.047  0.00  0.00     0.017 A 
ATOM      8  C8  DEN d   1       0.051   0.367   2.444  0.00  0.00    -0.094 A 
ATOM      9  C9  DEN d   1       1.023   0.033   1.516  0.00  0.00    -0.072 A 
ENDROOT
TORSDOF 0
ENDMDL
