MODEL 1
REMARK minimizedAffinity -3.9327538
REMARK minimizedRMSD -1
REMARK  0 active torsions:
REMARK  status: ('A' for Active; 'I' for Inactive)
ROOT
ATOM      1  C1  DEN d   1      -1.169   0.587   0.145  0.00  0.00     0.130 A 
ATOM      2  C2  DEN d   1      -0.665  -0.084  -1.051  0.00  0.00    -0.031 A 
ATOM      3  C3  DEN d   1       0.617  -0.731  -0.705  0.00  0.00     0.027 A 
ATOM      4  C4  DEN d   1       1.862  -0.761   1.553  0.00  0.00     0.027 A 
ATOM      5  C5  DEN d   1       1.832  -0.320   2.858  0.00  0.00    -0.003 A 
ATOM      6  C6  DEN d   1       0.825   0.475   3.336  0.00  0.00     0.001 A 
ATOM      7  C7  DEN d   1      -0.217   0.818   2.516  0.00  0.00     0.017 A 
ATOM      8  C8  DEN d   1      -0.190   0.384   1.198  0.00  0.00    -0.094 A 
ATOM      9  C9  DEN d   1       0.830  -0.430   0.736  0.00  0.00    -0.072 A 
ENDROOT
TORSDOF 0
ENDMDL
