MODEL 1
REMARK minimizedAffinity -3.16870213
REMARK minimizedRMSD -1
REMARK  0 active torsions:
REMARK  status: ('A' for Active; 'I' for Inactive)
ROOT
ATOM      1  C1  DEN d   1      -0.571  -0.832  -0.020  0.00  0.00     0.130 A 
ATOM      2  C2  DEN d   1      -1.889  -0.260  -0.279  0.00  0.00    -0.031 A 
ATOM      3  C3  DEN d   1      -2.370   0.363   0.970  0.00  0.00     0.027 A 
ATOM      4  C4  DEN d   1      -1.206   0.502   3.268  0.00  0.00     0.027 A 
ATOM      5  C5  DEN d   1      -0.080   0.151   3.978  0.00  0.00    -0.003 A 
ATOM      6  C6  DEN d   1       0.939  -0.576   3.420  0.00  0.00     0.001 A 
ATOM      7  C7  DEN d   1       0.871  -0.936   2.100  0.00  0.00     0.017 A 
ATOM      8  C8  DEN d   1      -0.265  -0.592   1.379  0.00  0.00    -0.094 A 
ATOM      9  C9  DEN d   1      -1.278   0.153   1.958  0.00  0.00    -0.072 A 
ENDROOT
TORSDOF 0
ENDMDL
