MODEL 1
REMARK minimizedAffinity -4.68618631
REMARK minimizedRMSD -1
REMARK  0 active torsions:
REMARK  status: ('A' for Active; 'I' for Inactive)
ROOT
ATOM      1  C1  DEN d   1       0.934   0.644   3.503  0.00  0.00     0.130 A 
ATOM      2  C2  DEN d   1      -0.453   0.618   3.957  0.00  0.00    -0.031 A 
ATOM      3  C3  DEN d   1      -1.321   0.507   2.768  0.00  0.00     0.027 A 
ATOM      4  C4  DEN d   1      -0.654   0.367   0.280  0.00  0.00     0.027 A 
ATOM      5  C5  DEN d   1       0.406   0.362  -0.599  0.00  0.00    -0.003 A 
ATOM      6  C6  DEN d   1       1.704   0.485  -0.179  0.00  0.00     0.001 A 
ATOM      7  C7  DEN d   1       1.978   0.572   1.161  0.00  0.00     0.017 A 
ATOM      8  C8  DEN d   1       0.914   0.584   2.053  0.00  0.00    -0.094 A 
ATOM      9  C9  DEN d   1      -0.390   0.447   1.609  0.00  0.00    -0.072 A 
ENDROOT
TORSDOF 0
ENDMDL
