MODEL 1
REMARK minimizedAffinity -4.10183668
REMARK minimizedRMSD -1
REMARK  0 active torsions:
REMARK  status: ('A' for Active; 'I' for Inactive)
ROOT
ATOM      1  C1  DEN d   1       4.877   1.858   3.361  0.00  0.00     0.130 A 
ATOM      2  C2  DEN d   1       5.336   1.526   4.707  0.00  0.00    -0.031 A 
ATOM      3  C3  DEN d   1       5.552   2.790   5.440  0.00  0.00     0.027 A 
ATOM      4  C4  DEN d   1       5.218   5.215   4.627  0.00  0.00     0.027 A 
ATOM      5  C5  DEN d   1       4.853   5.999   3.555  0.00  0.00    -0.003 A 
ATOM      6  C6  DEN d   1       4.505   5.463   2.343  0.00  0.00     0.001 A 
ATOM      7  C7  DEN d   1       4.472   4.103   2.187  0.00  0.00     0.017 A 
ATOM      8  C8  DEN d   1       4.847   3.306   3.260  0.00  0.00    -0.094 A 
ATOM      9  C9  DEN d   1       5.183   3.866   4.481  0.00  0.00    -0.072 A 
ENDROOT
TORSDOF 0
ENDMDL
