MODEL 1
REMARK minimizedAffinity 14.5350227
REMARK minimizedRMSD -1
REMARK  0 active torsions:
REMARK  status: ('A' for Active; 'I' for Inactive)
ROOT
ATOM      1  C   UNL d   1       4.823   3.187   1.161  0.00  0.00     0.023 A 
ATOM      2  C1  UNL d   1       5.768   4.212   1.098  0.00  0.00     0.003 A 
ATOM      3  C2  UNL d   1       5.999   5.020   2.214  0.00  0.00     0.048 A 
ATOM      4  C3  UNL d   1       5.283   4.797   3.389  0.00  0.00     0.023 A 
ATOM      5  C4  UNL d   1       4.337   3.773   3.457  0.00  0.00     0.048 A 
ATOM      6  C5  UNL d   1       4.109   2.968   2.339  0.00  0.00     0.003 A 
ATOM      7  I   UNL d   1       5.625   5.998   5.050  0.00  0.00    -0.146 I 
ENDROOT
TORSDOF 0
ENDMDL
