MODEL 1
REMARK minimizedAffinity 4.6342783
REMARK minimizedRMSD -1
REMARK  0 active torsions:
REMARK  status: ('A' for Active; 'I' for Inactive)
ROOT
ATOM      1  C   UNL d   1       2.261   2.272   1.978  0.00  0.00     0.023 A 
ATOM      2  C1  UNL d   1       3.440   1.573   2.235  0.00  0.00     0.003 A 
ATOM      3  C2  UNL d   1       3.387   0.286   2.774  0.00  0.00     0.048 A 
ATOM      4  C3  UNL d   1       2.151  -0.296   3.053  0.00  0.00     0.023 A 
ATOM      5  C4  UNL d   1       0.968   0.399   2.797  0.00  0.00     0.048 A 
ATOM      6  C5  UNL d   1       1.027   1.686   2.259  0.00  0.00     0.003 A 
ATOM      7  I   UNL d   1       2.070  -2.212   3.855  0.00  0.00    -0.146 I 
ENDROOT
TORSDOF 0
ENDMDL
