MODEL 1
REMARK minimizedAffinity 5.87013054
REMARK minimizedRMSD -1
REMARK  0 active torsions:
REMARK  status: ('A' for Active; 'I' for Inactive)
ROOT
ATOM      1  C   UNL d   1      -0.170   0.445   2.494  0.00  0.00     0.023 A 
ATOM      2  C1  UNL d   1       0.495   0.878   3.642  0.00  0.00     0.003 A 
ATOM      3  C2  UNL d   1       1.114  -0.049   4.483  0.00  0.00     0.048 A 
ATOM      4  C3  UNL d   1       1.065  -1.407   4.170  0.00  0.00     0.023 A 
ATOM      5  C4  UNL d   1       0.402  -1.845   3.023  0.00  0.00     0.048 A 
ATOM      6  C5  UNL d   1      -0.217  -0.914   2.185  0.00  0.00     0.003 A 
ATOM      7  I   UNL d   1       1.986  -2.789   5.420  0.00  0.00    -0.146 I 
ENDROOT
TORSDOF 0
ENDMDL
