MODEL 1
REMARK minimizedAffinity 13.9220028
REMARK minimizedRMSD -1
REMARK  0 active torsions:
REMARK  status: ('A' for Active; 'I' for Inactive)
ROOT
ATOM      1  C   UNL d   1      -1.449  -1.143  -3.114  0.00  0.00     0.023 A 
ATOM      2  C1  UNL d   1      -0.913  -0.497  -4.227  0.00  0.00     0.003 A 
ATOM      3  C2  UNL d   1       0.468  -0.489  -4.433  0.00  0.00     0.048 A 
ATOM      4  C3  UNL d   1       1.307  -1.130  -3.523  0.00  0.00     0.023 A 
ATOM      5  C4  UNL d   1       0.775  -1.779  -2.408  0.00  0.00     0.048 A 
ATOM      6  C5  UNL d   1      -0.607  -1.784  -2.205  0.00  0.00     0.003 A 
ATOM      7  I   UNL d   1       3.363  -1.120  -3.827  0.00  0.00    -0.146 I 
ENDROOT
TORSDOF 0
ENDMDL
