MODEL 1
REMARK minimizedAffinity 13.6423111
REMARK minimizedRMSD -1
REMARK  0 active torsions:
REMARK  status: ('A' for Active; 'I' for Inactive)
ROOT
ATOM      1  C   UNL d   1       1.075  -0.797  -5.504  0.00  0.00     0.023 A 
ATOM      2  C1  UNL d   1       1.621  -0.627  -4.232  0.00  0.00     0.003 A 
ATOM      3  C2  UNL d   1       0.867  -0.940  -3.099  0.00  0.00     0.048 A 
ATOM      4  C3  UNL d   1      -0.433  -1.424  -3.246  0.00  0.00     0.023 A 
ATOM      5  C4  UNL d   1      -0.983  -1.597  -4.517  0.00  0.00     0.048 A 
ATOM      6  C5  UNL d   1      -0.225  -1.282  -5.647  0.00  0.00     0.003 A 
ATOM      7  I   UNL d   1      -1.557  -1.891  -1.562  0.00  0.00    -0.146 I 
ENDROOT
TORSDOF 0
ENDMDL
