MODEL 1
REMARK minimizedAffinity 14.8011761
REMARK minimizedRMSD -1
REMARK  0 active torsions:
REMARK  status: ('A' for Active; 'I' for Inactive)
ROOT
ATOM      1  C   UNL d   1      -2.277  -5.312  -4.060  0.00  0.00     0.023 A 
ATOM      2  C1  UNL d   1      -1.239  -5.823  -3.281  0.00  0.00     0.003 A 
ATOM      3  C2  UNL d   1       0.031  -5.996  -3.835  0.00  0.00     0.048 A 
ATOM      4  C3  UNL d   1       0.257  -5.656  -5.168  0.00  0.00     0.023 A 
ATOM      5  C4  UNL d   1      -0.779  -5.143  -5.951  0.00  0.00     0.048 A 
ATOM      6  C5  UNL d   1      -2.047  -4.972  -5.394  0.00  0.00     0.003 A 
ATOM      7  I   UNL d   1       2.146  -5.913  -5.995  0.00  0.00    -0.146 I 
ENDROOT
TORSDOF 0
ENDMDL
