MODEL 1
REMARK minimizedAffinity 1.45297837
REMARK minimizedRMSD -1
REMARK  3 active torsions:
REMARK  status: ('A' for Active; 'I' for Inactive)
REMARK    1  A    between atoms: C3'_2  and  C2'_3 
REMARK    2  A    between atoms: C2'_3  and  C1'_4 
REMARK    3  A    between atoms: C1'_4  and  C1_5 
ROOT
ATOM      1  C1  N4B d   1      -3.355   5.935   3.560  0.00  0.00    -0.075 A 
ATOM      2  C2  N4B d   1      -2.617   5.905   4.763  0.00  0.00     0.002 A 
ATOM      3  C3  N4B d   1      -3.270   5.926   5.971  0.00  0.00     0.002 A 
ATOM      4  C4  N4B d   1      -4.655   5.996   6.000  0.00  0.00    -0.004 A 
ATOM      5  C5  N4B d   1      -5.362   5.998   4.833  0.00  0.00     0.002 A 
ATOM      6  C6  N4B d   1      -4.719   5.974   3.612  0.00  0.00     0.002 A 
ENDROOT
BRANCH   1   7
ATOM      7  C1' N4B d   1      -2.682   6.000   2.216  0.00  0.00     0.057 C 
BRANCH   7   8
ATOM      8  C2' N4B d   1      -2.802   4.643   1.530  0.00  0.00     0.009 C 
BRANCH   8   9
ATOM      9  C3' N4B d   1      -3.453   3.606   2.429  0.00  0.00     0.004 C 
ATOM     10  C4' N4B d   1      -2.606   2.382   2.612  0.00  0.00     0.003 C 
ENDBRANCH   8   9
ENDBRANCH   7   8
ENDBRANCH   1   7
TORSDOF 3
ENDMDL
