MODEL 1
REMARK minimizedAffinity -1.82773232
REMARK minimizedRMSD -1
REMARK  3 active torsions:
REMARK  status: ('A' for Active; 'I' for Inactive)
REMARK    1  A    between atoms: C3'_2  and  C2'_3 
REMARK    2  A    between atoms: C2'_3  and  C1'_4 
REMARK    3  A    between atoms: C1'_4  and  C1_5 
ROOT
ATOM      1  C1  N4B d   1      -3.359   3.850   3.171  0.00  0.00    -0.075 A 
ATOM      2  C2  N4B d   1      -4.074   4.931   2.609  0.00  0.00     0.002 A 
ATOM      3  C3  N4B d   1      -4.432   5.999   3.395  0.00  0.00     0.002 A 
ATOM      4  C4  N4B d   1      -4.105   6.000   4.742  0.00  0.00    -0.004 A 
ATOM      5  C5  N4B d   1      -3.392   4.964   5.271  0.00  0.00     0.002 A 
ATOM      6  C6  N4B d   1      -3.022   3.885   4.493  0.00  0.00     0.002 A 
ENDROOT
BRANCH   1   7
ATOM      7  C1' N4B d   1      -3.021   2.622   2.371  0.00  0.00     0.057 C 
BRANCH   7   8
ATOM      8  C2' N4B d   1      -2.281   1.631   3.265  0.00  0.00     0.009 C 
BRANCH   8   9
ATOM      9  C3' N4B d   1      -3.015   0.306   3.375  0.00  0.00     0.004 C 
ATOM     10  C4' N4B d   1      -3.999   0.279   4.506  0.00  0.00     0.003 C 
ENDBRANCH   8   9
ENDBRANCH   7   8
ENDBRANCH   1   7
TORSDOF 3
ENDMDL
