MODEL 1
REMARK minimizedAffinity 6.94087076
REMARK minimizedRMSD -1
REMARK  3 active torsions:
REMARK  status: ('A' for Active; 'I' for Inactive)
REMARK    1  A    between atoms: C3'_2  and  C2'_3 
REMARK    2  A    between atoms: C2'_3  and  C1'_4 
REMARK    3  A    between atoms: C1'_4  and  C1_5 
ROOT
ATOM      1  C1  N4B d   1      -3.734   4.490   3.149  0.00  0.00    -0.075 A 
ATOM      2  C2  N4B d   1      -3.374   5.237   2.005  0.00  0.00     0.002 A 
ATOM      3  C3  N4B d   1      -4.319   5.990   1.353  0.00  0.00     0.002 A 
ATOM      4  C4  N4B d   1      -5.628   5.997   1.811  0.00  0.00    -0.004 A 
ATOM      5  C5  N4B d   1      -5.961   5.293   2.931  0.00  0.00     0.002 A 
ATOM      6  C6  N4B d   1      -5.021   4.535   3.600  0.00  0.00     0.002 A 
ENDROOT
BRANCH   1   7
ATOM      7  C1' N4B d   1      -2.756   3.584   3.846  0.00  0.00     0.057 C 
BRANCH   7   8
ATOM      8  C2' N4B d   1      -2.385   2.435   2.912  0.00  0.00     0.009 C 
BRANCH   8   9
ATOM      9  C3' N4B d   1      -3.021   1.125   3.343  0.00  0.00     0.004 C 
ATOM     10  C4' N4B d   1      -2.603  -0.033   2.487  0.00  0.00     0.003 C 
ENDBRANCH   8   9
ENDBRANCH   7   8
ENDBRANCH   1   7
TORSDOF 3
ENDMDL
