MODEL 1
REMARK minimizedAffinity -2.03260565
REMARK minimizedRMSD -1
REMARK  3 active torsions:
REMARK  status: ('A' for Active; 'I' for Inactive)
REMARK    1  A    between atoms: C3'_2  and  C2'_3 
REMARK    2  A    between atoms: C2'_3  and  C1'_4 
REMARK    3  A    between atoms: C1'_4  and  C1_5 
ROOT
ATOM      1  C1  N4B d   1      -3.789   3.913   3.771  0.00  0.00    -0.075 A 
ATOM      2  C2  N4B d   1      -3.380   4.680   2.658  0.00  0.00     0.002 A 
ATOM      3  C3  N4B d   1      -4.161   5.721   2.218  0.00  0.00     0.002 A 
ATOM      4  C4  N4B d   1      -5.358   6.000   2.860  0.00  0.00    -0.004 A 
ATOM      5  C5  N4B d   1      -5.733   5.270   3.950  0.00  0.00     0.002 A 
ATOM      6  C6  N4B d   1      -4.957   4.224   4.406  0.00  0.00     0.002 A 
ENDROOT
BRANCH   1   7
ATOM      7  C1' N4B d   1      -3.012   2.712   4.237  0.00  0.00     0.057 C 
BRANCH   7   8
ATOM      8  C2' N4B d   1      -2.639   1.858   3.028  0.00  0.00     0.009 C 
BRANCH   8   9
ATOM      9  C3' N4B d   1      -3.360   0.521   3.034  0.00  0.00     0.004 C 
ATOM     10  C4' N4B d   1      -4.389   0.420   4.120  0.00  0.00     0.003 C 
ENDBRANCH   8   9
ENDBRANCH   7   8
ENDBRANCH   1   7
TORSDOF 3
ENDMDL
