MODEL 1
REMARK minimizedAffinity 7.34907055
REMARK minimizedRMSD -1
REMARK  3 active torsions:
REMARK  status: ('A' for Active; 'I' for Inactive)
REMARK    1  A    between atoms: C3'_2  and  C2'_3 
REMARK    2  A    between atoms: C2'_3  and  C1'_4 
REMARK    3  A    between atoms: C1'_4  and  C1_5 
ROOT
ATOM      1  C1  N4B d   1      -3.243   5.931   3.358  0.00  0.00    -0.075 A 
ATOM      2  C2  N4B d   1      -1.868   5.900   3.678  0.00  0.00     0.002 A 
ATOM      3  C3  N4B d   1      -1.468   5.921   4.991  0.00  0.00     0.002 A 
ATOM      4  C4  N4B d   1      -2.420   5.992   5.997  0.00  0.00    -0.004 A 
ATOM      5  C5  N4B d   1      -3.747   5.997   5.681  0.00  0.00     0.002 A 
ATOM      6  C6  N4B d   1      -4.163   5.972   4.365  0.00  0.00     0.002 A 
ENDROOT
BRANCH   1   7
ATOM      7  C1' N4B d   1      -3.726   5.997   1.935  0.00  0.00     0.057 C 
BRANCH   7   8
ATOM      8  C2' N4B d   1      -5.235   5.772   1.907  0.00  0.00     0.009 C 
BRANCH   8   9
ATOM      9  C3' N4B d   1      -5.589   4.295   1.903  0.00  0.00     0.004 C 
ATOM     10  C4' N4B d   1      -4.388   3.409   2.051  0.00  0.00     0.003 C 
ENDBRANCH   8   9
ENDBRANCH   7   8
ENDBRANCH   1   7
TORSDOF 3
ENDMDL
