MODEL 1
REMARK minimizedAffinity 8.88383675
REMARK minimizedRMSD -1
REMARK  3 active torsions:
REMARK  status: ('A' for Active; 'I' for Inactive)
REMARK    1  A    between atoms: C3'_2  and  C2'_3 
REMARK    2  A    between atoms: C2'_3  and  C1'_4 
REMARK    3  A    between atoms: C1'_4  and  C1_5 
ROOT
ATOM      1  C1  N4B d   1       1.999   3.346  -3.903  0.00  0.00    -0.075 A 
ATOM      2  C2  N4B d   1       1.955   2.038  -4.433  0.00  0.00     0.002 A 
ATOM      3  C3  N4B d   1       1.419   1.015  -3.690  0.00  0.00     0.002 A 
ATOM      4  C4  N4B d   1       0.940   1.271  -2.415  0.00  0.00    -0.004 A 
ATOM      5  C5  N4B d   1       0.962   2.542  -1.920  0.00  0.00     0.002 A 
ATOM      6  C6  N4B d   1       1.495   3.581  -2.656  0.00  0.00     0.002 A 
ENDROOT
BRANCH   1   7
ATOM      7  C1' N4B d   1       2.654   4.481  -4.642  0.00  0.00     0.057 C 
BRANCH   7   8
ATOM      8  C2' N4B d   1       3.874   4.953  -3.857  0.00  0.00     0.009 C 
BRANCH   8   9
ATOM      9  C3' N4B d   1       4.894   3.843  -3.670  0.00  0.00     0.004 C 
ATOM     10  C4' N4B d   1       5.999   4.223  -2.730  0.00  0.00     0.003 C 
ENDBRANCH   8   9
ENDBRANCH   7   8
ENDBRANCH   1   7
TORSDOF 3
ENDMDL
