MODEL 1
REMARK minimizedAffinity 1.05234563
REMARK minimizedRMSD -1
REMARK  3 active torsions:
REMARK  status: ('A' for Active; 'I' for Inactive)
REMARK    1  A    between atoms: C3'_2  and  C2'_3 
REMARK    2  A    between atoms: C2'_3  and  C1'_4 
REMARK    3  A    between atoms: C1'_4  and  C1_5 
ROOT
ATOM      1  C1  N4B d   1       1.715   2.956  -4.577  0.00  0.00    -0.075 A 
ATOM      2  C2  N4B d   1       2.710   3.767  -3.988  0.00  0.00     0.002 A 
ATOM      3  C3  N4B d   1       2.889   5.058  -4.421  0.00  0.00     0.002 A 
ATOM      4  C4  N4B d   1       2.101   5.551  -5.450  0.00  0.00    -0.004 A 
ATOM      5  C5  N4B d   1       1.126   4.770  -5.997  0.00  0.00     0.002 A 
ATOM      6  C6  N4B d   1       0.932   3.472  -5.569  0.00  0.00     0.002 A 
ENDROOT
BRANCH   1   7
ATOM      7  C1' N4B d   1       1.539   1.511  -4.197  0.00  0.00     0.057 C 
BRANCH   7   8
ATOM      8  C2' N4B d   1       1.538   1.391  -2.676  0.00  0.00     0.009 C 
BRANCH   8   9
ATOM      9  C3' N4B d   1       1.391  -0.051  -2.220  0.00  0.00     0.004 C 
ATOM     10  C4' N4B d   1       2.590  -0.549  -1.470  0.00  0.00     0.003 C 
ENDBRANCH   8   9
ENDBRANCH   7   8
ENDBRANCH   1   7
TORSDOF 3
ENDMDL
