MODEL 1
REMARK minimizedAffinity -2.00037122
REMARK minimizedRMSD -1
REMARK  3 active torsions:
REMARK  status: ('A' for Active; 'I' for Inactive)
REMARK    1  A    between atoms: C3'_2  and  C2'_3 
REMARK    2  A    between atoms: C2'_3  and  C1'_4 
REMARK    3  A    between atoms: C1'_4  and  C1_5 
ROOT
ATOM      1  C1  N4B d   1       3.869   4.952   0.413  0.00  0.00    -0.075 A 
ATOM      2  C2  N4B d   1       4.900   5.887   0.172  0.00  0.00     0.002 A 
ATOM      3  C3  N4B d   1       5.946   5.999   1.055  0.00  0.00     0.002 A 
ATOM      4  C4  N4B d   1       5.973   5.203   2.190  0.00  0.00    -0.004 A 
ATOM      5  C5  N4B d   1       4.987   4.284   2.402  0.00  0.00     0.002 A 
ATOM      6  C6  N4B d   1       3.931   4.159   1.522  0.00  0.00     0.002 A 
ENDROOT
BRANCH   1   7
ATOM      7  C1' N4B d   1       2.661   4.854  -0.478  0.00  0.00     0.057 C 
BRANCH   7   8
ATOM      8  C2' N4B d   1       3.001   5.435  -1.848  0.00  0.00     0.009 C 
BRANCH   8   9
ATOM      9  C3' N4B d   1       2.680   4.464  -2.972  0.00  0.00     0.004 C 
ATOM     10  C4' N4B d   1       1.993   3.222  -2.488  0.00  0.00     0.003 C 
ENDBRANCH   8   9
ENDBRANCH   7   8
ENDBRANCH   1   7
TORSDOF 3
ENDMDL
