MODEL 1
REMARK minimizedAffinity 1.76423848
REMARK minimizedRMSD -1
REMARK  3 active torsions:
REMARK  status: ('A' for Active; 'I' for Inactive)
REMARK    1  A    between atoms: C3'_2  and  C2'_3 
REMARK    2  A    between atoms: C2'_3  and  C1'_4 
REMARK    3  A    between atoms: C1'_4  and  C1_5 
ROOT
ATOM      1  C1  N4B d   1      -3.511   5.991   3.112  0.00  0.00    -0.075 A 
ATOM      2  C2  N4B d   1      -4.639   5.999   3.962  0.00  0.00     0.002 A 
ATOM      3  C3  N4B d   1      -4.472   6.000   5.325  0.00  0.00     0.002 A 
ATOM      4  C4  N4B d   1      -3.192   5.973   5.859  0.00  0.00    -0.004 A 
ATOM      5  C5  N4B d   1      -2.108   5.991   5.031  0.00  0.00     0.002 A 
ATOM      6  C6  N4B d   1      -2.261   5.995   3.659  0.00  0.00     0.002 A 
ENDROOT
BRANCH   1   7
ATOM      7  C1' N4B d   1      -3.645   5.904   1.616  0.00  0.00     0.057 C 
BRANCH   7   8
ATOM      8  C2' N4B d   1      -3.251   4.502   1.159  0.00  0.00     0.009 C 
BRANCH   8   9
ATOM      9  C3' N4B d   1      -3.860   3.425   2.041  0.00  0.00     0.004 C 
ATOM     10  C4' N4B d   1      -2.832   2.504   2.627  0.00  0.00     0.003 C 
ENDBRANCH   8   9
ENDBRANCH   7   8
ENDBRANCH   1   7
TORSDOF 3
ENDMDL
