MODEL 1
REMARK minimizedAffinity 4.17443514
REMARK minimizedRMSD -1
REMARK  0 active torsions:
REMARK  status: ('A' for Active; 'I' for Inactive)
ROOT
ATOM      1  C4' PXY d   1       1.081  -0.651  -1.080  0.00  0.00     0.077 C 
ATOM      2  C1' PXY d   1       1.298   5.094  -0.483  0.00  0.00     0.077 C 
ATOM      3  C1  PXY d   1       1.249   3.586  -0.629  0.00  0.00    -0.082 A 
ATOM      4  C2  PXY d   1       1.004   3.051  -1.814  0.00  0.00     0.003 A 
ATOM      5  C3  PXY d   1       0.924   1.690  -1.958  0.00  0.00     0.003 A 
ATOM      6  C4  PXY d   1       1.149   0.866  -0.888  0.00  0.00    -0.082 A 
ATOM      7  C5  PXY d   1       1.410   1.404   0.323  0.00  0.00     0.003 A 
ATOM      8  C6  PXY d   1       1.446   2.789   0.456  0.00  0.00     0.003 A 
ENDROOT
TORSDOF 0
ENDMDL
