MODEL 1
REMARK minimizedAffinity 2.31671357
REMARK minimizedRMSD -1
REMARK  0 active torsions:
REMARK  status: ('A' for Active; 'I' for Inactive)
ROOT
ATOM      1  C4' PXY d   1       1.336   5.790  -0.431  0.00  0.00     0.077 C 
ATOM      2  C1' PXY d   1       1.249   0.062  -1.203  0.00  0.00     0.077 C 
ATOM      3  C1  PXY d   1       1.269   1.563  -0.988  0.00  0.00    -0.082 A 
ATOM      4  C2  PXY d   1       1.078   2.374  -2.016  0.00  0.00     0.003 A 
ATOM      5  C3  PXY d   1       1.124   3.733  -1.845  0.00  0.00     0.003 A 
ATOM      6  C4  PXY d   1       1.315   4.269  -0.600  0.00  0.00    -0.082 A 
ATOM      7  C5  PXY d   1       1.500   3.448   0.456  0.00  0.00     0.003 A 
ATOM      8  C6  PXY d   1       1.490   2.071   0.255  0.00  0.00     0.003 A 
ENDROOT
TORSDOF 0
ENDMDL
