MODEL 1
REMARK minimizedAffinity -0.35977295
REMARK minimizedRMSD -1
REMARK  0 active torsions:
REMARK  status: ('A' for Active; 'I' for Inactive)
ROOT
ATOM      1  C4' PXY d   1       0.758   1.793  -3.161  0.00  0.00     0.077 C 
ATOM      2  C1' PXY d   1       4.124   1.717   1.537  0.00  0.00     0.077 C 
ATOM      3  C1  PXY d   1       3.240   1.750   0.307  0.00  0.00    -0.082 A 
ATOM      4  C2  PXY d   1       2.589   0.658  -0.060  0.00  0.00     0.003 A 
ATOM      5  C3  PXY d   1       1.810   0.661  -1.189  0.00  0.00     0.003 A 
ATOM      6  C4  PXY d   1       1.654   1.808  -1.920  0.00  0.00    -0.082 A 
ATOM      7  C5  PXY d   1       2.307   2.929  -1.546  0.00  0.00     0.003 A 
ATOM      8  C6  PXY d   1       3.125   2.894  -0.421  0.00  0.00     0.003 A 
ENDROOT
TORSDOF 0
ENDMDL
