MODEL 1
REMARK minimizedAffinity -2.78659987
REMARK minimizedRMSD -1
REMARK  0 active torsions:
REMARK  status: ('A' for Active; 'I' for Inactive)
ROOT
ATOM      1  C4' PXY d   1       1.261   4.936  -0.018  0.00  0.00     0.077 C 
ATOM      2  C1' PXY d   1       1.114  -0.757  -1.013  0.00  0.00     0.077 C 
ATOM      3  C1  PXY d   1       1.149   0.734  -0.740  0.00  0.00    -0.082 A 
ATOM      4  C2  PXY d   1       0.977   1.586  -1.737  0.00  0.00     0.003 A 
ATOM      5  C3  PXY d   1       1.037   2.938  -1.513  0.00  0.00     0.003 A 
ATOM      6  C4  PXY d   1       1.224   3.422  -0.246  0.00  0.00    -0.082 A 
ATOM      7  C5  PXY d   1       1.390   2.559   0.779  0.00  0.00     0.003 A 
ATOM      8  C6  PXY d   1       1.366   1.191   0.523  0.00  0.00     0.003 A 
ENDROOT
TORSDOF 0
ENDMDL
