MODEL 1
REMARK minimizedAffinity -0.592343926
REMARK minimizedRMSD -1
REMARK  0 active torsions:
REMARK  status: ('A' for Active; 'I' for Inactive)
ROOT
ATOM      1  C4' PXY d   1       1.267  -0.784  -1.514  0.00  0.00     0.077 C 
ATOM      2  C1' PXY d   1       1.058   4.858  -0.273  0.00  0.00     0.077 C 
ATOM      3  C1  PXY d   1       1.105   3.380  -0.609  0.00  0.00    -0.082 A 
ATOM      4  C2  PXY d   1       1.349   2.499   0.348  0.00  0.00     0.003 A 
ATOM      5  C3  PXY d   1       1.427   1.162   0.056  0.00  0.00     0.003 A 
ATOM      6  C4  PXY d   1       1.200   0.717  -1.219  0.00  0.00    -0.082 A 
ATOM      7  C5  PXY d   1       0.940   1.609  -2.199  0.00  0.00     0.003 A 
ATOM      8  C6  PXY d   1       0.906   2.965  -1.889  0.00  0.00     0.003 A 
ENDROOT
TORSDOF 0
ENDMDL
