MODEL 1
REMARK minimizedAffinity -4.95986509
REMARK minimizedRMSD -1
REMARK  0 active torsions:
REMARK  status: ('A' for Active; 'I' for Inactive)
ROOT
ATOM      1  C4' PXY d   1       1.152   5.249  -0.702  0.00  0.00     0.077 C 
ATOM      2  C1' PXY d   1       1.321  -0.528  -0.585  0.00  0.00     0.077 C 
ATOM      3  C1  PXY d   1       1.271   0.987  -0.604  0.00  0.00    -0.082 A 
ATOM      4  C2  PXY d   1       1.300   1.628  -1.761  0.00  0.00     0.003 A 
ATOM      5  C3  PXY d   1       1.288   2.999  -1.795  0.00  0.00     0.003 A 
ATOM      6  C4  PXY d   1       1.191   3.720  -0.635  0.00  0.00    -0.082 A 
ATOM      7  C5  PXY d   1       1.150   3.073   0.549  0.00  0.00     0.003 A 
ATOM      8  C6  PXY d   1       1.205   1.682   0.564  0.00  0.00     0.003 A 
ENDROOT
TORSDOF 0
ENDMDL
