MODEL 1
REMARK minimizedAffinity 5.27716494
REMARK minimizedRMSD -1
REMARK  0 active torsions:
REMARK  status: ('A' for Active; 'I' for Inactive)
ROOT
ATOM      1  C4' PXY d   1       1.378  -0.799  -2.966  0.00  0.00     0.077 C 
ATOM      2  C1' PXY d   1       1.227   3.356   1.050  0.00  0.00     0.077 C 
ATOM      3  C1  PXY d   1       1.276   2.261   0.003  0.00  0.00    -0.082 A 
ATOM      4  C2  PXY d   1       0.789   2.489  -1.206  0.00  0.00     0.003 A 
ATOM      5  C3  PXY d   1       0.797   1.499  -2.155  0.00  0.00     0.003 A 
ATOM      6  C4  PXY d   1       1.358   0.281  -1.880  0.00  0.00    -0.082 A 
ATOM      7  C5  PXY d   1       1.867   0.044  -0.653  0.00  0.00     0.003 A 
ATOM      8  C6  PXY d   1       1.812   1.048   0.309  0.00  0.00     0.003 A 
ENDROOT
TORSDOF 0
ENDMDL
