MODEL 1
REMARK minimizedAffinity 1.00113857
REMARK minimizedRMSD -1
REMARK  0 active torsions:
REMARK  status: ('A' for Active; 'I' for Inactive)
ROOT
ATOM      1  C4' PXY d   1      -1.906   2.203   6.000  0.00  0.00     0.077 C 
ATOM      2  C1' PXY d   1      -3.376   2.186   0.410  0.00  0.00     0.077 C 
ATOM      3  C1  PXY d   1      -2.980   2.184   1.873  0.00  0.00    -0.082 A 
ATOM      4  C2  PXY d   1      -3.915   2.277   2.804  0.00  0.00     0.003 A 
ATOM      5  C3  PXY d   1      -3.571   2.309   4.131  0.00  0.00     0.003 A 
ATOM      6  C4  PXY d   1      -2.261   2.191   4.511  0.00  0.00    -0.082 A 
ATOM      7  C5  PXY d   1      -1.302   2.085   3.567  0.00  0.00     0.003 A 
ATOM      8  C6  PXY d   1      -1.668   2.096   2.224  0.00  0.00     0.003 A 
ENDROOT
TORSDOF 0
ENDMDL
