MODEL 1
REMARK minimizedAffinity 0.714328349
REMARK minimizedRMSD -1
REMARK  0 active torsions:
REMARK  status: ('A' for Active; 'I' for Inactive)
ROOT
ATOM      1  C4' PXY d   1       1.292  -2.669  -0.652  0.00  0.00     0.077 C 
ATOM      2  C1' PXY d   1       1.508   3.020  -1.654  0.00  0.00     0.077 C 
ATOM      3  C1  PXY d   1       1.449   1.526  -1.404  0.00  0.00    -0.082 A 
ATOM      4  C2  PXY d   1       1.192   1.077  -0.186  0.00  0.00     0.003 A 
ATOM      5  C3  PXY d   1       1.167  -0.271   0.064  0.00  0.00     0.003 A 
ATOM      6  C4  PXY d   1       1.352  -1.168  -0.953  0.00  0.00    -0.082 A 
ATOM      7  C5  PXY d   1       1.604  -0.718  -2.200  0.00  0.00     0.003 A 
ATOM      8  C6  PXY d   1       1.667   0.654  -2.426  0.00  0.00     0.003 A 
ENDROOT
TORSDOF 0
ENDMDL
