MODEL 1
REMARK minimizedAffinity -0.622009039
REMARK minimizedRMSD -1
REMARK  0 active torsions:
REMARK  status: ('A' for Active; 'I' for Inactive)
ROOT
ATOM      1  C4' PXY d   1       1.290   4.631   0.060  0.00  0.00     0.077 C 
ATOM      2  C1' PXY d   1       0.808  -1.111  -0.404  0.00  0.00     0.077 C 
ATOM      3  C1  PXY d   1       0.928   0.395  -0.271  0.00  0.00    -0.082 A 
ATOM      4  C2  PXY d   1       1.130   1.132  -1.351  0.00  0.00     0.003 A 
ATOM      5  C3  PXY d   1       1.272   2.492  -1.245  0.00  0.00     0.003 A 
ATOM      6  C4  PXY d   1       1.154   3.108  -0.028  0.00  0.00    -0.082 A 
ATOM      7  C5  PXY d   1       0.937   2.364   1.077  0.00  0.00     0.003 A 
ATOM      8  C6  PXY d   1       0.836   0.981   0.953  0.00  0.00     0.003 A 
ENDROOT
TORSDOF 0
ENDMDL
