MODEL 1
REMARK minimizedAffinity 2.80400014
REMARK minimizedRMSD -1
REMARK  0 active torsions:
REMARK  status: ('A' for Active; 'I' for Inactive)
ROOT
ATOM      1  C4' PXY d   1       0.490   3.621  -2.179  0.00  0.00     0.077 C 
ATOM      2  C1' PXY d   1       1.522  -1.480   0.336  0.00  0.00     0.077 C 
ATOM      3  C1  PXY d   1       1.249  -0.138  -0.312  0.00  0.00    -0.082 A 
ATOM      4  C2  PXY d   1       0.902  -0.085  -1.588  0.00  0.00     0.003 A 
ATOM      5  C3  PXY d   1       0.683   1.123  -2.198  0.00  0.00     0.003 A 
ATOM      6  C4  PXY d   1       0.767   2.286  -1.481  0.00  0.00    -0.082 A 
ATOM      7  C5  PXY d   1       1.109   2.241  -0.176  0.00  0.00     0.003 A 
ATOM      8  C6  PXY d   1       1.368   1.007   0.414  0.00  0.00     0.003 A 
ENDROOT
TORSDOF 0
ENDMDL
