MODEL 1
REMARK minimizedAffinity 1.09546173
REMARK minimizedRMSD -1
REMARK  0 active torsions:
REMARK  status: ('A' for Active; 'I' for Inactive)
ROOT
ATOM      1  C4' PXY d   1       1.051   4.955  -0.368  0.00  0.00     0.077 C 
ATOM      2  C1' PXY d   1       1.911  -0.738  -0.883  0.00  0.00     0.077 C 
ATOM      3  C1  PXY d   1       1.678   0.753  -0.737  0.00  0.00    -0.082 A 
ATOM      4  C2  PXY d   1       1.814   1.542  -1.791  0.00  0.00     0.003 A 
ATOM      5  C3  PXY d   1       1.639   2.896  -1.670  0.00  0.00     0.003 A 
ATOM      6  C4  PXY d   1       1.268   3.442  -0.470  0.00  0.00    -0.082 A 
ATOM      7  C5  PXY d   1       1.116   2.643   0.606  0.00  0.00     0.003 A 
ATOM      8  C6  PXY d   1       1.340   1.275   0.472  0.00  0.00     0.003 A 
ENDROOT
TORSDOF 0
ENDMDL
