MODEL 1
REMARK minimizedAffinity -3.3425951
REMARK minimizedRMSD -1
REMARK  0 active torsions:
REMARK  status: ('A' for Active; 'I' for Inactive)
ROOT
ATOM      1  C4' PXY d   1       1.880  -1.224   0.276  0.00  0.00     0.077 C 
ATOM      2  C1' PXY d   1       0.494   4.035  -1.684  0.00  0.00     0.077 C 
ATOM      3  C1  PXY d   1       0.855   2.651  -1.182  0.00  0.00    -0.082 A 
ATOM      4  C2  PXY d   1       0.825   2.398   0.117  0.00  0.00     0.003 A 
ATOM      5  C3  PXY d   1       1.178   1.161   0.591  0.00  0.00     0.003 A 
ATOM      6  C4  PXY d   1       1.515   0.157  -0.277  0.00  0.00    -0.082 A 
ATOM      7  C5  PXY d   1       1.538   0.404  -1.604  0.00  0.00     0.003 A 
ATOM      8  C6  PXY d   1       1.215   1.678  -2.062  0.00  0.00     0.003 A 
ENDROOT
TORSDOF 0
ENDMDL
