MODEL 1
REMARK minimizedAffinity 6.06674385
REMARK minimizedRMSD -1
REMARK  0 active torsions:
REMARK  status: ('A' for Active; 'I' for Inactive)
ROOT
ATOM      1  C4' PXY d   1       0.460  -1.853  -1.083  0.00  0.00     0.077 C 
ATOM      2  C1' PXY d   1       4.146   1.850   1.391  0.00  0.00     0.077 C 
ATOM      3  C1  PXY d   1       3.170   0.886   0.746  0.00  0.00    -0.082 A 
ATOM      4  C2  PXY d   1       3.518  -0.378   0.568  0.00  0.00     0.003 A 
ATOM      5  C3  PXY d   1       2.660  -1.255  -0.043  0.00  0.00     0.003 A 
ATOM      6  C4  PXY d   1       1.410  -0.847  -0.427  0.00  0.00    -0.082 A 
ATOM      7  C5  PXY d   1       1.043   0.438  -0.240  0.00  0.00     0.003 A 
ATOM      8  C6  PXY d   1       1.945   1.323   0.345  0.00  0.00     0.003 A 
ENDROOT
TORSDOF 0
ENDMDL
