MODEL 1
REMARK minimizedAffinity -1.29733539
REMARK minimizedRMSD -1
REMARK  0 active torsions:
REMARK  status: ('A' for Active; 'I' for Inactive)
ROOT
ATOM      1  C4' PXY d   1       0.777  -0.991  -0.406  0.00  0.00     0.077 C 
ATOM      2  C1' PXY d   1       1.310   4.667  -1.458  0.00  0.00     0.077 C 
ATOM      3  C1  PXY d   1       1.173   3.186  -1.170  0.00  0.00    -0.082 A 
ATOM      4  C2  PXY d   1       1.384   2.308  -2.137  0.00  0.00     0.003 A 
ATOM      5  C3  PXY d   1       1.233   0.966  -1.902  0.00  0.00     0.003 A 
ATOM      6  C4  PXY d   1       0.914   0.514  -0.649  0.00  0.00    -0.082 A 
ATOM      7  C5  PXY d   1       0.707   1.402   0.346  0.00  0.00     0.003 A 
ATOM      8  C6  PXY d   1       0.825   2.763   0.076  0.00  0.00     0.003 A 
ENDROOT
TORSDOF 0
ENDMDL
