MODEL 1
REMARK minimizedAffinity 5.67286444
REMARK minimizedRMSD -1
REMARK  0 active torsions:
REMARK  status: ('A' for Active; 'I' for Inactive)
ROOT
ATOM      1  C4' PXY d   1       0.275   3.666  -2.326  0.00  0.00     0.077 C 
ATOM      2  C1' PXY d   1       1.820  -1.125   0.514  0.00  0.00     0.077 C 
ATOM      3  C1  PXY d   1       1.408   0.135  -0.221  0.00  0.00    -0.082 A 
ATOM      4  C2  PXY d   1       1.383   0.143  -1.543  0.00  0.00     0.003 A 
ATOM      5  C3  PXY d   1       1.044   1.284  -2.224  0.00  0.00     0.003 A 
ATOM      6  C4  PXY d   1       0.675   2.413  -1.543  0.00  0.00    -0.082 A 
ATOM      7  C5  PXY d   1       0.689   2.410  -0.193  0.00  0.00     0.003 A 
ATOM      8  C6  PXY d   1       1.076   1.254   0.479  0.00  0.00     0.003 A 
ENDROOT
TORSDOF 0
ENDMDL
