MODEL 1
REMARK minimizedAffinity 6.76105928
REMARK minimizedRMSD -1
REMARK  0 active torsions:
REMARK  status: ('A' for Active; 'I' for Inactive)
ROOT
ATOM      1  C4' PXY d   1      -0.056   3.399  -3.036  0.00  0.00     0.077 C 
ATOM      2  C1' PXY d   1       2.309  -0.855   0.084  0.00  0.00     0.077 C 
ATOM      3  C1  PXY d   1       1.689   0.269  -0.724  0.00  0.00    -0.082 A 
ATOM      4  C2  PXY d   1       0.947  -0.018  -1.781  0.00  0.00     0.003 A 
ATOM      5  C3  PXY d   1       0.405   0.986  -2.541  0.00  0.00     0.003 A 
ATOM      6  C4  PXY d   1       0.582   2.297  -2.185  0.00  0.00    -0.082 A 
ATOM      7  C5  PXY d   1       1.329   2.597  -1.102  0.00  0.00     0.003 A 
ATOM      8  C6  PXY d   1       1.904   1.564  -0.367  0.00  0.00     0.003 A 
ENDROOT
TORSDOF 0
ENDMDL
