MODEL 1
REMARK minimizedAffinity 2.17393136
REMARK minimizedRMSD -1
REMARK  0 active torsions:
REMARK  status: ('A' for Active; 'I' for Inactive)
ROOT
ATOM      1  C4' PXY d   1       0.949   4.728  -1.525  0.00  0.00     0.077 C 
ATOM      2  C1' PXY d   1       1.079  -1.003  -0.780  0.00  0.00     0.077 C 
ATOM      3  C1  PXY d   1       1.052   0.499  -0.986  0.00  0.00    -0.082 A 
ATOM      4  C2  PXY d   1       0.793   1.295   0.039  0.00  0.00     0.003 A 
ATOM      5  C3  PXY d   1       0.734   2.654  -0.136  0.00  0.00     0.003 A 
ATOM      6  C4  PXY d   1       0.995   3.206  -1.362  0.00  0.00    -0.082 A 
ATOM      7  C5  PXY d   1       1.270   2.401  -2.409  0.00  0.00     0.003 A 
ATOM      8  C6  PXY d   1       1.285   1.022  -2.220  0.00  0.00     0.003 A 
ENDROOT
TORSDOF 0
ENDMDL
