MODEL 1
REMARK minimizedAffinity 2.31150031
REMARK minimizedRMSD -1
REMARK  0 active torsions:
REMARK  status: ('A' for Active; 'I' for Inactive)
ROOT
ATOM      1  C4' PXY d   1       0.729   2.909   1.124  0.00  0.00     0.077 C 
ATOM      2  C1' PXY d   1       2.193  -0.747  -3.108  0.00  0.00     0.077 C 
ATOM      3  C1  PXY d   1       1.802   0.202  -1.992  0.00  0.00    -0.082 A 
ATOM      4  C2  PXY d   1       1.795   1.507  -2.216  0.00  0.00     0.003 A 
ATOM      5  C3  PXY d   1       1.475   2.381  -1.209  0.00  0.00     0.003 A 
ATOM      6  C4  PXY d   1       1.107   1.913   0.024  0.00  0.00    -0.082 A 
ATOM      7  C5  PXY d   1       1.102   0.584   0.257  0.00  0.00     0.003 A 
ATOM      8  C6  PXY d   1       1.469  -0.285  -0.766  0.00  0.00     0.003 A 
ENDROOT
TORSDOF 0
ENDMDL
