MODEL 1
REMARK minimizedAffinity -1.56099832
REMARK minimizedRMSD -1
REMARK  0 active torsions:
REMARK  status: ('A' for Active; 'I' for Inactive)
ROOT
ATOM      1  C4' PXY d   1       1.730   1.120   2.431  0.00  0.00     0.077 C 
ATOM      2  C1' PXY d   1       0.727   2.773  -3.016  0.00  0.00     0.077 C 
ATOM      3  C1  PXY d   1       0.995   2.352  -1.585  0.00  0.00    -0.082 A 
ATOM      4  C2  PXY d   1       1.126   1.067  -1.295  0.00  0.00     0.003 A 
ATOM      5  C3  PXY d   1       1.337   0.666  -0.001  0.00  0.00     0.003 A 
ATOM      6  C4  PXY d   1       1.468   1.593   0.998  0.00  0.00    -0.082 A 
ATOM      7  C5  PXY d   1       1.347   2.905   0.709  0.00  0.00     0.003 A 
ATOM      8  C6  PXY d   1       1.092   3.290  -0.604  0.00  0.00     0.003 A 
ENDROOT
TORSDOF 0
ENDMDL
