MODEL 1
REMARK minimizedAffinity -3.778929
REMARK minimizedRMSD -1
REMARK  1 active torsions:
REMARK  status: ('A' for Active; 'I' for Inactive)
REMARK    1  A    between atoms: N_2  and  C1_3 
ROOT
ATOM      1  C1  UNL d   1      -1.147  -0.250   1.585  0.00  0.00     0.143 A 
ATOM      2  C2  UNL d   1      -0.524   0.377   0.501  0.00  0.00    -0.057 A 
ATOM      3  C3  UNL d   1       0.437  -0.290  -0.270  0.00  0.00     0.033 A 
ATOM      4  C4  UNL d   1       0.814  -1.590   0.051  0.00  0.00    -0.042 A 
ATOM      5  C5  UNL d   1       0.226  -2.224   1.140  0.00  0.00     0.033 A 
ATOM      6  C6  UNL d   1      -0.737  -1.555   1.901  0.00  0.00    -0.057 A 
ENDROOT
BRANCH   1   7
ATOM      7  N   UNL d   1      -2.037   0.393   2.449  0.00  0.00    -0.732 N 
ATOM      8  C   UNL d   1      -3.459   0.385   2.181  0.00  0.00     0.284 C 
ATOM      9  H3  UNL d   1      -1.798   0.253   3.428  0.00  0.00     0.395 HD
ENDBRANCH   1   7
TORSDOF 1
ENDMDL
