MODEL 1
REMARK minimizedAffinity 1.19359028
REMARK minimizedRMSD -1
REMARK  1 active torsions:
REMARK  status: ('A' for Active; 'I' for Inactive)
REMARK    1  A    between atoms: N_2  and  C1_3 
ROOT
ATOM      1  C1  UNL d   1      -0.529  -0.345  -1.608  0.00  0.00     0.143 A 
ATOM      2  C2  UNL d   1      -0.858   0.516  -2.660  0.00  0.00    -0.057 A 
ATOM      3  C3  UNL d   1      -1.224   0.021  -3.917  0.00  0.00     0.033 A 
ATOM      4  C4  UNL d   1      -1.238  -1.350  -4.154  0.00  0.00    -0.042 A 
ATOM      5  C5  UNL d   1      -0.891  -2.224  -3.131  0.00  0.00     0.033 A 
ATOM      6  C6  UNL d   1      -0.533  -1.723  -1.875  0.00  0.00    -0.057 A 
ENDROOT
BRANCH   1   7
ATOM      7  N   UNL d   1      -0.062   0.088  -0.365  0.00  0.00    -0.732 N 
ATOM      8  C   UNL d   1       0.918   1.148  -0.274  0.00  0.00     0.284 C 
ATOM      9  H3  UNL d   1      -0.804   0.147   0.330  0.00  0.00     0.395 HD
ENDBRANCH   1   7
TORSDOF 1
ENDMDL
