MODEL 1
REMARK minimizedAffinity -1.25992
REMARK minimizedRMSD -1
REMARK  1 active torsions:
REMARK  status: ('A' for Active; 'I' for Inactive)
REMARK    1  A    between atoms: N_2  and  C1_3 
ROOT
ATOM      1  C1  UNL d   1      -4.952   0.276   0.848  0.00  0.00     0.143 A 
ATOM      2  C2  UNL d   1      -5.131   1.308   1.776  0.00  0.00    -0.057 A 
ATOM      3  C3  UNL d   1      -4.054   1.817   2.512  0.00  0.00     0.033 A 
ATOM      4  C4  UNL d   1      -2.780   1.281   2.353  0.00  0.00    -0.042 A 
ATOM      5  C5  UNL d   1      -2.584   0.239   1.455  0.00  0.00     0.033 A 
ATOM      6  C6  UNL d   1      -3.662  -0.261   0.718  0.00  0.00    -0.057 A 
ENDROOT
BRANCH   1   7
ATOM      7  N   UNL d   1      -6.000  -0.339   0.158  0.00  0.00    -0.732 N 
ATOM      8  C   UNL d   1      -5.728  -1.275  -0.912  0.00  0.00     0.284 C 
ATOM      9  H3  UNL d   1      -6.758  -0.622   0.774  0.00  0.00     0.395 HD
ENDBRANCH   1   7
TORSDOF 1
ENDMDL
