MODEL 1
REMARK minimizedAffinity -3.09432054
REMARK minimizedRMSD -1
REMARK  1 active torsions:
REMARK  status: ('A' for Active; 'I' for Inactive)
REMARK    1  A    between atoms: N_2  and  C1_3 
ROOT
ATOM      1  C1  UNL d   1      -3.031   0.391  -0.198  0.00  0.00     0.143 A 
ATOM      2  C2  UNL d   1      -3.180   1.195   0.937  0.00  0.00    -0.057 A 
ATOM      3  C3  UNL d   1      -4.400   1.268   1.619  0.00  0.00     0.033 A 
ATOM      4  C4  UNL d   1      -5.504   0.557   1.160  0.00  0.00    -0.042 A 
ATOM      5  C5  UNL d   1      -5.386  -0.229   0.020  0.00  0.00     0.033 A 
ATOM      6  C6  UNL d   1      -4.163  -0.303  -0.654  0.00  0.00    -0.057 A 
ENDROOT
BRANCH   1   7
ATOM      7  N   UNL d   1      -1.872   0.352  -0.978  0.00  0.00    -0.732 N 
ATOM      8  C   UNL d   1      -0.583   0.664  -0.398  0.00  0.00     0.284 C 
ATOM      9  H3  UNL d   1      -1.860  -0.439  -1.617  0.00  0.00     0.395 HD
ENDBRANCH   1   7
TORSDOF 1
ENDMDL
