MODEL 1
REMARK minimizedAffinity -1.40082741
REMARK minimizedRMSD -1
REMARK  1 active torsions:
REMARK  status: ('A' for Active; 'I' for Inactive)
REMARK    1  A    between atoms: N_2  and  C1_3 
ROOT
ATOM      1  C1  UNL d   1       0.171  -1.125  -0.963  0.00  0.00     0.143 A 
ATOM      2  C2  UNL d   1      -0.041  -0.447   0.242  0.00  0.00    -0.057 A 
ATOM      3  C3  UNL d   1       0.946  -0.402   1.234  0.00  0.00     0.033 A 
ATOM      4  C4  UNL d   1       2.157  -1.062   1.049  0.00  0.00    -0.042 A 
ATOM      5  C5  UNL d   1       2.380  -1.763  -0.131  0.00  0.00     0.033 A 
ATOM      6  C6  UNL d   1       1.393  -1.799  -1.120  0.00  0.00    -0.057 A 
ENDROOT
BRANCH   1   7
ATOM      7  N   UNL d   1      -0.808  -1.289  -1.946  0.00  0.00    -0.732 N 
ATOM      8  C   UNL d   1      -1.482  -0.141  -2.513  0.00  0.00     0.284 C 
ATOM      9  H3  UNL d   1      -0.559  -2.003  -2.627  0.00  0.00     0.395 HD
ENDBRANCH   1   7
TORSDOF 1
ENDMDL
