MODEL 1
REMARK minimizedAffinity -1.90905476
REMARK minimizedRMSD -1
REMARK  1 active torsions:
REMARK  status: ('A' for Active; 'I' for Inactive)
REMARK    1  A    between atoms: N_2  and  C1_3 
ROOT
ATOM      1  C1  UNL d   1       0.932   0.128   0.333  0.00  0.00     0.143 A 
ATOM      2  C2  UNL d   1       1.166  -0.976  -0.493  0.00  0.00    -0.057 A 
ATOM      3  C3  UNL d   1       2.115  -1.949  -0.154  0.00  0.00     0.033 A 
ATOM      4  C4  UNL d   1       2.869  -1.817   1.007  0.00  0.00    -0.042 A 
ATOM      5  C5  UNL d   1       2.671  -0.715   1.831  0.00  0.00     0.033 A 
ATOM      6  C6  UNL d   1       1.718   0.249   1.490  0.00  0.00    -0.057 A 
ENDROOT
BRANCH   1   7
ATOM      7  N   UNL d   1       0.073   1.179   0.002  0.00  0.00    -0.732 N 
ATOM      8  C   UNL d   1      -1.273   0.913  -0.460  0.00  0.00     0.284 C 
ATOM      9  H3  UNL d   1       0.143   1.958   0.653  0.00  0.00     0.395 HD
ENDBRANCH   1   7
TORSDOF 1
ENDMDL
