MODEL 1
REMARK minimizedAffinity 3.52213788
REMARK minimizedRMSD -1
REMARK  1 active torsions:
REMARK  status: ('A' for Active; 'I' for Inactive)
REMARK    1  A    between atoms: N_2  and  C1_3 
ROOT
ATOM      1  C1  UNL d   1       2.054  -0.975  -0.541  0.00  0.00     0.143 A 
ATOM      2  C2  UNL d   1       0.766  -1.218  -1.030  0.00  0.00    -0.057 A 
ATOM      3  C3  UNL d   1      -0.356  -0.609  -0.454  0.00  0.00     0.033 A 
ATOM      4  C4  UNL d   1      -0.212   0.234   0.643  0.00  0.00    -0.042 A 
ATOM      5  C5  UNL d   1       1.057   0.470   1.161  0.00  0.00     0.033 A 
ATOM      6  C6  UNL d   1       2.174  -0.135   0.578  0.00  0.00    -0.057 A 
ENDROOT
BRANCH   1   7
ATOM      7  N   UNL d   1       3.198  -1.626  -1.007  0.00  0.00    -0.732 N 
ATOM      8  C   UNL d   1       3.150  -2.433  -2.208  0.00  0.00     0.284 C 
ATOM      9  H3  UNL d   1       4.033  -1.050  -0.927  0.00  0.00     0.395 HD
ENDBRANCH   1   7
TORSDOF 1
ENDMDL
