MODEL 1
REMARK minimizedAffinity -0.0876126215
REMARK minimizedRMSD -1
REMARK  0 active torsions:
REMARK  status: ('A' for Active; 'I' for Inactive)
ROOT
ATOM      1  N1  IND d   1      -1.933   0.049  -0.304  0.00  0.00    -0.196 N 
ATOM      2  C2  IND d   1      -1.662  -0.282   0.994  0.00  0.00     0.054 A 
ATOM      3  C3  IND d   1      -0.327  -0.383   1.185  0.00  0.00    -0.031 A 
ATOM      4  C4  IND d   1       1.599   0.053  -0.467  0.00  0.00     0.051 A 
ATOM      5  C5  IND d   1       1.847   0.344  -1.779  0.00  0.00    -0.031 A 
ATOM      6  C6  IND d   1       0.828   0.558  -2.684  0.00  0.00     0.015 A 
ATOM      7  C7  IND d   1      -0.484   0.501  -2.307  0.00  0.00    -0.016 A 
ATOM      8  C8  IND d   1      -0.740   0.199  -0.977  0.00  0.00    -0.047 A 
ATOM      9  C9  IND d   1       0.289  -0.062  -0.063  0.00  0.00    -0.096 A 
ATOM     10  HN1 IND d   1      -2.717   0.148  -0.643  0.00  0.00     0.298 HD
ENDROOT
TORSDOF 0
ENDMDL
