MODEL 1
REMARK minimizedAffinity -4.04295826
REMARK minimizedRMSD -1
REMARK  0 active torsions:
REMARK  status: ('A' for Active; 'I' for Inactive)
ROOT
ATOM      1  N1  IND d   1      -1.141  -0.321   0.166  0.00  0.00    -0.196 N 
ATOM      2  C2  IND d   1      -0.803   0.515   1.194  0.00  0.00     0.054 A 
ATOM      3  C3  IND d   1       0.349   1.164   0.914  0.00  0.00    -0.031 A 
ATOM      4  C4  IND d   1       1.795   1.084  -1.215  0.00  0.00     0.051 A 
ATOM      5  C5  IND d   1       1.912   0.439  -2.414  0.00  0.00    -0.031 A 
ATOM      6  C6  IND d   1       0.997  -0.509  -2.824  0.00  0.00     0.015 A 
ATOM      7  C7  IND d   1      -0.079  -0.841  -2.051  0.00  0.00    -0.016 A 
ATOM      8  C8  IND d   1      -0.197  -0.194  -0.830  0.00  0.00    -0.047 A 
ATOM      9  C9  IND d   1       0.751   0.739  -0.390  0.00  0.00    -0.096 A 
ATOM     10  HN1 IND d   1      -1.826  -0.839   0.145  0.00  0.00     0.298 HD
ENDROOT
TORSDOF 0
ENDMDL
