MODEL 1
REMARK minimizedAffinity -3.94028807
REMARK minimizedRMSD -1
REMARK  0 active torsions:
REMARK  status: ('A' for Active; 'I' for Inactive)
ROOT
ATOM      1  N1  IND d   1       0.324   0.327  -0.183  0.00  0.00    -0.196 N 
ATOM      2  C2  IND d   1       0.779   1.465  -0.787  0.00  0.00     0.054 A 
ATOM      3  C3  IND d   1       1.526   1.156  -1.872  0.00  0.00    -0.031 A 
ATOM      4  C4  IND d   1       2.045  -1.147  -2.897  0.00  0.00     0.051 A 
ATOM      5  C5  IND d   1       1.879  -2.486  -2.678  0.00  0.00    -0.031 A 
ATOM      6  C6  IND d   1       1.169  -2.965  -1.596  0.00  0.00     0.015 A 
ATOM      7  C7  IND d   1       0.587  -2.119  -0.695  0.00  0.00    -0.016 A 
ATOM      8  C8  IND d   1       0.760  -0.759  -0.910  0.00  0.00    -0.047 A 
ATOM      9  C9  IND d   1       1.515  -0.268  -1.983  0.00  0.00    -0.096 A 
ATOM     10  HN1 IND d   1      -0.154   0.294   0.531  0.00  0.00     0.298 HD
ENDROOT
TORSDOF 0
ENDMDL
