MODEL 1
REMARK minimizedAffinity -3.86079359
REMARK minimizedRMSD -1
REMARK  0 active torsions:
REMARK  status: ('A' for Active; 'I' for Inactive)
ROOT
ATOM      1  N1  IND d   1       0.757  -2.760  -1.146  0.00  0.00    -0.196 N 
ATOM      2  C2  IND d   1       1.729  -3.212  -1.994  0.00  0.00     0.054 A 
ATOM      3  C3  IND d   1       2.356  -2.172  -2.587  0.00  0.00    -0.031 A 
ATOM      4  C4  IND d   1       2.019   0.356  -2.238  0.00  0.00     0.051 A 
ATOM      5  C5  IND d   1       1.222   1.257  -1.590  0.00  0.00    -0.031 A 
ATOM      6  C6  IND d   1       0.210   0.857  -0.741  0.00  0.00     0.015 A 
ATOM      7  C7  IND d   1      -0.036  -0.465  -0.499  0.00  0.00    -0.016 A 
ATOM      8  C8  IND d   1       0.767  -1.383  -1.161  0.00  0.00    -0.047 A 
ATOM      9  C9  IND d   1       1.768  -0.983  -2.056  0.00  0.00    -0.096 A 
ATOM     10  HN1 IND d   1       0.228  -3.253  -0.681  0.00  0.00     0.298 HD
ENDROOT
TORSDOF 0
ENDMDL
