MODEL 1
REMARK minimizedAffinity -1.35962033
REMARK minimizedRMSD -1
REMARK  0 active torsions:
REMARK  status: ('A' for Active; 'I' for Inactive)
ROOT
ATOM      1  N1  IND d   1      -0.390  -0.760  -0.253  0.00  0.00    -0.196 N 
ATOM      2  C2  IND d   1       0.525   0.255  -0.278  0.00  0.00     0.054 A 
ATOM      3  C3  IND d   1       0.035   1.346   0.352  0.00  0.00    -0.031 A 
ATOM      4  C4  IND d   1      -2.203   1.655   1.586  0.00  0.00     0.051 A 
ATOM      5  C5  IND d   1      -3.385   1.021   1.849  0.00  0.00    -0.031 A 
ATOM      6  C6  IND d   1      -3.633  -0.266   1.418  0.00  0.00     0.015 A 
ATOM      7  C7  IND d   1      -2.700  -0.975   0.715  0.00  0.00    -0.016 A 
ATOM      8  C8  IND d   1      -1.501  -0.331   0.441  0.00  0.00    -0.047 A 
ATOM      9  C9  IND d   1      -1.260   0.990   0.838  0.00  0.00    -0.096 A 
ATOM     10  HN1 IND d   1      -0.290  -1.536  -0.609  0.00  0.00     0.298 HD
ENDROOT
TORSDOF 0
ENDMDL
