MODEL 1
REMARK minimizedAffinity -5.10277319
REMARK minimizedRMSD -1
REMARK  0 active torsions:
REMARK  status: ('A' for Active; 'I' for Inactive)
ROOT
ATOM      1  N1  IND d   1       0.423  -0.320   0.839  0.00  0.00    -0.196 N 
ATOM      2  C2  IND d   1       0.532   1.032   1.005  0.00  0.00     0.054 A 
ATOM      3  C3  IND d   1       0.949   1.614  -0.141  0.00  0.00    -0.031 A 
ATOM      4  C4  IND d   1       1.415   0.553  -2.440  0.00  0.00     0.051 A 
ATOM      5  C5  IND d   1       1.488  -0.656  -3.073  0.00  0.00    -0.031 A 
ATOM      6  C6  IND d   1       1.201  -1.839  -2.422  0.00  0.00     0.015 A 
ATOM      7  C7  IND d   1       0.818  -1.855  -1.111  0.00  0.00    -0.016 A 
ATOM      8  C8  IND d   1       0.750  -0.630  -0.463  0.00  0.00    -0.047 A 
ATOM      9  C9  IND d   1       1.081   0.569  -1.106  0.00  0.00    -0.096 A 
ATOM     10  HN1 IND d   1       0.189  -0.883   1.446  0.00  0.00     0.298 HD
ENDROOT
TORSDOF 0
ENDMDL
