MODEL 1
REMARK minimizedAffinity -0.962797582
REMARK minimizedRMSD -1
REMARK  0 active torsions:
REMARK  status: ('A' for Active; 'I' for Inactive)
ROOT
ATOM      1  N1  IND d   1      -0.691   0.647  -0.879  0.00  0.00    -0.196 N 
ATOM      2  C2  IND d   1       0.567   0.432  -0.390  0.00  0.00     0.054 A 
ATOM      3  C3  IND d   1       0.519   0.194   0.940  0.00  0.00    -0.031 A 
ATOM      4  C4  IND d   1      -1.523   0.007   2.497  0.00  0.00     0.051 A 
ATOM      5  C5  IND d   1      -2.881   0.162   2.516  0.00  0.00    -0.031 A 
ATOM      6  C6  IND d   1      -3.593   0.490   1.380  0.00  0.00     0.015 A 
ATOM      7  C7  IND d   1      -2.972   0.665   0.176  0.00  0.00    -0.016 A 
ATOM      8  C8  IND d   1      -1.593   0.516   0.154  0.00  0.00    -0.047 A 
ATOM      9  C9  IND d   1      -0.860   0.225   1.312  0.00  0.00    -0.096 A 
ATOM     10  HN1 IND d   1      -0.887   0.833  -1.696  0.00  0.00     0.298 HD
ENDROOT
TORSDOF 0
ENDMDL
