MODEL 1
REMARK minimizedAffinity -1.21366143
REMARK minimizedRMSD -1
REMARK  0 active torsions:
REMARK  status: ('A' for Active; 'I' for Inactive)
ROOT
ATOM      1  N1  IND d   1      -0.353   1.060  -0.532  0.00  0.00    -0.196 N 
ATOM      2  C2  IND d   1      -0.603   1.355   0.779  0.00  0.00     0.054 A 
ATOM      3  C3  IND d   1      -0.569   0.230   1.529  0.00  0.00    -0.031 A 
ATOM      4  C4  IND d   1      -0.023  -2.186   0.829  0.00  0.00     0.051 A 
ATOM      5  C5  IND d   1       0.235  -2.957  -0.270  0.00  0.00    -0.031 A 
ATOM      6  C6  IND d   1       0.314  -2.417  -1.537  0.00  0.00     0.015 A 
ATOM      7  C7  IND d   1       0.149  -1.078  -1.753  0.00  0.00    -0.016 A 
ATOM      8  C8  IND d   1      -0.120  -0.293  -0.640  0.00  0.00    -0.047 A 
ATOM      9  C9  IND d   1      -0.244  -0.842   0.643  0.00  0.00    -0.096 A 
ATOM     10  HN1 IND d   1      -0.344   1.625  -1.180  0.00  0.00     0.298 HD
ENDROOT
TORSDOF 0
ENDMDL
