MODEL 1
REMARK minimizedAffinity -3.6698184
REMARK minimizedRMSD -1
REMARK  0 active torsions:
REMARK  status: ('A' for Active; 'I' for Inactive)
ROOT
ATOM      1  N1  IND d   1      -0.231  -1.551   0.241  0.00  0.00    -0.196 N 
ATOM      2  C2  IND d   1      -0.635  -0.821   1.324  0.00  0.00     0.054 A 
ATOM      3  C3  IND d   1      -0.344   0.487   1.144  0.00  0.00    -0.031 A 
ATOM      4  C4  IND d   1       0.699   1.666  -0.892  0.00  0.00     0.051 A 
ATOM      5  C5  IND d   1       1.267   1.413  -2.110  0.00  0.00    -0.031 A 
ATOM      6  C6  IND d   1       1.363   0.134  -2.617  0.00  0.00     0.015 A 
ATOM      7  C7  IND d   1       0.883  -0.944  -1.928  0.00  0.00    -0.016 A 
ATOM      8  C8  IND d   1       0.313  -0.692  -0.689  0.00  0.00    -0.047 A 
ATOM      9  C9  IND d   1       0.251   0.600  -0.150  0.00  0.00    -0.096 A 
ATOM     10  HN1 IND d   1      -0.305  -2.403   0.154  0.00  0.00     0.298 HD
ENDROOT
TORSDOF 0
ENDMDL
