MODEL 1
REMARK minimizedAffinity -4.37369633
REMARK minimizedRMSD -1
REMARK  0 active torsions:
REMARK  status: ('A' for Active; 'I' for Inactive)
ROOT
ATOM      1  N1  IND d   1      -0.564  -0.773   0.475  0.00  0.00    -0.196 N 
ATOM      2  C2  IND d   1      -0.446   0.555   0.776  0.00  0.00     0.054 A 
ATOM      3  C3  IND d   1       0.433   1.151  -0.062  0.00  0.00    -0.031 A 
ATOM      4  C4  IND d   1       1.715   0.160  -2.061  0.00  0.00     0.051 A 
ATOM      5  C5  IND d   1       1.961  -1.020  -2.706  0.00  0.00    -0.031 A 
ATOM      6  C6  IND d   1       1.363  -2.202  -2.317  0.00  0.00     0.015 A 
ATOM      7  C7  IND d   1       0.485  -2.245  -1.271  0.00  0.00    -0.016 A 
ATOM      8  C8  IND d   1       0.239  -1.050  -0.610  0.00  0.00    -0.047 A 
ATOM      9  C9  IND d   1       0.875   0.144  -0.973  0.00  0.00    -0.096 A 
ATOM     10  HN1 IND d   1      -1.056  -1.341   0.893  0.00  0.00     0.298 HD
ENDROOT
TORSDOF 0
ENDMDL
