MODEL 1
REMARK minimizedAffinity -3.87041378
REMARK minimizedRMSD -1
REMARK  0 active torsions:
REMARK  status: ('A' for Active; 'I' for Inactive)
ROOT
ATOM      1  N1  IND d   1       1.035  -0.849  -2.839  0.00  0.00    -0.196 N 
ATOM      2  C2  IND d   1       1.909   0.103  -3.286  0.00  0.00     0.054 A 
ATOM      3  C3  IND d   1       1.956   1.142  -2.422  0.00  0.00    -0.031 A 
ATOM      4  C4  IND d   1       0.762   1.444  -0.161  0.00  0.00     0.051 A 
ATOM      5  C5  IND d   1      -0.166   0.858   0.653  0.00  0.00    -0.031 A 
ATOM      6  C6  IND d   1      -0.751  -0.352   0.341  0.00  0.00     0.015 A 
ATOM      7  C7  IND d   1      -0.420  -1.030  -0.798  0.00  0.00    -0.016 A 
ATOM      8  C8  IND d   1       0.517  -0.435  -1.631  0.00  0.00    -0.047 A 
ATOM      9  C9  IND d   1       1.083   0.813  -1.340  0.00  0.00    -0.096 A 
ATOM     10  HN1 IND d   1       0.842  -1.582  -3.244  0.00  0.00     0.298 HD
ENDROOT
TORSDOF 0
ENDMDL
