MODEL 1
REMARK minimizedAffinity -3.33562589
REMARK minimizedRMSD -1
REMARK  0 active torsions:
REMARK  status: ('A' for Active; 'I' for Inactive)
ROOT
ATOM      1  N1  IND d   1       1.402  -0.771  -2.695  0.00  0.00    -0.196 N 
ATOM      2  C2  IND d   1       2.365   0.119  -3.079  0.00  0.00     0.054 A 
ATOM      3  C3  IND d   1       2.459   1.127  -2.184  0.00  0.00    -0.031 A 
ATOM      4  C4  IND d   1       1.200   1.464   0.037  0.00  0.00     0.051 A 
ATOM      5  C5  IND d   1       0.196   0.934   0.797  0.00  0.00    -0.031 A 
ATOM      6  C6  IND d   1      -0.470  -0.217   0.426  0.00  0.00     0.015 A 
ATOM      7  C7  IND d   1      -0.146  -0.889  -0.719  0.00  0.00    -0.016 A 
ATOM      8  C8  IND d   1       0.869  -0.349  -1.497  0.00  0.00    -0.047 A 
ATOM      9  C9  IND d   1       1.519   0.841  -1.147  0.00  0.00    -0.096 A 
ATOM     10  HN1 IND d   1       1.168  -1.476  -3.129  0.00  0.00     0.298 HD
ENDROOT
TORSDOF 0
ENDMDL
