MODEL 1
REMARK minimizedAffinity -5.67320347
REMARK minimizedRMSD -1
REMARK  0 active torsions:
REMARK  status: ('A' for Active; 'I' for Inactive)
ROOT
ATOM      1  N1  IND d   1      -0.038  -3.134   0.253  0.00  0.00    -0.196 N 
ATOM      2  C2  IND d   1       0.244  -3.414  -1.055  0.00  0.00     0.054 A 
ATOM      3  C3  IND d   1       0.401  -2.270  -1.758  0.00  0.00    -0.031 A 
ATOM      4  C4  IND d   1       0.338   0.171  -0.943  0.00  0.00     0.051 A 
ATOM      5  C5  IND d   1       0.078   0.932   0.163  0.00  0.00    -0.031 A 
ATOM      6  C6  IND d   1      -0.238   0.364   1.380  0.00  0.00     0.015 A 
ATOM      7  C7  IND d   1      -0.294  -0.992   1.541  0.00  0.00    -0.016 A 
ATOM      8  C8  IND d   1      -0.038  -1.767   0.418  0.00  0.00    -0.047 A 
ATOM      9  C9  IND d   1       0.241  -1.195  -0.830  0.00  0.00    -0.096 A 
ATOM     10  HN1 IND d   1      -0.191  -3.715   0.868  0.00  0.00     0.298 HD
ENDROOT
TORSDOF 0
ENDMDL
