MODEL 1
REMARK minimizedAffinity -2.70759773
REMARK minimizedRMSD -1
REMARK  0 active torsions:
REMARK  status: ('A' for Active; 'I' for Inactive)
ROOT
ATOM      1  N1  IND d   1       0.704  -0.990  -0.421  0.00  0.00    -0.196 N 
ATOM      2  C2  IND d   1       0.790   0.160  -1.156  0.00  0.00     0.054 A 
ATOM      3  C3  IND d   1      -0.102   1.072  -0.707  0.00  0.00    -0.031 A 
ATOM      4  C4  IND d   1      -1.728   0.928   1.283  0.00  0.00     0.051 A 
ATOM      5  C5  IND d   1      -2.195   0.063   2.232  0.00  0.00    -0.031 A 
ATOM      6  C6  IND d   1      -1.707  -1.222   2.351  0.00  0.00     0.015 A 
ATOM      7  C7  IND d   1      -0.722  -1.688   1.527  0.00  0.00    -0.016 A 
ATOM      8  C8  IND d   1      -0.251  -0.815   0.556  0.00  0.00    -0.047 A 
ATOM      9  C9  IND d   1      -0.772   0.476   0.404  0.00  0.00    -0.096 A 
ATOM     10  HN1 IND d   1       1.169  -1.702  -0.548  0.00  0.00     0.298 HD
ENDROOT
TORSDOF 0
ENDMDL
