MODEL 1
REMARK minimizedAffinity -2.49325061
REMARK minimizedRMSD -1
REMARK  0 active torsions:
REMARK  status: ('A' for Active; 'I' for Inactive)
ROOT
ATOM      1  N1  IND d   1       0.826  -1.292  -2.144  0.00  0.00    -0.196 N 
ATOM      2  C2  IND d   1       1.595  -0.449  -2.897  0.00  0.00     0.054 A 
ATOM      3  C3  IND d   1       1.751   0.736  -2.266  0.00  0.00    -0.031 A 
ATOM      4  C4  IND d   1       0.918   1.475   0.055  0.00  0.00     0.051 A 
ATOM      5  C5  IND d   1       0.144   1.063   1.103  0.00  0.00    -0.031 A 
ATOM      6  C6  IND d   1      -0.453  -0.181   1.124  0.00  0.00     0.015 A 
ATOM      7  C7  IND d   1      -0.287  -1.068   0.098  0.00  0.00    -0.016 A 
ATOM      8  C8  IND d   1       0.493  -0.650  -0.971  0.00  0.00    -0.047 A 
ATOM      9  C9  IND d   1       1.066   0.627  -1.017  0.00  0.00    -0.096 A 
ATOM     10  HN1 IND d   1       0.590  -2.088  -2.365  0.00  0.00     0.298 HD
ENDROOT
TORSDOF 0
ENDMDL
