MODEL 1
REMARK minimizedAffinity -5.99273014
REMARK minimizedRMSD -1
REMARK  0 active torsions:
REMARK  status: ('A' for Active; 'I' for Inactive)
ROOT
ATOM      1  C   UNL d   1       0.219  -0.203  -0.932  0.00  0.00     0.078 C 
ATOM      2  C1  UNL d   1       1.072  -0.737   0.180  0.00  0.00    -0.077 A 
ATOM      3  C2  UNL d   1       2.193  -1.533  -0.090  0.00  0.00    -0.001 A 
ATOM      4  C3  UNL d   1       2.972  -2.031   0.956  0.00  0.00     0.003 A 
ATOM      5  C4  UNL d   1       2.639  -1.740   2.277  0.00  0.00    -0.005 A 
ATOM      6  C5  UNL d   1       1.525  -0.951   2.555  0.00  0.00     0.003 A 
ATOM      7  C6  UNL d   1       0.744  -0.452   1.511  0.00  0.00    -0.001 A 
ENDROOT
TORSDOF 0
ENDMDL
