MODEL 1
REMARK minimizedAffinity -1.91038704
REMARK minimizedRMSD -1
REMARK  0 active torsions:
REMARK  status: ('A' for Active; 'I' for Inactive)
ROOT
ATOM      1  C   UNL d   1      -3.232   2.852  -2.217  0.00  0.00     0.078 C 
ATOM      2  C1  UNL d   1      -1.832   2.378  -2.465  0.00  0.00    -0.077 A 
ATOM      3  C2  UNL d   1      -0.895   3.198  -3.106  0.00  0.00    -0.001 A 
ATOM      4  C3  UNL d   1       0.403   2.740  -3.339  0.00  0.00     0.003 A 
ATOM      5  C4  UNL d   1       0.776   1.460  -2.934  0.00  0.00    -0.005 A 
ATOM      6  C5  UNL d   1      -0.150   0.635  -2.298  0.00  0.00     0.003 A 
ATOM      7  C6  UNL d   1      -1.448   1.092  -2.064  0.00  0.00    -0.001 A 
ENDROOT
TORSDOF 0
ENDMDL
