MODEL 1
REMARK minimizedAffinity -4.55040598
REMARK minimizedRMSD -1
REMARK  0 active torsions:
REMARK  status: ('A' for Active; 'I' for Inactive)
ROOT
ATOM      1  C   UNL d   1      -0.845   0.662  -1.345  0.00  0.00     0.078 C 
ATOM      2  C1  UNL d   1      -0.539   0.251   0.064  0.00  0.00    -0.077 A 
ATOM      3  C2  UNL d   1      -1.514   0.330   1.066  0.00  0.00    -0.001 A 
ATOM      4  C3  UNL d   1      -1.212  -0.047   2.376  0.00  0.00     0.003 A 
ATOM      5  C4  UNL d   1       0.065  -0.505   2.696  0.00  0.00    -0.005 A 
ATOM      6  C5  UNL d   1       1.042  -0.585   1.706  0.00  0.00     0.003 A 
ATOM      7  C6  UNL d   1       0.742  -0.208   0.396  0.00  0.00    -0.001 A 
ENDROOT
TORSDOF 0
ENDMDL
