MODEL 1
REMARK minimizedAffinity -4.23792076
REMARK minimizedRMSD -1
REMARK  0 active torsions:
REMARK  status: ('A' for Active; 'I' for Inactive)
ROOT
ATOM      1  C   UNL d   1      -3.750   2.997  -1.853  0.00  0.00     0.078 C 
ATOM      2  C1  UNL d   1      -2.455   2.269  -2.060  0.00  0.00    -0.077 A 
ATOM      3  C2  UNL d   1      -1.462   2.788  -2.900  0.00  0.00    -0.001 A 
ATOM      4  C3  UNL d   1      -0.266   2.095  -3.092  0.00  0.00     0.003 A 
ATOM      5  C4  UNL d   1      -0.051   0.879  -2.446  0.00  0.00    -0.005 A 
ATOM      6  C5  UNL d   1      -1.034   0.354  -1.610  0.00  0.00     0.003 A 
ATOM      7  C6  UNL d   1      -2.231   1.045  -1.418  0.00  0.00    -0.001 A 
ENDROOT
TORSDOF 0
ENDMDL
