MODEL 1
REMARK minimizedAffinity -2.34736919
REMARK minimizedRMSD -1
REMARK  0 active torsions:
REMARK  status: ('A' for Active; 'I' for Inactive)
ROOT
ATOM      1  C   UNL d   1      -0.767   0.568  -1.502  0.00  0.00     0.078 C 
ATOM      2  C1  UNL d   1      -0.843  -0.003  -0.117  0.00  0.00    -0.077 A 
ATOM      3  C2  UNL d   1       0.297  -0.089   0.691  0.00  0.00    -0.001 A 
ATOM      4  C3  UNL d   1       0.213  -0.631   1.974  0.00  0.00     0.003 A 
ATOM      5  C4  UNL d   1      -1.009  -1.092   2.460  0.00  0.00    -0.005 A 
ATOM      6  C5  UNL d   1      -2.148  -1.013   1.662  0.00  0.00     0.003 A 
ATOM      7  C6  UNL d   1      -2.066  -0.471   0.379  0.00  0.00    -0.001 A 
ENDROOT
TORSDOF 0
ENDMDL
