MODEL 1
REMARK minimizedAffinity -5.05378389
REMARK minimizedRMSD -1
REMARK  0 active torsions:
REMARK  status: ('A' for Active; 'I' for Inactive)
ROOT
ATOM      1  C   UNL d   1      -1.097   0.024  -1.010  0.00  0.00     0.078 C 
ATOM      2  C1  UNL d   1      -0.600  -0.185   0.390  0.00  0.00    -0.077 A 
ATOM      3  C2  UNL d   1      -1.427   0.064   1.492  0.00  0.00    -0.001 A 
ATOM      4  C3  UNL d   1      -0.948  -0.125   2.790  0.00  0.00     0.003 A 
ATOM      5  C4  UNL d   1       0.358  -0.563   2.997  0.00  0.00    -0.005 A 
ATOM      6  C5  UNL d   1       1.189  -0.811   1.906  0.00  0.00     0.003 A 
ATOM      7  C6  UNL d   1       0.712  -0.622   0.608  0.00  0.00    -0.001 A 
ENDROOT
TORSDOF 0
ENDMDL
