MODEL 1
REMARK minimizedAffinity -3.49638414
REMARK minimizedRMSD -1
REMARK  0 active torsions:
REMARK  status: ('A' for Active; 'I' for Inactive)
ROOT
ATOM      1  C   UNL d   1       0.162  -0.156  -0.886  0.00  0.00     0.172 C 
ATOM      2  N   UNL d   1      -0.470   0.250   0.347  0.00  0.00    -0.070 N 
ATOM      3  C1  UNL d   1       0.103   1.025   1.320  0.00  0.00    -0.004 A 
ATOM      4  C2  UNL d   1      -0.821   1.185   2.330  0.00  0.00    -0.047 A 
ATOM      5  C3  UNL d   1      -1.989   0.482   1.951  0.00  0.00    -0.047 A 
ATOM      6  C4  UNL d   1      -1.744  -0.088   0.719  0.00  0.00    -0.004 A 
ENDROOT
TORSDOF 0
ENDMDL
