MODEL 1
REMARK minimizedAffinity -3.7490499
REMARK minimizedRMSD -1
REMARK  0 active torsions:
REMARK  status: ('A' for Active; 'I' for Inactive)
ROOT
ATOM      1  C   UNL d   1      -1.488  -0.974  -0.166  0.00  0.00     0.172 C 
ATOM      2  N   UNL d   1      -0.856  -0.143   0.831  0.00  0.00    -0.070 N 
ATOM      3  C1  UNL d   1      -1.463   0.365   1.949  0.00  0.00    -0.004 A 
ATOM      4  C2  UNL d   1      -0.525   1.101   2.640  0.00  0.00    -0.047 A 
ATOM      5  C3  UNL d   1       0.687   1.034   1.913  0.00  0.00    -0.047 A 
ATOM      6  C4  UNL d   1       0.454   0.258   0.797  0.00  0.00    -0.004 A 
ENDROOT
TORSDOF 0
ENDMDL
