MODEL 1
REMARK minimizedAffinity 9.15816212
REMARK minimizedRMSD -1
REMARK  0 active torsions:
REMARK  status: ('A' for Active; 'I' for Inactive)
ROOT
ATOM      1  N1  IND d   1       1.634  -1.542   2.798  0.00  0.00    -0.196 N 
ATOM      2  C2  IND d   1       2.252  -0.579   3.546  0.00  0.00     0.054 A 
ATOM      3  C3  IND d   1       1.380   0.407   3.856  0.00  0.00    -0.031 A 
ATOM      4  C4  IND d   1      -1.132   0.595   3.328  0.00  0.00     0.051 A 
ATOM      5  C5  IND d   1      -2.137  -0.023   2.638  0.00  0.00    -0.031 A 
ATOM      6  C6  IND d   1      -1.933  -1.204   1.954  0.00  0.00     0.015 A 
ATOM      7  C7  IND d   1      -0.713  -1.820   1.944  0.00  0.00    -0.016 A 
ATOM      8  C8  IND d   1       0.311  -1.192   2.638  0.00  0.00    -0.047 A 
ATOM      9  C9  IND d   1       0.120   0.029   3.299  0.00  0.00    -0.096 A 
ATOM     10  HN1 IND d   1       2.008  -2.248   2.480  0.00  0.00     0.298 HD
ENDROOT
TORSDOF 0
ENDMDL
