MODEL 1
REMARK minimizedAffinity 4.38631344
REMARK minimizedRMSD -1
REMARK  0 active torsions:
REMARK  status: ('A' for Active; 'I' for Inactive)
ROOT
ATOM      1  N1  IND d   1       3.411   6.000   6.000  0.00  0.00    -0.196 N 
ATOM      2  C2  IND d   1       4.536   5.386   5.525  0.00  0.00     0.054 A 
ATOM      3  C3  IND d   1       4.235   4.608   4.461  0.00  0.00    -0.031 A 
ATOM      4  C4  IND d   1       1.979   4.275   3.267  0.00  0.00     0.051 A 
ATOM      5  C5  IND d   1       0.654   4.599   3.357  0.00  0.00    -0.031 A 
ATOM      6  C6  IND d   1       0.171   5.425   4.351  0.00  0.00     0.015 A 
ATOM      7  C7  IND d   1       1.001   5.970   5.290  0.00  0.00    -0.016 A 
ATOM      8  C8  IND d   1       2.346   5.637   5.206  0.00  0.00    -0.047 A 
ATOM      9  C9  IND d   1       2.835   4.766   4.224  0.00  0.00    -0.096 A 
ATOM     10  HN1 IND d   1       3.375   6.524   6.681  0.00  0.00     0.298 HD
ENDROOT
TORSDOF 0
ENDMDL
