MODEL 1
REMARK minimizedAffinity 4.47727346
REMARK minimizedRMSD -1
REMARK  0 active torsions:
REMARK  status: ('A' for Active; 'I' for Inactive)
ROOT
ATOM      1  N1  IND d   1       2.003  -1.546  -1.351  0.00  0.00    -0.196 N 
ATOM      2  C2  IND d   1       2.691  -2.011  -0.265  0.00  0.00     0.054 A 
ATOM      3  C3  IND d   1       3.204  -0.980   0.443  0.00  0.00    -0.031 A 
ATOM      4  C4  IND d   1       2.955   1.553   0.059  0.00  0.00     0.051 A 
ATOM      5  C5  IND d   1       2.449   2.464  -0.826  0.00  0.00    -0.031 A 
ATOM      6  C6  IND d   1       1.751   2.077  -1.951  0.00  0.00     0.015 A 
ATOM      7  C7  IND d   1       1.523   0.759  -2.230  0.00  0.00    -0.016 A 
ATOM      8  C8  IND d   1       2.043  -0.169  -1.338  0.00  0.00    -0.047 A 
ATOM      9  C9  IND d   1       2.788   0.217  -0.217  0.00  0.00    -0.096 A 
ATOM     10  HN1 IND d   1       1.612  -2.032  -1.943  0.00  0.00     0.298 HD
ENDROOT
TORSDOF 0
ENDMDL
