MODEL 1
REMARK minimizedAffinity -0.365826666
REMARK minimizedRMSD -1
REMARK  0 active torsions:
REMARK  status: ('A' for Active; 'I' for Inactive)
ROOT
ATOM      1  N1  IND d   1      -3.430   5.635  -4.459  0.00  0.00    -0.196 N 
ATOM      2  C2  IND d   1      -4.498   5.943  -5.255  0.00  0.00     0.054 A 
ATOM      3  C3  IND d   1      -4.855   4.873  -5.999  0.00  0.00    -0.031 A 
ATOM      4  C4  IND d   1      -3.890   2.486  -5.998  0.00  0.00     0.051 A 
ATOM      5  C5  IND d   1      -2.881   1.732  -5.467  0.00  0.00    -0.031 A 
ATOM      6  C6  IND d   1      -1.988   2.250  -4.552  0.00  0.00     0.015 A 
ATOM      7  C7  IND d   1      -2.077   3.545  -4.124  0.00  0.00    -0.016 A 
ATOM      8  C8  IND d   1      -3.095   4.315  -4.667  0.00  0.00    -0.047 A 
ATOM      9  C9  IND d   1      -3.979   3.807  -5.627  0.00  0.00    -0.096 A 
ATOM     10  HN1 IND d   1      -3.033   6.175  -3.920  0.00  0.00     0.298 HD
ENDROOT
TORSDOF 0
ENDMDL
