MODEL 1
REMARK minimizedAffinity 6.94701195
REMARK minimizedRMSD -1
REMARK  0 active torsions:
REMARK  status: ('A' for Active; 'I' for Inactive)
ROOT
ATOM      1  N1  IND d   1       0.177  -1.022   1.991  0.00  0.00    -0.196 N 
ATOM      2  C2  IND d   1      -0.567  -1.801   1.150  0.00  0.00     0.054 A 
ATOM      3  C3  IND d   1      -1.866  -1.432   1.191  0.00  0.00    -0.031 A 
ATOM      4  C4  IND d   1      -2.980   0.490   2.492  0.00  0.00     0.051 A 
ATOM      5  C5  IND d   1      -2.716   1.456   3.422  0.00  0.00    -0.031 A 
ATOM      6  C6  IND d   1      -1.448   1.651   3.931  0.00  0.00     0.015 A 
ATOM      7  C7  IND d   1      -0.390   0.892   3.519  0.00  0.00    -0.016 A 
ATOM      8  C8  IND d   1      -0.656  -0.095   2.579  0.00  0.00    -0.047 A 
ATOM      9  C9  IND d   1      -1.948  -0.325   2.091  0.00  0.00    -0.096 A 
ATOM     10  HN1 IND d   1       1.022  -1.097   2.130  0.00  0.00     0.298 HD
ENDROOT
TORSDOF 0
ENDMDL
