MODEL 1
REMARK minimizedAffinity 13.2861938
REMARK minimizedRMSD -1
REMARK  0 active torsions:
REMARK  status: ('A' for Active; 'I' for Inactive)
ROOT
ATOM      1  N1  IND d   1       1.869  -2.382   1.943  0.00  0.00    -0.196 N 
ATOM      2  C2  IND d   1       0.911  -1.676   2.615  0.00  0.00     0.054 A 
ATOM      3  C3  IND d   1       0.550  -0.582   1.907  0.00  0.00    -0.031 A 
ATOM      4  C4  IND d   1       1.328   0.188  -0.423  0.00  0.00     0.051 A 
ATOM      5  C5  IND d   1       2.219  -0.111  -1.415  0.00  0.00    -0.031 A 
ATOM      6  C6  IND d   1       3.055  -1.207  -1.337  0.00  0.00     0.015 A 
ATOM      7  C7  IND d   1       3.021  -2.054  -0.266  0.00  0.00    -0.016 A 
ATOM      8  C8  IND d   1       2.122  -1.749   0.746  0.00  0.00    -0.047 A 
ATOM      9  C9  IND d   1       1.302  -0.614   0.693  0.00  0.00    -0.096 A 
ATOM     10  HN1 IND d   1       2.250  -3.101   2.221  0.00  0.00     0.298 HD
ENDROOT
TORSDOF 0
ENDMDL
