MODEL 1
REMARK minimizedAffinity 5.87481689
REMARK minimizedRMSD -1
REMARK  0 active torsions:
REMARK  status: ('A' for Active; 'I' for Inactive)
ROOT
ATOM      1  N1  IND d   1       0.890  -1.496  -1.906  0.00  0.00    -0.196 N 
ATOM      2  C2  IND d   1       2.222  -1.232  -2.067  0.00  0.00     0.054 A 
ATOM      3  C3  IND d   1       2.795  -0.960  -0.873  0.00  0.00    -0.031 A 
ATOM      4  C4  IND d   1       1.760  -0.993   1.483  0.00  0.00     0.051 A 
ATOM      5  C5  IND d   1       0.568  -1.143   2.134  0.00  0.00    -0.031 A 
ATOM      6  C6  IND d   1      -0.601  -1.428   1.458  0.00  0.00     0.015 A 
ATOM      7  C7  IND d   1      -0.619  -1.583   0.101  0.00  0.00    -0.016 A 
ATOM      8  C8  IND d   1       0.588  -1.424  -0.564  0.00  0.00    -0.047 A 
ATOM      9  C9  IND d   1       1.770  -1.094   0.112  0.00  0.00    -0.096 A 
ATOM     10  HN1 IND d   1       0.334  -1.676  -2.537  0.00  0.00     0.298 HD
ENDROOT
TORSDOF 0
ENDMDL
