MODEL 1
REMARK minimizedAffinity 3.7783742
REMARK minimizedRMSD -1
REMARK  0 active torsions:
REMARK  status: ('A' for Active; 'I' for Inactive)
ROOT
ATOM      1  N1  IND d   1      -1.929  -2.338   0.664  0.00  0.00    -0.196 N 
ATOM      2  C2  IND d   1      -1.726  -1.333  -0.241  0.00  0.00     0.054 A 
ATOM      3  C3  IND d   1      -0.708  -0.539   0.158  0.00  0.00    -0.031 A 
ATOM      4  C4  IND d   1       0.832  -0.761   2.209  0.00  0.00     0.051 A 
ATOM      5  C5  IND d   1       1.013  -1.498   3.345  0.00  0.00    -0.031 A 
ATOM      6  C6  IND d   1       0.208  -2.577   3.651  0.00  0.00     0.015 A 
ATOM      7  C7  IND d   1      -0.805  -2.966   2.822  0.00  0.00    -0.016 A 
ATOM      8  C8  IND d   1      -0.996  -2.216   1.670  0.00  0.00    -0.047 A 
ATOM      9  C9  IND d   1      -0.210  -1.095   1.376  0.00  0.00    -0.096 A 
ATOM     10  HN1 IND d   1      -2.537  -2.944   0.613  0.00  0.00     0.298 HD
ENDROOT
TORSDOF 0
ENDMDL
