MODEL 1
REMARK minimizedAffinity 10.4065142
REMARK minimizedRMSD -1
REMARK  0 active torsions:
REMARK  status: ('A' for Active; 'I' for Inactive)
ROOT
ATOM      1  N1  IND d   1       2.858  -1.803  -0.740  0.00  0.00    -0.196 N 
ATOM      2  C2  IND d   1       2.312  -0.720  -1.372  0.00  0.00     0.054 A 
ATOM      3  C3  IND d   1       1.386  -0.132  -0.583  0.00  0.00    -0.031 A 
ATOM      4  C4  IND d   1       0.677  -0.717   1.822  0.00  0.00     0.051 A 
ATOM      5  C5  IND d   1       0.869  -1.646   2.805  0.00  0.00    -0.031 A 
ATOM      6  C6  IND d   1       1.753  -2.695   2.655  0.00  0.00     0.015 A 
ATOM      7  C7  IND d   1       2.490  -2.847   1.515  0.00  0.00    -0.016 A 
ATOM      8  C8  IND d   1       2.293  -1.910   0.512  0.00  0.00    -0.047 A 
ATOM      9  C9  IND d   1       1.366  -0.868   0.642  0.00  0.00    -0.096 A 
ATOM     10  HN1 IND d   1       3.453  -2.328  -1.069  0.00  0.00     0.298 HD
ENDROOT
TORSDOF 0
ENDMDL
