MODEL 1
REMARK minimizedAffinity 6.02065563
REMARK minimizedRMSD -1
REMARK  0 active torsions:
REMARK  status: ('A' for Active; 'I' for Inactive)
ROOT
ATOM      1  N1  IND d   1       3.373   1.447   0.313  0.00  0.00    -0.196 N 
ATOM      2  C2  IND d   1       2.834   2.695   0.173  0.00  0.00     0.054 A 
ATOM      3  C3  IND d   1       1.806   2.668  -0.704  0.00  0.00    -0.031 A 
ATOM      4  C4  IND d   1       0.770   0.668  -1.950  0.00  0.00     0.051 A 
ATOM      5  C5  IND d   1       0.944  -0.670  -2.172  0.00  0.00    -0.031 A 
ATOM      6  C6  IND d   1       1.954  -1.385  -1.562  0.00  0.00     0.015 A 
ATOM      7  C7  IND d   1       2.826  -0.789  -0.696  0.00  0.00    -0.016 A 
ATOM      8  C8  IND d   1       2.658   0.570  -0.474  0.00  0.00    -0.047 A 
ATOM      9  C9  IND d   1       1.660   1.310  -1.122  0.00  0.00    -0.096 A 
ATOM     10  HN1 IND d   1       4.045   1.243   0.808  0.00  0.00     0.298 HD
ENDROOT
TORSDOF 0
ENDMDL
