MODEL 1
REMARK minimizedAffinity 4.01829433
REMARK minimizedRMSD -1
REMARK  0 active torsions:
REMARK  status: ('A' for Active; 'I' for Inactive)
ROOT
ATOM      1  N1  IND d   1       1.906  -2.233   0.197  0.00  0.00    -0.196 N 
ATOM      2  C2  IND d   1       2.203  -1.962   1.503  0.00  0.00     0.054 A 
ATOM      3  C3  IND d   1       2.454  -0.644   1.665  0.00  0.00    -0.031 A 
ATOM      4  C4  IND d   1       2.334   1.267  -0.057  0.00  0.00     0.051 A 
ATOM      5  C5  IND d   1       2.140   1.506  -1.388  0.00  0.00    -0.031 A 
ATOM      6  C6  IND d   1       1.849   0.492  -2.277  0.00  0.00     0.015 A 
ATOM      7  C7  IND d   1       1.730  -0.805  -1.863  0.00  0.00    -0.016 A 
ATOM      8  C8  IND d   1       1.934  -1.053  -0.513  0.00  0.00    -0.047 A 
ATOM      9  C9  IND d   1       2.271  -0.033   0.386  0.00  0.00    -0.096 A 
ATOM     10  HN1 IND d   1       1.731  -3.010  -0.127  0.00  0.00     0.298 HD
ENDROOT
TORSDOF 0
ENDMDL
