MODEL 1
REMARK minimizedAffinity -0.563383877
REMARK minimizedRMSD -1
REMARK  1 active torsions:
REMARK  status: ('A' for Active; 'I' for Inactive)
REMARK    1  A    between atoms: C1_2  and  C2_3 
ROOT
ATOM      1  C2  UNL d   1      -1.772   0.417   0.431  0.00  0.00    -0.073 A 
ATOM      2  C3  UNL d   1      -1.398  -0.800  -0.149  0.00  0.00    -0.002 A 
ATOM      3  C4  UNL d   1      -0.069  -1.030  -0.508  0.00  0.00     0.004 A 
ATOM      4  C5  UNL d   1       0.898  -0.050  -0.286  0.00  0.00    -0.004 A 
ATOM      5  C6  UNL d   1       0.545   1.168   0.303  0.00  0.00    -0.075 A 
ATOM      6  C7  UNL d   1       1.574   2.234   0.547  0.00  0.00     0.076 C 
ATOM      7  C8  UNL d   1      -0.791   1.393   0.659  0.00  0.00     0.001 A 
ENDROOT
BRANCH   1   8
ATOM      8  C1  UNL d   1      -3.205   0.668   0.827  0.00  0.00     0.053 C 
ATOM      9  C   UNL d   1      -3.308   1.488   2.103  0.00  0.00     0.018 C 
ENDBRANCH   1   8
TORSDOF 1
ENDMDL
