MODEL 1
REMARK minimizedAffinity -3.82446384
REMARK minimizedRMSD -1
REMARK  1 active torsions:
REMARK  status: ('A' for Active; 'I' for Inactive)
REMARK    1  A    between atoms: C1_2  and  C2_3 
ROOT
ATOM      1  C2  UNL d   1       0.330  -0.462   0.434  0.00  0.00    -0.073 A 
ATOM      2  C3  UNL d   1       1.038   0.636  -0.067  0.00  0.00    -0.002 A 
ATOM      3  C4  UNL d   1       0.358   1.772  -0.509  0.00  0.00     0.004 A 
ATOM      4  C5  UNL d   1      -1.035   1.823  -0.450  0.00  0.00    -0.004 A 
ATOM      5  C6  UNL d   1      -1.760   0.741   0.058  0.00  0.00    -0.075 A 
ATOM      6  C7  UNL d   1      -3.258   0.780   0.126  0.00  0.00     0.076 C 
ATOM      7  C8  UNL d   1      -1.070  -0.397   0.498  0.00  0.00     0.001 A 
ENDROOT
BRANCH   1   8
ATOM      8  C1  UNL d   1       1.060  -1.687   0.919  0.00  0.00     0.053 C 
ATOM      9  C   UNL d   1       2.461  -1.784   0.336  0.00  0.00     0.018 C 
ENDBRANCH   1   8
TORSDOF 1
ENDMDL
