MODEL 1
REMARK minimizedAffinity -3.92682981
REMARK minimizedRMSD -1
REMARK  1 active torsions:
REMARK  status: ('A' for Active; 'I' for Inactive)
REMARK    1  A    between atoms: C1_2  and  C2_3 
ROOT
ATOM      1  C2  UNL d   1      -0.841  -0.265  -0.018  0.00  0.00    -0.073 A 
ATOM      2  C3  UNL d   1      -1.521  -1.361   0.528  0.00  0.00    -0.002 A 
ATOM      3  C4  UNL d   1      -0.862  -2.577   0.715  0.00  0.00     0.004 A 
ATOM      4  C5  UNL d   1       0.482  -2.708   0.366  0.00  0.00    -0.004 A 
ATOM      5  C6  UNL d   1       1.181  -1.622  -0.169  0.00  0.00    -0.075 A 
ATOM      6  C7  UNL d   1       2.627  -1.748  -0.552  0.00  0.00     0.076 C 
ATOM      7  C8  UNL d   1       0.512  -0.405  -0.357  0.00  0.00     0.001 A 
ENDROOT
BRANCH   1   8
ATOM      8  C1  UNL d   1      -1.546   1.052  -0.216  0.00  0.00     0.053 C 
ATOM      9  C   UNL d   1      -3.020   0.970   0.150  0.00  0.00     0.018 C 
ENDBRANCH   1   8
TORSDOF 1
ENDMDL
