MODEL 1
REMARK minimizedAffinity -2.33938527
REMARK minimizedRMSD -1
REMARK  1 active torsions:
REMARK  status: ('A' for Active; 'I' for Inactive)
REMARK    1  A    between atoms: C1_2  and  C2_3 
ROOT
ATOM      1  C2  UNL d   1      -2.048   0.748   0.715  0.00  0.00    -0.073 A 
ATOM      2  C3  UNL d   1      -1.394   1.723  -0.047  0.00  0.00    -0.002 A 
ATOM      3  C4  UNL d   1      -0.308   1.376  -0.852  0.00  0.00     0.004 A 
ATOM      4  C5  UNL d   1       0.129   0.053  -0.910  0.00  0.00    -0.004 A 
ATOM      5  C6  UNL d   1      -0.519  -0.937  -0.166  0.00  0.00    -0.075 A 
ATOM      6  C7  UNL d   1      -0.060  -2.365  -0.215  0.00  0.00     0.076 C 
ATOM      7  C8  UNL d   1      -1.607  -0.581   0.643  0.00  0.00     0.001 A 
ENDROOT
BRANCH   1   8
ATOM      8  C1  UNL d   1      -3.225   1.116   1.581  0.00  0.00     0.053 C 
ATOM      9  C   UNL d   1      -4.135  -0.074   1.842  0.00  0.00     0.018 C 
ENDBRANCH   1   8
TORSDOF 1
ENDMDL
