MODEL 1
REMARK minimizedAffinity -2.58803296
REMARK minimizedRMSD -1
REMARK  1 active torsions:
REMARK  status: ('A' for Active; 'I' for Inactive)
REMARK    1  A    between atoms: C1_2  and  C2_3 
ROOT
ATOM      1  C2  UNL d   1       0.767   0.383  -0.103  0.00  0.00    -0.073 A 
ATOM      2  C3  UNL d   1       0.966   1.760   0.050  0.00  0.00    -0.002 A 
ATOM      3  C4  UNL d   1       2.215   2.253   0.431  0.00  0.00     0.004 A 
ATOM      4  C5  UNL d   1       3.277   1.377   0.655  0.00  0.00    -0.004 A 
ATOM      5  C6  UNL d   1       3.101  -0.001   0.495  0.00  0.00    -0.075 A 
ATOM      6  C7  UNL d   1       4.232  -0.957   0.735  0.00  0.00     0.076 C 
ATOM      7  C8  UNL d   1       1.843  -0.489   0.115  0.00  0.00     0.001 A 
ENDROOT
BRANCH   1   8
ATOM      8  C1  UNL d   1      -0.578  -0.153  -0.521  0.00  0.00     0.053 C 
ATOM      9  C   UNL d   1      -0.475  -1.546  -1.121  0.00  0.00     0.018 C 
ENDBRANCH   1   8
TORSDOF 1
ENDMDL
