MODEL 1
REMARK minimizedAffinity -4.50795603
REMARK minimizedRMSD -1
REMARK  1 active torsions:
REMARK  status: ('A' for Active; 'I' for Inactive)
REMARK    1  A    between atoms: C1_2  and  C2_3 
ROOT
ATOM      1  C2  UNL d   1      -1.506  -0.030  -0.418  0.00  0.00    -0.073 A 
ATOM      2  C3  UNL d   1      -1.472  -1.426  -0.514  0.00  0.00    -0.002 A 
ATOM      3  C4  UNL d   1      -0.275  -2.116  -0.323  0.00  0.00     0.004 A 
ATOM      4  C5  UNL d   1       0.898  -1.421  -0.027  0.00  0.00    -0.004 A 
ATOM      5  C6  UNL d   1       0.881  -0.027   0.085  0.00  0.00    -0.075 A 
ATOM      6  C7  UNL d   1       2.134   0.737   0.401  0.00  0.00     0.076 C 
ATOM      7  C8  UNL d   1      -0.325   0.660  -0.111  0.00  0.00     0.001 A 
ENDROOT
BRANCH   1   8
ATOM      8  C1  UNL d   1      -2.798   0.719  -0.618  0.00  0.00     0.053 C 
ATOM      9  C   UNL d   1      -3.417   1.151   0.702  0.00  0.00     0.018 C 
ENDBRANCH   1   8
TORSDOF 1
ENDMDL
