MODEL 1
REMARK minimizedAffinity -5.53913832
REMARK minimizedRMSD -1
REMARK  0 active torsions:
REMARK  status: ('A' for Active; 'I' for Inactive)
ROOT
ATOM      1  C4' PXY d   1      -1.099   1.094  -0.686  0.00  0.00     0.077 C 
ATOM      2  C1' PXY d   1       3.769  -1.276   1.340  0.00  0.00     0.077 C 
ATOM      3  C1  PXY d   1       2.494  -0.644   0.816  0.00  0.00    -0.082 A 
ATOM      4  C2  PXY d   1       1.539  -1.413   0.320  0.00  0.00     0.003 A 
ATOM      5  C3  PXY d   1       0.393  -0.856  -0.188  0.00  0.00     0.003 A 
ATOM      6  C4  PXY d   1       0.201   0.499  -0.137  0.00  0.00    -0.082 A 
ATOM      7  C5  PXY d   1       1.166   1.289   0.378  0.00  0.00     0.003 A 
ATOM      8  C6  PXY d   1       2.339   0.707   0.850  0.00  0.00     0.003 A 
ENDROOT
TORSDOF 0
ENDMDL
