MODEL 1
REMARK minimizedAffinity -3.71659803
REMARK minimizedRMSD -1
REMARK  0 active torsions:
REMARK  status: ('A' for Active; 'I' for Inactive)
ROOT
ATOM      1  C4' PXY d   1       1.678   2.497  -0.098  0.00  0.00     0.077 C 
ATOM      2  C1' PXY d   1       0.125  -3.058  -0.475  0.00  0.00     0.077 C 
ATOM      3  C1  PXY d   1       0.524  -1.598  -0.387  0.00  0.00    -0.082 A 
ATOM      4  C2  PXY d   1       1.670  -1.268   0.188  0.00  0.00     0.003 A 
ATOM      5  C3  PXY d   1       2.032   0.050   0.305  0.00  0.00     0.003 A 
ATOM      6  C4  PXY d   1       1.239   1.035  -0.219  0.00  0.00    -0.082 A 
ATOM      7  C5  PXY d   1       0.074   0.705  -0.815  0.00  0.00     0.003 A 
ATOM      8  C6  PXY d   1      -0.295  -0.635  -0.887  0.00  0.00     0.003 A 
ENDROOT
TORSDOF 0
ENDMDL
