MODEL 1
REMARK minimizedAffinity -1.8516469
REMARK minimizedRMSD -1
REMARK  0 active torsions:
REMARK  status: ('A' for Active; 'I' for Inactive)
ROOT
ATOM      1  C4' PXY d   1       2.686  -1.938  -0.734  0.00  0.00     0.077 C 
ATOM      2  C1' PXY d   1      -2.162   1.098   0.099  0.00  0.00     0.077 C 
ATOM      3  C1  PXY d   1      -0.884   0.311  -0.112  0.00  0.00    -0.082 A 
ATOM      4  C2  PXY d   1      -0.775  -0.492  -1.159  0.00  0.00     0.003 A 
ATOM      5  C3  PXY d   1       0.361  -1.236  -1.347  0.00  0.00     0.003 A 
ATOM      6  C4  PXY d   1       1.418  -1.116  -0.486  0.00  0.00    -0.082 A 
ATOM      7  C5  PXY d   1       1.320  -0.291   0.578  0.00  0.00     0.003 A 
ATOM      8  C6  PXY d   1       0.142   0.424   0.775  0.00  0.00     0.003 A 
ENDROOT
TORSDOF 0
ENDMDL
