MODEL 1
REMARK minimizedAffinity -4.93160439
REMARK minimizedRMSD -1
REMARK  0 active torsions:
REMARK  status: ('A' for Active; 'I' for Inactive)
ROOT
ATOM      1  C4' PXY d   1      -2.501   0.793  -0.287  0.00  0.00     0.077 C 
ATOM      2  C1' PXY d   1       2.781  -1.183   0.980  0.00  0.00     0.077 C 
ATOM      3  C1  PXY d   1       1.397  -0.656   0.657  0.00  0.00    -0.082 A 
ATOM      4  C2  PXY d   1       0.525  -1.440   0.044  0.00  0.00     0.003 A 
ATOM      5  C3  PXY d   1      -0.720  -0.969  -0.284  0.00  0.00     0.003 A 
ATOM      6  C4  PXY d   1      -1.095   0.300   0.067  0.00  0.00    -0.082 A 
ATOM      7  C5  PXY d   1      -0.215   1.103   0.702  0.00  0.00     0.003 A 
ATOM      8  C6  PXY d   1       1.058   0.619   0.990  0.00  0.00     0.003 A 
ENDROOT
TORSDOF 0
ENDMDL
