MODEL 1
REMARK minimizedAffinity -4.45761061
REMARK minimizedRMSD -1
REMARK  0 active torsions:
REMARK  status: ('A' for Active; 'I' for Inactive)
ROOT
ATOM      1  C4' PXY d   1      -2.542   0.709  -0.107  0.00  0.00     0.077 C 
ATOM      2  C1' PXY d   1       2.792  -1.512  -0.304  0.00  0.00     0.077 C 
ATOM      3  C1  PXY d   1       1.395  -0.925  -0.241  0.00  0.00    -0.082 A 
ATOM      4  C2  PXY d   1       0.429  -1.454  -0.974  0.00  0.00     0.003 A 
ATOM      5  C3  PXY d   1      -0.832  -0.915  -0.953  0.00  0.00     0.003 A 
ATOM      6  C4  PXY d   1      -1.119   0.143  -0.133  0.00  0.00    -0.082 A 
ATOM      7  C5  PXY d   1      -0.141   0.681   0.626  0.00  0.00     0.003 A 
ATOM      8  C6  PXY d   1       1.142   0.146   0.559  0.00  0.00     0.003 A 
ENDROOT
TORSDOF 0
ENDMDL
