MODEL 1
REMARK minimizedAffinity -1.66495502
REMARK minimizedRMSD -1
REMARK  0 active torsions:
REMARK  status: ('A' for Active; 'I' for Inactive)
ROOT
ATOM      1  C4' PXY d   1      -3.598   0.800  -0.212  0.00  0.00     0.077 C 
ATOM      2  C1' PXY d   1       1.916  -0.390   1.050  0.00  0.00     0.077 C 
ATOM      3  C1  PXY d   1       0.473  -0.065   0.720  0.00  0.00    -0.082 A 
ATOM      4  C2  PXY d   1      -0.466  -0.974   0.928  0.00  0.00     0.003 A 
ATOM      5  C3  PXY d   1      -1.772  -0.708   0.606  0.00  0.00     0.003 A 
ATOM      6  C4  PXY d   1      -2.129   0.519   0.115  0.00  0.00    -0.082 A 
ATOM      7  C5  PXY d   1      -1.178   1.456  -0.090  0.00  0.00     0.003 A 
ATOM      8  C6  PXY d   1       0.148   1.152   0.206  0.00  0.00     0.003 A 
ENDROOT
TORSDOF 0
ENDMDL
