MODEL 1
REMARK minimizedAffinity -4.67938757
REMARK minimizedRMSD -1
REMARK  0 active torsions:
REMARK  status: ('A' for Active; 'I' for Inactive)
ROOT
ATOM      1  C4' PXY d   1       3.801  -0.942   1.455  0.00  0.00     0.077 C 
ATOM      2  C1' PXY d   1      -1.296   0.132  -1.051  0.00  0.00     0.077 C 
ATOM      3  C1  PXY d   1       0.046  -0.139  -0.399  0.00  0.00    -0.082 A 
ATOM      4  C2  PXY d   1       0.385  -1.380  -0.091  0.00  0.00     0.003 A 
ATOM      5  C3  PXY d   1       1.580  -1.639   0.529  0.00  0.00     0.003 A 
ATOM      6  C4  PXY d   1       2.461  -0.623   0.787  0.00  0.00    -0.082 A 
ATOM      7  C5  PXY d   1       2.127   0.645   0.466  0.00  0.00     0.003 A 
ATOM      8  C6  PXY d   1       0.891   0.891  -0.125  0.00  0.00     0.003 A 
ENDROOT
TORSDOF 0
ENDMDL
