MODEL 1
REMARK minimizedAffinity -2.894207
REMARK minimizedRMSD -1
REMARK  0 active torsions:
REMARK  status: ('A' for Active; 'I' for Inactive)
ROOT
ATOM      1  C4' PXY d   1      -2.184   0.382  -0.466  0.00  0.00     0.077 C 
ATOM      2  C1' PXY d   1       3.109  -1.429   0.989  0.00  0.00     0.077 C 
ATOM      3  C1  PXY d   1       1.721  -0.947   0.618  0.00  0.00    -0.082 A 
ATOM      4  C2  PXY d   1       0.954  -1.694  -0.160  0.00  0.00     0.003 A 
ATOM      5  C3  PXY d   1      -0.292  -1.258  -0.531  0.00  0.00     0.003 A 
ATOM      6  C4  PXY d   1      -0.779  -0.069  -0.058  0.00  0.00    -0.082 A 
ATOM      7  C5  PXY d   1      -0.008   0.694   0.745  0.00  0.00     0.003 A 
ATOM      8  C6  PXY d   1       1.270   0.253   1.077  0.00  0.00     0.003 A 
ENDROOT
TORSDOF 0
ENDMDL
