MODEL 1
REMARK minimizedAffinity -4.00856447
REMARK minimizedRMSD -1
REMARK  0 active torsions:
REMARK  status: ('A' for Active; 'I' for Inactive)
ROOT
ATOM      1  C4' PXY d   1      -1.773   0.895  -0.640  0.00  0.00     0.077 C 
ATOM      2  C1' PXY d   1       3.239  -1.646   0.713  0.00  0.00     0.077 C 
ATOM      3  C1  PXY d   1       1.924  -0.986   0.347  0.00  0.00    -0.082 A 
ATOM      4  C2  PXY d   1       1.623   0.198   0.854  0.00  0.00     0.003 A 
ATOM      5  C3  PXY d   1       0.424   0.795   0.559  0.00  0.00     0.003 A 
ATOM      6  C4  PXY d   1      -0.453   0.196  -0.306  0.00  0.00    -0.082 A 
ATOM      7  C5  PXY d   1      -0.148  -1.007  -0.836  0.00  0.00     0.003 A 
ATOM      8  C6  PXY d   1       1.056  -1.614  -0.491  0.00  0.00     0.003 A 
ENDROOT
TORSDOF 0
ENDMDL
