MODEL 1
REMARK minimizedAffinity -4.93020821
REMARK minimizedRMSD -1
REMARK  0 active torsions:
REMARK  status: ('A' for Active; 'I' for Inactive)
ROOT
ATOM      1  C4' PXY d   1       3.066  -1.903   0.647  0.00  0.00     0.077 C 
ATOM      2  C1' PXY d   1      -1.851   0.947  -0.408  0.00  0.00     0.077 C 
ATOM      3  C1  PXY d   1      -0.568   0.188  -0.132  0.00  0.00    -0.082 A 
ATOM      4  C2  PXY d   1       0.411   0.779   0.532  0.00  0.00     0.003 A 
ATOM      5  C3  PXY d   1       1.591   0.119   0.763  0.00  0.00     0.003 A 
ATOM      6  C4  PXY d   1       1.749  -1.178   0.354  0.00  0.00    -0.082 A 
ATOM      7  C5  PXY d   1       0.750  -1.792  -0.315  0.00  0.00     0.003 A 
ATOM      8  C6  PXY d   1      -0.423  -1.090  -0.575  0.00  0.00     0.003 A 
ENDROOT
TORSDOF 0
ENDMDL
