MODEL 1
REMARK minimizedAffinity -5.6678915
REMARK minimizedRMSD -1
REMARK  0 active torsions:
REMARK  status: ('A' for Active; 'I' for Inactive)
ROOT
ATOM      1  C4' PXY d   1      -1.812   0.744  -0.641  0.00  0.00     0.077 C 
ATOM      2  C1' PXY d   1       3.253  -1.410   1.124  0.00  0.00     0.077 C 
ATOM      3  C1  PXY d   1       1.926  -0.835   0.669  0.00  0.00    -0.082 A 
ATOM      4  C2  PXY d   1       1.018  -1.632   0.130  0.00  0.00     0.003 A 
ATOM      5  C3  PXY d   1      -0.174  -1.123  -0.316  0.00  0.00     0.003 A 
ATOM      6  C4  PXY d   1      -0.462   0.206  -0.159  0.00  0.00    -0.082 A 
ATOM      7  C5  PXY d   1       0.455   1.024   0.400  0.00  0.00     0.003 A 
ATOM      8  C6  PXY d   1       1.676   0.495   0.809  0.00  0.00     0.003 A 
ENDROOT
TORSDOF 0
ENDMDL
