MODEL 1
REMARK minimizedAffinity -2.94221544
REMARK minimizedRMSD -1
REMARK  0 active torsions:
REMARK  status: ('A' for Active; 'I' for Inactive)
ROOT
ATOM      1  C4' PXY d   1       2.134   1.814   1.443  0.00  0.00     0.077 C 
ATOM      2  C1' PXY d   1      -0.135  -2.541  -1.607  0.00  0.00     0.077 C 
ATOM      3  C1  PXY d   1       0.456  -1.391  -0.816  0.00  0.00    -0.082 A 
ATOM      4  C2  PXY d   1       1.447  -1.619   0.030  0.00  0.00     0.003 A 
ATOM      5  C3  PXY d   1       1.971  -0.596   0.777  0.00  0.00     0.003 A 
ATOM      6  C4  PXY d   1       1.513   0.684   0.617  0.00  0.00    -0.082 A 
ATOM      7  C5  PXY d   1       0.509   0.927  -0.252  0.00  0.00     0.003 A 
ATOM      8  C6  PXY d   1      -0.037  -0.132  -0.971  0.00  0.00     0.003 A 
ENDROOT
TORSDOF 0
ENDMDL
