MODEL 1
REMARK minimizedAffinity -3.80485559
REMARK minimizedRMSD -1
REMARK  0 active torsions:
REMARK  status: ('A' for Active; 'I' for Inactive)
ROOT
ATOM      1  C4' PXY d   1      -2.129   0.541  -1.017  0.00  0.00     0.077 C 
ATOM      2  C1' PXY d   1       3.047  -1.182   0.897  0.00  0.00     0.077 C 
ATOM      3  C1  PXY d   1       1.689  -0.720   0.404  0.00  0.00    -0.082 A 
ATOM      4  C2  PXY d   1       0.887  -1.579  -0.204  0.00  0.00     0.003 A 
ATOM      5  C3  PXY d   1      -0.330  -1.171  -0.685  0.00  0.00     0.003 A 
ATOM      6  C4  PXY d   1      -0.753   0.117  -0.494  0.00  0.00    -0.082 A 
ATOM      7  C5  PXY d   1       0.055   0.997   0.135  0.00  0.00     0.003 A 
ATOM      8  C6  PXY d   1       1.304   0.573   0.578  0.00  0.00     0.003 A 
ENDROOT
TORSDOF 0
ENDMDL
