MODEL 1
REMARK minimizedAffinity -2.02452302
REMARK minimizedRMSD -1
REMARK  1 active torsions:
REMARK  status: ('A' for Active; 'I' for Inactive)
REMARK    1  A    between atoms: C1_2  and  C2_3 
ROOT
ATOM      1  C2  UNL d   1       3.613   3.026   5.977  0.00  0.00    -0.077 A 
ATOM      2  C3  UNL d   1       2.233   3.271   5.986  0.00  0.00     0.002 A 
ATOM      3  C4  UNL d   1       1.748   4.581   5.995  0.00  0.00     0.002 A 
ATOM      4  C5  UNL d   1       2.636   5.654   5.991  0.00  0.00    -0.004 A 
ATOM      5  C6  UNL d   1       4.011   5.421   5.985  0.00  0.00     0.002 A 
ATOM      6  C7  UNL d   1       4.497   4.113   5.977  0.00  0.00     0.002 A 
ENDROOT
BRANCH   1   7
ATOM      7  C1  UNL d   1       4.138   1.615   5.918  0.00  0.00     0.055 C 
ATOM      8  C   UNL d   1       3.002   0.602   5.925  0.00  0.00     0.019 C 
ENDBRANCH   1   7
TORSDOF 1
ENDMDL
