MODEL 1
REMARK minimizedAffinity -0.977709174
REMARK minimizedRMSD -1
REMARK  1 active torsions:
REMARK  status: ('A' for Active; 'I' for Inactive)
REMARK    1  A    between atoms: C1_2  and  C2_3 
ROOT
ATOM      1  C2  UNL d   1       2.404   2.093   5.762  0.00  0.00    -0.077 A 
ATOM      2  C3  UNL d   1       1.601   3.218   5.997  0.00  0.00     0.002 A 
ATOM      3  C4  UNL d   1       2.088   4.500   5.737  0.00  0.00     0.002 A 
ATOM      4  C5  UNL d   1       3.376   4.670   5.235  0.00  0.00    -0.004 A 
ATOM      5  C6  UNL d   1       4.184   3.558   4.999  0.00  0.00     0.002 A 
ATOM      6  C7  UNL d   1       3.700   2.275   5.260  0.00  0.00     0.002 A 
ENDROOT
BRANCH   1   7
ATOM      7  C1  UNL d   1       1.864   0.707   5.996  0.00  0.00     0.055 C 
ATOM      8  C   UNL d   1       2.334  -0.260   4.919  0.00  0.00     0.019 C 
ENDBRANCH   1   7
TORSDOF 1
ENDMDL
