MODEL 1
REMARK minimizedAffinity -1.47780347
REMARK minimizedRMSD -1
REMARK  1 active torsions:
REMARK  status: ('A' for Active; 'I' for Inactive)
REMARK    1  A    between atoms: C1_2  and  C2_3 
ROOT
ATOM      1  C2  UNL d   1       1.043  -2.350   5.019  0.00  0.00    -0.077 A 
ATOM      2  C3  UNL d   1       1.040  -3.377   5.973  0.00  0.00     0.002 A 
ATOM      3  C4  UNL d   1       0.006  -4.315   5.999  0.00  0.00     0.002 A 
ATOM      4  C5  UNL d   1      -1.031  -4.236   5.072  0.00  0.00    -0.004 A 
ATOM      5  C6  UNL d   1      -1.039  -3.217   4.120  0.00  0.00     0.002 A 
ATOM      6  C7  UNL d   1      -0.006  -2.279   4.094  0.00  0.00     0.002 A 
ENDROOT
BRANCH   1   7
ATOM      7  C1  UNL d   1       2.183  -1.368   4.958  0.00  0.00     0.055 C 
ATOM      8  C   UNL d   1       2.023  -0.269   5.999  0.00  0.00     0.019 C 
ENDBRANCH   1   7
TORSDOF 1
ENDMDL
