MODEL 1
REMARK minimizedAffinity 3.44660187
REMARK minimizedRMSD -1
REMARK  1 active torsions:
REMARK  status: ('A' for Active; 'I' for Inactive)
REMARK    1  A    between atoms: C1_2  and  C2_3 
ROOT
ATOM      1  C2  UNL d   1       2.117   4.405   6.000  0.00  0.00    -0.077 A 
ATOM      2  C3  UNL d   1       3.334   5.103   5.999  0.00  0.00     0.002 A 
ATOM      3  C4  UNL d   1       4.545   4.409   6.000  0.00  0.00     0.002 A 
ATOM      4  C5  UNL d   1       4.553   3.016   5.996  0.00  0.00    -0.004 A 
ATOM      5  C6  UNL d   1       3.349   2.313   5.998  0.00  0.00     0.002 A 
ATOM      6  C7  UNL d   1       2.136   3.005   5.999  0.00  0.00     0.002 A 
ENDROOT
BRANCH   1   7
ATOM      7  C1  UNL d   1       0.810   5.151   5.950  0.00  0.00     0.055 C 
ATOM      8  C   UNL d   1       0.428   5.505   4.520  0.00  0.00     0.019 C 
ENDBRANCH   1   7
TORSDOF 1
ENDMDL
