MODEL 1
REMARK minimizedAffinity 2.84038448
REMARK minimizedRMSD -1
REMARK  1 active torsions:
REMARK  status: ('A' for Active; 'I' for Inactive)
REMARK    1  A    between atoms: C1_2  and  C2_3 
ROOT
ATOM      1  C2  UNL d   1       1.425   5.128   5.635  0.00  0.00    -0.077 A 
ATOM      2  C3  UNL d   1       2.541   5.908   5.300  0.00  0.00     0.002 A 
ATOM      3  C4  UNL d   1       3.822   5.352   5.316  0.00  0.00     0.002 A 
ATOM      4  C5  UNL d   1       3.998   4.014   5.663  0.00  0.00    -0.004 A 
ATOM      5  C6  UNL d   1       2.895   3.231   6.000  0.00  0.00     0.002 A 
ATOM      6  C7  UNL d   1       1.614   3.785   5.985  0.00  0.00     0.002 A 
ENDROOT
BRANCH   1   7
ATOM      7  C1  UNL d   1       0.038   5.712   5.570  0.00  0.00     0.055 C 
ATOM      8  C   UNL d   1      -0.375   5.999   4.134  0.00  0.00     0.019 C 
ENDBRANCH   1   7
TORSDOF 1
ENDMDL
