MODEL 1
REMARK minimizedAffinity 6.35727501
REMARK minimizedRMSD -1
REMARK  1 active torsions:
REMARK  status: ('A' for Active; 'I' for Inactive)
REMARK    1  A    between atoms: C1_2  and  C2_3 
ROOT
ATOM      1  C2  UNL d   1       3.631   0.750  -0.415  0.00  0.00    -0.077 A 
ATOM      2  C3  UNL d   1       4.971   0.354  -0.524  0.00  0.00     0.002 A 
ATOM      3  C4  UNL d   1       5.999   1.247  -0.214  0.00  0.00     0.002 A 
ATOM      4  C5  UNL d   1       5.696   2.539   0.210  0.00  0.00    -0.004 A 
ATOM      5  C6  UNL d   1       4.366   2.943   0.320  0.00  0.00     0.002 A 
ATOM      6  C7  UNL d   1       3.338   2.052   0.009  0.00  0.00     0.002 A 
ENDROOT
BRANCH   1   7
ATOM      7  C1  UNL d   1       2.520  -0.227  -0.702  0.00  0.00     0.055 C 
ATOM      8  C   UNL d   1       2.943  -1.654  -0.384  0.00  0.00     0.019 C 
ENDBRANCH   1   7
TORSDOF 1
ENDMDL
