MODEL 1
REMARK minimizedAffinity 1.89784503
REMARK minimizedRMSD -1
REMARK  1 active torsions:
REMARK  status: ('A' for Active; 'I' for Inactive)
REMARK    1  A    between atoms: C1_2  and  C2_3 
ROOT
ATOM      1  C2  UNL d   1       2.955   3.812   5.503  0.00  0.00    -0.077 A 
ATOM      2  C3  UNL d   1       3.728   4.421   4.504  0.00  0.00     0.002 A 
ATOM      3  C4  UNL d   1       4.872   3.790   4.014  0.00  0.00     0.002 A 
ATOM      4  C5  UNL d   1       5.252   2.546   4.512  0.00  0.00    -0.004 A 
ATOM      5  C6  UNL d   1       4.491   1.933   5.507  0.00  0.00     0.002 A 
ATOM      6  C7  UNL d   1       3.348   2.563   6.000  0.00  0.00     0.002 A 
ENDROOT
BRANCH   1   7
ATOM      7  C1  UNL d   1       1.693   4.469   5.999  0.00  0.00     0.055 C 
ATOM      8  C   UNL d   1       1.405   5.757   5.241  0.00  0.00     0.019 C 
ENDBRANCH   1   7
TORSDOF 1
ENDMDL
