MODEL 1
REMARK minimizedAffinity -4.88400269
REMARK minimizedRMSD -1
REMARK  3 active torsions:
REMARK  status: ('A' for Active; 'I' for Inactive)
REMARK    1  A    between atoms: C3'_2  and  C2'_3 
REMARK    2  A    between atoms: C2'_3  and  C1'_4 
REMARK    3  A    between atoms: C1'_4  and  C1_5 
ROOT
ATOM      1  C1  N4B d   1       0.201  -0.140   0.080  0.00  0.00    -0.075 A 
ATOM      2  C2  N4B d   1       1.453   0.368   0.493  0.00  0.00     0.002 A 
ATOM      3  C3  N4B d   1       2.486  -0.494   0.770  0.00  0.00     0.002 A 
ATOM      4  C4  N4B d   1       2.286  -1.862   0.661  0.00  0.00    -0.004 A 
ATOM      5  C5  N4B d   1       1.082  -2.343   0.237  0.00  0.00     0.002 A 
ATOM      6  C6  N4B d   1       0.036  -1.489  -0.049  0.00  0.00     0.002 A 
ENDROOT
BRANCH   1   7
ATOM      7  C1' N4B d   1      -0.983   0.758  -0.151  0.00  0.00     0.057 C 
BRANCH   7   8
ATOM      8  C2' N4B d   1      -2.224   0.119   0.466  0.00  0.00     0.009 C 
BRANCH   8   9
ATOM      9  C3' N4B d   1      -3.044   1.122   1.260  0.00  0.00     0.004 C 
ATOM     10  C4' N4B d   1      -4.501   1.087   0.909  0.00  0.00     0.003 C 
ENDBRANCH   8   9
ENDBRANCH   7   8
ENDBRANCH   1   7
TORSDOF 3
ENDMDL
