MODEL 1
REMARK minimizedAffinity -2.58988571
REMARK minimizedRMSD -1
REMARK  3 active torsions:
REMARK  status: ('A' for Active; 'I' for Inactive)
REMARK    1  A    between atoms: C3'_2  and  C2'_3 
REMARK    2  A    between atoms: C2'_3  and  C1'_4 
REMARK    3  A    between atoms: C1'_4  and  C1_5 
ROOT
ATOM      1  C1  N4B d   1       0.355  -0.035  -0.263  0.00  0.00    -0.075 A 
ATOM      2  C2  N4B d   1       1.124  -0.924  -1.046  0.00  0.00     0.002 A 
ATOM      3  C3  N4B d   1       2.233  -1.528  -0.508  0.00  0.00     0.002 A 
ATOM      4  C4  N4B d   1       2.602  -1.246   0.799  0.00  0.00    -0.004 A 
ATOM      5  C5  N4B d   1       1.840  -0.406   1.556  0.00  0.00     0.002 A 
ATOM      6  C6  N4B d   1       0.720   0.206   1.030  0.00  0.00     0.002 A 
ENDROOT
BRANCH   1   7
ATOM      7  C1' N4B d   1      -0.817   0.716  -0.835  0.00  0.00     0.057 C 
BRANCH   7   8
ATOM      8  C2' N4B d   1      -1.869   0.906   0.254  0.00  0.00     0.009 C 
BRANCH   8   9
ATOM      9  C3' N4B d   1      -3.275   0.657  -0.265  0.00  0.00     0.004 C 
ATOM     10  C4' N4B d   1      -4.331   0.938   0.762  0.00  0.00     0.003 C 
ENDBRANCH   8   9
ENDBRANCH   7   8
ENDBRANCH   1   7
TORSDOF 3
ENDMDL
