MODEL 1
REMARK minimizedAffinity -4.55064106
REMARK minimizedRMSD -1
REMARK  3 active torsions:
REMARK  status: ('A' for Active; 'I' for Inactive)
REMARK    1  A    between atoms: C3'_2  and  C2'_3 
REMARK    2  A    between atoms: C2'_3  and  C1'_4 
REMARK    3  A    between atoms: C1'_4  and  C1_5 
ROOT
ATOM      1  C1  N4B d   1       1.503   0.019  -0.465  0.00  0.00    -0.075 A 
ATOM      2  C2  N4B d   1       2.504  -0.973  -0.559  0.00  0.00     0.002 A 
ATOM      3  C3  N4B d   1       3.748  -0.745  -0.024  0.00  0.00     0.002 A 
ATOM      4  C4  N4B d   1       4.019   0.468   0.591  0.00  0.00    -0.004 A 
ATOM      5  C5  N4B d   1       3.039   1.411   0.700  0.00  0.00     0.002 A 
ATOM      6  C6  N4B d   1       1.783   1.194   0.170  0.00  0.00     0.002 A 
ENDROOT
BRANCH   1   7
ATOM      7  C1' N4B d   1       0.154  -0.150  -1.110  0.00  0.00     0.057 C 
BRANCH   7   8
ATOM      8  C2' N4B d   1      -0.932   0.009  -0.050  0.00  0.00     0.009 C 
BRANCH   8   9
ATOM      9  C3' N4B d   1      -1.843   1.188  -0.344  0.00  0.00     0.004 C 
ATOM     10  C4' N4B d   1      -3.139   1.122   0.409  0.00  0.00     0.003 C 
ENDBRANCH   8   9
ENDBRANCH   7   8
ENDBRANCH   1   7
TORSDOF 3
ENDMDL
