MODEL 1
REMARK minimizedAffinity -3.63506675
REMARK minimizedRMSD -1
REMARK  3 active torsions:
REMARK  status: ('A' for Active; 'I' for Inactive)
REMARK    1  A    between atoms: C3'_2  and  C2'_3 
REMARK    2  A    between atoms: C2'_3  and  C1'_4 
REMARK    3  A    between atoms: C1'_4  and  C1_5 
ROOT
ATOM      1  C1  N4B d   1       0.080   0.140  -0.310  0.00  0.00    -0.075 A 
ATOM      2  C2  N4B d   1      -0.091  -1.258  -0.411  0.00  0.00     0.002 A 
ATOM      3  C3  N4B d   1       1.000  -2.089  -0.338  0.00  0.00     0.002 A 
ATOM      4  C4  N4B d   1       2.267  -1.547  -0.185  0.00  0.00    -0.004 A 
ATOM      5  C5  N4B d   1       2.420  -0.197  -0.062  0.00  0.00     0.002 A 
ATOM      6  C6  N4B d   1       1.333   0.651  -0.129  0.00  0.00     0.002 A 
ENDROOT
BRANCH   1   7
ATOM      7  C1' N4B d   1      -1.073   1.094  -0.469  0.00  0.00     0.057 C 
BRANCH   7   8
ATOM      8  C2' N4B d   1      -2.359   0.405  -0.022  0.00  0.00     0.009 C 
BRANCH   8   9
ATOM      9  C3' N4B d   1      -3.426   1.405   0.389  0.00  0.00     0.004 C 
ATOM     10  C4' N4B d   1      -4.682   0.747   0.876  0.00  0.00     0.003 C 
ENDBRANCH   8   9
ENDBRANCH   7   8
ENDBRANCH   1   7
TORSDOF 3
ENDMDL
