MODEL 1
REMARK minimizedAffinity 6.00449038
REMARK minimizedRMSD -1
REMARK  0 active torsions:
REMARK  status: ('A' for Active; 'I' for Inactive)
ROOT
ATOM      1  C   UNL d   1       4.410  -2.845   3.561  0.00  0.00     0.077 C 
ATOM      2  C1  UNL d   1       3.552  -2.928   2.334  0.00  0.00    -0.074 A 
ATOM      3  C2  UNL d   1       3.573  -4.063   1.516  0.00  0.00    -0.005 A 
ATOM      4  C3  UNL d   1       2.763  -4.129   0.383  0.00  0.00     0.006 A 
ATOM      5  C4  UNL d   1       1.923  -3.063   0.056  0.00  0.00    -0.005 A 
ATOM      6  C5  UNL d   1       1.888  -1.921   0.862  0.00  0.00    -0.074 A 
ATOM      7  C6  UNL d   1       0.984  -0.770   0.531  0.00  0.00     0.077 C 
ATOM      8  C7  UNL d   1       2.700  -1.864   2.003  0.00  0.00    -0.001 A 
ENDROOT
TORSDOF 0
ENDMDL
