MODEL 1
REMARK minimizedAffinity 10.3728628
REMARK minimizedRMSD -1
REMARK  0 active torsions:
REMARK  status: ('A' for Active; 'I' for Inactive)
ROOT
ATOM      1  C   UNL d   1      -0.503  -1.164  -0.923  0.00  0.00     0.077 C 
ATOM      2  C1  UNL d   1       0.649  -1.727  -0.144  0.00  0.00    -0.074 A 
ATOM      3  C2  UNL d   1       1.436  -0.905   0.670  0.00  0.00    -0.005 A 
ATOM      4  C3  UNL d   1       2.498  -1.444   1.396  0.00  0.00     0.006 A 
ATOM      5  C4  UNL d   1       2.784  -2.807   1.315  0.00  0.00    -0.005 A 
ATOM      6  C5  UNL d   1       2.008  -3.644   0.507  0.00  0.00    -0.074 A 
ATOM      7  C6  UNL d   1       2.296  -5.113   0.417  0.00  0.00     0.077 C 
ATOM      8  C7  UNL d   1       0.938  -3.097  -0.214  0.00  0.00    -0.001 A 
ENDROOT
TORSDOF 0
ENDMDL
