MODEL 1
REMARK minimizedAffinity 12.8607969
REMARK minimizedRMSD -1
REMARK  0 active torsions:
REMARK  status: ('A' for Active; 'I' for Inactive)
ROOT
ATOM      1  C   UNL d   1       4.125  -2.219   4.533  0.00  0.00     0.077 C 
ATOM      2  C1  UNL d   1       3.463  -2.163   3.189  0.00  0.00    -0.074 A 
ATOM      3  C2  UNL d   1       4.184  -2.428   2.020  0.00  0.00    -0.005 A 
ATOM      4  C3  UNL d   1       3.552  -2.381   0.778  0.00  0.00     0.006 A 
ATOM      5  C4  UNL d   1       2.195  -2.070   0.691  0.00  0.00    -0.005 A 
ATOM      6  C5  UNL d   1       1.457  -1.802   1.848  0.00  0.00    -0.074 A 
ATOM      7  C6  UNL d   1      -0.005  -1.475   1.773  0.00  0.00     0.077 C 
ATOM      8  C7  UNL d   1       2.097  -1.858   3.094  0.00  0.00    -0.001 A 
ENDROOT
TORSDOF 0
ENDMDL
