MODEL 1
REMARK minimizedAffinity 11.2017126
REMARK minimizedRMSD -1
REMARK  0 active torsions:
REMARK  status: ('A' for Active; 'I' for Inactive)
ROOT
ATOM      1  C   UNL d   1      -0.605  -2.117   1.513  0.00  0.00     0.077 C 
ATOM      2  C1  UNL d   1       0.793  -2.545   1.177  0.00  0.00    -0.074 A 
ATOM      3  C2  UNL d   1       1.855  -1.637   1.233  0.00  0.00    -0.005 A 
ATOM      4  C3  UNL d   1       3.151  -2.052   0.927  0.00  0.00     0.006 A 
ATOM      5  C4  UNL d   1       3.398  -3.376   0.564  0.00  0.00    -0.005 A 
ATOM      6  C5  UNL d   1       2.349  -4.299   0.505  0.00  0.00    -0.074 A 
ATOM      7  C6  UNL d   1       2.598  -5.728   0.126  0.00  0.00     0.077 C 
ATOM      8  C7  UNL d   1       1.050  -3.876   0.820  0.00  0.00    -0.001 A 
ENDROOT
TORSDOF 0
ENDMDL
