MODEL 1
REMARK minimizedAffinity 8.87855339
REMARK minimizedRMSD -1
REMARK  0 active torsions:
REMARK  status: ('A' for Active; 'I' for Inactive)
ROOT
ATOM      1  C   UNL d   1       3.215  -1.902   2.442  0.00  0.00     0.077 C 
ATOM      2  C1  UNL d   1       3.783  -2.523   3.683  0.00  0.00    -0.074 A 
ATOM      3  C2  UNL d   1       4.111  -1.739   4.794  0.00  0.00    -0.005 A 
ATOM      4  C3  UNL d   1       4.630  -2.332   5.945  0.00  0.00     0.006 A 
ATOM      5  C4  UNL d   1       4.826  -3.713   5.997  0.00  0.00    -0.005 A 
ATOM      6  C5  UNL d   1       4.503  -4.513   4.896  0.00  0.00    -0.074 A 
ATOM      7  C6  UNL d   1       4.698  -6.000   4.939  0.00  0.00     0.077 C 
ATOM      8  C7  UNL d   1       3.975  -3.911   3.746  0.00  0.00    -0.001 A 
ENDROOT
TORSDOF 0
ENDMDL
