MODEL 1
REMARK minimizedAffinity 19.8517189
REMARK minimizedRMSD -1
REMARK  0 active torsions:
REMARK  status: ('A' for Active; 'I' for Inactive)
ROOT
ATOM      1  C   UNL d   1      -3.008   3.596   5.998  0.00  0.00     0.077 C 
ATOM      2  C1  UNL d   1      -3.258   2.603   4.902  0.00  0.00    -0.074 A 
ATOM      3  C2  UNL d   1      -4.254   2.824   3.945  0.00  0.00    -0.005 A 
ATOM      4  C3  UNL d   1      -4.468   1.896   2.926  0.00  0.00     0.006 A 
ATOM      5  C4  UNL d   1      -3.690   0.740   2.853  0.00  0.00    -0.005 A 
ATOM      6  C5  UNL d   1      -2.689   0.503   3.800  0.00  0.00    -0.074 A 
ATOM      7  C6  UNL d   1      -1.837  -0.730   3.731  0.00  0.00     0.077 C 
ATOM      8  C7  UNL d   1      -2.475   1.443   4.817  0.00  0.00    -0.001 A 
ENDROOT
TORSDOF 0
ENDMDL
