MODEL 1
REMARK minimizedAffinity 14.855196
REMARK minimizedRMSD -1
REMARK  0 active torsions:
REMARK  status: ('A' for Active; 'I' for Inactive)
ROOT
ATOM      1  C   UNL d   1       2.634  -4.740   0.176  0.00  0.00     0.077 C 
ATOM      2  C1  UNL d   1       2.130  -3.449   0.750  0.00  0.00    -0.074 A 
ATOM      3  C2  UNL d   1       3.001  -2.553   1.379  0.00  0.00    -0.005 A 
ATOM      4  C3  UNL d   1       2.519  -1.352   1.900  0.00  0.00     0.006 A 
ATOM      5  C4  UNL d   1       1.164  -1.036   1.797  0.00  0.00    -0.005 A 
ATOM      6  C5  UNL d   1       0.278  -1.918   1.171  0.00  0.00    -0.074 A 
ATOM      7  C6  UNL d   1      -1.179  -1.589   1.043  0.00  0.00     0.077 C 
ATOM      8  C7  UNL d   1       0.771  -3.120   0.644  0.00  0.00    -0.001 A 
ENDROOT
TORSDOF 0
ENDMDL
