MODEL 1
REMARK minimizedAffinity 8.59446526
REMARK minimizedRMSD -1
REMARK  0 active torsions:
REMARK  status: ('A' for Active; 'I' for Inactive)
ROOT
ATOM      1  C   UNL d   1       5.998  -0.716   0.962  0.00  0.00     0.077 C 
ATOM      2  C1  UNL d   1       5.958   0.685   0.428  0.00  0.00    -0.074 A 
ATOM      3  C2  UNL d   1       6.000   1.785   1.291  0.00  0.00    -0.005 A 
ATOM      4  C3  UNL d   1       5.972   3.082   0.780  0.00  0.00     0.006 A 
ATOM      5  C4  UNL d   1       5.902   3.293  -0.598  0.00  0.00    -0.005 A 
ATOM      6  C5  UNL d   1       5.860   2.205  -1.477  0.00  0.00    -0.074 A 
ATOM      7  C6  UNL d   1       5.795   2.414  -2.961  0.00  0.00     0.077 C 
ATOM      8  C7  UNL d   1       5.896   0.905  -0.955  0.00  0.00    -0.001 A 
ENDROOT
TORSDOF 0
ENDMDL
