MODEL 1
REMARK minimizedAffinity 6.68245459
REMARK minimizedRMSD -1
REMARK  0 active torsions:
REMARK  status: ('A' for Active; 'I' for Inactive)
ROOT
ATOM      1  C   UNL d   1       1.297  -5.077   0.773  0.00  0.00     0.077 C 
ATOM      2  C1  UNL d   1       1.467  -3.600   0.967  0.00  0.00    -0.074 A 
ATOM      3  C2  UNL d   1       2.364  -2.870   0.181  0.00  0.00    -0.005 A 
ATOM      4  C3  UNL d   1       2.503  -1.494   0.366  0.00  0.00     0.006 A 
ATOM      5  C4  UNL d   1       1.749  -0.836   1.338  0.00  0.00    -0.005 A 
ATOM      6  C5  UNL d   1       0.846  -1.549   2.133  0.00  0.00    -0.074 A 
ATOM      7  C6  UNL d   1       0.021  -0.856   3.176  0.00  0.00     0.077 C 
ATOM      8  C7  UNL d   1       0.707  -2.930   1.936  0.00  0.00    -0.001 A 
ENDROOT
TORSDOF 0
ENDMDL
