MODEL 1
REMARK minimizedAffinity 7.61043262
REMARK minimizedRMSD -1
REMARK  0 active torsions:
REMARK  status: ('A' for Active; 'I' for Inactive)
ROOT
ATOM      1  C   UNL d   1       5.998   4.107   2.400  0.00  0.00     0.077 C 
ATOM      2  C1  UNL d   1       5.984   3.119   1.272  0.00  0.00    -0.074 A 
ATOM      3  C2  UNL d   1       5.977   3.549  -0.059  0.00  0.00    -0.005 A 
ATOM      4  C3  UNL d   1       5.974   2.619  -1.099  0.00  0.00     0.006 A 
ATOM      5  C4  UNL d   1       5.978   1.252  -0.818  0.00  0.00    -0.005 A 
ATOM      6  C5  UNL d   1       5.986   0.803   0.507  0.00  0.00    -0.074 A 
ATOM      7  C6  UNL d   1       6.000  -0.662   0.825  0.00  0.00     0.077 C 
ATOM      8  C7  UNL d   1       5.996   1.744   1.545  0.00  0.00    -0.001 A 
ENDROOT
TORSDOF 0
ENDMDL
