MODEL 1
REMARK minimizedAffinity 15.0091076
REMARK minimizedRMSD -1
REMARK  0 active torsions:
REMARK  status: ('A' for Active; 'I' for Inactive)
ROOT
ATOM      1  C   UNL d   1      -5.896   0.252  -5.264  0.00  0.00     0.077 C 
ATOM      2  C1  UNL d   1      -5.178   1.519  -4.906  0.00  0.00    -0.074 A 
ATOM      3  C2  UNL d   1      -5.638   2.759  -5.363  0.00  0.00    -0.005 A 
ATOM      4  C3  UNL d   1      -4.965   3.930  -5.014  0.00  0.00     0.006 A 
ATOM      5  C4  UNL d   1      -3.828   3.873  -4.207  0.00  0.00    -0.005 A 
ATOM      6  C5  UNL d   1      -3.354   2.643  -3.741  0.00  0.00    -0.074 A 
ATOM      7  C6  UNL d   1      -2.140   2.565  -2.864  0.00  0.00     0.077 C 
ATOM      8  C7  UNL d   1      -4.040   1.471  -4.090  0.00  0.00    -0.001 A 
ENDROOT
TORSDOF 0
ENDMDL
