MODEL 1
REMARK minimizedAffinity 19.3303623
REMARK minimizedRMSD -1
REMARK  0 active torsions:
REMARK  status: ('A' for Active; 'I' for Inactive)
ROOT
ATOM      1  C   UNL d   1      -2.381   2.625  -2.705  0.00  0.00     0.077 C 
ATOM      2  C1  UNL d   1      -3.633   2.235  -3.433  0.00  0.00    -0.074 A 
ATOM      3  C2  UNL d   1      -4.240   0.995  -3.208  0.00  0.00    -0.005 A 
ATOM      4  C3  UNL d   1      -5.409   0.651  -3.886  0.00  0.00     0.006 A 
ATOM      5  C4  UNL d   1      -5.982   1.541  -4.795  0.00  0.00    -0.005 A 
ATOM      6  C5  UNL d   1      -5.390   2.785  -5.033  0.00  0.00    -0.074 A 
ATOM      7  C6  UNL d   1      -5.998   3.757  -6.000  0.00  0.00     0.077 C 
ATOM      8  C7  UNL d   1      -4.219   3.127  -4.343  0.00  0.00    -0.001 A 
ENDROOT
TORSDOF 0
ENDMDL
