MODEL 1
REMARK minimizedAffinity 20.1384201
REMARK minimizedRMSD -1
REMARK  0 active torsions:
REMARK  status: ('A' for Active; 'I' for Inactive)
ROOT
ATOM      1  O1  BZF d   1      -1.715   0.618   2.785  0.00  0.00    -0.204 OA
ATOM      2  C2  BZF d   1      -2.754   0.898   3.650  0.00  0.00     0.174 A 
ATOM      3  C3  BZF d   1      -3.921   0.429   3.164  0.00  0.00    -0.012 A 
ATOM      4  C3A BZF d   1      -3.576  -0.264   1.961  0.00  0.00    -0.107 A 
ATOM      5  C4  BZF d   1      -4.303  -0.957   1.036  0.00  0.00     0.055 A 
ATOM      6  C5  BZF d   1      -3.674  -1.450  -0.064  0.00  0.00    -0.016 A 
ATOM      7  C6  BZF d   1      -2.323  -1.263  -0.272  0.00  0.00     0.022 A 
ATOM      8  C7  BZF d   1      -1.560  -0.586   0.620  0.00  0.00     0.029 A 
ATOM      9  C7A BZF d   1      -2.186  -0.116   1.748  0.00  0.00     0.058 A 
ENDROOT
TORSDOF 0
ENDMDL
