MODEL 1
REMARK minimizedAffinity 28.8684311
REMARK minimizedRMSD -1
REMARK  0 active torsions:
REMARK  status: ('A' for Active; 'I' for Inactive)
ROOT
ATOM      1  O1  BZF d   1       4.499   4.243   2.251  0.00  0.00    -0.204 OA
ATOM      2  C2  BZF d   1       5.739   4.851   2.245  0.00  0.00     0.174 A 
ATOM      3  C3  BZF d   1       6.000   5.393   1.038  0.00  0.00    -0.012 A 
ATOM      4  C3A BZF d   1       4.811   5.187   0.268  0.00  0.00    -0.107 A 
ATOM      5  C4  BZF d   1       4.449   5.517  -1.007  0.00  0.00     0.055 A 
ATOM      6  C5  BZF d   1       3.243   5.104  -1.479  0.00  0.00    -0.016 A 
ATOM      7  C6  BZF d   1       2.378   4.358  -0.706  0.00  0.00     0.022 A 
ATOM      8  C7  BZF d   1       2.691   4.011   0.566  0.00  0.00     0.029 A 
ATOM      9  C7A BZF d   1       3.895   4.454   1.057  0.00  0.00     0.058 A 
ENDROOT
TORSDOF 0
ENDMDL
