MODEL 1
REMARK minimizedAffinity 14.7254286
REMARK minimizedRMSD -1
REMARK  0 active torsions:
REMARK  status: ('A' for Active; 'I' for Inactive)
ROOT
ATOM      1  O1  BZF d   1       0.377   0.979  -2.713  0.00  0.00    -0.204 OA
ATOM      2  C2  BZF d   1       0.970   1.875  -1.845  0.00  0.00     0.174 A 
ATOM      3  C3  BZF d   1       1.857   1.251  -1.045  0.00  0.00    -0.012 A 
ATOM      4  C3A BZF d   1       1.884  -0.106  -1.499  0.00  0.00    -0.107 A 
ATOM      5  C4  BZF d   1       2.584  -1.212  -1.111  0.00  0.00     0.055 A 
ATOM      6  C5  BZF d   1       2.324  -2.403  -1.712  0.00  0.00    -0.016 A 
ATOM      7  C6  BZF d   1       1.368  -2.524  -2.700  0.00  0.00     0.022 A 
ATOM      8  C7  BZF d   1       0.652  -1.454  -3.122  0.00  0.00     0.029 A 
ATOM      9  C7A BZF d   1       0.936  -0.243  -2.539  0.00  0.00     0.058 A 
ENDROOT
TORSDOF 0
ENDMDL
