MODEL 1
REMARK minimizedAffinity 12.6644316
REMARK minimizedRMSD -1
REMARK  0 active torsions:
REMARK  status: ('A' for Active; 'I' for Inactive)
ROOT
ATOM      1  O1  BZF d   1       1.027   3.150  -1.464  0.00  0.00    -0.204 OA
ATOM      2  C2  BZF d   1       2.296   3.583  -1.129  0.00  0.00     0.174 A 
ATOM      3  C3  BZF d   1       2.239   4.740  -0.440  0.00  0.00    -0.012 A 
ATOM      4  C3A BZF d   1       0.845   5.002  -0.256  0.00  0.00    -0.107 A 
ATOM      5  C4  BZF d   1       0.150   5.999   0.368  0.00  0.00     0.055 A 
ATOM      6  C5  BZF d   1      -1.207   5.999   0.302  0.00  0.00    -0.016 A 
ATOM      7  C6  BZF d   1      -1.901   5.022  -0.382  0.00  0.00     0.022 A 
ATOM      8  C7  BZF d   1      -1.256   4.011  -1.012  0.00  0.00     0.029 A 
ATOM      9  C7A BZF d   1       0.114   3.989  -0.920  0.00  0.00     0.058 A 
ENDROOT
TORSDOF 0
ENDMDL
