MODEL 1
REMARK minimizedAffinity 21.5629101
REMARK minimizedRMSD -1
REMARK  0 active torsions:
REMARK  status: ('A' for Active; 'I' for Inactive)
ROOT
ATOM      1  O1  BZF d   1      -3.964   5.165   5.037  0.00  0.00    -0.204 OA
ATOM      2  C2  BZF d   1      -3.088   5.642   5.992  0.00  0.00     0.174 A 
ATOM      3  C3  BZF d   1      -1.913   5.993   5.431  0.00  0.00    -0.012 A 
ATOM      4  C3A BZF d   1      -2.097   5.806   4.025  0.00  0.00    -0.107 A 
ATOM      5  C4  BZF d   1      -1.292   6.000   2.938  0.00  0.00     0.055 A 
ATOM      6  C5  BZF d   1      -1.749   5.651   1.707  0.00  0.00    -0.016 A 
ATOM      7  C6  BZF d   1      -3.001   5.101   1.526  0.00  0.00     0.022 A 
ATOM      8  C7  BZF d   1      -3.837   4.894   2.573  0.00  0.00     0.029 A 
ATOM      9  C7A BZF d   1      -3.391   5.276   3.814  0.00  0.00     0.058 A 
ENDROOT
TORSDOF 0
ENDMDL
