MODEL 1
REMARK minimizedAffinity 20.6991444
REMARK minimizedRMSD -1
REMARK  0 active torsions:
REMARK  status: ('A' for Active; 'I' for Inactive)
ROOT
ATOM      1  O1  BZF d   1       5.295  -0.292  -1.904  0.00  0.00    -0.204 OA
ATOM      2  C2  BZF d   1       5.958   0.575  -2.750  0.00  0.00     0.174 A 
ATOM      3  C3  BZF d   1       5.089   1.408  -3.359  0.00  0.00    -0.012 A 
ATOM      4  C3A BZF d   1       3.812   1.100  -2.791  0.00  0.00    -0.107 A 
ATOM      5  C4  BZF d   1       2.556   1.600  -2.979  0.00  0.00     0.055 A 
ATOM      6  C5  BZF d   1       1.512   1.029  -2.322  0.00  0.00    -0.016 A 
ATOM      7  C6  BZF d   1       1.688  -0.046  -1.475  0.00  0.00     0.022 A 
ATOM      8  C7  BZF d   1       2.917  -0.574  -1.253  0.00  0.00     0.029 A 
ATOM      9  C7A BZF d   1       3.977   0.022  -1.890  0.00  0.00     0.058 A 
ENDROOT
TORSDOF 0
ENDMDL
