MODEL 1
REMARK minimizedAffinity 9.66263103
REMARK minimizedRMSD -1
REMARK  0 active torsions:
REMARK  status: ('A' for Active; 'I' for Inactive)
ROOT
ATOM      1  O1  BZF d   1       5.126   4.143   1.494  0.00  0.00    -0.204 OA
ATOM      2  C2  BZF d   1       4.875   4.600   2.773  0.00  0.00     0.174 A 
ATOM      3  C3  BZF d   1       3.801   5.415   2.788  0.00  0.00    -0.012 A 
ATOM      4  C3A BZF d   1       3.297   5.398   1.449  0.00  0.00    -0.107 A 
ATOM      5  C4  BZF d   1       2.234   5.999   0.838  0.00  0.00     0.055 A 
ATOM      6  C5  BZF d   1       2.060   5.834  -0.499  0.00  0.00    -0.016 A 
ATOM      7  C6  BZF d   1       2.933   5.079  -1.257  0.00  0.00     0.022 A 
ATOM      8  C7  BZF d   1       3.998   4.460  -0.694  0.00  0.00     0.029 A 
ATOM      9  C7A BZF d   1       4.157   4.597   0.663  0.00  0.00     0.058 A 
ENDROOT
TORSDOF 0
ENDMDL
