MODEL 1
REMARK minimizedAffinity 19.8949146
REMARK minimizedRMSD -1
REMARK  0 active torsions:
REMARK  status: ('A' for Active; 'I' for Inactive)
ROOT
ATOM      1  O1  BZF d   1       5.477   4.601   1.091  0.00  0.00    -0.204 OA
ATOM      2  C2  BZF d   1       5.017   4.135   2.307  0.00  0.00     0.174 A 
ATOM      3  C3  BZF d   1       3.674   4.012   2.295  0.00  0.00    -0.012 A 
ATOM      4  C3A BZF d   1       3.278   4.339   0.959  0.00  0.00    -0.107 A 
ATOM      5  C4  BZF d   1       2.071   4.384   0.322  0.00  0.00     0.055 A 
ATOM      6  C5  BZF d   1       2.020   4.814  -0.966  0.00  0.00    -0.016 A 
ATOM      7  C6  BZF d   1       3.154   5.211  -1.645  0.00  0.00     0.022 A 
ATOM      8  C7  BZF d   1       4.374   5.179  -1.056  0.00  0.00     0.029 A 
ATOM      9  C7A BZF d   1       4.434   4.714   0.235  0.00  0.00     0.058 A 
ENDROOT
TORSDOF 0
ENDMDL
