MODEL 1
REMARK minimizedAffinity 24.8605938
REMARK minimizedRMSD -1
REMARK  0 active torsions:
REMARK  status: ('A' for Active; 'I' for Inactive)
ROOT
ATOM      1  O1  BZF d   1      -3.480   1.681   4.582  0.00  0.00    -0.204 OA
ATOM      2  C2  BZF d   1      -3.810   2.131   3.318  0.00  0.00     0.174 A 
ATOM      3  C3  BZF d   1      -4.744   1.336   2.756  0.00  0.00    -0.012 A 
ATOM      4  C3A BZF d   1      -5.081   0.380   3.766  0.00  0.00    -0.107 A 
ATOM      5  C4  BZF d   1      -5.961  -0.663   3.814  0.00  0.00     0.055 A 
ATOM      6  C5  BZF d   1      -5.995  -1.447   4.924  0.00  0.00    -0.016 A 
ATOM      7  C6  BZF d   1      -5.162  -1.219   6.000  0.00  0.00     0.022 A 
ATOM      8  C7  BZF d   1      -4.276  -0.194   6.000  0.00  0.00     0.029 A 
ATOM      9  C7A BZF d   1      -4.262   0.620   4.893  0.00  0.00     0.058 A 
ENDROOT
TORSDOF 0
ENDMDL
