MODEL 1
REMARK minimizedAffinity 25.0537663
REMARK minimizedRMSD -1
REMARK  0 active torsions:
REMARK  status: ('A' for Active; 'I' for Inactive)
ROOT
ATOM      1  O1  BZF d   1      -0.215  -1.379  -3.455  0.00  0.00    -0.204 OA
ATOM      2  C2  BZF d   1       0.154  -2.681  -3.173  0.00  0.00     0.174 A 
ATOM      3  C3  BZF d   1       1.183  -2.708  -2.302  0.00  0.00    -0.012 A 
ATOM      4  C3A BZF d   1       1.416  -1.340  -1.952  0.00  0.00    -0.107 A 
ATOM      5  C4  BZF d   1       2.300  -0.724  -1.114  0.00  0.00     0.055 A 
ATOM      6  C5  BZF d   1       2.316   0.634  -1.053  0.00  0.00    -0.016 A 
ATOM      7  C6  BZF d   1       1.467   1.405  -1.820  0.00  0.00     0.022 A 
ATOM      8  C7  BZF d   1       0.569   0.838  -2.662  0.00  0.00     0.029 A 
ATOM      9  C7A BZF d   1       0.528  -0.534  -2.701  0.00  0.00     0.058 A 
ENDROOT
TORSDOF 0
ENDMDL
