MODEL 1
REMARK minimizedAffinity 14.0224743
REMARK minimizedRMSD -1
REMARK  0 active torsions:
REMARK  status: ('A' for Active; 'I' for Inactive)
ROOT
ATOM      1  O1  BZF d   1       0.350   1.135  -1.763  0.00  0.00    -0.204 OA
ATOM      2  C2  BZF d   1       0.739  -0.158  -1.472  0.00  0.00     0.174 A 
ATOM      3  C3  BZF d   1       1.801  -0.518  -2.221  0.00  0.00    -0.012 A 
ATOM      4  C3A BZF d   1       2.152   0.654  -2.964  0.00  0.00    -0.107 A 
ATOM      5  C4  BZF d   1       3.134   0.931  -3.871  0.00  0.00     0.055 A 
ATOM      6  C5  BZF d   1       3.157   2.152  -4.468  0.00  0.00    -0.016 A 
ATOM      7  C6  BZF d   1       2.211   3.116  -4.185  0.00  0.00     0.022 A 
ATOM      8  C7  BZF d   1       1.221   2.889  -3.289  0.00  0.00     0.029 A 
ATOM      9  C7A BZF d   1       1.214   1.668  -2.660  0.00  0.00     0.058 A 
ENDROOT
TORSDOF 0
ENDMDL
