MODEL 1
REMARK minimizedAffinity 7.76516008
REMARK minimizedRMSD -1
REMARK  0 active torsions:
REMARK  status: ('A' for Active; 'I' for Inactive)
ROOT
ATOM      1  O1  BZF d   1       5.991  -2.100   5.961  0.00  0.00    -0.204 OA
ATOM      2  C2  BZF d   1       5.135  -1.154   5.430  0.00  0.00     0.174 A 
ATOM      3  C3  BZF d   1       4.116  -1.746   4.774  0.00  0.00    -0.012 A 
ATOM      4  C3A BZF d   1       4.300  -3.150   4.981  0.00  0.00    -0.107 A 
ATOM      5  C4  BZF d   1       3.601  -4.256   4.590  0.00  0.00     0.055 A 
ATOM      6  C5  BZF d   1       4.088  -5.487   4.895  0.00  0.00    -0.016 A 
ATOM      7  C6  BZF d   1       5.272  -5.649   5.586  0.00  0.00     0.022 A 
ATOM      8  C7  BZF d   1       5.997  -4.582   5.999  0.00  0.00     0.029 A 
ATOM      9  C7A BZF d   1       5.491  -3.336   5.720  0.00  0.00     0.058 A 
ENDROOT
TORSDOF 0
ENDMDL
