MODEL 1
REMARK minimizedAffinity 9.72731876
REMARK minimizedRMSD -1
REMARK  0 active torsions:
REMARK  status: ('A' for Active; 'I' for Inactive)
ROOT
ATOM      1  O1  BZF d   1       0.192   1.242  -3.589  0.00  0.00    -0.204 OA
ATOM      2  C2  BZF d   1       0.581   2.566  -3.516  0.00  0.00     0.174 A 
ATOM      3  C3  BZF d   1       1.605   2.716  -2.651  0.00  0.00    -0.012 A 
ATOM      4  C3A BZF d   1       1.934   1.391  -2.223  0.00  0.00    -0.107 A 
ATOM      5  C4  BZF d   1       2.877   0.886  -1.375  0.00  0.00     0.055 A 
ATOM      6  C5  BZF d   1       2.886  -0.448  -1.116  0.00  0.00    -0.016 A 
ATOM      7  C6  BZF d   1       1.964  -1.304  -1.683  0.00  0.00     0.022 A 
ATOM      8  C7  BZF d   1       1.012  -0.849  -2.534  0.00  0.00     0.029 A 
ATOM      9  C7A BZF d   1       1.021   0.493  -2.823  0.00  0.00     0.058 A 
ENDROOT
TORSDOF 0
ENDMDL
