MODEL 1
REMARK minimizedAffinity -0.0136884786
REMARK minimizedRMSD -1
REMARK  0 active torsions:
REMARK  status: ('A' for Active; 'I' for Inactive)
ROOT
ATOM      1  O1  BZF d   1       4.096  -4.580   4.586  0.00  0.00    -0.204 OA
ATOM      2  C2  BZF d   1       5.075  -5.248   5.296  0.00  0.00     0.174 A 
ATOM      3  C3  BZF d   1       6.000  -4.386   5.764  0.00  0.00    -0.012 A 
ATOM      4  C3A BZF d   1       5.523  -3.087   5.398  0.00  0.00    -0.107 A 
ATOM      5  C4  BZF d   1       5.997  -1.822   5.596  0.00  0.00     0.055 A 
ATOM      6  C5  BZF d   1       5.330  -0.773   5.047  0.00  0.00    -0.016 A 
ATOM      7  C6  BZF d   1       4.191  -0.953   4.291  0.00  0.00     0.022 A 
ATOM      8  C7  BZF d   1       3.679  -2.188   4.071  0.00  0.00     0.029 A 
ATOM      9  C7A BZF d   1       4.332  -3.248   4.652  0.00  0.00     0.058 A 
ENDROOT
TORSDOF 0
ENDMDL
