MODEL 1
REMARK minimizedAffinity 14.49792
REMARK minimizedRMSD -1
REMARK  0 active torsions:
REMARK  status: ('A' for Active; 'I' for Inactive)
ROOT
ATOM      1  O1  BZF d   1       5.999  -3.180   6.000  0.00  0.00    -0.204 OA
ATOM      2  C2  BZF d   1       5.210  -4.279   5.719  0.00  0.00     0.174 A 
ATOM      3  C3  BZF d   1       4.221  -3.952   4.863  0.00  0.00    -0.012 A 
ATOM      4  C3A BZF d   1       4.459  -2.584   4.519  0.00  0.00    -0.107 A 
ATOM      5  C4  BZF d   1       3.824  -1.699   3.694  0.00  0.00     0.055 A 
ATOM      6  C5  BZF d   1       4.266  -0.415   3.637  0.00  0.00    -0.016 A 
ATOM      7  C6  BZF d   1       5.335   0.019   4.394  0.00  0.00     0.022 A 
ATOM      8  C7  BZF d   1       5.999  -0.823   5.223  0.00  0.00     0.029 A 
ATOM      9  C7A BZF d   1       5.575  -2.129   5.258  0.00  0.00     0.058 A 
ENDROOT
TORSDOF 0
ENDMDL
