MODEL 1
REMARK minimizedAffinity 8.30541134
REMARK minimizedRMSD -1
REMARK  0 active torsions:
REMARK  status: ('A' for Active; 'I' for Inactive)
ROOT
ATOM      1  O1  BZF d   1      -5.881   5.568   3.682  0.00  0.00    -0.204 OA
ATOM      2  C2  BZF d   1      -5.650   5.487   2.323  0.00  0.00     0.174 A 
ATOM      3  C3  BZF d   1      -4.337   5.632   2.051  0.00  0.00    -0.012 A 
ATOM      4  C3A BZF d   1      -3.697   5.722   3.327  0.00  0.00    -0.107 A 
ATOM      5  C4  BZF d   1      -2.395   5.860   3.716  0.00  0.00     0.055 A 
ATOM      6  C5  BZF d   1      -2.111   5.991   5.039  0.00  0.00    -0.016 A 
ATOM      7  C6  BZF d   1      -3.103   5.994   5.997  0.00  0.00     0.022 A 
ATOM      8  C7  BZF d   1      -4.409   5.855   5.660  0.00  0.00     0.029 A 
ATOM      9  C7A BZF d   1      -4.696   5.689   4.327  0.00  0.00     0.058 A 
ENDROOT
TORSDOF 0
ENDMDL
