MODEL 1
REMARK minimizedAffinity -4.97727251
REMARK minimizedRMSD -1
REMARK  1 active torsions:
REMARK  status: ('A' for Active; 'I' for Inactive)
REMARK    1  A    between atoms: C3_4  and  O_7 
ROOT
ATOM      1  C   UNL d   1       0.209  -0.420   2.762  0.00  0.00    -0.033 A 
ATOM      2  C1  UNL d   1      -1.050  -0.642   2.200  0.00  0.00     0.039 A 
ATOM      3  C2  UNL d   1      -1.257  -0.419   0.838  0.00  0.00    -0.080 A 
ATOM      4  C3  UNL d   1      -0.199   0.023   0.049  0.00  0.00     0.150 A 
ATOM      5  C4  UNL d   1       1.059   0.242   0.601  0.00  0.00    -0.007 A 
ATOM      6  C5  UNL d   1       1.264   0.020   1.963  0.00  0.00     0.039 A 
ENDROOT
BRANCH   4   7
ATOM      7  O   UNL d   1      -0.354   0.258  -1.285  0.00  0.00    -0.526 OA
ATOM      8  H5  UNL d   1      -1.282   0.092  -1.521  0.00  0.00     0.418 HD
ENDBRANCH   4   7
TORSDOF 1
ENDMDL
