MODEL 1
REMARK minimizedAffinity -2.54040718
REMARK minimizedRMSD -1
REMARK  1 active torsions:
REMARK  status: ('A' for Active; 'I' for Inactive)
REMARK    1  A    between atoms: C3_4  and  O_7 
ROOT
ATOM      1  C   UNL d   1       0.364  -0.244  -0.309  0.00  0.00    -0.033 A 
ATOM      2  C1  UNL d   1       1.132   0.346   0.697  0.00  0.00     0.039 A 
ATOM      3  C2  UNL d   1       0.820   0.121   2.039  0.00  0.00    -0.080 A 
ATOM      4  C3  UNL d   1      -0.261  -0.695   2.361  0.00  0.00     0.150 A 
ATOM      5  C4  UNL d   1      -1.028  -1.289   1.364  0.00  0.00    -0.007 A 
ATOM      6  C5  UNL d   1      -0.715  -1.062   0.025  0.00  0.00     0.039 A 
ENDROOT
BRANCH   4   7
ATOM      7  O   UNL d   1      -0.608  -0.940   3.657  0.00  0.00    -0.526 OA
ATOM      8  H5  UNL d   1      -0.007  -0.441   4.235  0.00  0.00     0.418 HD
ENDBRANCH   4   7
TORSDOF 1
ENDMDL
