MODEL 1
REMARK minimizedAffinity -4.72269154
REMARK minimizedRMSD -1
REMARK  1 active torsions:
REMARK  status: ('A' for Active; 'I' for Inactive)
REMARK    1  A    between atoms: C3_4  and  O_7 
ROOT
ATOM      1  C   UNL d   1       0.336   0.738  -0.843  0.00  0.00    -0.033 A 
ATOM      2  C1  UNL d   1      -0.799   0.002  -0.499  0.00  0.00     0.039 A 
ATOM      3  C2  UNL d   1      -1.006  -0.386   0.826  0.00  0.00    -0.080 A 
ATOM      4  C3  UNL d   1      -0.072  -0.031   1.796  0.00  0.00     0.150 A 
ATOM      5  C4  UNL d   1       1.059   0.705   1.461  0.00  0.00    -0.007 A 
ATOM      6  C5  UNL d   1       1.264   1.091   0.137  0.00  0.00     0.039 A 
ENDROOT
BRANCH   4   7
ATOM      7  O   UNL d   1      -0.229  -0.391   3.102  0.00  0.00    -0.526 OA
ATOM      8  H5  UNL d   1      -1.040  -0.921   3.180  0.00  0.00     0.418 HD
ENDBRANCH   4   7
TORSDOF 1
ENDMDL
