MODEL 1
REMARK minimizedAffinity -2.78530693
REMARK minimizedRMSD -1
REMARK  1 active torsions:
REMARK  status: ('A' for Active; 'I' for Inactive)
REMARK    1  A    between atoms: C3_4  and  O_7 
ROOT
ATOM      1  C   UNL d   1      -0.962   0.215  -0.807  0.00  0.00    -0.033 A 
ATOM      2  C1  UNL d   1       0.279  -0.018  -0.210  0.00  0.00     0.039 A 
ATOM      3  C2  UNL d   1       0.347  -0.463   1.112  0.00  0.00    -0.080 A 
ATOM      4  C3  UNL d   1      -0.831  -0.671   1.824  0.00  0.00     0.150 A 
ATOM      5  C4  UNL d   1      -2.070  -0.445   1.235  0.00  0.00    -0.007 A 
ATOM      6  C5  UNL d   1      -2.136   0.000  -0.085  0.00  0.00     0.039 A 
ENDROOT
BRANCH   4   7
ATOM      7  O   UNL d   1      -0.814  -1.100   3.118  0.00  0.00    -0.526 OA
ATOM      8  H5  UNL d   1       0.111  -1.187   3.402  0.00  0.00     0.418 HD
ENDBRANCH   4   7
TORSDOF 1
ENDMDL
