MODEL 1
REMARK minimizedAffinity -4.43874359
REMARK minimizedRMSD -1
REMARK  1 active torsions:
REMARK  status: ('A' for Active; 'I' for Inactive)
REMARK    1  A    between atoms: C3_4  and  O_7 
ROOT
ATOM      1  C   UNL d   1       0.597   0.693   0.385  0.00  0.00    -0.033 A 
ATOM      2  C1  UNL d   1       1.404   0.643   1.523  0.00  0.00     0.039 A 
ATOM      3  C2  UNL d   1       0.912   0.091   2.707  0.00  0.00    -0.080 A 
ATOM      4  C3  UNL d   1      -0.387  -0.408   2.740  0.00  0.00     0.150 A 
ATOM      5  C4  UNL d   1      -1.196  -0.366   1.609  0.00  0.00    -0.007 A 
ATOM      6  C5  UNL d   1      -0.703   0.187   0.428  0.00  0.00     0.039 A 
ENDROOT
BRANCH   4   7
ATOM      7  O   UNL d   1      -0.913  -0.953   3.874  0.00  0.00    -0.526 OA
ATOM      8  H5  UNL d   1      -0.251  -0.888   4.582  0.00  0.00     0.418 HD
ENDBRANCH   4   7
TORSDOF 1
ENDMDL
