MODEL 1
REMARK minimizedAffinity -5.2143259
REMARK minimizedRMSD -1
REMARK  1 active torsions:
REMARK  status: ('A' for Active; 'I' for Inactive)
REMARK    1  A    between atoms: C3_4  and  O_7 
ROOT
ATOM      1  C   UNL d   1       0.719   0.270  -0.143  0.00  0.00    -0.033 A 
ATOM      2  C1  UNL d   1       1.611   0.423   0.920  0.00  0.00     0.039 A 
ATOM      3  C2  UNL d   1       1.231   0.052   2.211  0.00  0.00    -0.080 A 
ATOM      4  C3  UNL d   1      -0.041  -0.472   2.425  0.00  0.00     0.150 A 
ATOM      5  C4  UNL d   1      -0.933  -0.631   1.370  0.00  0.00    -0.007 A 
ATOM      6  C5  UNL d   1      -0.552  -0.259   0.082  0.00  0.00     0.039 A 
ENDROOT
BRANCH   4   7
ATOM      7  O   UNL d   1      -0.458  -0.844   3.669  0.00  0.00    -0.526 OA
ATOM      8  H5  UNL d   1       0.252  -0.650   4.303  0.00  0.00     0.418 HD
ENDBRANCH   4   7
TORSDOF 1
ENDMDL
