MODEL 1
REMARK minimizedAffinity -5.39083433
REMARK minimizedRMSD -1
REMARK  1 active torsions:
REMARK  status: ('A' for Active; 'I' for Inactive)
REMARK    1  A    between atoms: C3_4  and  O_7 
ROOT
ATOM      1  C   UNL d   1       0.415   0.610  -0.057  0.00  0.00    -0.033 A 
ATOM      2  C1  UNL d   1      -0.819  -0.038   0.023  0.00  0.00     0.039 A 
ATOM      3  C2  UNL d   1      -1.176  -0.722   1.187  0.00  0.00    -0.080 A 
ATOM      4  C3  UNL d   1      -0.291  -0.748   2.262  0.00  0.00     0.150 A 
ATOM      5  C4  UNL d   1       0.938  -0.101   2.190  0.00  0.00    -0.007 A 
ATOM      6  C5  UNL d   1       1.293   0.580   1.027  0.00  0.00     0.039 A 
ENDROOT
BRANCH   4   7
ATOM      7  O   UNL d   1      -0.594  -1.407   3.417  0.00  0.00    -0.526 OA
ATOM      8  H5  UNL d   1      -1.462  -1.830   3.312  0.00  0.00     0.418 HD
ENDBRANCH   4   7
TORSDOF 1
ENDMDL
