MODEL 1
REMARK minimizedAffinity -4.93924189
REMARK minimizedRMSD -1
REMARK  1 active torsions:
REMARK  status: ('A' for Active; 'I' for Inactive)
REMARK    1  A    between atoms: C3_4  and  O_7 
ROOT
ATOM      1  C   UNL d   1      -1.994  -0.035   2.797  0.00  0.00    -0.033 A 
ATOM      2  C1  UNL d   1      -0.611   0.000   2.606  0.00  0.00     0.039 A 
ATOM      3  C2  UNL d   1      -0.086   0.155   1.321  0.00  0.00    -0.080 A 
ATOM      4  C3  UNL d   1      -0.953   0.274   0.238  0.00  0.00     0.150 A 
ATOM      5  C4  UNL d   1      -2.332   0.243   0.422  0.00  0.00    -0.007 A 
ATOM      6  C5  UNL d   1      -2.854   0.088   1.705  0.00  0.00     0.039 A 
ENDROOT
BRANCH   4   7
ATOM      7  O   UNL d   1      -0.488   0.422  -1.034  0.00  0.00    -0.526 OA
ATOM      8  H5  UNL d   1       0.484   0.397  -1.012  0.00  0.00     0.418 HD
ENDBRANCH   4   7
TORSDOF 1
ENDMDL
