MODEL 1
REMARK minimizedAffinity -3.60012555
REMARK minimizedRMSD -1
REMARK  1 active torsions:
REMARK  status: ('A' for Active; 'I' for Inactive)
REMARK    1  A    between atoms: C3_4  and  O_7 
ROOT
ATOM      1  C   UNL d   1       0.469   0.264  -0.933  0.00  0.00    -0.033 A 
ATOM      2  C1  UNL d   1       1.489   0.430   0.006  0.00  0.00     0.039 A 
ATOM      3  C2  UNL d   1       1.257   0.137   1.351  0.00  0.00    -0.080 A 
ATOM      4  C3  UNL d   1       0.002  -0.321   1.744  0.00  0.00     0.150 A 
ATOM      5  C4  UNL d   1      -1.018  -0.492   0.813  0.00  0.00    -0.007 A 
ATOM      6  C5  UNL d   1      -0.784  -0.199  -0.530  0.00  0.00     0.039 A 
ENDROOT
BRANCH   4   7
ATOM      7  O   UNL d   1      -0.274  -0.616   3.046  0.00  0.00    -0.526 OA
ATOM      8  H5  UNL d   1       0.515  -0.422   3.579  0.00  0.00     0.418 HD
ENDBRANCH   4   7
TORSDOF 1
ENDMDL
