MODEL 1
REMARK minimizedAffinity -4.77805138
REMARK minimizedRMSD -1
REMARK  1 active torsions:
REMARK  status: ('A' for Active; 'I' for Inactive)
REMARK    1  A    between atoms: C3_4  and  O_7 
ROOT
ATOM      1  C   UNL d   1       0.049  -0.002  -0.392  0.00  0.00    -0.033 A 
ATOM      2  C1  UNL d   1      -1.215  -0.336   0.100  0.00  0.00     0.039 A 
ATOM      3  C2  UNL d   1      -1.388  -0.607   1.458  0.00  0.00    -0.080 A 
ATOM      4  C3  UNL d   1      -0.291  -0.540   2.314  0.00  0.00     0.150 A 
ATOM      5  C4  UNL d   1       0.969  -0.205   1.831  0.00  0.00    -0.007 A 
ATOM      6  C5  UNL d   1       1.140   0.065   0.474  0.00  0.00     0.039 A 
ENDROOT
BRANCH   4   7
ATOM      7  O   UNL d   1      -0.410  -0.801   3.646  0.00  0.00    -0.526 OA
ATOM      8  H5  UNL d   1      -1.332  -1.047   3.831  0.00  0.00     0.418 HD
ENDBRANCH   4   7
TORSDOF 1
ENDMDL
