MODEL 1
REMARK minimizedAffinity -1.88832092
REMARK minimizedRMSD -1
REMARK  1 active torsions:
REMARK  status: ('A' for Active; 'I' for Inactive)
REMARK    1  A    between atoms: C3_4  and  O_7 
ROOT
ATOM      1  C   UNL d   1       1.970  -2.207  -3.955  0.00  0.00    -0.033 A 
ATOM      2  C1  UNL d   1       2.245  -0.854  -4.160  0.00  0.00     0.039 A 
ATOM      3  C2  UNL d   1       1.486   0.121  -3.511  0.00  0.00    -0.080 A 
ATOM      4  C3  UNL d   1       0.456  -0.270  -2.659  0.00  0.00     0.150 A 
ATOM      5  C4  UNL d   1       0.179  -1.617  -2.447  0.00  0.00    -0.007 A 
ATOM      6  C5  UNL d   1       0.938  -2.589  -3.097  0.00  0.00     0.039 A 
ENDROOT
BRANCH   4   7
ATOM      7  O   UNL d   1      -0.315   0.645  -2.007  0.00  0.00    -0.526 OA
ATOM      8  H5  UNL d   1      -0.028   1.535  -2.272  0.00  0.00     0.418 HD
ENDBRANCH   4   7
TORSDOF 1
ENDMDL
