MODEL 1
REMARK minimizedAffinity -4.53845787
REMARK minimizedRMSD -1
REMARK  1 active torsions:
REMARK  status: ('A' for Active; 'I' for Inactive)
REMARK    1  A    between atoms: C3_4  and  O_7 
ROOT
ATOM      1  C   UNL d   1       0.541  -0.442   0.740  0.00  0.00    -0.033 A 
ATOM      2  C1  UNL d   1       0.126   0.011  -0.514  0.00  0.00     0.039 A 
ATOM      3  C2  UNL d   1      -1.201   0.394  -0.717  0.00  0.00    -0.080 A 
ATOM      4  C3  UNL d   1      -2.103   0.319   0.342  0.00  0.00     0.150 A 
ATOM      5  C4  UNL d   1      -1.696  -0.128   1.594  0.00  0.00    -0.007 A 
ATOM      6  C5  UNL d   1      -0.370  -0.510   1.794  0.00  0.00     0.039 A 
ENDROOT
BRANCH   4   7
ATOM      7  O   UNL d   1      -3.409   0.677   0.191  0.00  0.00    -0.526 OA
ATOM      8  H5  UNL d   1      -3.552   0.938  -0.734  0.00  0.00     0.418 HD
ENDBRANCH   4   7
TORSDOF 1
ENDMDL
