MODEL 1
REMARK minimizedAffinity 15.9682789
REMARK minimizedRMSD -1
REMARK  1 active torsions:
REMARK  status: ('A' for Active; 'I' for Inactive)
REMARK    1  A    between atoms: C1_2  and  C2_3 
ROOT
ATOM      1  C2  UNL d   1      -5.977   2.186  -1.608  0.00  0.00    -0.076 A 
ATOM      2  C3  UNL d   1      -5.952   3.130  -2.649  0.00  0.00     0.004 A 
ATOM      3  C4  UNL d   1      -5.957   4.497  -2.378  0.00  0.00    -0.003 A 
ATOM      4  C5  UNL d   1      -5.987   4.943  -1.061  0.00  0.00     0.000 A 
ATOM      5  C6  UNL d   1      -5.994   4.020  -0.016  0.00  0.00     0.000 A 
ATOM      6  C7  UNL d   1      -5.972   2.638  -0.271  0.00  0.00    -0.073 A 
ATOM      7  C8  UNL d   1      -5.987   1.688   0.895  0.00  0.00     0.078 C 
ENDROOT
BRANCH   1   8
ATOM      8  C1  UNL d   1      -5.997   0.716  -1.963  0.00  0.00     0.053 C 
ATOM      9  C   UNL d   1      -4.804   0.306  -2.814  0.00  0.00     0.018 C 
ENDBRANCH   1   8
TORSDOF 1
ENDMDL
