MODEL 1
REMARK minimizedAffinity 10.4635124
REMARK minimizedRMSD -1
REMARK  1 active torsions:
REMARK  status: ('A' for Active; 'I' for Inactive)
REMARK    1  A    between atoms: C1_2  and  C2_3 
ROOT
ATOM      1  C2  UNL d   1       0.308  -1.331   3.882  0.00  0.00    -0.076 A 
ATOM      2  C3  UNL d   1       1.088  -0.180   3.678  0.00  0.00     0.004 A 
ATOM      3  C4  UNL d   1       0.791   0.715   2.651  0.00  0.00    -0.003 A 
ATOM      4  C5  UNL d   1      -0.291   0.474   1.812  0.00  0.00     0.000 A 
ATOM      5  C6  UNL d   1      -1.086  -0.655   2.011  0.00  0.00     0.000 A 
ATOM      6  C7  UNL d   1      -0.811  -1.559   3.051  0.00  0.00    -0.073 A 
ATOM      7  C8  UNL d   1      -1.698  -2.762   3.216  0.00  0.00     0.078 C 
ENDROOT
BRANCH   1   8
ATOM      8  C1  UNL d   1       0.694  -2.280   4.994  0.00  0.00     0.053 C 
ATOM      9  C   UNL d   1       2.188  -2.270   5.276  0.00  0.00     0.018 C 
ENDBRANCH   1   8
TORSDOF 1
ENDMDL
