MODEL 1
REMARK minimizedAffinity 8.41891861
REMARK minimizedRMSD -1
REMARK  1 active torsions:
REMARK  status: ('A' for Active; 'I' for Inactive)
REMARK    1  A    between atoms: C1_2  and  C2_3 
ROOT
ATOM      1  C2  UNL d   1       0.507   0.754   3.755  0.00  0.00    -0.076 A 
ATOM      2  C3  UNL d   1      -0.360   1.642   3.095  0.00  0.00     0.004 A 
ATOM      3  C4  UNL d   1      -1.163   1.210   2.041  0.00  0.00    -0.003 A 
ATOM      4  C5  UNL d   1      -1.111  -0.117   1.629  0.00  0.00     0.000 A 
ATOM      5  C6  UNL d   1      -0.269  -1.016   2.283  0.00  0.00     0.000 A 
ATOM      6  C7  UNL d   1       0.534  -0.600   3.359  0.00  0.00    -0.073 A 
ATOM      7  C8  UNL d   1       1.428  -1.610   4.025  0.00  0.00     0.078 C 
ENDROOT
BRANCH   1   8
ATOM      8  C1  UNL d   1       1.374   1.286   4.874  0.00  0.00     0.053 C 
ATOM      9  C   UNL d   1       0.678   2.367   5.686  0.00  0.00     0.018 C 
ENDBRANCH   1   8
TORSDOF 1
ENDMDL
