MODEL 1
REMARK minimizedAffinity 18.2052994
REMARK minimizedRMSD -1
REMARK  1 active torsions:
REMARK  status: ('A' for Active; 'I' for Inactive)
REMARK    1  A    between atoms: C1_2  and  C2_3 
ROOT
ATOM      1  C2  UNL d   1       0.286   1.441   3.637  0.00  0.00    -0.076 A 
ATOM      2  C3  UNL d   1       1.276   0.527   4.037  0.00  0.00     0.004 A 
ATOM      3  C4  UNL d   1       1.551  -0.610   3.279  0.00  0.00    -0.003 A 
ATOM      4  C5  UNL d   1       0.841  -0.851   2.108  0.00  0.00     0.000 A 
ATOM      5  C6  UNL d   1      -0.133   0.055   1.687  0.00  0.00     0.000 A 
ATOM      6  C7  UNL d   1      -0.411   1.214   2.432  0.00  0.00    -0.073 A 
ATOM      7  C8  UNL d   1      -1.476   2.153   1.934  0.00  0.00     0.078 C 
ENDROOT
BRANCH   1   8
ATOM      8  C1  UNL d   1       0.013   2.642   4.514  0.00  0.00     0.053 C 
ATOM      9  C   UNL d   1       0.089   2.311   5.997  0.00  0.00     0.018 C 
ENDBRANCH   1   8
TORSDOF 1
ENDMDL
