MODEL 1
REMARK minimizedAffinity 10.3821926
REMARK minimizedRMSD -1
REMARK  1 active torsions:
REMARK  status: ('A' for Active; 'I' for Inactive)
REMARK    1  A    between atoms: C1_2  and  C2_3 
ROOT
ATOM      1  C2  UNL d   1       0.711   0.122   4.062  0.00  0.00    -0.076 A 
ATOM      2  C3  UNL d   1       0.848   1.018   5.136  0.00  0.00     0.004 A 
ATOM      3  C4  UNL d   1       0.244   2.274   5.103  0.00  0.00    -0.003 A 
ATOM      4  C5  UNL d   1      -0.506   2.655   3.996  0.00  0.00     0.000 A 
ATOM      5  C6  UNL d   1      -0.667   1.771   2.929  0.00  0.00     0.000 A 
ATOM      6  C7  UNL d   1      -0.079   0.495   2.953  0.00  0.00    -0.073 A 
ATOM      7  C8  UNL d   1      -0.280  -0.415   1.772  0.00  0.00     0.078 C 
ENDROOT
BRANCH   1   8
ATOM      8  C1  UNL d   1       1.410  -1.216   4.141  0.00  0.00     0.053 C 
ATOM      9  C   UNL d   1       1.285  -1.858   5.514  0.00  0.00     0.018 C 
ENDBRANCH   1   8
TORSDOF 1
ENDMDL
