MODEL 1
REMARK minimizedAffinity 16.5823364
REMARK minimizedRMSD -1
REMARK  1 active torsions:
REMARK  status: ('A' for Active; 'I' for Inactive)
REMARK    1  A    between atoms: C1_2  and  C2_3 
ROOT
ATOM      1  C2  UNL d   1      -1.683  -0.538   1.517  0.00  0.00    -0.076 A 
ATOM      2  C3  UNL d   1      -0.944   0.091   2.533  0.00  0.00     0.004 A 
ATOM      3  C4  UNL d   1       0.447   0.148   2.479  0.00  0.00    -0.003 A 
ATOM      4  C5  UNL d   1       1.123  -0.424   1.406  0.00  0.00     0.000 A 
ATOM      5  C6  UNL d   1       0.404  -1.036   0.379  0.00  0.00     0.000 A 
ATOM      6  C7  UNL d   1      -1.000  -1.088   0.411  0.00  0.00    -0.073 A 
ATOM      7  C8  UNL d   1      -1.723  -1.766  -0.720  0.00  0.00     0.078 C 
ENDROOT
BRANCH   1   8
ATOM      8  C1  UNL d   1      -3.189  -0.592   1.644  0.00  0.00     0.053 C 
ATOM      9  C   UNL d   1      -3.662  -1.776   2.473  0.00  0.00     0.018 C 
ENDBRANCH   1   8
TORSDOF 1
ENDMDL
