MODEL 1
REMARK minimizedAffinity 16.4017696
REMARK minimizedRMSD -1
REMARK  0 active torsions:
REMARK  status: ('A' for Active; 'I' for Inactive)
ROOT
ATOM      1  C4' PXY d   1       0.035   2.513   1.514  0.00  0.00     0.077 C 
ATOM      2  C1' PXY d   1       0.117   4.407  -3.947  0.00  0.00     0.077 C 
ATOM      3  C1  PXY d   1       0.084   3.905  -2.517  0.00  0.00    -0.082 A 
ATOM      4  C2  PXY d   1       0.736   4.567  -1.576  0.00  0.00     0.003 A 
ATOM      5  C3  PXY d   1       0.744   4.109  -0.284  0.00  0.00     0.003 A 
ATOM      6  C4  PXY d   1       0.033   2.990   0.058  0.00  0.00    -0.082 A 
ATOM      7  C5  PXY d   1      -0.644   2.314  -0.894  0.00  0.00     0.003 A 
ATOM      8  C6  PXY d   1      -0.605   2.773  -2.208  0.00  0.00     0.003 A 
ENDROOT
TORSDOF 0
ENDMDL
