MODEL 1
REMARK minimizedAffinity 18.4214344
REMARK minimizedRMSD -1
REMARK  0 active torsions:
REMARK  status: ('A' for Active; 'I' for Inactive)
ROOT
ATOM      1  C4' PXY d   1       5.850  -3.788   5.898  0.00  0.00     0.077 C 
ATOM      2  C1' PXY d   1       0.995  -1.134   4.225  0.00  0.00     0.077 C 
ATOM      3  C1  PXY d   1       2.263  -1.841   4.660  0.00  0.00    -0.082 A 
ATOM      4  C2  PXY d   1       3.010  -1.316   5.617  0.00  0.00     0.003 A 
ATOM      5  C3  PXY d   1       4.177  -1.926   6.000  0.00  0.00     0.003 A 
ATOM      6  C4  PXY d   1       4.556  -3.114   5.434  0.00  0.00    -0.082 A 
ATOM      7  C5  PXY d   1       3.794  -3.662   4.464  0.00  0.00     0.003 A 
ATOM      8  C6  PXY d   1       2.634  -3.006   4.061  0.00  0.00     0.003 A 
ENDROOT
TORSDOF 0
ENDMDL
