MODEL 1
REMARK minimizedAffinity -1.87093318
REMARK minimizedRMSD -1
REMARK  0 active torsions:
REMARK  status: ('A' for Active; 'I' for Inactive)
ROOT
ATOM      1  C4' PXY d   1       0.615   4.615  -1.132  0.00  0.00     0.077 C 
ATOM      2  C1' PXY d   1      -0.488   0.487   2.762  0.00  0.00     0.077 C 
ATOM      3  C1  PXY d   1      -0.199   1.560   1.731  0.00  0.00    -0.082 A 
ATOM      4  C2  PXY d   1       0.423   2.669   2.098  0.00  0.00     0.003 A 
ATOM      5  C3  PXY d   1       0.663   3.664   1.186  0.00  0.00     0.003 A 
ATOM      6  C4  PXY d   1       0.311   3.500  -0.127  0.00  0.00    -0.082 A 
ATOM      7  C5  PXY d   1      -0.314   2.367  -0.512  0.00  0.00     0.003 A 
ATOM      8  C6  PXY d   1      -0.586   1.387   0.438  0.00  0.00     0.003 A 
ENDROOT
TORSDOF 0
ENDMDL
