MODEL 1
REMARK minimizedAffinity 4.48906088
REMARK minimizedRMSD -1
REMARK  0 active torsions:
REMARK  status: ('A' for Active; 'I' for Inactive)
ROOT
ATOM      1  C4' PXY d   1       2.627  -1.107  -1.738  0.00  0.00     0.077 C 
ATOM      2  C1' PXY d   1       5.998  -4.302  -5.180  0.00  0.00     0.077 C 
ATOM      3  C1  PXY d   1       5.123  -3.464  -4.268  0.00  0.00    -0.082 A 
ATOM      4  C2  PXY d   1       3.811  -3.471  -4.433  0.00  0.00     0.003 A 
ATOM      5  C3  PXY d   1       3.007  -2.695  -3.638  0.00  0.00     0.003 A 
ATOM      6  C4  PXY d   1       3.548  -1.945  -2.629  0.00  0.00    -0.082 A 
ATOM      7  C5  PXY d   1       4.886  -1.941  -2.447  0.00  0.00     0.003 A 
ATOM      8  C6  PXY d   1       5.688  -2.703  -3.291  0.00  0.00     0.003 A 
ENDROOT
TORSDOF 0
ENDMDL
