MODEL 1
REMARK minimizedAffinity 4.35117579
REMARK minimizedRMSD -1
REMARK  0 active torsions:
REMARK  status: ('A' for Active; 'I' for Inactive)
ROOT
ATOM      1  C4' PXY d   1       0.547  -0.584   2.155  0.00  0.00     0.077 C 
ATOM      2  C1' PXY d   1       1.059   4.664  -0.215  0.00  0.00     0.077 C 
ATOM      3  C1  PXY d   1       0.917   3.284   0.397  0.00  0.00    -0.082 A 
ATOM      4  C2  PXY d   1       1.116   3.120   1.695  0.00  0.00     0.003 A 
ATOM      5  C3  PXY d   1       1.023   1.874   2.259  0.00  0.00     0.003 A 
ATOM      6  C4  PXY d   1       0.670   0.793   1.496  0.00  0.00    -0.082 A 
ATOM      7  C5  PXY d   1       0.455   0.954   0.173  0.00  0.00     0.003 A 
ATOM      8  C6  PXY d   1       0.595   2.220  -0.388  0.00  0.00     0.003 A 
ENDROOT
TORSDOF 0
ENDMDL
