MODEL 1
REMARK minimizedAffinity -1.18246388
REMARK minimizedRMSD -1
REMARK  0 active torsions:
REMARK  status: ('A' for Active; 'I' for Inactive)
ROOT
ATOM      1  C4' PXY d   1       5.813  -5.556  -3.233  0.00  0.00     0.077 C 
ATOM      2  C1' PXY d   1       1.920  -1.918  -0.993  0.00  0.00     0.077 C 
ATOM      3  C1  PXY d   1       2.933  -2.882  -1.578  0.00  0.00    -0.082 A 
ATOM      4  C2  PXY d   1       4.210  -2.538  -1.630  0.00  0.00     0.003 A 
ATOM      5  C3  PXY d   1       5.134  -3.384  -2.185  0.00  0.00     0.003 A 
ATOM      6  C4  PXY d   1       4.757  -4.618  -2.642  0.00  0.00    -0.082 A 
ATOM      7  C5  PXY d   1       3.458  -4.982  -2.583  0.00  0.00     0.003 A 
ATOM      8  C6  PXY d   1       2.529  -4.091  -2.054  0.00  0.00     0.003 A 
ENDROOT
TORSDOF 0
ENDMDL
