MODEL 1
REMARK minimizedAffinity 4.87203741
REMARK minimizedRMSD -1
REMARK  0 active torsions:
REMARK  status: ('A' for Active; 'I' for Inactive)
ROOT
ATOM      1  C4' PXY d   1       2.344   4.512  -0.174  0.00  0.00     0.077 C 
ATOM      2  C1' PXY d   1      -2.702   2.515  -2.164  0.00  0.00     0.077 C 
ATOM      3  C1  PXY d   1      -1.384   3.038  -1.630  0.00  0.00    -0.082 A 
ATOM      4  C2  PXY d   1      -0.577   3.717  -2.430  0.00  0.00     0.003 A 
ATOM      5  C3  PXY d   1       0.633   4.170  -1.972  0.00  0.00     0.003 A 
ATOM      6  C4  PXY d   1       0.999   3.973  -0.668  0.00  0.00    -0.082 A 
ATOM      7  C5  PXY d   1       0.176   3.291   0.158  0.00  0.00     0.003 A 
ATOM      8  C6  PXY d   1      -1.030   2.803  -0.338  0.00  0.00     0.003 A 
ENDROOT
TORSDOF 0
ENDMDL
