MODEL 1
REMARK minimizedAffinity 11.2647848
REMARK minimizedRMSD -1
REMARK  0 active torsions:
REMARK  status: ('A' for Active; 'I' for Inactive)
ROOT
ATOM      1  C4' PXY d   1      -0.619  -4.306  -4.282  0.00  0.00     0.077 C 
ATOM      2  C1' PXY d   1      -5.998  -5.964  -5.601  0.00  0.00     0.077 C 
ATOM      3  C1  PXY d   1      -4.582  -5.540  -5.261  0.00  0.00    -0.082 A 
ATOM      4  C2  PXY d   1      -4.372  -4.715  -4.248  0.00  0.00     0.003 A 
ATOM      5  C3  PXY d   1      -3.102  -4.296  -3.947  0.00  0.00     0.003 A 
ATOM      6  C4  PXY d   1      -2.030  -4.768  -4.656  0.00  0.00    -0.082 A 
ATOM      7  C5  PXY d   1      -2.235  -5.619  -5.684  0.00  0.00     0.003 A 
ATOM      8  C6  PXY d   1      -3.536  -6.000  -5.999  0.00  0.00     0.003 A 
ENDROOT
TORSDOF 0
ENDMDL
