MODEL 1
REMARK minimizedAffinity 16.7212906
REMARK minimizedRMSD -1
REMARK  0 active torsions:
REMARK  status: ('A' for Active; 'I' for Inactive)
ROOT
ATOM      1  C4' PXY d   1      -5.865   0.477  -2.991  0.00  0.00     0.077 C 
ATOM      2  C1' PXY d   1      -1.990   4.702  -3.729  0.00  0.00     0.077 C 
ATOM      3  C1  PXY d   1      -3.012   3.597  -3.547  0.00  0.00    -0.082 A 
ATOM      4  C2  PXY d   1      -3.260   3.130  -2.334  0.00  0.00     0.003 A 
ATOM      5  C3  PXY d   1      -4.158   2.109  -2.155  0.00  0.00     0.003 A 
ATOM      6  C4  PXY d   1      -4.848   1.598  -3.222  0.00  0.00    -0.082 A 
ATOM      7  C5  PXY d   1      -4.608   2.078  -4.461  0.00  0.00     0.003 A 
ATOM      8  C6  PXY d   1      -3.663   3.086  -4.626  0.00  0.00     0.003 A 
ENDROOT
TORSDOF 0
ENDMDL
