MODEL 1
REMARK minimizedAffinity 16.6461792
REMARK minimizedRMSD -1
REMARK  0 active torsions:
REMARK  status: ('A' for Active; 'I' for Inactive)
ROOT
ATOM      1  C4' PXY d   1       0.771   3.811  -1.335  0.00  0.00     0.077 C 
ATOM      2  C1' PXY d   1      -2.505   1.869   3.014  0.00  0.00     0.077 C 
ATOM      3  C1  PXY d   1      -1.635   2.376   1.880  0.00  0.00    -0.082 A 
ATOM      4  C2  PXY d   1      -2.127   3.252   1.019  0.00  0.00     0.003 A 
ATOM      5  C3  PXY d   1      -1.365   3.696  -0.031  0.00  0.00     0.003 A 
ATOM      6  C4  PXY d   1      -0.068   3.280  -0.169  0.00  0.00    -0.082 A 
ATOM      7  C5  PXY d   1       0.445   2.394   0.711  0.00  0.00     0.003 A 
ATOM      8  C6  PXY d   1      -0.358   1.924   1.746  0.00  0.00     0.003 A 
ENDROOT
TORSDOF 0
ENDMDL
