MODEL 1
REMARK minimizedAffinity -4.00054073
REMARK minimizedRMSD -1
REMARK  0 active torsions:
REMARK  status: ('A' for Active; 'I' for Inactive)
ROOT
ATOM      1  C   UNL d   1       1.908  -2.130   1.869  0.00  0.00     0.077 C 
ATOM      2  C1  UNL d   1       0.829  -1.122   1.603  0.00  0.00    -0.074 A 
ATOM      3  C2  UNL d   1       0.009  -0.657   2.636  0.00  0.00    -0.005 A 
ATOM      4  C3  UNL d   1      -0.983   0.288   2.375  0.00  0.00     0.006 A 
ATOM      5  C4  UNL d   1      -1.165   0.776   1.080  0.00  0.00    -0.005 A 
ATOM      6  C5  UNL d   1      -0.354   0.324   0.035  0.00  0.00    -0.074 A 
ATOM      7  C6  UNL d   1      -0.530   0.846  -1.360  0.00  0.00     0.077 C 
ATOM      8  C7  UNL d   1       0.645  -0.620   0.306  0.00  0.00    -0.001 A 
ENDROOT
TORSDOF 0
ENDMDL
