MODEL 1
REMARK minimizedAffinity -3.97609019
REMARK minimizedRMSD -1
REMARK  0 active torsions:
REMARK  status: ('A' for Active; 'I' for Inactive)
ROOT
ATOM      1  C   UNL d   1       2.594  -2.073  -0.010  0.00  0.00     0.077 C 
ATOM      2  C1  UNL d   1       1.496  -1.155   0.440  0.00  0.00    -0.074 A 
ATOM      3  C2  UNL d   1       1.110  -1.100   1.783  0.00  0.00    -0.005 A 
ATOM      4  C3  UNL d   1       0.094  -0.235   2.188  0.00  0.00     0.006 A 
ATOM      5  C4  UNL d   1      -0.545   0.583   1.256  0.00  0.00    -0.005 A 
ATOM      6  C5  UNL d   1      -0.172   0.543  -0.091  0.00  0.00    -0.074 A 
ATOM      7  C6  UNL d   1      -0.842   1.422  -1.105  0.00  0.00     0.077 C 
ATOM      8  C7  UNL d   1       0.854  -0.325  -0.489  0.00  0.00    -0.001 A 
ENDROOT
TORSDOF 0
ENDMDL
