MODEL 1
REMARK minimizedAffinity -3.87479138
REMARK minimizedRMSD -1
REMARK  0 active torsions:
REMARK  status: ('A' for Active; 'I' for Inactive)
ROOT
ATOM      1  C   UNL d   1      -0.796   0.353   2.041  0.00  0.00     0.077 C 
ATOM      2  C1  UNL d   1      -0.688   0.478   0.550  0.00  0.00    -0.074 A 
ATOM      3  C2  UNL d   1      -0.272  -0.604  -0.233  0.00  0.00    -0.005 A 
ATOM      4  C3  UNL d   1      -0.186  -0.476  -1.619  0.00  0.00     0.006 A 
ATOM      5  C4  UNL d   1      -0.514   0.732  -2.235  0.00  0.00    -0.005 A 
ATOM      6  C5  UNL d   1      -0.933   1.824  -1.468  0.00  0.00    -0.074 A 
ATOM      7  C6  UNL d   1      -1.300   3.127  -2.116  0.00  0.00     0.077 C 
ATOM      8  C7  UNL d   1      -1.024   1.686  -0.077  0.00  0.00    -0.001 A 
ENDROOT
TORSDOF 0
ENDMDL
