MODEL 1
REMARK minimizedAffinity -1.94957042
REMARK minimizedRMSD -1
REMARK  0 active torsions:
REMARK  status: ('A' for Active; 'I' for Inactive)
ROOT
ATOM      1  C   UNL d   1       2.431  -2.111   0.121  0.00  0.00     0.077 C 
ATOM      2  C1  UNL d   1       1.250  -1.187   0.092  0.00  0.00    -0.074 A 
ATOM      3  C2  UNL d   1       0.450  -1.006   1.225  0.00  0.00    -0.005 A 
ATOM      4  C3  UNL d   1      -0.640  -0.137   1.185  0.00  0.00     0.006 A 
ATOM      5  C4  UNL d   1      -0.941   0.560   0.014  0.00  0.00    -0.005 A 
ATOM      6  C5  UNL d   1      -0.152   0.392  -1.129  0.00  0.00    -0.074 A 
ATOM      7  C6  UNL d   1      -0.456   1.141  -2.392  0.00  0.00     0.077 C 
ATOM      8  C7  UNL d   1       0.945  -0.478  -1.079  0.00  0.00    -0.001 A 
ENDROOT
TORSDOF 0
ENDMDL
