MODEL 1
REMARK minimizedAffinity -3.90869117
REMARK minimizedRMSD -1
REMARK  0 active torsions:
REMARK  status: ('A' for Active; 'I' for Inactive)
ROOT
ATOM      1  C   UNL d   1       1.914  -2.707   1.058  0.00  0.00     0.077 C 
ATOM      2  C1  UNL d   1       0.901  -1.602   1.099  0.00  0.00    -0.074 A 
ATOM      3  C2  UNL d   1       0.235  -1.281   2.287  0.00  0.00    -0.005 A 
ATOM      4  C3  UNL d   1      -0.698  -0.244   2.312  0.00  0.00     0.006 A 
ATOM      5  C4  UNL d   1      -0.973   0.482   1.152  0.00  0.00    -0.005 A 
ATOM      6  C5  UNL d   1      -0.316   0.176  -0.044  0.00  0.00    -0.074 A 
ATOM      7  C6  UNL d   1      -0.593   0.953  -1.297  0.00  0.00     0.077 C 
ATOM      8  C7  UNL d   1       0.625  -0.863  -0.060  0.00  0.00    -0.001 A 
ENDROOT
TORSDOF 0
ENDMDL
