MODEL 1
REMARK minimizedAffinity -2.5500288
REMARK minimizedRMSD -1
REMARK  0 active torsions:
REMARK  status: ('A' for Active; 'I' for Inactive)
ROOT
ATOM      1  C   UNL d   1      -1.039   1.933  -1.235  0.00  0.00     0.077 C 
ATOM      2  C1  UNL d   1      -0.291   0.762  -0.671  0.00  0.00    -0.074 A 
ATOM      3  C2  UNL d   1       0.678   0.096  -1.428  0.00  0.00    -0.005 A 
ATOM      4  C3  UNL d   1       1.373  -0.986  -0.887  0.00  0.00     0.006 A 
ATOM      5  C4  UNL d   1       1.106  -1.411   0.415  0.00  0.00    -0.005 A 
ATOM      6  C5  UNL d   1       0.142  -0.757   1.188  0.00  0.00    -0.074 A 
ATOM      7  C6  UNL d   1      -0.150  -1.195   2.592  0.00  0.00     0.077 C 
ATOM      8  C7  UNL d   1      -0.547   0.334   0.639  0.00  0.00    -0.001 A 
ENDROOT
TORSDOF 0
ENDMDL
