MODEL 1
REMARK minimizedAffinity -3.82634974
REMARK minimizedRMSD -1
REMARK  0 active torsions:
REMARK  status: ('A' for Active; 'I' for Inactive)
ROOT
ATOM      1  C   UNL d   1       1.206  -0.506   0.827  0.00  0.00     0.124 A 
ATOM      2  C1  UNL d   1       0.672   0.771   0.932  0.00  0.00     0.062 A 
ATOM      3  C2  UNL d   1      -0.111   1.289  -0.095  0.00  0.00     0.162 A 
ATOM      4  C3  UNL d   1      -0.367   0.530  -1.237  0.00  0.00    -0.034 A 
ATOM      5  C4  UNL d   1       0.174  -0.753  -1.336  0.00  0.00     0.162 A 
ATOM      6  C5  UNL d   1       0.956  -1.266  -0.307  0.00  0.00     0.062 A 
ATOM      7  F   UNL d   1       1.471  -2.500  -0.411  0.00  0.00    -0.097 F 
ATOM      8  F1  UNL d   1      -0.052  -1.510  -2.420  0.00  0.00    -0.096 F 
ATOM      9  I   UNL d   1      -1.538   1.302  -2.775  0.00  0.00    -0.060 I 
ATOM     10  F2  UNL d   1      -0.614   2.526   0.034  0.00  0.00    -0.096 F 
ATOM     11  F3  UNL d   1       0.912   1.508   2.026  0.00  0.00    -0.097 F 
ATOM     12  F4  UNL d   1       1.960  -1.002   1.816  0.00  0.00    -0.092 F 
ENDROOT
TORSDOF 0
ENDMDL
