MODEL 1
REMARK minimizedAffinity 1.3711977
REMARK minimizedRMSD -1
REMARK  0 active torsions:
REMARK  status: ('A' for Active; 'I' for Inactive)
ROOT
ATOM      1  C   UNL d   1       0.651  -0.998   1.091  0.00  0.00     0.124 A 
ATOM      2  C1  UNL d   1      -0.336  -0.125   1.528  0.00  0.00     0.062 A 
ATOM      3  C2  UNL d   1      -1.011   0.682   0.617  0.00  0.00     0.162 A 
ATOM      4  C3  UNL d   1      -0.701   0.620  -0.742  0.00  0.00    -0.034 A 
ATOM      5  C4  UNL d   1       0.293  -0.259  -1.174  0.00  0.00     0.162 A 
ATOM      6  C5  UNL d   1       0.965  -1.064  -0.259  0.00  0.00     0.062 A 
ATOM      7  F   UNL d   1       1.918  -1.906  -0.684  0.00  0.00    -0.097 F 
ATOM      8  F1  UNL d   1       0.616  -0.344  -2.473  0.00  0.00    -0.096 F 
ATOM      9  I   UNL d   1      -1.707   1.826  -2.107  0.00  0.00    -0.060 I 
ATOM     10  F2  UNL d   1      -1.960   1.516   1.068  0.00  0.00    -0.096 F 
ATOM     11  F3  UNL d   1      -0.641  -0.059   2.832  0.00  0.00    -0.097 F 
ATOM     12  F4  UNL d   1       1.299  -1.773   1.970  0.00  0.00    -0.092 F 
ENDROOT
TORSDOF 0
ENDMDL
