MODEL 1
REMARK minimizedAffinity -3.32504511
REMARK minimizedRMSD -1
REMARK  0 active torsions:
REMARK  status: ('A' for Active; 'I' for Inactive)
ROOT
ATOM      1  C   UNL d   1       1.212  -1.708   1.624  0.00  0.00     0.124 A 
ATOM      2  C1  UNL d   1       1.738  -1.477   0.360  0.00  0.00     0.062 A 
ATOM      3  C2  UNL d   1       1.026  -0.721  -0.567  0.00  0.00     0.162 A 
ATOM      4  C3  UNL d   1      -0.219  -0.188  -0.232  0.00  0.00    -0.034 A 
ATOM      5  C4  UNL d   1      -0.741  -0.425   1.040  0.00  0.00     0.162 A 
ATOM      6  C5  UNL d   1      -0.026  -1.182   1.963  0.00  0.00     0.062 A 
ATOM      7  F   UNL d   1      -0.536  -1.404   3.183  0.00  0.00    -0.097 F 
ATOM      8  F1  UNL d   1      -1.936   0.072   1.394  0.00  0.00    -0.096 F 
ATOM      9  I   UNL d   1      -1.286   0.944  -1.615  0.00  0.00    -0.060 I 
ATOM     10  F2  UNL d   1       1.558  -0.513  -1.780  0.00  0.00    -0.096 F 
ATOM     11  F3  UNL d   1       2.934  -1.985   0.030  0.00  0.00    -0.097 F 
ATOM     12  F4  UNL d   1       1.899  -2.437   2.513  0.00  0.00    -0.092 F 
ENDROOT
TORSDOF 0
ENDMDL
