MODEL 1
REMARK minimizedAffinity 0.446987867
REMARK minimizedRMSD -1
REMARK  0 active torsions:
REMARK  status: ('A' for Active; 'I' for Inactive)
ROOT
ATOM      1  C   UNL d   1      -0.708   0.314  -0.901  0.00  0.00     0.124 A 
ATOM      2  C1  UNL d   1      -1.450   0.082   0.249  0.00  0.00     0.062 A 
ATOM      3  C2  UNL d   1      -0.840  -0.454   1.379  0.00  0.00     0.162 A 
ATOM      4  C3  UNL d   1       0.521  -0.761   1.366  0.00  0.00    -0.034 A 
ATOM      5  C4  UNL d   1       1.260  -0.526   0.205  0.00  0.00     0.162 A 
ATOM      6  C5  UNL d   1       0.646   0.010  -0.922  0.00  0.00     0.062 A 
ATOM      7  F   UNL d   1       1.364   0.233  -2.032  0.00  0.00    -0.097 F 
ATOM      8  F1  UNL d   1       2.570  -0.810   0.158  0.00  0.00    -0.096 F 
ATOM      9  I   UNL d   1       1.437  -1.563   3.054  0.00  0.00    -0.060 I 
ATOM     10  F2  UNL d   1      -1.581  -0.668   2.477  0.00  0.00    -0.096 F 
ATOM     11  F3  UNL d   1      -2.758   0.374   0.271  0.00  0.00    -0.097 F 
ATOM     12  F4  UNL d   1      -1.298   0.829  -1.988  0.00  0.00    -0.092 F 
ENDROOT
TORSDOF 0
ENDMDL
