MODEL 1
REMARK minimizedAffinity -1.63486814
REMARK minimizedRMSD -1
REMARK  0 active torsions:
REMARK  status: ('A' for Active; 'I' for Inactive)
ROOT
ATOM      1  C   UNL d   1       0.723  -1.176   0.969  0.00  0.00     0.124 A 
ATOM      2  C1  UNL d   1      -0.219  -0.218   1.320  0.00  0.00     0.062 A 
ATOM      3  C2  UNL d   1      -0.799   0.585   0.342  0.00  0.00     0.162 A 
ATOM      4  C3  UNL d   1      -0.439   0.433  -0.997  0.00  0.00    -0.034 A 
ATOM      5  C4  UNL d   1       0.509  -0.531  -1.343  0.00  0.00     0.162 A 
ATOM      6  C5  UNL d   1       1.086  -1.331  -0.362  0.00  0.00     0.062 A 
ATOM      7  F   UNL d   1       1.996  -2.256  -0.703  0.00  0.00    -0.097 F 
ATOM      8  F1  UNL d   1       0.878  -0.703  -2.621  0.00  0.00    -0.096 F 
ATOM      9  I   UNL d   1      -1.304   1.632  -2.462  0.00  0.00    -0.060 I 
ATOM     10  F2  UNL d   1      -1.706   1.502   0.710  0.00  0.00    -0.096 F 
ATOM     11  F3  UNL d   1      -0.571  -0.066   2.604  0.00  0.00    -0.097 F 
ATOM     12  F4  UNL d   1       1.280  -1.946   1.912  0.00  0.00    -0.092 F 
ENDROOT
TORSDOF 0
ENDMDL
