MODEL 1
REMARK minimizedAffinity -0.0988292694
REMARK minimizedRMSD -1
REMARK  0 active torsions:
REMARK  status: ('A' for Active; 'I' for Inactive)
ROOT
ATOM      1  C   UNL d   1      -0.974  -0.081   1.201  0.00  0.00     0.124 A 
ATOM      2  C1  UNL d   1      -0.174  -0.657   2.179  0.00  0.00     0.062 A 
ATOM      3  C2  UNL d   1       1.020  -1.281   1.828  0.00  0.00     0.162 A 
ATOM      4  C3  UNL d   1       1.422  -1.332   0.494  0.00  0.00    -0.034 A 
ATOM      5  C4  UNL d   1       0.612  -0.752  -0.484  0.00  0.00     0.162 A 
ATOM      6  C5  UNL d   1      -0.580  -0.129  -0.129  0.00  0.00     0.062 A 
ATOM      7  F   UNL d   1      -1.352   0.426  -1.075  0.00  0.00    -0.097 F 
ATOM      8  F1  UNL d   1       0.969  -0.782  -1.777  0.00  0.00    -0.096 F 
ATOM      9  I   UNL d   1       3.207  -2.264  -0.034  0.00  0.00    -0.060 I 
ATOM     10  F2  UNL d   1       1.773  -1.828   2.794  0.00  0.00    -0.096 F 
ATOM     11  F3  UNL d   1      -0.552  -0.613   3.464  0.00  0.00    -0.097 F 
ATOM     12  F4  UNL d   1      -2.122   0.518   1.541  0.00  0.00    -0.092 F 
ENDROOT
TORSDOF 0
ENDMDL
