MODEL 1
REMARK minimizedAffinity 4.38258171
REMARK minimizedRMSD -1
REMARK  1 active torsions:
REMARK  status: ('A' for Active; 'I' for Inactive)
REMARK    1  A    between atoms: C1_2  and  C2_3 
ROOT
ATOM      1  C2  UNL d   1       3.446   0.578  -0.004  0.00  0.00    -0.081 A 
ATOM      2  C3  UNL d   1       3.971  -0.661  -0.390  0.00  0.00     0.006 A 
ATOM      3  C4  UNL d   1       3.132  -1.766  -0.556  0.00  0.00     0.002 A 
ATOM      4  C5  UNL d   1       1.754  -1.648  -0.346  0.00  0.00    -0.080 A 
ATOM      5  C6  UNL d   1       0.838  -2.818  -0.551  0.00  0.00     0.076 C 
ATOM      6  C7  UNL d   1       1.231  -0.414   0.056  0.00  0.00     0.002 A 
ATOM      7  C8  UNL d   1       2.070   0.690   0.223  0.00  0.00     0.006 A 
ENDROOT
BRANCH   1   8
ATOM      8  C1  UNL d   1       4.339   1.786   0.113  0.00  0.00     0.054 C 
ATOM      9  C   UNL d   1       5.464   1.744  -0.912  0.00  0.00     0.018 C 
ENDBRANCH   1   8
TORSDOF 1
ENDMDL
