MODEL 1
REMARK minimizedAffinity 3.53121853
REMARK minimizedRMSD -1
REMARK  1 active torsions:
REMARK  status: ('A' for Active; 'I' for Inactive)
REMARK    1  A    between atoms: C1_2  and  C2_3 
ROOT
ATOM      1  C2  UNL d   1       2.969  -0.278   0.296  0.00  0.00    -0.081 A 
ATOM      2  C3  UNL d   1       1.923   0.433   0.898  0.00  0.00     0.006 A 
ATOM      3  C4  UNL d   1       1.899   1.829   0.854  0.00  0.00     0.002 A 
ATOM      4  C5  UNL d   1       2.914   2.537   0.201  0.00  0.00    -0.080 A 
ATOM      5  C6  UNL d   1       2.883   4.034   0.119  0.00  0.00     0.076 C 
ATOM      6  C7  UNL d   1       3.967   1.827  -0.385  0.00  0.00     0.002 A 
ATOM      7  C8  UNL d   1       3.993   0.431  -0.341  0.00  0.00     0.006 A 
ENDROOT
BRANCH   1   8
ATOM      8  C1  UNL d   1       2.964  -1.785   0.287  0.00  0.00     0.054 C 
ATOM      9  C   UNL d   1       2.532  -2.329  -1.068  0.00  0.00     0.018 C 
ENDBRANCH   1   8
TORSDOF 1
ENDMDL
