MODEL 1
REMARK minimizedAffinity 20.0825233
REMARK minimizedRMSD -1
REMARK  0 active torsions:
REMARK  status: ('A' for Active; 'I' for Inactive)
ROOT
ATOM      1  O1  BZF d   1       1.090   2.883  -0.171  0.00  0.00    -0.204 OA
ATOM      2  C2  BZF d   1       0.016   2.246   0.420  0.00  0.00     0.174 A 
ATOM      3  C3  BZF d   1      -1.093   2.379  -0.335  0.00  0.00    -0.012 A 
ATOM      4  C3A BZF d   1      -0.666   3.067  -1.514  0.00  0.00    -0.107 A 
ATOM      5  C4  BZF d   1      -1.308   3.477  -2.647  0.00  0.00     0.055 A 
ATOM      6  C5  BZF d   1      -0.619   4.189  -3.577  0.00  0.00    -0.016 A 
ATOM      7  C6  BZF d   1       0.711   4.514  -3.404  0.00  0.00     0.022 A 
ATOM      8  C7  BZF d   1       1.392   4.125  -2.299  0.00  0.00     0.029 A 
ATOM      9  C7A BZF d   1       0.707   3.377  -1.373  0.00  0.00     0.058 A 
ENDROOT
TORSDOF 0
ENDMDL
