MODEL 1
REMARK minimizedAffinity 12.1464844
REMARK minimizedRMSD -1
REMARK  0 active torsions:
REMARK  status: ('A' for Active; 'I' for Inactive)
ROOT
ATOM      1  O1  BZF d   1      -5.557   5.545  -1.999  0.00  0.00    -0.204 OA
ATOM      2  C2  BZF d   1      -4.668   5.265  -3.018  0.00  0.00     0.174 A 
ATOM      3  C3  BZF d   1      -3.401   5.246  -2.555  0.00  0.00    -0.012 A 
ATOM      4  C3A BZF d   1      -3.514   5.440  -1.142  0.00  0.00    -0.107 A 
ATOM      5  C4  BZF d   1      -2.602   5.502  -0.127  0.00  0.00     0.055 A 
ATOM      6  C5  BZF d   1      -3.033   5.776   1.132  0.00  0.00    -0.016 A 
ATOM      7  C6  BZF d   1      -4.365   6.000   1.411  0.00  0.00     0.022 A 
ATOM      8  C7  BZF d   1      -5.307   5.944   0.438  0.00  0.00     0.029 A 
ATOM      9  C7A BZF d   1      -4.879   5.634  -0.830  0.00  0.00     0.058 A 
ENDROOT
TORSDOF 0
ENDMDL
