MODEL 1
REMARK minimizedAffinity 14.2404604
REMARK minimizedRMSD -1
REMARK  0 active torsions:
REMARK  status: ('A' for Active; 'I' for Inactive)
ROOT
ATOM      1  O1  BZF d   1      -2.541  -3.641   3.674  0.00  0.00    -0.204 OA
ATOM      2  C2  BZF d   1      -1.857  -2.576   4.228  0.00  0.00     0.174 A 
ATOM      3  C3  BZF d   1      -2.615  -1.950   5.152  0.00  0.00    -0.012 A 
ATOM      4  C3A BZF d   1      -3.814  -2.725   5.243  0.00  0.00    -0.107 A 
ATOM      5  C4  BZF d   1      -4.946  -2.618   6.000  0.00  0.00     0.055 A 
ATOM      6  C5  BZF d   1      -5.963  -3.496   5.795  0.00  0.00    -0.016 A 
ATOM      7  C6  BZF d   1      -5.884  -4.487   4.839  0.00  0.00     0.022 A 
ATOM      8  C7  BZF d   1      -4.780  -4.636   4.068  0.00  0.00     0.029 A 
ATOM      9  C7A BZF d   1      -3.738  -3.771   4.295  0.00  0.00     0.058 A 
ENDROOT
TORSDOF 0
ENDMDL
