MODEL 1
REMARK minimizedAffinity 21.1319351
REMARK minimizedRMSD -1
REMARK  0 active torsions:
REMARK  status: ('A' for Active; 'I' for Inactive)
ROOT
ATOM      1  O1  BZF d   1      -2.411  -4.010   3.973  0.00  0.00    -0.204 OA
ATOM      2  C2  BZF d   1      -1.784  -2.894   4.493  0.00  0.00     0.174 A 
ATOM      3  C3  BZF d   1      -2.620  -2.206   5.296  0.00  0.00    -0.012 A 
ATOM      4  C3A BZF d   1      -3.818  -2.987   5.350  0.00  0.00    -0.107 A 
ATOM      5  C4  BZF d   1      -5.009  -2.834   6.000  0.00  0.00     0.055 A 
ATOM      6  C5  BZF d   1      -6.000  -3.739   5.783  0.00  0.00    -0.016 A 
ATOM      7  C6  BZF d   1      -5.835  -4.804   4.922  0.00  0.00     0.022 A 
ATOM      8  C7  BZF d   1      -4.669  -5.000   4.259  0.00  0.00     0.029 A 
ATOM      9  C7A BZF d   1      -3.655  -4.105   4.501  0.00  0.00     0.058 A 
ENDROOT
TORSDOF 0
ENDMDL
