MODEL 1
REMARK minimizedAffinity 21.9354916
REMARK minimizedRMSD -1
REMARK  0 active torsions:
REMARK  status: ('A' for Active; 'I' for Inactive)
ROOT
ATOM      1  O1  BZF d   1      -1.332   4.370  -3.170  0.00  0.00    -0.204 OA
ATOM      2  C2  BZF d   1      -0.419   3.385  -3.495  0.00  0.00     0.174 A 
ATOM      3  C3  BZF d   1      -1.046   2.226  -3.782  0.00  0.00    -0.012 A 
ATOM      4  C3A BZF d   1      -2.443   2.529  -3.717  0.00  0.00    -0.107 A 
ATOM      5  C4  BZF d   1      -3.574   1.791  -3.920  0.00  0.00     0.055 A 
ATOM      6  C5  BZF d   1      -4.786   2.366  -3.705  0.00  0.00    -0.016 A 
ATOM      7  C6  BZF d   1      -4.904   3.674  -3.283  0.00  0.00     0.022 A 
ATOM      8  C7  BZF d   1      -3.811   4.448  -3.073  0.00  0.00     0.029 A 
ATOM      9  C7A BZF d   1      -2.586   3.879  -3.321  0.00  0.00     0.058 A 
ENDROOT
TORSDOF 0
ENDMDL
