MODEL 1
REMARK minimizedAffinity 19.6325512
REMARK minimizedRMSD -1
REMARK  0 active torsions:
REMARK  status: ('A' for Active; 'I' for Inactive)
ROOT
ATOM      1  O1  BZF d   1      -0.685  -4.419   3.862  0.00  0.00    -0.204 OA
ATOM      2  C2  BZF d   1       0.260  -4.252   4.855  0.00  0.00     0.174 A 
ATOM      3  C3  BZF d   1      -0.181  -3.392   5.796  0.00  0.00    -0.012 A 
ATOM      4  C3A BZF d   1      -1.520  -3.068   5.410  0.00  0.00    -0.107 A 
ATOM      5  C4  BZF d   1      -2.488  -2.272   5.955  0.00  0.00     0.055 A 
ATOM      6  C5  BZF d   1      -3.663  -2.113   5.292  0.00  0.00    -0.016 A 
ATOM      7  C6  BZF d   1      -3.903  -2.730   4.081  0.00  0.00     0.022 A 
ATOM      8  C7  BZF d   1      -2.975  -3.532   3.504  0.00  0.00     0.029 A 
ATOM      9  C7A BZF d   1      -1.799  -3.721   4.188  0.00  0.00     0.058 A 
ENDROOT
TORSDOF 0
ENDMDL
