MODEL 1
REMARK minimizedAffinity 19.6411304
REMARK minimizedRMSD -1
REMARK  0 active torsions:
REMARK  status: ('A' for Active; 'I' for Inactive)
ROOT
ATOM      1  O1  BZF d   1      -5.995   5.953   1.982  0.00  0.00    -0.204 OA
ATOM      2  C2  BZF d   1      -5.189   5.995   3.103  0.00  0.00     0.174 A 
ATOM      3  C3  BZF d   1      -3.886   5.956   2.758  0.00  0.00    -0.012 A 
ATOM      4  C3A BZF d   1      -3.875   5.978   1.327  0.00  0.00    -0.107 A 
ATOM      5  C4  BZF d   1      -2.876   5.972   0.396  0.00  0.00     0.055 A 
ATOM      6  C5  BZF d   1      -3.203   5.925  -0.922  0.00  0.00    -0.016 A 
ATOM      7  C6  BZF d   1      -4.515   5.876  -1.344  0.00  0.00     0.022 A 
ATOM      8  C7  BZF d   1      -5.541   5.884  -0.457  0.00  0.00     0.029 A 
ATOM      9  C7A BZF d   1      -5.215   5.966   0.875  0.00  0.00     0.058 A 
ENDROOT
TORSDOF 0
ENDMDL
