MODEL 1
REMARK minimizedAffinity 17.7630863
REMARK minimizedRMSD -1
REMARK  0 active torsions:
REMARK  status: ('A' for Active; 'I' for Inactive)
ROOT
ATOM      1  O1  BZF d   1       0.983   2.837   0.026  0.00  0.00    -0.204 OA
ATOM      2  C2  BZF d   1      -0.031   2.054   0.544  0.00  0.00     0.174 A 
ATOM      3  C3  BZF d   1      -1.104   2.060  -0.273  0.00  0.00    -0.012 A 
ATOM      4  C3A BZF d   1      -0.703   2.823  -1.415  0.00  0.00    -0.107 A 
ATOM      5  C4  BZF d   1      -1.329   3.172  -2.577  0.00  0.00     0.055 A 
ATOM      6  C5  BZF d   1      -0.687   3.987  -3.455  0.00  0.00    -0.016 A 
ATOM      7  C6  BZF d   1       0.578   4.476  -3.199  0.00  0.00     0.022 A 
ATOM      8  C7  BZF d   1       1.241   4.154  -2.062  0.00  0.00     0.029 A 
ATOM      9  C7A BZF d   1       0.607   3.303  -1.188  0.00  0.00     0.058 A 
ENDROOT
TORSDOF 0
ENDMDL
