MODEL 1
REMARK minimizedAffinity 10.3443642
REMARK minimizedRMSD -1
REMARK  0 active torsions:
REMARK  status: ('A' for Active; 'I' for Inactive)
ROOT
ATOM      1  O1  BZF d   1       0.764   3.468   0.792  0.00  0.00    -0.204 OA
ATOM      2  C2  BZF d   1      -0.087   2.505   1.296  0.00  0.00     0.174 A 
ATOM      3  C3  BZF d   1      -1.072   2.228   0.417  0.00  0.00    -0.012 A 
ATOM      4  C3A BZF d   1      -0.766   3.005  -0.745  0.00  0.00    -0.107 A 
ATOM      5  C4  BZF d   1      -1.366   3.146  -1.964  0.00  0.00     0.055 A 
ATOM      6  C5  BZF d   1      -0.856   4.041  -2.851  0.00  0.00    -0.016 A 
ATOM      7  C6  BZF d   1       0.247   4.813  -2.551  0.00  0.00     0.022 A 
ATOM      8  C7  BZF d   1       0.878   4.705  -1.357  0.00  0.00     0.029 A 
ATOM      9  C7A BZF d   1       0.385   3.778  -0.471  0.00  0.00     0.058 A 
ENDROOT
TORSDOF 0
ENDMDL
