MODEL 1
REMARK minimizedAffinity 5.76341152
REMARK minimizedRMSD -1
REMARK  0 active torsions:
REMARK  status: ('A' for Active; 'I' for Inactive)
ROOT
ATOM      1  O1  BZF d   1       0.363   3.013  -0.010  0.00  0.00    -0.204 OA
ATOM      2  C2  BZF d   1       0.193   4.262  -0.575  0.00  0.00     0.174 A 
ATOM      3  C3  BZF d   1      -1.025   4.759  -0.280  0.00  0.00    -0.012 A 
ATOM      4  C3A BZF d   1      -1.621   3.799   0.598  0.00  0.00    -0.107 A 
ATOM      5  C4  BZF d   1      -2.822   3.737   1.245  0.00  0.00     0.055 A 
ATOM      6  C5  BZF d   1      -3.126   2.627   1.968  0.00  0.00    -0.016 A 
ATOM      7  C6  BZF d   1      -2.256   1.560   2.061  0.00  0.00     0.022 A 
ATOM      8  C7  BZF d   1      -1.051   1.578   1.441  0.00  0.00     0.029 A 
ATOM      9  C7A BZF d   1      -0.727   2.712   0.736  0.00  0.00     0.058 A 
ENDROOT
TORSDOF 0
ENDMDL
