MODEL 1
REMARK minimizedAffinity 7.38284445
REMARK minimizedRMSD -1
REMARK  0 active torsions:
REMARK  status: ('A' for Active; 'I' for Inactive)
ROOT
ATOM      1  O1  BZF d   1      -1.828   2.328  -2.287  0.00  0.00    -0.204 OA
ATOM      2  C2  BZF d   1      -1.891   3.021  -3.480  0.00  0.00     0.174 A 
ATOM      3  C3  BZF d   1      -1.257   4.207  -3.379  0.00  0.00    -0.012 A 
ATOM      4  C3A BZF d   1      -0.687   4.218  -2.066  0.00  0.00    -0.107 A 
ATOM      5  C4  BZF d   1       0.075   5.121  -1.381  0.00  0.00     0.055 A 
ATOM      6  C5  BZF d   1       0.405   4.860  -0.089  0.00  0.00    -0.016 A 
ATOM      7  C6  BZF d   1      -0.013   3.711   0.550  0.00  0.00     0.022 A 
ATOM      8  C7  BZF d   1      -0.767   2.784  -0.090  0.00  0.00     0.029 A 
ATOM      9  C7A BZF d   1      -1.074   3.029  -1.406  0.00  0.00     0.058 A 
ENDROOT
TORSDOF 0
ENDMDL
