MODEL 1
REMARK minimizedAffinity 4.96964598
REMARK minimizedRMSD -1
REMARK  0 active torsions:
REMARK  status: ('A' for Active; 'I' for Inactive)
ROOT
ATOM      1  O1  BZF d   1       0.699   3.655   0.117  0.00  0.00    -0.204 OA
ATOM      2  C2  BZF d   1       0.121   4.895  -0.073  0.00  0.00     0.174 A 
ATOM      3  C3  BZF d   1      -0.805   4.846  -1.052  0.00  0.00    -0.012 A 
ATOM      4  C3A BZF d   1      -0.871   3.470  -1.439  0.00  0.00    -0.107 A 
ATOM      5  C4  BZF d   1      -1.618   2.788  -2.356  0.00  0.00     0.055 A 
ATOM      6  C5  BZF d   1      -1.388   1.461  -2.539  0.00  0.00    -0.016 A 
ATOM      7  C6  BZF d   1      -0.417   0.787  -1.828  0.00  0.00     0.022 A 
ATOM      8  C7  BZF d   1       0.345   1.420  -0.904  0.00  0.00     0.029 A 
ATOM      9  C7A BZF d   1       0.093   2.754  -0.693  0.00  0.00     0.058 A 
ENDROOT
TORSDOF 0
ENDMDL
