MODEL 1
REMARK minimizedAffinity 2.49316049
REMARK minimizedRMSD -1
REMARK  0 active torsions:
REMARK  status: ('A' for Active; 'I' for Inactive)
ROOT
ATOM      1  O1  BZF d   1       1.296   4.113   2.444  0.00  0.00    -0.204 OA
ATOM      2  C2  BZF d   1       1.867   5.371   2.473  0.00  0.00     0.174 A 
ATOM      3  C3  BZF d   1       1.699   6.000   1.291  0.00  0.00    -0.012 A 
ATOM      4  C3A BZF d   1       0.898   5.114   0.504  0.00  0.00    -0.107 A 
ATOM      5  C4  BZF d   1       0.384   5.185  -0.760  0.00  0.00     0.055 A 
ATOM      6  C5  BZF d   1      -0.294   4.118  -1.258  0.00  0.00    -0.016 A 
ATOM      7  C6  BZF d   1      -0.472   2.964  -0.524  0.00  0.00     0.022 A 
ATOM      8  C7  BZF d   1       0.016   2.848   0.735  0.00  0.00     0.029 A 
ATOM      9  C7A BZF d   1       0.673   3.936   1.254  0.00  0.00     0.058 A 
ENDROOT
TORSDOF 0
ENDMDL
