MODEL 1
REMARK minimizedAffinity 4.97455883
REMARK minimizedRMSD -1
REMARK  0 active torsions:
REMARK  status: ('A' for Active; 'I' for Inactive)
ROOT
ATOM      1  O1  BZF d   1       0.826   3.959   0.999  0.00  0.00    -0.204 OA
ATOM      2  C2  BZF d   1       0.523   3.816  -0.342  0.00  0.00     0.174 A 
ATOM      3  C3  BZF d   1      -0.184   2.688  -0.555  0.00  0.00    -0.012 A 
ATOM      4  C3A BZF d   1      -0.411   2.135   0.745  0.00  0.00    -0.107 A 
ATOM      5  C4  BZF d   1      -1.069   1.024   1.191  0.00  0.00     0.055 A 
ATOM      6  C5  BZF d   1      -1.043   0.729   2.517  0.00  0.00    -0.016 A 
ATOM      7  C6  BZF d   1      -0.366   1.519   3.424  0.00  0.00     0.022 A 
ATOM      8  C7  BZF d   1       0.296   2.634   3.029  0.00  0.00     0.029 A 
ATOM      9  C7A BZF d   1       0.244   2.952   1.694  0.00  0.00     0.058 A 
ENDROOT
TORSDOF 0
ENDMDL
