MODEL 1
REMARK minimizedAffinity 6.06511831
REMARK minimizedRMSD -1
REMARK  0 active torsions:
REMARK  status: ('A' for Active; 'I' for Inactive)
ROOT
ATOM      1  O1  BZF d   1      -2.915   0.746  -0.603  0.00  0.00    -0.204 OA
ATOM      2  C2  BZF d   1      -3.362   0.782  -1.910  0.00  0.00     0.174 A 
ATOM      3  C3  BZF d   1      -2.670   1.691  -2.628  0.00  0.00    -0.012 A 
ATOM      4  C3A BZF d   1      -1.671   2.192  -1.736  0.00  0.00    -0.107 A 
ATOM      5  C4  BZF d   1      -0.667   3.109  -1.870  0.00  0.00     0.055 A 
ATOM      6  C5  BZF d   1       0.088   3.426  -0.785  0.00  0.00    -0.016 A 
ATOM      7  C6  BZF d   1      -0.136   2.850   0.448  0.00  0.00     0.022 A 
ATOM      8  C7  BZF d   1      -1.117   1.932   0.630  0.00  0.00     0.029 A 
ATOM      9  C7A BZF d   1      -1.860   1.586  -0.472  0.00  0.00     0.058 A 
ENDROOT
TORSDOF 0
ENDMDL
