MODEL 1
REMARK minimizedAffinity 14.2626143
REMARK minimizedRMSD -1
REMARK  0 active torsions:
REMARK  status: ('A' for Active; 'I' for Inactive)
ROOT
ATOM      1  O1  BZF d   1      -1.746   4.793  -2.363  0.00  0.00    -0.204 OA
ATOM      2  C2  BZF d   1      -1.157   3.748  -3.049  0.00  0.00     0.174 A 
ATOM      3  C3  BZF d   1      -0.032   3.343  -2.426  0.00  0.00    -0.012 A 
ATOM      4  C3A BZF d   1       0.040   4.125  -1.231  0.00  0.00    -0.107 A 
ATOM      5  C4  BZF d   1       0.924   4.171  -0.190  0.00  0.00     0.055 A 
ATOM      6  C5  BZF d   1       0.747   5.100   0.786  0.00  0.00    -0.016 A 
ATOM      7  C6  BZF d   1      -0.297   6.000   0.751  0.00  0.00     0.022 A 
ATOM      8  C7  BZF d   1      -1.202   5.990  -0.258  0.00  0.00     0.029 A 
ATOM      9  C7A BZF d   1      -1.045   5.031  -1.229  0.00  0.00     0.058 A 
ENDROOT
TORSDOF 0
ENDMDL
