MODEL 1
REMARK minimizedAffinity 20.080534
REMARK minimizedRMSD -1
REMARK  0 active torsions:
REMARK  status: ('A' for Active; 'I' for Inactive)
ROOT
ATOM      1  O1  BZF d   1       1.466  -0.962   2.098  0.00  0.00    -0.204 OA
ATOM      2  C2  BZF d   1       2.200  -1.732   1.216  0.00  0.00     0.174 A 
ATOM      3  C3  BZF d   1       1.857  -3.033   1.317  0.00  0.00    -0.012 A 
ATOM      4  C3A BZF d   1       0.781  -3.066   2.260  0.00  0.00    -0.107 A 
ATOM      5  C4  BZF d   1       0.008  -4.071   2.766  0.00  0.00     0.055 A 
ATOM      6  C5  BZF d   1      -0.909  -3.779   3.726  0.00  0.00    -0.016 A 
ATOM      7  C6  BZF d   1      -1.075  -2.497   4.205  0.00  0.00     0.022 A 
ATOM      8  C7  BZF d   1      -0.335  -1.466   3.729  0.00  0.00     0.029 A 
ATOM      9  C7A BZF d   1       0.570  -1.752   2.736  0.00  0.00     0.058 A 
ENDROOT
TORSDOF 0
ENDMDL
