MODEL 1
REMARK minimizedAffinity -4.7103858
REMARK minimizedRMSD -1
REMARK  1 active torsions:
REMARK  status: ('A' for Active; 'I' for Inactive)
REMARK    1  A    between atoms: C3_4  and  O_7 
ROOT
ATOM      1  C   UNL d   1      -0.783   0.884   2.986  0.00  0.00    -0.033 A 
ATOM      2  C1  UNL d   1      -1.777   0.733   2.018  0.00  0.00     0.039 A 
ATOM      3  C2  UNL d   1      -1.442   0.311   0.730  0.00  0.00    -0.080 A 
ATOM      4  C3  UNL d   1      -0.110   0.044   0.424  0.00  0.00     0.150 A 
ATOM      5  C4  UNL d   1       0.885   0.189   1.385  0.00  0.00    -0.007 A 
ATOM      6  C5  UNL d   1       0.548   0.611   2.670  0.00  0.00     0.039 A 
ENDROOT
BRANCH   4   7
ATOM      7  O   UNL d   1       0.266  -0.365  -0.821  0.00  0.00    -0.526 OA
ATOM      8  H5  UNL d   1      -0.523  -0.393  -1.387  0.00  0.00     0.418 HD
ENDBRANCH   4   7
TORSDOF 1
ENDMDL
