MODEL 1
REMARK minimizedAffinity -4.50162935
REMARK minimizedRMSD -1
REMARK  1 active torsions:
REMARK  status: ('A' for Active; 'I' for Inactive)
REMARK    1  A    between atoms: C3_4  and  O_7 
ROOT
ATOM      1  C   UNL d   1      -0.455   0.844   2.713  0.00  0.00    -0.033 A 
ATOM      2  C1  UNL d   1       0.809   0.373   2.350  0.00  0.00     0.039 A 
ATOM      3  C2  UNL d   1       1.056  -0.026   1.035  0.00  0.00    -0.080 A 
ATOM      4  C3  UNL d   1       0.033   0.052   0.094  0.00  0.00     0.150 A 
ATOM      5  C4  UNL d   1      -1.227   0.523   0.447  0.00  0.00    -0.007 A 
ATOM      6  C5  UNL d   1      -1.472   0.920   1.761  0.00  0.00     0.039 A 
ENDROOT
BRANCH   4   7
ATOM      7  O   UNL d   1       0.226  -0.331  -1.201  0.00  0.00    -0.526 OA
ATOM      8  H5  UNL d   1       1.135  -0.661  -1.292  0.00  0.00     0.418 HD
ENDBRANCH   4   7
TORSDOF 1
ENDMDL
