MODEL 1
REMARK minimizedAffinity -4.4481926
REMARK minimizedRMSD -1
REMARK  1 active torsions:
REMARK  status: ('A' for Active; 'I' for Inactive)
REMARK    1  A    between atoms: C3_4  and  O_7 
ROOT
ATOM      1  C   UNL d   1       0.690   0.503   3.169  0.00  0.00    -0.033 A 
ATOM      2  C1  UNL d   1       1.150   0.218   1.882  0.00  0.00     0.039 A 
ATOM      3  C2  UNL d   1       0.268   0.245   0.801  0.00  0.00    -0.080 A 
ATOM      4  C3  UNL d   1      -1.071   0.559   1.019  0.00  0.00     0.150 A 
ATOM      5  C4  UNL d   1      -1.536   0.847   2.298  0.00  0.00    -0.007 A 
ATOM      6  C5  UNL d   1      -0.653   0.818   3.377  0.00  0.00     0.039 A 
ENDROOT
BRANCH   4   7
ATOM      7  O   UNL d   1      -1.971   0.593  -0.004  0.00  0.00    -0.526 OA
ATOM      8  H5  UNL d   1      -1.514   0.345  -0.825  0.00  0.00     0.418 HD
ENDBRANCH   4   7
TORSDOF 1
ENDMDL
