MODEL 1
REMARK minimizedAffinity -4.08619213
REMARK minimizedRMSD -1
REMARK  1 active torsions:
REMARK  status: ('A' for Active; 'I' for Inactive)
REMARK    1  A    between atoms: C3_4  and  O_7 
ROOT
ATOM      1  C   UNL d   1      -0.391  -0.258  -0.338  0.00  0.00    -0.033 A 
ATOM      2  C1  UNL d   1       0.736   0.363   0.203  0.00  0.00     0.039 A 
ATOM      3  C2  UNL d   1       0.618   1.154   1.347  0.00  0.00    -0.080 A 
ATOM      4  C3  UNL d   1      -0.631   1.315   1.940  0.00  0.00     0.150 A 
ATOM      5  C4  UNL d   1      -1.758   0.697   1.409  0.00  0.00    -0.007 A 
ATOM      6  C5  UNL d   1      -1.638  -0.092   0.266  0.00  0.00     0.039 A 
ENDROOT
BRANCH   4   7
ATOM      7  O   UNL d   1      -0.796   2.082   3.056  0.00  0.00    -0.526 OA
ATOM      8  H5  UNL d   1       0.063   2.469   3.293  0.00  0.00     0.418 HD
ENDBRANCH   4   7
TORSDOF 1
ENDMDL
