MODEL 1
REMARK minimizedAffinity -5.16498661
REMARK minimizedRMSD -1
REMARK  1 active torsions:
REMARK  status: ('A' for Active; 'I' for Inactive)
REMARK    1  A    between atoms: C3_4  and  O_7 
ROOT
ATOM      1  C   UNL d   1       1.771  -0.326   1.910  0.00  0.00    -0.033 A 
ATOM      2  C1  UNL d   1       0.735   0.107   1.081  0.00  0.00     0.039 A 
ATOM      3  C2  UNL d   1      -0.325   0.844   1.612  0.00  0.00    -0.080 A 
ATOM      4  C3  UNL d   1      -0.337   1.141   2.972  0.00  0.00     0.150 A 
ATOM      5  C4  UNL d   1       0.694   0.715   3.804  0.00  0.00    -0.007 A 
ATOM      6  C5  UNL d   1       1.751  -0.021   3.271  0.00  0.00     0.039 A 
ENDROOT
BRANCH   4   7
ATOM      7  O   UNL d   1      -1.353   1.853   3.537  0.00  0.00    -0.526 OA
ATOM      8  H5  UNL d   1      -2.007   2.055   2.848  0.00  0.00     0.418 HD
ENDBRANCH   4   7
TORSDOF 1
ENDMDL
