MODEL 1
REMARK minimizedAffinity -5.67313528
REMARK minimizedRMSD -1
REMARK  1 active torsions:
REMARK  status: ('A' for Active; 'I' for Inactive)
REMARK    1  A    between atoms: C3_4  and  O_7 
ROOT
ATOM      1  C   UNL d   1      -0.727   0.902   2.860  0.00  0.00    -0.033 A 
ATOM      2  C1  UNL d   1       0.571   0.406   2.717  0.00  0.00     0.039 A 
ATOM      3  C2  UNL d   1       1.040   0.029   1.457  0.00  0.00    -0.080 A 
ATOM      4  C3  UNL d   1       0.205   0.154   0.351  0.00  0.00     0.150 A 
ATOM      5  C4  UNL d   1      -1.088   0.650   0.486  0.00  0.00    -0.007 A 
ATOM      6  C5  UNL d   1      -1.555   1.025   1.744  0.00  0.00     0.039 A 
ENDROOT
BRANCH   4   7
ATOM      7  O   UNL d   1       0.617  -0.206  -0.898  0.00  0.00    -0.526 OA
ATOM      8  H5  UNL d   1       1.521  -0.558  -0.834  0.00  0.00     0.418 HD
ENDBRANCH   4   7
TORSDOF 1
ENDMDL
