MODEL 1
REMARK minimizedAffinity -5.53391981
REMARK minimizedRMSD -1
REMARK  1 active torsions:
REMARK  status: ('A' for Active; 'I' for Inactive)
REMARK    1  A    between atoms: C3_4  and  O_7 
ROOT
ATOM      1  C   UNL d   1      -1.208   1.536   2.345  0.00  0.00    -0.033 A 
ATOM      2  C1  UNL d   1      -0.735   1.072   1.116  0.00  0.00     0.039 A 
ATOM      3  C2  UNL d   1       0.359   0.206   1.068  0.00  0.00    -0.080 A 
ATOM      4  C3  UNL d   1       0.971  -0.188   2.255  0.00  0.00     0.150 A 
ATOM      5  C4  UNL d   1       0.503   0.268   3.483  0.00  0.00    -0.007 A 
ATOM      6  C5  UNL d   1      -0.589   1.133   3.529  0.00  0.00     0.039 A 
ENDROOT
BRANCH   4   7
ATOM      7  O   UNL d   1       2.045  -1.027   2.259  0.00  0.00    -0.526 OA
ATOM      8  H5  UNL d   1       2.274  -1.237   1.338  0.00  0.00     0.418 HD
ENDBRANCH   4   7
TORSDOF 1
ENDMDL
