MODEL 1
REMARK minimizedAffinity -4.61744499
REMARK minimizedRMSD -1
REMARK  1 active torsions:
REMARK  status: ('A' for Active; 'I' for Inactive)
REMARK    1  A    between atoms: C3_4  and  O_7 
ROOT
ATOM      1  C   UNL d   1      -1.317   0.946   0.617  0.00  0.00    -0.033 A 
ATOM      2  C1  UNL d   1      -0.132   0.221   0.479  0.00  0.00     0.039 A 
ATOM      3  C2  UNL d   1       0.688   0.002   1.588  0.00  0.00    -0.080 A 
ATOM      4  C3  UNL d   1       0.311   0.512   2.827  0.00  0.00     0.150 A 
ATOM      5  C4  UNL d   1      -0.871   1.232   2.973  0.00  0.00    -0.007 A 
ATOM      6  C5  UNL d   1      -1.687   1.450   1.864  0.00  0.00     0.039 A 
ENDROOT
BRANCH   4   7
ATOM      7  O   UNL d   1       1.081   0.329   3.937  0.00  0.00    -0.526 OA
ATOM      8  H5  UNL d   1       1.880  -0.161   3.680  0.00  0.00     0.418 HD
ENDBRANCH   4   7
TORSDOF 1
ENDMDL
