MODEL 1
REMARK minimizedAffinity -0.258037239
REMARK minimizedRMSD -1
REMARK  0 active torsions:
REMARK  status: ('A' for Active; 'I' for Inactive)
ROOT
ATOM      1  C   UNL d   1      -4.247   4.554  -5.999  0.00  0.00     0.172 C 
ATOM      2  N   UNL d   1      -4.945   3.466  -5.356  0.00  0.00    -0.070 N 
ATOM      3  C1  UNL d   1      -5.268   3.401  -4.027  0.00  0.00    -0.004 A 
ATOM      4  C2  UNL d   1      -5.926   2.209  -3.811  0.00  0.00    -0.047 A 
ATOM      5  C3  UNL d   1      -6.000   1.535  -5.053  0.00  0.00    -0.047 A 
ATOM      6  C4  UNL d   1      -5.385   2.336  -5.992  0.00  0.00    -0.004 A 
ENDROOT
TORSDOF 0
ENDMDL
