MODEL 1
REMARK minimizedAffinity 0.93337822
REMARK minimizedRMSD -1
REMARK  0 active torsions:
REMARK  status: ('A' for Active; 'I' for Inactive)
ROOT
ATOM      1  C   UNL d   1       1.282   3.307   2.436  0.00  0.00     0.172 C 
ATOM      2  N   UNL d   1       0.947   2.226   1.539  0.00  0.00    -0.070 N 
ATOM      3  C1  UNL d   1       0.950   0.894   1.858  0.00  0.00    -0.004 A 
ATOM      4  C2  UNL d   1       0.573   0.190   0.735  0.00  0.00    -0.047 A 
ATOM      5  C3  UNL d   1       0.335   1.132  -0.295  0.00  0.00    -0.047 A 
ATOM      6  C4  UNL d   1       0.574   2.384   0.231  0.00  0.00    -0.004 A 
ENDROOT
TORSDOF 0
ENDMDL
