MODEL 1
REMARK minimizedAffinity 0.562390268
REMARK minimizedRMSD -1
REMARK  0 active torsions:
REMARK  status: ('A' for Active; 'I' for Inactive)
ROOT
ATOM      1  C   UNL d   1      -3.012   4.845  -4.155  0.00  0.00     0.172 C 
ATOM      2  N   UNL d   1      -3.883   3.815  -4.670  0.00  0.00    -0.070 N 
ATOM      3  C1  UNL d   1      -4.701   3.933  -5.762  0.00  0.00    -0.004 A 
ATOM      4  C2  UNL d   1      -5.365   2.736  -5.923  0.00  0.00    -0.047 A 
ATOM      5  C3  UNL d   1      -4.931   1.869  -4.892  0.00  0.00    -0.047 A 
ATOM      6  C4  UNL d   1      -4.014   2.562  -4.131  0.00  0.00    -0.004 A 
ENDROOT
TORSDOF 0
ENDMDL
