MODEL 1
REMARK minimizedAffinity -1.35436606
REMARK minimizedRMSD -1
REMARK  0 active torsions:
REMARK  status: ('A' for Active; 'I' for Inactive)
ROOT
ATOM      1  C   UNL d   1      -2.439   4.492  -6.000  0.00  0.00     0.172 C 
ATOM      2  N   UNL d   1      -3.787   4.118  -5.641  0.00  0.00    -0.070 N 
ATOM      3  C1  UNL d   1      -4.924   4.790  -5.999  0.00  0.00    -0.004 A 
ATOM      4  C2  UNL d   1      -6.000   4.117  -5.462  0.00  0.00    -0.047 A 
ATOM      5  C3  UNL d   1      -5.491   3.001  -4.755  0.00  0.00    -0.047 A 
ATOM      6  C4  UNL d   1      -4.118   3.026  -4.882  0.00  0.00    -0.004 A 
ENDROOT
TORSDOF 0
ENDMDL
