MODEL 1
REMARK minimizedAffinity -0.893020749
REMARK minimizedRMSD -1
REMARK  0 active torsions:
REMARK  status: ('A' for Active; 'I' for Inactive)
ROOT
ATOM      1  C   UNL d   1       0.322  -0.540   2.979  0.00  0.00     0.172 C 
ATOM      2  N   UNL d   1       0.273   0.624   2.127  0.00  0.00    -0.070 N 
ATOM      3  C1  UNL d   1       0.467   0.631   0.771  0.00  0.00    -0.004 A 
ATOM      4  C2  UNL d   1       0.339   1.931   0.333  0.00  0.00    -0.047 A 
ATOM      5  C3  UNL d   1       0.059   2.734   1.464  0.00  0.00    -0.047 A 
ATOM      6  C4  UNL d   1       0.024   1.900   2.561  0.00  0.00    -0.004 A 
ENDROOT
TORSDOF 0
ENDMDL
