MODEL 1
REMARK minimizedAffinity 2.86441422
REMARK minimizedRMSD -1
REMARK  0 active torsions:
REMARK  status: ('A' for Active; 'I' for Inactive)
ROOT
ATOM      1  C   UNL d   1      -4.340   1.211  -4.110  0.00  0.00     0.172 C 
ATOM      2  N   UNL d   1      -4.858   2.422  -4.702  0.00  0.00    -0.070 N 
ATOM      3  C1  UNL d   1      -5.763   2.487  -5.727  0.00  0.00    -0.004 A 
ATOM      4  C2  UNL d   1      -5.999   3.817  -5.999  0.00  0.00    -0.047 A 
ATOM      5  C3  UNL d   1      -5.207   4.578  -5.107  0.00  0.00    -0.047 A 
ATOM      6  C4  UNL d   1      -4.511   3.690  -4.315  0.00  0.00    -0.004 A 
ENDROOT
TORSDOF 0
ENDMDL
