MODEL 1
REMARK minimizedAffinity -1.33705175
REMARK minimizedRMSD -1
REMARK  0 active torsions:
REMARK  status: ('A' for Active; 'I' for Inactive)
ROOT
ATOM      1  C   UNL d   1       0.560  -0.549   2.670  0.00  0.00     0.172 C 
ATOM      2  N   UNL d   1       0.181   0.374   1.627  0.00  0.00    -0.070 N 
ATOM      3  C1  UNL d   1       0.571   1.684   1.539  0.00  0.00    -0.004 A 
ATOM      4  C2  UNL d   1      -0.001   2.220   0.406  0.00  0.00    -0.047 A 
ATOM      5  C3  UNL d   1      -0.763   1.197  -0.208  0.00  0.00    -0.047 A 
ATOM      6  C4  UNL d   1      -0.633   0.066   0.569  0.00  0.00    -0.004 A 
ENDROOT
TORSDOF 0
ENDMDL
