MODEL 1
REMARK minimizedAffinity 0.0701535195
REMARK minimizedRMSD -1
REMARK  0 active torsions:
REMARK  status: ('A' for Active; 'I' for Inactive)
ROOT
ATOM      1  C   UNL d   1      -2.450   3.378  -4.507  0.00  0.00     0.172 C 
ATOM      2  N   UNL d   1      -3.894   3.376  -4.519  0.00  0.00    -0.070 N 
ATOM      3  C1  UNL d   1      -4.684   3.672  -5.598  0.00  0.00    -0.004 A 
ATOM      4  C2  UNL d   1      -5.999   3.557  -5.202  0.00  0.00    -0.047 A 
ATOM      5  C3  UNL d   1      -6.000   3.181  -3.838  0.00  0.00    -0.047 A 
ATOM      6  C4  UNL d   1      -4.684   3.076  -3.440  0.00  0.00    -0.004 A 
ENDROOT
TORSDOF 0
ENDMDL
