MODEL 1
REMARK minimizedAffinity -1.19289553
REMARK minimizedRMSD -1
REMARK  0 active torsions:
REMARK  status: ('A' for Active; 'I' for Inactive)
ROOT
ATOM      1  C   UNL d   1      -3.831   0.747  -5.248  0.00  0.00     0.172 C 
ATOM      2  N   UNL d   1      -4.529   2.011  -5.255  0.00  0.00    -0.070 N 
ATOM      3  C1  UNL d   1      -5.642   2.305  -5.997  0.00  0.00    -0.004 A 
ATOM      4  C2  UNL d   1      -6.000   3.607  -5.724  0.00  0.00    -0.047 A 
ATOM      5  C3  UNL d   1      -5.069   4.114  -4.786  0.00  0.00    -0.047 A 
ATOM      6  C4  UNL d   1      -4.170   3.105  -4.513  0.00  0.00    -0.004 A 
ENDROOT
TORSDOF 0
ENDMDL
