MODEL 1
REMARK minimizedAffinity -1.98241019
REMARK minimizedRMSD -1
REMARK  0 active torsions:
REMARK  status: ('A' for Active; 'I' for Inactive)
ROOT
ATOM      1  C   UNL d   1      -2.634   4.875  -4.892  0.00  0.00     0.172 C 
ATOM      2  N   UNL d   1      -3.941   4.273  -4.999  0.00  0.00    -0.070 N 
ATOM      3  C1  UNL d   1      -4.847   4.504  -6.000  0.00  0.00    -0.004 A 
ATOM      4  C2  UNL d   1      -5.966   3.742  -5.741  0.00  0.00    -0.047 A 
ATOM      5  C3  UNL d   1      -5.724   3.028  -4.543  0.00  0.00    -0.047 A 
ATOM      6  C4  UNL d   1      -4.464   3.376  -4.105  0.00  0.00    -0.004 A 
ENDROOT
TORSDOF 0
ENDMDL
