MODEL 1
REMARK minimizedAffinity -0.71848923
REMARK minimizedRMSD -1
REMARK  0 active torsions:
REMARK  status: ('A' for Active; 'I' for Inactive)
ROOT
ATOM      1  C   UNL d   1      -5.952   5.070  -5.997  0.00  0.00     0.172 C 
ATOM      2  N   UNL d   1      -5.379   3.768  -5.749  0.00  0.00    -0.070 N 
ATOM      3  C1  UNL d   1      -5.993   2.567  -5.985  0.00  0.00    -0.004 A 
ATOM      4  C2  UNL d   1      -5.119   1.567  -5.618  0.00  0.00    -0.047 A 
ATOM      5  C3  UNL d   1      -3.940   2.188  -5.143  0.00  0.00    -0.047 A 
ATOM      6  C4  UNL d   1      -4.128   3.551  -5.235  0.00  0.00    -0.004 A 
ENDROOT
TORSDOF 0
ENDMDL
