MODEL 1
REMARK minimizedAffinity 1.07177186
REMARK minimizedRMSD -1
REMARK  0 active torsions:
REMARK  status: ('A' for Active; 'I' for Inactive)
ROOT
ATOM      1  C   UNL d   1       0.423  -0.342   2.795  0.00  0.00     0.172 C 
ATOM      2  N   UNL d   1       0.375   0.842   1.969  0.00  0.00    -0.070 N 
ATOM      3  C1  UNL d   1       0.416   0.863   0.601  0.00  0.00    -0.004 A 
ATOM      4  C2  UNL d   1       0.346   2.178   0.196  0.00  0.00    -0.047 A 
ATOM      5  C3  UNL d   1       0.260   2.976   1.362  0.00  0.00    -0.047 A 
ATOM      6  C4  UNL d   1       0.280   2.123   2.446  0.00  0.00    -0.004 A 
ENDROOT
TORSDOF 0
ENDMDL
