MODEL 1
REMARK minimizedAffinity 0.391776323
REMARK minimizedRMSD -1
REMARK  0 active torsions:
REMARK  status: ('A' for Active; 'I' for Inactive)
ROOT
ATOM      1  C   UNL d   1       0.709  -0.813   2.477  0.00  0.00     0.172 C 
ATOM      2  N   UNL d   1       0.369   0.403   1.778  0.00  0.00    -0.070 N 
ATOM      3  C1  UNL d   1       0.374   1.662   2.316  0.00  0.00    -0.004 A 
ATOM      4  C2  UNL d   1      -0.008   2.545   1.329  0.00  0.00    -0.047 A 
ATOM      5  C3  UNL d   1      -0.252   1.790   0.157  0.00  0.00    -0.047 A 
ATOM      6  C4  UNL d   1      -0.011   0.468   0.463  0.00  0.00    -0.004 A 
ENDROOT
TORSDOF 0
ENDMDL
