MODEL 1
REMARK minimizedAffinity -0.195403948
REMARK minimizedRMSD -1
REMARK  0 active torsions:
REMARK  status: ('A' for Active; 'I' for Inactive)
ROOT
ATOM      1  C   UNL d   1      -1.898   4.873  -5.253  0.00  0.00     0.172 C 
ATOM      2  N   UNL d   1      -3.206   4.261  -5.238  0.00  0.00    -0.070 N 
ATOM      3  C1  UNL d   1      -4.277   4.645  -6.000  0.00  0.00    -0.004 A 
ATOM      4  C2  UNL d   1      -5.333   3.815  -5.694  0.00  0.00    -0.047 A 
ATOM      5  C3  UNL d   1      -4.882   2.900  -4.713  0.00  0.00    -0.047 A 
ATOM      6  C4  UNL d   1      -3.562   3.199  -4.449  0.00  0.00    -0.004 A 
ENDROOT
TORSDOF 0
ENDMDL
