MODEL 1
REMARK minimizedAffinity 1.92296183
REMARK minimizedRMSD -1
REMARK  0 active torsions:
REMARK  status: ('A' for Active; 'I' for Inactive)
ROOT
ATOM      1  C   UNL d   1      -5.667   0.377  -4.761  0.00  0.00     0.172 C 
ATOM      2  N   UNL d   1      -5.396   1.773  -5.012  0.00  0.00    -0.070 N 
ATOM      3  C1  UNL d   1      -4.506   2.550  -4.320  0.00  0.00    -0.004 A 
ATOM      4  C2  UNL d   1      -4.540   3.816  -4.862  0.00  0.00    -0.047 A 
ATOM      5  C3  UNL d   1      -5.484   3.800  -5.916  0.00  0.00    -0.047 A 
ATOM      6  C4  UNL d   1      -5.999   2.523  -5.987  0.00  0.00    -0.004 A 
ENDROOT
TORSDOF 0
ENDMDL
