MODEL 1
REMARK minimizedAffinity -0.826888919
REMARK minimizedRMSD -1
REMARK  0 active torsions:
REMARK  status: ('A' for Active; 'I' for Inactive)
ROOT
ATOM      1  C   UNL d   1      -2.535   4.002  -4.504  0.00  0.00     0.172 C 
ATOM      2  N   UNL d   1      -3.909   3.745  -4.865  0.00  0.00    -0.070 N 
ATOM      3  C1  UNL d   1      -4.801   3.004  -4.136  0.00  0.00    -0.004 A 
ATOM      4  C2  UNL d   1      -6.000   2.997  -4.815  0.00  0.00    -0.047 A 
ATOM      5  C3  UNL d   1      -5.823   3.760  -5.994  0.00  0.00    -0.047 A 
ATOM      6  C4  UNL d   1      -4.519   4.211  -5.999  0.00  0.00    -0.004 A 
ENDROOT
TORSDOF 0
ENDMDL
