MODEL 1
REMARK minimizedAffinity 1.26583683
REMARK minimizedRMSD -1
REMARK  0 active torsions:
REMARK  status: ('A' for Active; 'I' for Inactive)
ROOT
ATOM      1  C   UNL d   1      -2.421   3.743  -3.401  0.00  0.00     0.172 C 
ATOM      2  N   UNL d   1      -3.774   3.817  -3.900  0.00  0.00    -0.070 N 
ATOM      3  C1  UNL d   1      -4.910   3.784  -3.135  0.00  0.00    -0.004 A 
ATOM      4  C2  UNL d   1      -5.992   3.880  -3.983  0.00  0.00    -0.047 A 
ATOM      5  C3  UNL d   1      -5.489   3.972  -5.303  0.00  0.00    -0.047 A 
ATOM      6  C4  UNL d   1      -4.113   3.931  -5.222  0.00  0.00    -0.004 A 
ENDROOT
TORSDOF 0
ENDMDL
