MODEL 1
REMARK minimizedAffinity -2.02348399
REMARK minimizedRMSD -1
REMARK  0 active torsions:
REMARK  status: ('A' for Active; 'I' for Inactive)
ROOT
ATOM      1  C   UNL d   1      -4.127   5.989   2.500  0.00  0.00     0.172 C 
ATOM      2  N   UNL d   1      -4.659   5.636   3.796  0.00  0.00    -0.070 N 
ATOM      3  C1  UNL d   1      -5.788   4.895   4.021  0.00  0.00    -0.004 A 
ATOM      4  C2  UNL d   1      -5.953   4.781   5.384  0.00  0.00    -0.047 A 
ATOM      5  C3  UNL d   1      -4.887   5.479   6.000  0.00  0.00    -0.047 A 
ATOM      6  C4  UNL d   1      -4.101   5.999   4.993  0.00  0.00    -0.004 A 
ENDROOT
TORSDOF 0
ENDMDL
