MODEL 1
REMARK minimizedAffinity -0.979611993
REMARK minimizedRMSD -1
REMARK  0 active torsions:
REMARK  status: ('A' for Active; 'I' for Inactive)
ROOT
ATOM      1  C   UNL d   1      -5.057   5.919   2.176  0.00  0.00     0.172 C 
ATOM      2  N   UNL d   1      -4.936   5.942   3.615  0.00  0.00    -0.070 N 
ATOM      3  C1  UNL d   1      -3.762   5.916   4.318  0.00  0.00    -0.004 A 
ATOM      4  C2  UNL d   1      -4.072   5.951   5.660  0.00  0.00    -0.047 A 
ATOM      5  C3  UNL d   1      -5.482   5.999   5.767  0.00  0.00    -0.047 A 
ATOM      6  C4  UNL d   1      -5.992   5.992   4.486  0.00  0.00    -0.004 A 
ENDROOT
TORSDOF 0
ENDMDL
