MODEL 1
REMARK minimizedAffinity -2.64344621
REMARK minimizedRMSD -1
REMARK  0 active torsions:
REMARK  status: ('A' for Active; 'I' for Inactive)
ROOT
ATOM      1  C   UNL d   1      -5.995   5.932   5.169  0.00  0.00     0.172 C 
ATOM      2  N   UNL d   1      -5.040   5.949   4.086  0.00  0.00    -0.070 N 
ATOM      3  C1  UNL d   1      -5.346   5.920   2.751  0.00  0.00    -0.004 A 
ATOM      4  C2  UNL d   1      -4.163   5.951   2.046  0.00  0.00    -0.047 A 
ATOM      5  C3  UNL d   1      -3.109   5.999   2.989  0.00  0.00    -0.047 A 
ATOM      6  C4  UNL d   1      -3.680   5.997   4.244  0.00  0.00    -0.004 A 
ENDROOT
TORSDOF 0
ENDMDL
