MODEL 1
REMARK minimizedAffinity -2.51597953
REMARK minimizedRMSD -1
REMARK  0 active torsions:
REMARK  status: ('A' for Active; 'I' for Inactive)
ROOT
ATOM      1  C   UNL d   1      -4.494   5.618   2.027  0.00  0.00     0.172 C 
ATOM      2  N   UNL d   1      -4.876   5.495   3.415  0.00  0.00    -0.070 N 
ATOM      3  C1  UNL d   1      -5.998   4.864   3.881  0.00  0.00    -0.004 A 
ATOM      4  C2  UNL d   1      -5.999   4.966   5.255  0.00  0.00    -0.047 A 
ATOM      5  C3  UNL d   1      -4.838   5.685   5.628  0.00  0.00    -0.047 A 
ATOM      6  C4  UNL d   1      -4.161   6.000   4.469  0.00  0.00    -0.004 A 
ENDROOT
TORSDOF 0
ENDMDL
