MODEL 1
REMARK minimizedAffinity -3.03207278
REMARK minimizedRMSD -1
REMARK  0 active torsions:
REMARK  status: ('A' for Active; 'I' for Inactive)
ROOT
ATOM      1  C   UNL d   1      -2.704   5.995   2.498  0.00  0.00     0.172 C 
ATOM      2  N   UNL d   1      -3.881   5.923   3.332  0.00  0.00    -0.070 N 
ATOM      3  C1  UNL d   1      -5.175   5.876   2.885  0.00  0.00    -0.004 A 
ATOM      4  C2  UNL d   1      -6.000   5.812   3.987  0.00  0.00    -0.047 A 
ATOM      5  C3  UNL d   1      -5.174   5.823   5.136  0.00  0.00    -0.047 A 
ATOM      6  C4  UNL d   1      -3.867   5.892   4.701  0.00  0.00    -0.004 A 
ENDROOT
TORSDOF 0
ENDMDL
