MODEL 1
REMARK minimizedAffinity -1.58025956
REMARK minimizedRMSD -1
REMARK  0 active torsions:
REMARK  status: ('A' for Active; 'I' for Inactive)
ROOT
ATOM      1  C   UNL d   1      -5.953   5.970   5.870  0.00  0.00     0.172 C 
ATOM      2  N   UNL d   1      -5.290   5.976   4.587  0.00  0.00    -0.070 N 
ATOM      3  C1  UNL d   1      -3.935   6.000   4.389  0.00  0.00    -0.004 A 
ATOM      4  C2  UNL d   1      -3.707   5.996   3.030  0.00  0.00    -0.047 A 
ATOM      5  C3  UNL d   1      -4.969   5.970   2.389  0.00  0.00    -0.047 A 
ATOM      6  C4  UNL d   1      -5.931   5.958   3.376  0.00  0.00    -0.004 A 
ENDROOT
TORSDOF 0
ENDMDL
