MODEL 1
REMARK minimizedAffinity -2.49279785
REMARK minimizedRMSD -1
REMARK  0 active torsions:
REMARK  status: ('A' for Active; 'I' for Inactive)
ROOT
ATOM      1  C   UNL d   1      -4.209   5.960   1.663  0.00  0.00     0.172 C 
ATOM      2  N   UNL d   1      -4.714   5.650   2.980  0.00  0.00    -0.070 N 
ATOM      3  C1  UNL d   1      -5.869   4.966   3.250  0.00  0.00    -0.004 A 
ATOM      4  C2  UNL d   1      -5.996   4.877   4.620  0.00  0.00    -0.047 A 
ATOM      5  C3  UNL d   1      -4.879   5.531   5.192  0.00  0.00    -0.047 A 
ATOM      6  C4  UNL d   1      -4.102   6.000   4.154  0.00  0.00    -0.004 A 
ENDROOT
TORSDOF 0
ENDMDL
