MODEL 1
REMARK minimizedAffinity -2.06632733
REMARK minimizedRMSD -1
REMARK  0 active torsions:
REMARK  status: ('A' for Active; 'I' for Inactive)
ROOT
ATOM      1  C   UNL d   1      -5.068   6.000   5.301  0.00  0.00     0.172 C 
ATOM      2  N   UNL d   1      -4.950   5.979   3.862  0.00  0.00    -0.070 N 
ATOM      3  C1  UNL d   1      -5.993   5.945   2.975  0.00  0.00    -0.004 A 
ATOM      4  C2  UNL d   1      -5.464   5.936   1.702  0.00  0.00    -0.047 A 
ATOM      5  C3  UNL d   1      -4.055   5.965   1.829  0.00  0.00    -0.047 A 
ATOM      6  C4  UNL d   1      -3.764   5.991   3.176  0.00  0.00    -0.004 A 
ENDROOT
TORSDOF 0
ENDMDL
