MODEL 1
REMARK minimizedAffinity -2.19745326
REMARK minimizedRMSD -1
REMARK  0 active torsions:
REMARK  status: ('A' for Active; 'I' for Inactive)
ROOT
ATOM      1  C   UNL d   1      -3.912   6.000   2.418  0.00  0.00     0.172 C 
ATOM      2  N   UNL d   1      -4.472   5.962   3.749  0.00  0.00    -0.070 N 
ATOM      3  C1  UNL d   1      -5.805   5.884   4.052  0.00  0.00    -0.004 A 
ATOM      4  C2  UNL d   1      -5.925   5.871   5.425  0.00  0.00    -0.047 A 
ATOM      5  C3  UNL d   1      -4.619   5.944   5.966  0.00  0.00    -0.047 A 
ATOM      6  C4  UNL d   1      -3.739   6.000   4.906  0.00  0.00    -0.004 A 
ENDROOT
TORSDOF 0
ENDMDL
