MODEL 1
REMARK minimizedAffinity -2.31494474
REMARK minimizedRMSD -1
REMARK  2 active torsions:
REMARK  status: ('A' for Active; 'I' for Inactive)
REMARK    1  A    between atoms: C2'_3  and  C1'_4 
REMARK    2  A    between atoms: C1'_4  and  C1_5 
ROOT
ATOM      1  C1  I4B d   1       0.122   0.402  -0.270  0.00  0.00    -0.075 A 
ATOM      2  C2  I4B d   1      -0.272  -0.910  -0.349  0.00  0.00     0.003 A 
ATOM      3  C3  I4B d   1      -0.717  -1.447  -1.582  0.00  0.00     0.002 A 
ATOM      4  C4  I4B d   1      -0.799  -0.629  -2.690  0.00  0.00    -0.004 A 
ATOM      5  C5  I4B d   1      -0.378   0.696  -2.612  0.00  0.00     0.002 A 
ATOM      6  C6  I4B d   1       0.098   1.212  -1.398  0.00  0.00     0.003 A 
ENDROOT
BRANCH   1   7
ATOM      7  C1' I4B d   1       0.556   0.945   1.055  0.00  0.00     0.060 C 
BRANCH   7   8
ATOM      8  C2' I4B d   1      -0.062   2.319   1.221  0.00  0.00    -0.013 C 
ATOM      9  C4' I4B d   1      -1.529   2.221   1.546  0.00  0.00     0.013 C 
ATOM     10  C3' I4B d   1       0.687   3.035   2.305  0.00  0.00     0.013 C 
ENDBRANCH   7   8
ENDBRANCH   1   7
TORSDOF 2
ENDMDL
