MODEL 1
REMARK minimizedAffinity -3.30110931
REMARK minimizedRMSD -1
REMARK  2 active torsions:
REMARK  status: ('A' for Active; 'I' for Inactive)
REMARK    1  A    between atoms: C2'_3  and  C1'_4 
REMARK    2  A    between atoms: C1'_4  and  C1_5 
ROOT
ATOM      1  C1  I4B d   1       0.544   0.464   1.477  0.00  0.00    -0.075 A 
ATOM      2  C2  I4B d   1      -0.123   0.083   0.339  0.00  0.00     0.003 A 
ATOM      3  C3  I4B d   1      -1.143   0.905  -0.198  0.00  0.00     0.002 A 
ATOM      4  C4  I4B d   1      -1.497   2.066   0.459  0.00  0.00    -0.004 A 
ATOM      5  C5  I4B d   1      -0.804   2.462   1.600  0.00  0.00     0.002 A 
ATOM      6  C6  I4B d   1       0.231   1.662   2.105  0.00  0.00     0.003 A 
ENDROOT
BRANCH   1   7
ATOM      7  C1' I4B d   1       1.593  -0.444   2.035  0.00  0.00     0.060 C 
BRANCH   7   8
ATOM      8  C2' I4B d   1       2.820  -0.338   1.153  0.00  0.00    -0.013 C 
ATOM      9  C4' I4B d   1       4.081  -0.578   1.941  0.00  0.00     0.013 C 
ATOM     10  C3' I4B d   1       2.679  -1.333   0.040  0.00  0.00     0.013 C 
ENDBRANCH   7   8
ENDBRANCH   1   7
TORSDOF 2
ENDMDL
