MODEL 1
REMARK minimizedAffinity -2.51758671
REMARK minimizedRMSD -1
REMARK  2 active torsions:
REMARK  status: ('A' for Active; 'I' for Inactive)
REMARK    1  A    between atoms: C2'_3  and  C1'_4 
REMARK    2  A    between atoms: C1'_4  and  C1_5 
ROOT
ATOM      1  C1  I4B d   1       0.595   0.081   1.076  0.00  0.00    -0.075 A 
ATOM      2  C2  I4B d   1       0.035  -0.190  -0.148  0.00  0.00     0.003 A 
ATOM      3  C3  I4B d   1      -0.947   0.675  -0.690  0.00  0.00     0.002 A 
ATOM      4  C4  I4B d   1      -1.373   1.763   0.043  0.00  0.00    -0.004 A 
ATOM      5  C5  I4B d   1      -0.788   2.049   1.273  0.00  0.00     0.002 A 
ATOM      6  C6  I4B d   1       0.211   1.210   1.788  0.00  0.00     0.003 A 
ENDROOT
BRANCH   1   7
ATOM      7  C1' I4B d   1       1.605  -0.871   1.633  0.00  0.00     0.060 C 
BRANCH   7   8
ATOM      8  C2' I4B d   1       2.981  -0.376   1.236  0.00  0.00    -0.013 C 
ATOM      9  C4' I4B d   1       3.968  -0.550   2.360  0.00  0.00     0.013 C 
ATOM     10  C3' I4B d   1       3.411  -1.135   0.016  0.00  0.00     0.013 C 
ENDBRANCH   7   8
ENDBRANCH   1   7
TORSDOF 2
ENDMDL
