MODEL 1
REMARK minimizedAffinity -0.792774558
REMARK minimizedRMSD -1
REMARK  2 active torsions:
REMARK  status: ('A' for Active; 'I' for Inactive)
REMARK    1  A    between atoms: C2'_3  and  C1'_4 
REMARK    2  A    between atoms: C1'_4  and  C1_5 
ROOT
ATOM      1  C1  I4B d   1       0.088  -0.305  -0.815  0.00  0.00    -0.075 A 
ATOM      2  C2  I4B d   1      -0.029  -0.168   0.546  0.00  0.00     0.003 A 
ATOM      3  C3  I4B d   1      -0.413   1.074   1.107  0.00  0.00     0.002 A 
ATOM      4  C4  I4B d   1      -0.620   2.159   0.279  0.00  0.00    -0.004 A 
ATOM      5  C5  I4B d   1      -0.524   2.012  -1.102  0.00  0.00     0.002 A 
ATOM      6  C6  I4B d   1      -0.179   0.769  -1.654  0.00  0.00     0.003 A 
ENDROOT
BRANCH   1   7
ATOM      7  C1' I4B d   1       0.528  -1.622  -1.371  0.00  0.00     0.060 C 
BRANCH   7   8
ATOM      8  C2' I4B d   1      -0.671  -2.549  -1.380  0.00  0.00    -0.013 C 
ATOM      9  C4' I4B d   1      -1.071  -2.911  -2.786  0.00  0.00     0.013 C 
ATOM     10  C3' I4B d   1      -0.316  -3.771  -0.586  0.00  0.00     0.013 C 
ENDBRANCH   7   8
ENDBRANCH   1   7
TORSDOF 2
ENDMDL
