MODEL 1
REMARK minimizedAffinity -4.1731348
REMARK minimizedRMSD -1
REMARK  2 active torsions:
REMARK  status: ('A' for Active; 'I' for Inactive)
REMARK    1  A    between atoms: C2'_3  and  C1'_4 
REMARK    2  A    between atoms: C1'_4  and  C1_5 
ROOT
ATOM      1  C1  I4B d   1       1.040   0.094   1.006  0.00  0.00    -0.075 A 
ATOM      2  C2  I4B d   1       0.833  -0.236  -0.310  0.00  0.00     0.003 A 
ATOM      3  C3  I4B d   1      -0.065   0.520  -1.101  0.00  0.00     0.002 A 
ATOM      4  C4  I4B d   1      -0.767   1.560  -0.527  0.00  0.00    -0.004 A 
ATOM      5  C5  I4B d   1      -0.539   1.907   0.801  0.00  0.00     0.002 A 
ATOM      6  C6  I4B d   1       0.379   1.178   1.570  0.00  0.00     0.003 A 
ENDROOT
BRANCH   1   7
ATOM      7  C1' I4B d   1       1.970  -0.747   1.822  0.00  0.00     0.060 C 
BRANCH   7   8
ATOM      8  C2' I4B d   1       3.256  -0.916   1.038  0.00  0.00    -0.013 C 
ATOM      9  C4' I4B d   1       4.461  -0.787   1.932  0.00  0.00     0.013 C 
ATOM     10  C3' I4B d   1       3.217  -2.259   0.371  0.00  0.00     0.013 C 
ENDBRANCH   7   8
ENDBRANCH   1   7
TORSDOF 2
ENDMDL
