MODEL 1
REMARK minimizedAffinity -4.64719152
REMARK minimizedRMSD -1
REMARK  2 active torsions:
REMARK  status: ('A' for Active; 'I' for Inactive)
REMARK    1  A    between atoms: C1_2  and  C2_3 
REMARK    2  A    between atoms: C2_3  and  C3_4 
ROOT
ATOM      1  C3  UNL d   1      -0.017  -0.136  -0.119  0.00  0.00    -0.075 A 
ATOM      2  C4  UNL d   1       0.473   0.059   1.181  0.00  0.00     0.002 A 
ATOM      3  C5  UNL d   1       0.111   1.190   1.912  0.00  0.00     0.002 A 
ATOM      4  C6  UNL d   1      -0.735   2.145   1.350  0.00  0.00    -0.004 A 
ATOM      5  C7  UNL d   1      -1.214   1.969   0.054  0.00  0.00     0.002 A 
ATOM      6  C8  UNL d   1      -0.857   0.836  -0.678  0.00  0.00     0.002 A 
ENDROOT
BRANCH   1   7
ATOM      7  C2  UNL d   1       0.347  -1.374  -0.904  0.00  0.00     0.056 C 
BRANCH   7   8
ATOM      8  C1  UNL d   1      -0.861  -2.161  -1.424  0.00  0.00     0.007 C 
ATOM      9  C   UNL d   1      -0.602  -3.658  -1.529  0.00  0.00     0.009 C 
ENDBRANCH   7   8
ENDBRANCH   1   7
TORSDOF 2
ENDMDL
