MODEL 1
REMARK minimizedAffinity 1.39889383
REMARK minimizedRMSD -1
REMARK  2 active torsions:
REMARK  status: ('A' for Active; 'I' for Inactive)
REMARK    1  A    between atoms: C1_2  and  C2_3 
REMARK    2  A    between atoms: C2_3  and  C3_4 
ROOT
ATOM      1  C3  UNL d   1       0.655   0.179   0.494  0.00  0.00    -0.075 A 
ATOM      2  C4  UNL d   1       0.186   1.498   0.411  0.00  0.00     0.002 A 
ATOM      3  C5  UNL d   1      -0.188   2.190   1.563  0.00  0.00     0.002 A 
ATOM      4  C6  UNL d   1      -0.109   1.571   2.808  0.00  0.00    -0.004 A 
ATOM      5  C7  UNL d   1       0.340   0.256   2.901  0.00  0.00     0.002 A 
ATOM      6  C8  UNL d   1       0.720  -0.438   1.750  0.00  0.00     0.002 A 
ENDROOT
BRANCH   1   7
ATOM      7  C2  UNL d   1       1.090  -0.566  -0.746  0.00  0.00     0.056 C 
BRANCH   7   8
ATOM      8  C1  UNL d   1       0.439  -1.944  -0.906  0.00  0.00     0.007 C 
ATOM      9  C   UNL d   1       1.354  -2.967  -1.566  0.00  0.00     0.009 C 
ENDBRANCH   7   8
ENDBRANCH   1   7
TORSDOF 2
ENDMDL
