MODEL 1
REMARK minimizedAffinity -4.15410233
REMARK minimizedRMSD -1
REMARK  2 active torsions:
REMARK  status: ('A' for Active; 'I' for Inactive)
REMARK    1  A    between atoms: C1_2  and  C2_3 
REMARK    2  A    between atoms: C2_3  and  C3_4 
ROOT
ATOM      1  C3  UNL d   1      -0.216   0.482  -0.101  0.00  0.00    -0.075 A 
ATOM      2  C4  UNL d   1      -1.489   1.066  -0.174  0.00  0.00     0.002 A 
ATOM      3  C5  UNL d   1      -1.920   1.952   0.814  0.00  0.00     0.002 A 
ATOM      4  C6  UNL d   1      -1.089   2.258   1.890  0.00  0.00    -0.004 A 
ATOM      5  C7  UNL d   1       0.171   1.671   1.981  0.00  0.00     0.002 A 
ATOM      6  C8  UNL d   1       0.606   0.788   0.991  0.00  0.00     0.002 A 
ENDROOT
BRANCH   1   7
ATOM      7  C2  UNL d   1       0.267  -0.455  -1.182  0.00  0.00     0.056 C 
BRANCH   7   8
ATOM      8  C1  UNL d   1       0.181  -1.938  -0.807  0.00  0.00     0.007 C 
ATOM      9  C   UNL d   1      -0.566  -2.775  -1.836  0.00  0.00     0.009 C 
ENDBRANCH   7   8
ENDBRANCH   1   7
TORSDOF 2
ENDMDL
