MODEL 1
REMARK minimizedAffinity 0.392669737
REMARK minimizedRMSD -1
REMARK  2 active torsions:
REMARK  status: ('A' for Active; 'I' for Inactive)
REMARK    1  A    between atoms: C1_2  and  C2_3 
REMARK    2  A    between atoms: C2_3  and  C3_4 
ROOT
ATOM      1  C3  UNL d   1       1.102  -0.222   0.777  0.00  0.00    -0.075 A 
ATOM      2  C4  UNL d   1       0.555  -0.748   1.956  0.00  0.00     0.002 A 
ATOM      3  C5  UNL d   1      -0.128   0.077   2.850  0.00  0.00     0.002 A 
ATOM      4  C6  UNL d   1      -0.265   1.437   2.582  0.00  0.00    -0.004 A 
ATOM      5  C7  UNL d   1       0.289   1.974   1.421  0.00  0.00     0.002 A 
ATOM      6  C8  UNL d   1       0.970   1.150   0.523  0.00  0.00     0.002 A 
ENDROOT
BRANCH   1   7
ATOM      7  C2  UNL d   1       1.818  -1.115  -0.208  0.00  0.00     0.056 C 
BRANCH   7   8
ATOM      8  C1  UNL d   1       0.999  -2.330  -0.658  0.00  0.00     0.007 C 
ATOM      9  C   UNL d   1       1.850  -3.567  -0.912  0.00  0.00     0.009 C 
ENDBRANCH   7   8
ENDBRANCH   1   7
TORSDOF 2
ENDMDL
