MODEL 1
REMARK minimizedAffinity -4.34130716
REMARK minimizedRMSD -1
REMARK  2 active torsions:
REMARK  status: ('A' for Active; 'I' for Inactive)
REMARK    1  A    between atoms: C1_2  and  C2_3 
REMARK    2  A    between atoms: C2_3  and  C3_4 
ROOT
ATOM      1  C3  UNL d   1       2.543  -4.433  -0.864  0.00  0.00    -0.075 A 
ATOM      2  C4  UNL d   1       3.426  -4.115  -1.906  0.00  0.00     0.002 A 
ATOM      3  C5  UNL d   1       4.669  -4.742  -1.997  0.00  0.00     0.002 A 
ATOM      4  C6  UNL d   1       5.048  -5.686  -1.045  0.00  0.00    -0.004 A 
ATOM      5  C7  UNL d   1       4.185  -5.997   0.004  0.00  0.00     0.002 A 
ATOM      6  C8  UNL d   1       2.939  -5.375   0.095  0.00  0.00     0.002 A 
ENDROOT
BRANCH   1   7
ATOM      7  C2  UNL d   1       1.184  -3.780  -0.777  0.00  0.00     0.056 C 
BRANCH   7   8
ATOM      8  C1  UNL d   1       0.015  -4.770  -0.776  0.00  0.00     0.007 C 
ATOM      9  C   UNL d   1      -1.307  -4.137  -0.362  0.00  0.00     0.009 C 
ENDBRANCH   7   8
ENDBRANCH   1   7
TORSDOF 2
ENDMDL
