MODEL 1
REMARK minimizedAffinity -0.294041008
REMARK minimizedRMSD -1
REMARK  2 active torsions:
REMARK  status: ('A' for Active; 'I' for Inactive)
REMARK    1  A    between atoms: C1_2  and  C2_3 
REMARK    2  A    between atoms: C2_3  and  C3_4 
ROOT
ATOM      1  C3  UNL d   1      -0.250   0.301  -0.421  0.00  0.00    -0.075 A 
ATOM      2  C4  UNL d   1       0.050   0.505   0.934  0.00  0.00     0.002 A 
ATOM      3  C5  UNL d   1      -0.683   1.418   1.692  0.00  0.00     0.002 A 
ATOM      4  C6  UNL d   1      -1.716   2.146   1.105  0.00  0.00    -0.004 A 
ATOM      5  C7  UNL d   1      -2.012   1.963  -0.245  0.00  0.00     0.002 A 
ATOM      6  C8  UNL d   1      -1.283   1.046  -1.004  0.00  0.00     0.002 A 
ENDROOT
BRANCH   1   7
ATOM      7  C2  UNL d   1       0.520  -0.708  -1.239  0.00  0.00     0.056 C 
BRANCH   7   8
ATOM      8  C1  UNL d   1       0.514  -2.123  -0.651  0.00  0.00     0.007 C 
ATOM      9  C   UNL d   1      -0.202  -3.137  -1.534  0.00  0.00     0.009 C 
ENDBRANCH   7   8
ENDBRANCH   1   7
TORSDOF 2
ENDMDL
