MODEL 1
REMARK minimizedAffinity -4.75227308
REMARK minimizedRMSD -1
REMARK  2 active torsions:
REMARK  status: ('A' for Active; 'I' for Inactive)
REMARK    1  A    between atoms: C1_2  and  C2_3 
REMARK    2  A    between atoms: C2_3  and  C3_4 
ROOT
ATOM      1  C3  UNL d   1       0.228   0.320   0.060  0.00  0.00    -0.075 A 
ATOM      2  C4  UNL d   1      -0.742   1.135  -0.542  0.00  0.00     0.002 A 
ATOM      3  C5  UNL d   1      -1.468   2.052   0.219  0.00  0.00     0.002 A 
ATOM      4  C6  UNL d   1      -1.241   2.159   1.589  0.00  0.00    -0.004 A 
ATOM      5  C7  UNL d   1      -0.292   1.343   2.201  0.00  0.00     0.002 A 
ATOM      6  C8  UNL d   1       0.439   0.428   1.441  0.00  0.00     0.002 A 
ENDROOT
BRANCH   1   7
ATOM      7  C2  UNL d   1       1.038  -0.654  -0.762  0.00  0.00     0.056 C 
BRANCH   7   8
ATOM      8  C1  UNL d   1       0.266  -1.911  -1.178  0.00  0.00     0.007 C 
ATOM      9  C   UNL d   1       1.098  -3.183  -1.085  0.00  0.00     0.009 C 
ENDBRANCH   7   8
ENDBRANCH   1   7
TORSDOF 2
ENDMDL
