MODEL 1
REMARK minimizedAffinity -3.75873709
REMARK minimizedRMSD -1
REMARK  2 active torsions:
REMARK  status: ('A' for Active; 'I' for Inactive)
REMARK    1  A    between atoms: C1_2  and  C2_3 
REMARK    2  A    between atoms: C2_3  and  C3_4 
ROOT
ATOM      1  C3  UNL d   1      -0.268   0.205   0.193  0.00  0.00    -0.075 A 
ATOM      2  C4  UNL d   1      -1.225   1.006  -0.447  0.00  0.00     0.002 A 
ATOM      3  C5  UNL d   1      -1.530   2.275   0.046  0.00  0.00     0.002 A 
ATOM      4  C6  UNL d   1      -0.891   2.755   1.187  0.00  0.00    -0.004 A 
ATOM      5  C7  UNL d   1       0.050   1.961   1.840  0.00  0.00     0.002 A 
ATOM      6  C8  UNL d   1       0.360   0.692   1.347  0.00  0.00     0.002 A 
ENDROOT
BRANCH   1   7
ATOM      7  C2  UNL d   1       0.088  -1.158  -0.352  0.00  0.00     0.056 C 
BRANCH   7   8
ATOM      8  C1  UNL d   1      -1.066  -1.862  -1.074  0.00  0.00     0.007 C 
ATOM      9  C   UNL d   1      -0.778  -3.324  -1.384  0.00  0.00     0.009 C 
ENDBRANCH   7   8
ENDBRANCH   1   7
TORSDOF 2
ENDMDL
