MODEL 1
REMARK minimizedAffinity -3.82029819
REMARK minimizedRMSD -1
REMARK  0 active torsions:
REMARK  status: ('A' for Active; 'I' for Inactive)
ROOT
ATOM      1  O1  BZF d   1       0.010   3.469  -0.510  0.00  0.00    -0.204 OA
ATOM      2  C2  BZF d   1      -0.188   3.890  -1.811  0.00  0.00     0.174 A 
ATOM      3  C3  BZF d   1      -0.578   2.862  -2.592  0.00  0.00    -0.012 A 
ATOM      4  C3A BZF d   1      -0.717   1.747  -1.706  0.00  0.00    -0.107 A 
ATOM      5  C4  BZF d   1      -1.094   0.447  -1.885  0.00  0.00     0.055 A 
ATOM      6  C5  BZF d   1      -1.054  -0.404  -0.826  0.00  0.00    -0.016 A 
ATOM      7  C6  BZF d   1      -0.639   0.010   0.423  0.00  0.00     0.022 A 
ATOM      8  C7  BZF d   1      -0.260   1.291   0.650  0.00  0.00     0.029 A 
ATOM      9  C7A BZF d   1      -0.331   2.161  -0.410  0.00  0.00     0.058 A 
ENDROOT
TORSDOF 0
ENDMDL
