MODEL 1
REMARK minimizedAffinity -1.23883438
REMARK minimizedRMSD -1
REMARK  0 active torsions:
REMARK  status: ('A' for Active; 'I' for Inactive)
ROOT
ATOM      1  O1  BZF d   1       0.693  -0.036  -1.158  0.00  0.00    -0.204 OA
ATOM      2  C2  BZF d   1      -0.498   0.351  -1.742  0.00  0.00     0.174 A 
ATOM      3  C3  BZF d   1      -1.510   0.283  -0.853  0.00  0.00    -0.012 A 
ATOM      4  C3A BZF d   1      -0.899  -0.086   0.386  0.00  0.00    -0.107 A 
ATOM      5  C4  BZF d   1      -1.383  -0.296   1.646  0.00  0.00     0.055 A 
ATOM      6  C5  BZF d   1      -0.533  -0.718   2.618  0.00  0.00    -0.016 A 
ATOM      7  C6  BZF d   1       0.804  -0.946   2.365  0.00  0.00     0.022 A 
ATOM      8  C7  BZF d   1       1.331  -0.747   1.133  0.00  0.00     0.029 A 
ATOM      9  C7A BZF d   1       0.481  -0.288   0.156  0.00  0.00     0.058 A 
ENDROOT
TORSDOF 0
ENDMDL
