MODEL 1
REMARK minimizedAffinity 0.815225244
REMARK minimizedRMSD -1
REMARK  0 active torsions:
REMARK  status: ('A' for Active; 'I' for Inactive)
ROOT
ATOM      1  O1  BZF d   1      -2.005   1.601  -2.652  0.00  0.00    -0.204 OA
ATOM      2  C2  BZF d   1      -1.178   2.576  -3.176  0.00  0.00     0.174 A 
ATOM      3  C3  BZF d   1       0.010   2.590  -2.537  0.00  0.00    -0.012 A 
ATOM      4  C3A BZF d   1      -0.046   1.498  -1.614  0.00  0.00    -0.107 A 
ATOM      5  C4  BZF d   1       0.838   0.990  -0.707  0.00  0.00     0.055 A 
ATOM      6  C5  BZF d   1       0.448  -0.038   0.092  0.00  0.00    -0.016 A 
ATOM      7  C6  BZF d   1      -0.819  -0.578   0.013  0.00  0.00     0.022 A 
ATOM      8  C7  BZF d   1      -1.730  -0.110  -0.875  0.00  0.00     0.029 A 
ATOM      9  C7A BZF d   1      -1.328   0.907  -1.706  0.00  0.00     0.058 A 
ENDROOT
TORSDOF 0
ENDMDL
