MODEL 1
REMARK minimizedAffinity -1.95938647
REMARK minimizedRMSD -1
REMARK  0 active torsions:
REMARK  status: ('A' for Active; 'I' for Inactive)
ROOT
ATOM      1  O1  BZF d   1       1.429  -1.552   0.056  0.00  0.00    -0.204 OA
ATOM      2  C2  BZF d   1       1.124  -1.472  -1.289  0.00  0.00     0.174 A 
ATOM      3  C3  BZF d   1      -0.143  -1.046  -1.467  0.00  0.00    -0.012 A 
ATOM      4  C3A BZF d   1      -0.632  -0.760  -0.154  0.00  0.00    -0.107 A 
ATOM      5  C4  BZF d   1      -1.822  -0.288   0.322  0.00  0.00     0.055 A 
ATOM      6  C5  BZF d   1      -2.004  -0.190   1.665  0.00  0.00    -0.016 A 
ATOM      7  C6  BZF d   1      -1.021  -0.561   2.560  0.00  0.00     0.022 A 
ATOM      8  C7  BZF d   1       0.177  -1.030   2.135  0.00  0.00     0.029 A 
ATOM      9  C7A BZF d   1       0.376  -1.098   0.778  0.00  0.00     0.058 A 
ENDROOT
TORSDOF 0
ENDMDL
