MODEL 1
REMARK minimizedAffinity -2.24950457
REMARK minimizedRMSD -1
REMARK  0 active torsions:
REMARK  status: ('A' for Active; 'I' for Inactive)
ROOT
ATOM      1  O1  BZF d   1      -0.393   1.811  -0.946  0.00  0.00    -0.204 OA
ATOM      2  C2  BZF d   1      -0.362   0.919  -2.000  0.00  0.00     0.174 A 
ATOM      3  C3  BZF d   1      -0.280  -0.350  -1.551  0.00  0.00    -0.012 A 
ATOM      4  C3A BZF d   1      -0.351  -0.250  -0.126  0.00  0.00    -0.107 A 
ATOM      5  C4  BZF d   1      -0.336  -1.171   0.882  0.00  0.00     0.055 A 
ATOM      6  C5  BZF d   1      -0.348  -0.741   2.171  0.00  0.00    -0.016 A 
ATOM      7  C6  BZF d   1      -0.369   0.602   2.488  0.00  0.00     0.022 A 
ATOM      8  C7  BZF d   1      -0.389   1.553   1.523  0.00  0.00     0.029 A 
ATOM      9  C7A BZF d   1      -0.411   1.120   0.219  0.00  0.00     0.058 A 
ENDROOT
TORSDOF 0
ENDMDL
