MODEL 1
REMARK minimizedAffinity -4.79032898
REMARK minimizedRMSD -1
REMARK  0 active torsions:
REMARK  status: ('A' for Active; 'I' for Inactive)
ROOT
ATOM      1  O1  BZF d   1       0.089  -0.345  -0.908  0.00  0.00    -0.204 OA
ATOM      2  C2  BZF d   1      -1.246  -0.046  -0.720  0.00  0.00     0.174 A 
ATOM      3  C3  BZF d   1      -1.650  -0.413   0.513  0.00  0.00    -0.012 A 
ATOM      4  C3A BZF d   1      -0.471  -0.892   1.168  0.00  0.00    -0.107 A 
ATOM      5  C4  BZF d   1      -0.225  -1.382   2.418  0.00  0.00     0.055 A 
ATOM      6  C5  BZF d   1       1.022  -1.833   2.718  0.00  0.00    -0.016 A 
ATOM      7  C6  BZF d   1       2.043  -1.813   1.791  0.00  0.00     0.022 A 
ATOM      8  C7  BZF d   1       1.848  -1.332   0.539  0.00  0.00     0.029 A 
ATOM      9  C7A BZF d   1       0.598  -0.845   0.244  0.00  0.00     0.058 A 
ENDROOT
TORSDOF 0
ENDMDL
