MODEL 1
REMARK minimizedAffinity -4.91385078
REMARK minimizedRMSD -1
REMARK  0 active torsions:
REMARK  status: ('A' for Active; 'I' for Inactive)
ROOT
ATOM      1  O1  BZF d   1       2.131  -1.576   1.688  0.00  0.00    -0.204 OA
ATOM      2  C2  BZF d   1       1.499  -1.499   2.914  0.00  0.00     0.174 A 
ATOM      3  C3  BZF d   1       0.249  -1.013   2.778  0.00  0.00    -0.012 A 
ATOM      4  C3A BZF d   1       0.056  -0.857   1.369  0.00  0.00    -0.107 A 
ATOM      5  C4  BZF d   1      -0.992  -0.428   0.606  0.00  0.00     0.055 A 
ATOM      6  C5  BZF d   1      -0.831  -0.326  -0.740  0.00  0.00    -0.016 A 
ATOM      7  C6  BZF d   1       0.364  -0.639  -1.354  0.00  0.00     0.022 A 
ATOM      8  C7  BZF d   1       1.430  -1.074  -0.639  0.00  0.00     0.029 A 
ATOM      9  C7A BZF d   1       1.261  -1.210   0.717  0.00  0.00     0.058 A 
ENDROOT
TORSDOF 0
ENDMDL
