MODEL 1
REMARK minimizedAffinity -5.86204338
REMARK minimizedRMSD -1
REMARK  0 active torsions:
REMARK  status: ('A' for Active; 'I' for Inactive)
ROOT
ATOM      1  O1  BZF d   1       1.323  -1.495  -0.953  0.00  0.00    -0.204 OA
ATOM      2  C2  BZF d   1       2.441  -2.245  -0.644  0.00  0.00     0.174 A 
ATOM      3  C3  BZF d   1       2.597  -2.342   0.692  0.00  0.00    -0.012 A 
ATOM      4  C3A BZF d   1       1.456  -1.685   1.253  0.00  0.00    -0.107 A 
ATOM      5  C4  BZF d   1       1.034  -1.466   2.533  0.00  0.00     0.055 A 
ATOM      6  C5  BZF d   1      -0.087  -0.726   2.741  0.00  0.00    -0.016 A 
ATOM      7  C6  BZF d   1      -0.806  -0.188   1.695  0.00  0.00     0.022 A 
ATOM      8  C7  BZF d   1      -0.430  -0.383   0.408  0.00  0.00     0.029 A 
ATOM      9  C7A BZF d   1       0.684  -1.157   0.193  0.00  0.00     0.058 A 
ENDROOT
TORSDOF 0
ENDMDL
