MODEL 1
REMARK minimizedAffinity 3.17024183
REMARK minimizedRMSD -1
REMARK  1 active torsions:
REMARK  status: ('A' for Active; 'I' for Inactive)
REMARK    1  A    between atoms: C1_2  and  C2_3 
ROOT
ATOM      1  C2  UNL d   1      -1.687   0.699  -0.307  0.00  0.00    -0.073 A 
ATOM      2  C3  UNL d   1      -1.496   1.857   0.455  0.00  0.00    -0.002 A 
ATOM      3  C4  UNL d   1      -1.028   1.768   1.767  0.00  0.00     0.004 A 
ATOM      4  C5  UNL d   1      -0.741   0.523   2.327  0.00  0.00    -0.004 A 
ATOM      5  C6  UNL d   1      -0.914  -0.645   1.577  0.00  0.00    -0.075 A 
ATOM      6  C7  UNL d   1      -0.611  -1.991   2.166  0.00  0.00     0.076 C 
ATOM      7  C8  UNL d   1      -1.387  -0.548   0.262  0.00  0.00     0.001 A 
ENDROOT
BRANCH   1   8
ATOM      8  C1  UNL d   1      -2.186   0.790  -1.726  0.00  0.00     0.053 C 
ATOM      9  C   UNL d   1      -2.168   2.219  -2.246  0.00  0.00     0.018 C 
ENDBRANCH   1   8
TORSDOF 1
ENDMDL
