MODEL 1
REMARK minimizedAffinity -4.49236965
REMARK minimizedRMSD -1
REMARK  1 active torsions:
REMARK  status: ('A' for Active; 'I' for Inactive)
REMARK    1  A    between atoms: C1_2  and  C2_3 
ROOT
ATOM      1  C2  UNL d   1       0.940  -0.465   0.573  0.00  0.00    -0.073 A 
ATOM      2  C3  UNL d   1       1.888  -0.854  -0.380  0.00  0.00    -0.002 A 
ATOM      3  C4  UNL d   1       3.030  -1.555   0.007  0.00  0.00     0.004 A 
ATOM      4  C5  UNL d   1       3.233  -1.881   1.348  0.00  0.00    -0.004 A 
ATOM      5  C6  UNL d   1       2.291  -1.511   2.314  0.00  0.00    -0.075 A 
ATOM      6  C7  UNL d   1       2.496  -1.852   3.761  0.00  0.00     0.076 C 
ATOM      7  C8  UNL d   1       1.148  -0.805   1.918  0.00  0.00     0.001 A 
ENDROOT
BRANCH   1   8
ATOM      8  C1  UNL d   1      -0.299   0.287   0.159  0.00  0.00     0.053 C 
ATOM      9  C   UNL d   1      -0.033   1.774  -0.010  0.00  0.00     0.018 C 
ENDBRANCH   1   8
TORSDOF 1
ENDMDL
