MODEL 1
REMARK minimizedAffinity 13.9971542
REMARK minimizedRMSD -1
REMARK  0 active torsions:
REMARK  status: ('A' for Active; 'I' for Inactive)
ROOT
ATOM      1  C   UNL d   1      -2.686  -2.352  -0.756  0.00  0.00     0.124 A 
ATOM      2  C1  UNL d   1      -2.404  -2.716  -2.066  0.00  0.00     0.062 A 
ATOM      3  C2  UNL d   1      -1.128  -2.523  -2.587  0.00  0.00     0.162 A 
ATOM      4  C3  UNL d   1      -0.123  -1.964  -1.799  0.00  0.00    -0.034 A 
ATOM      5  C4  UNL d   1      -0.414  -1.599  -0.483  0.00  0.00     0.162 A 
ATOM      6  C5  UNL d   1      -1.691  -1.794   0.034  0.00  0.00     0.062 A 
ATOM      7  F   UNL d   1      -1.961  -1.442   1.299  0.00  0.00    -0.097 F 
ATOM      8  F1  UNL d   1       0.529  -1.059   0.303  0.00  0.00    -0.096 F 
ATOM      9  I   UNL d   1       1.786  -1.673  -2.574  0.00  0.00    -0.060 I 
ATOM     10  F2  UNL d   1      -0.885  -2.884  -3.856  0.00  0.00    -0.096 F 
ATOM     11  F3  UNL d   1      -3.364  -3.254  -2.832  0.00  0.00    -0.097 F 
ATOM     12  F4  UNL d   1      -3.915  -2.538  -0.258  0.00  0.00    -0.092 F 
ENDROOT
TORSDOF 0
ENDMDL
