MODEL 1
REMARK minimizedAffinity 19.8286247
REMARK minimizedRMSD -1
REMARK  0 active torsions:
REMARK  status: ('A' for Active; 'I' for Inactive)
ROOT
ATOM      1  C   UNL d   1       2.294  -2.161  -3.389  0.00  0.00     0.124 A 
ATOM      2  C1  UNL d   1       0.952  -2.434  -3.614  0.00  0.00     0.062 A 
ATOM      3  C2  UNL d   1       0.045  -2.404  -2.559  0.00  0.00     0.162 A 
ATOM      4  C3  UNL d   1       0.477  -2.098  -1.268  0.00  0.00    -0.034 A 
ATOM      5  C4  UNL d   1       1.828  -1.826  -1.049  0.00  0.00     0.162 A 
ATOM      6  C5  UNL d   1       2.731  -1.857  -2.107  0.00  0.00     0.062 A 
ATOM      7  F   UNL d   1       4.027  -1.593  -1.887  0.00  0.00    -0.097 F 
ATOM      8  F1  UNL d   1       2.277  -1.529   0.180  0.00  0.00    -0.096 F 
ATOM      9  I   UNL d   1      -0.876  -2.052   0.313  0.00  0.00    -0.060 I 
ATOM     10  F2  UNL d   1      -1.246  -2.671  -2.805  0.00  0.00    -0.096 F 
ATOM     11  F3  UNL d   1       0.528  -2.728  -4.851  0.00  0.00    -0.097 F 
ATOM     12  F4  UNL d   1       3.165  -2.191  -4.405  0.00  0.00    -0.092 F 
ENDROOT
TORSDOF 0
ENDMDL
