MODEL 1
REMARK minimizedAffinity 6.34068346
REMARK minimizedRMSD -1
REMARK  0 active torsions:
REMARK  status: ('A' for Active; 'I' for Inactive)
ROOT
ATOM      1  C   UNL d   1       1.664  -2.171  -3.530  0.00  0.00     0.124 A 
ATOM      2  C1  UNL d   1       0.326  -2.455  -3.764  0.00  0.00     0.062 A 
ATOM      3  C2  UNL d   1      -0.596  -2.393  -2.723  0.00  0.00     0.162 A 
ATOM      4  C3  UNL d   1      -0.182  -2.044  -1.437  0.00  0.00    -0.034 A 
ATOM      5  C4  UNL d   1       1.166  -1.761  -1.209  0.00  0.00     0.162 A 
ATOM      6  C5  UNL d   1       2.083  -1.825  -2.254  0.00  0.00     0.062 A 
ATOM      7  F   UNL d   1       3.376  -1.550  -2.026  0.00  0.00    -0.097 F 
ATOM      8  F1  UNL d   1       1.598  -1.423   0.015  0.00  0.00    -0.096 F 
ATOM      9  I   UNL d   1      -1.556  -1.950   0.123  0.00  0.00    -0.060 I 
ATOM     10  F2  UNL d   1      -1.883  -2.672  -2.978  0.00  0.00    -0.096 F 
ATOM     11  F3  UNL d   1      -0.082  -2.790  -4.997  0.00  0.00    -0.097 F 
ATOM     12  F4  UNL d   1       2.548  -2.232  -4.534  0.00  0.00    -0.092 F 
ENDROOT
TORSDOF 0
ENDMDL
