MODEL 1
REMARK minimizedAffinity 13.0240383
REMARK minimizedRMSD -1
REMARK  0 active torsions:
REMARK  status: ('A' for Active; 'I' for Inactive)
ROOT
ATOM      1  C   UNL d   1       0.911  -1.900  -3.128  0.00  0.00     0.124 A 
ATOM      2  C1  UNL d   1       1.260  -2.009  -1.789  0.00  0.00     0.062 A 
ATOM      3  C2  UNL d   1       0.271  -2.112  -0.815  0.00  0.00     0.162 A 
ATOM      4  C3  UNL d   1      -1.076  -2.109  -1.176  0.00  0.00    -0.034 A 
ATOM      5  C4  UNL d   1      -1.419  -1.998  -2.525  0.00  0.00     0.162 A 
ATOM      6  C5  UNL d   1      -0.427  -1.895  -3.495  0.00  0.00     0.062 A 
ATOM      7  F   UNL d   1      -0.766  -1.790  -4.788  0.00  0.00    -0.097 F 
ATOM      8  F1  UNL d   1      -2.704  -1.992  -2.907  0.00  0.00    -0.096 F 
ATOM      9  I   UNL d   1      -2.557  -2.263   0.278  0.00  0.00    -0.060 I 
ATOM     10  F2  UNL d   1       0.637  -2.216   0.472  0.00  0.00    -0.096 F 
ATOM     11  F3  UNL d   1       2.552  -2.013  -1.432  0.00  0.00    -0.097 F 
ATOM     12  F4  UNL d   1       1.865  -1.800  -4.064  0.00  0.00    -0.092 F 
ENDROOT
TORSDOF 0
ENDMDL
