MODEL 1
REMARK minimizedAffinity 20.4706821
REMARK minimizedRMSD -1
REMARK  0 active torsions:
REMARK  status: ('A' for Active; 'I' for Inactive)
ROOT
ATOM      1  C   UNL d   1       5.438   2.381  -2.654  0.00  0.00     0.124 A 
ATOM      2  C1  UNL d   1       4.978   2.092  -3.931  0.00  0.00     0.062 A 
ATOM      3  C2  UNL d   1       4.531   3.115  -4.762  0.00  0.00     0.162 A 
ATOM      4  C3  UNL d   1       4.543   4.438  -4.319  0.00  0.00    -0.034 A 
ATOM      5  C4  UNL d   1       5.006   4.720  -3.033  0.00  0.00     0.162 A 
ATOM      6  C5  UNL d   1       5.452   3.694  -2.207  0.00  0.00     0.062 A 
ATOM      7  F   UNL d   1       5.896   3.976  -0.973  0.00  0.00    -0.097 F 
ATOM      8  F1  UNL d   1       5.031   5.981  -2.576  0.00  0.00    -0.096 F 
ATOM      9  I   UNL d   1       3.875   5.970  -5.559  0.00  0.00    -0.060 I 
ATOM     10  F2  UNL d   1       4.091   2.807  -5.992  0.00  0.00    -0.096 F 
ATOM     11  F3  UNL d   1       4.963   0.824  -4.366  0.00  0.00    -0.097 F 
ATOM     12  F4  UNL d   1       5.867   1.395  -1.856  0.00  0.00    -0.092 F 
ENDROOT
TORSDOF 0
ENDMDL
