MODEL 1
REMARK minimizedAffinity 13.0374317
REMARK minimizedRMSD -1
REMARK  0 active torsions:
REMARK  status: ('A' for Active; 'I' for Inactive)
ROOT
ATOM      1  C   UNL d   1       1.597  -2.111  -3.805  0.00  0.00     0.124 A 
ATOM      2  C1  UNL d   1       0.220  -2.222  -3.936  0.00  0.00     0.062 A 
ATOM      3  C2  UNL d   1      -0.607  -2.019  -2.835  0.00  0.00     0.162 A 
ATOM      4  C3  UNL d   1      -0.058  -1.702  -1.592  0.00  0.00    -0.034 A 
ATOM      5  C4  UNL d   1       1.328  -1.593  -1.468  0.00  0.00     0.162 A 
ATOM      6  C5  UNL d   1       2.150  -1.797  -2.572  0.00  0.00     0.062 A 
ATOM      7  F   UNL d   1       3.480  -1.690  -2.444  0.00  0.00    -0.097 F 
ATOM      8  F1  UNL d   1       1.889  -1.290  -0.288  0.00  0.00    -0.096 F 
ATOM      9  I   UNL d   1      -1.290  -1.398   0.058  0.00  0.00    -0.060 I 
ATOM     10  F2  UNL d   1      -1.934  -2.133  -2.990  0.00  0.00    -0.096 F 
ATOM     11  F3  UNL d   1      -0.317  -2.527  -5.127  0.00  0.00    -0.097 F 
ATOM     12  F4  UNL d   1       2.390  -2.308  -4.867  0.00  0.00    -0.092 F 
ENDROOT
TORSDOF 0
ENDMDL
