MODEL 1
REMARK minimizedAffinity 20.2513447
REMARK minimizedRMSD -1
REMARK  0 active torsions:
REMARK  status: ('A' for Active; 'I' for Inactive)
ROOT
ATOM      1  C   UNL d   1       3.250   5.118  -1.233  0.00  0.00     0.124 A 
ATOM      2  C1  UNL d   1       2.307   5.563  -2.149  0.00  0.00     0.062 A 
ATOM      3  C2  UNL d   1       2.597   5.558  -3.511  0.00  0.00     0.162 A 
ATOM      4  C3  UNL d   1       3.836   5.105  -3.965  0.00  0.00    -0.034 A 
ATOM      5  C4  UNL d   1       4.780   4.660  -3.037  0.00  0.00     0.162 A 
ATOM      6  C5  UNL d   1       4.485   4.667  -1.678  0.00  0.00     0.062 A 
ATOM      7  F   UNL d   1       5.398   4.237  -0.794  0.00  0.00    -0.097 F 
ATOM      8  F1  UNL d   1       5.981   4.219  -3.440  0.00  0.00    -0.096 F 
ATOM      9  I   UNL d   1       4.273   5.096  -6.000  0.00  0.00    -0.060 I 
ATOM     10  F2  UNL d   1       1.667   5.993  -4.373  0.00  0.00    -0.096 F 
ATOM     11  F3  UNL d   1       1.114   5.999  -1.722  0.00  0.00    -0.097 F 
ATOM     12  F4  UNL d   1       2.969   5.125   0.076  0.00  0.00    -0.092 F 
ENDROOT
TORSDOF 0
ENDMDL
