MODEL 1
REMARK minimizedAffinity 9.01808929
REMARK minimizedRMSD -1
REMARK  0 active torsions:
REMARK  status: ('A' for Active; 'I' for Inactive)
ROOT
ATOM      1  C   UNL d   1       4.919   5.089  -2.664  0.00  0.00     0.124 A 
ATOM      2  C1  UNL d   1       3.801   4.792  -3.431  0.00  0.00     0.062 A 
ATOM      3  C2  UNL d   1       2.682   4.210  -2.842  0.00  0.00     0.162 A 
ATOM      4  C3  UNL d   1       2.675   3.922  -1.477  0.00  0.00    -0.034 A 
ATOM      5  C4  UNL d   1       3.804   4.223  -0.712  0.00  0.00     0.162 A 
ATOM      6  C5  UNL d   1       4.919   4.805  -1.306  0.00  0.00     0.062 A 
ATOM      7  F   UNL d   1       5.999   5.091  -0.563  0.00  0.00    -0.097 F 
ATOM      8  F1  UNL d   1       3.831   3.960   0.603  0.00  0.00    -0.096 F 
ATOM      9  I   UNL d   1       1.004   3.053  -0.592  0.00  0.00    -0.060 I 
ATOM     10  F2  UNL d   1       1.616   3.934  -3.607  0.00  0.00    -0.096 F 
ATOM     11  F3  UNL d   1       3.798   5.065  -4.744  0.00  0.00    -0.097 F 
ATOM     12  F4  UNL d   1       5.994   5.648  -3.234  0.00  0.00    -0.092 F 
ENDROOT
TORSDOF 0
ENDMDL
