MODEL 1
REMARK minimizedAffinity 13.4628344
REMARK minimizedRMSD -1
REMARK  0 active torsions:
REMARK  status: ('A' for Active; 'I' for Inactive)
ROOT
ATOM      1  C   UNL d   1      -2.839  -3.284   0.416  0.00  0.00     0.124 A 
ATOM      2  C1  UNL d   1      -2.084  -3.511   1.558  0.00  0.00     0.062 A 
ATOM      3  C2  UNL d   1      -0.738  -3.159   1.589  0.00  0.00     0.162 A 
ATOM      4  C3  UNL d   1      -0.138  -2.575   0.474  0.00  0.00    -0.034 A 
ATOM      5  C4  UNL d   1      -0.903  -2.351  -0.672  0.00  0.00     0.162 A 
ATOM      6  C5  UNL d   1      -2.248  -2.704  -0.698  0.00  0.00     0.062 A 
ATOM      7  F   UNL d   1      -2.975  -2.484  -1.803  0.00  0.00    -0.097 F 
ATOM      8  F1  UNL d   1      -0.357  -1.791  -1.762  0.00  0.00    -0.096 F 
ATOM      9  I   UNL d   1       1.875  -2.047   0.516  0.00  0.00    -0.060 I 
ATOM     10  F2  UNL d   1      -0.033  -3.390   2.707  0.00  0.00    -0.096 F 
ATOM     11  F3  UNL d   1      -2.653  -4.072   2.635  0.00  0.00    -0.097 F 
ATOM     12  F4  UNL d   1      -4.134  -3.625   0.388  0.00  0.00    -0.092 F 
ENDROOT
TORSDOF 0
ENDMDL
