MODEL 1
REMARK minimizedAffinity 11.3296432
REMARK minimizedRMSD -1
REMARK  0 active torsions:
REMARK  status: ('A' for Active; 'I' for Inactive)
ROOT
ATOM      1  C   UNL d   1      -1.924  -2.929   1.396  0.00  0.00     0.124 A 
ATOM      2  C1  UNL d   1      -0.583  -3.045   1.055  0.00  0.00     0.062 A 
ATOM      3  C2  UNL d   1      -0.205  -3.117  -0.283  0.00  0.00     0.162 A 
ATOM      4  C3  UNL d   1      -1.168  -3.071  -1.290  0.00  0.00    -0.034 A 
ATOM      5  C4  UNL d   1      -2.515  -2.955  -0.940  0.00  0.00     0.162 A 
ATOM      6  C5  UNL d   1      -2.888  -2.884   0.398  0.00  0.00     0.062 A 
ATOM      7  F   UNL d   1      -4.184  -2.772   0.726  0.00  0.00    -0.097 F 
ATOM      8  F1  UNL d   1      -3.467  -2.909  -1.883  0.00  0.00    -0.096 F 
ATOM      9  I   UNL d   1      -0.606  -3.177  -3.291  0.00  0.00    -0.060 I 
ATOM     10  F2  UNL d   1       1.098  -3.228  -0.583  0.00  0.00    -0.096 F 
ATOM     11  F3  UNL d   1       0.350  -3.090   2.016  0.00  0.00    -0.097 F 
ATOM     12  F4  UNL d   1      -2.286  -2.862   2.683  0.00  0.00    -0.092 F 
ENDROOT
TORSDOF 0
ENDMDL
