MODEL 1
REMARK minimizedAffinity 6.98159838
REMARK minimizedRMSD -1
REMARK  0 active torsions:
REMARK  status: ('A' for Active; 'I' for Inactive)
ROOT
ATOM      1  C   UNL d   1      -1.826   0.433   2.390  0.00  0.00     0.124 A 
ATOM      2  C1  UNL d   1      -2.106  -0.896   2.105  0.00  0.00     0.062 A 
ATOM      3  C2  UNL d   1      -2.402  -1.786   3.134  0.00  0.00     0.162 A 
ATOM      4  C3  UNL d   1      -2.419  -1.349   4.458  0.00  0.00    -0.034 A 
ATOM      5  C4  UNL d   1      -2.135  -0.011   4.738  0.00  0.00     0.162 A 
ATOM      6  C5  UNL d   1      -1.841   0.874   3.706  0.00  0.00     0.062 A 
ATOM      7  F   UNL d   1      -1.570   2.158   3.983  0.00  0.00    -0.097 F 
ATOM      8  F1  UNL d   1      -2.144   0.443   6.000  0.00  0.00    -0.096 F 
ATOM      9  I   UNL d   1      -2.861  -2.676   6.000  0.00  0.00    -0.060 I 
ATOM     10  F2  UNL d   1      -2.669  -3.064   2.829  0.00  0.00    -0.096 F 
ATOM     11  F3  UNL d   1      -2.091  -1.325   0.835  0.00  0.00    -0.097 F 
ATOM     12  F4  UNL d   1      -1.541   1.287   1.398  0.00  0.00    -0.092 F 
ENDROOT
TORSDOF 0
ENDMDL
