MODEL 1
REMARK minimizedAffinity 4.22410583
REMARK minimizedRMSD -1
REMARK  0 active torsions:
REMARK  status: ('A' for Active; 'I' for Inactive)
ROOT
ATOM      1  C   UNL d   1      -1.048  -1.043  -0.017  0.00  0.00     0.124 A 
ATOM      2  C1  UNL d   1      -1.365  -2.077   0.853  0.00  0.00     0.062 A 
ATOM      3  C2  UNL d   1      -1.718  -1.800   2.170  0.00  0.00     0.162 A 
ATOM      4  C3  UNL d   1      -1.758  -0.482   2.626  0.00  0.00    -0.034 A 
ATOM      5  C4  UNL d   1      -1.438   0.553   1.746  0.00  0.00     0.162 A 
ATOM      6  C5  UNL d   1      -1.085   0.271   0.430  0.00  0.00     0.062 A 
ATOM      7  F   UNL d   1      -0.779   1.271  -0.409  0.00  0.00    -0.097 F 
ATOM      8  F1  UNL d   1      -1.466   1.831   2.151  0.00  0.00    -0.096 F 
ATOM      9  I   UNL d   1      -2.286  -0.064   4.595  0.00  0.00    -0.060 I 
ATOM     10  F2  UNL d   1      -2.019  -2.819   2.989  0.00  0.00    -0.096 F 
ATOM     11  F3  UNL d   1      -1.329  -3.347   0.424  0.00  0.00    -0.097 F 
ATOM     12  F4  UNL d   1      -0.707  -1.312  -1.284  0.00  0.00    -0.092 F 
ENDROOT
TORSDOF 0
ENDMDL
