MODEL 1
REMARK minimizedAffinity 26.0121078
REMARK minimizedRMSD -1
REMARK  0 active torsions:
REMARK  status: ('A' for Active; 'I' for Inactive)
ROOT
ATOM      1  C   UNL d   1       2.495   4.969  -1.891  0.00  0.00     0.124 A 
ATOM      2  C1  UNL d   1       3.751   4.465  -1.582  0.00  0.00     0.062 A 
ATOM      3  C2  UNL d   1       4.744   4.414  -2.556  0.00  0.00     0.162 A 
ATOM      4  C3  UNL d   1       4.486   4.870  -3.849  0.00  0.00    -0.034 A 
ATOM      5  C4  UNL d   1       3.220   5.374  -4.153  0.00  0.00     0.162 A 
ATOM      6  C5  UNL d   1       2.231   5.423  -3.176  0.00  0.00     0.062 A 
ATOM      7  F   UNL d   1       1.018   5.910  -3.476  0.00  0.00    -0.097 F 
ATOM      8  F1  UNL d   1       2.938   5.821  -5.385  0.00  0.00    -0.096 F 
ATOM      9  I   UNL d   1       5.968   4.796  -5.308  0.00  0.00    -0.060 I 
ATOM     10  F2  UNL d   1       5.949   3.923  -2.229  0.00  0.00    -0.096 F 
ATOM     11  F3  UNL d   1       4.009   4.025  -0.342  0.00  0.00    -0.097 F 
ATOM     12  F4  UNL d   1       1.541   5.015  -0.953  0.00  0.00    -0.092 F 
ENDROOT
TORSDOF 0
ENDMDL
