MODEL 1
REMARK minimizedAffinity 11.0523415
REMARK minimizedRMSD -1
REMARK  0 active torsions:
REMARK  status: ('A' for Active; 'I' for Inactive)
ROOT
ATOM      1  C   UNL d   1      -1.753  -2.408  -1.408  0.00  0.00     0.124 A 
ATOM      2  C1  UNL d   1      -2.599  -3.416  -1.850  0.00  0.00     0.062 A 
ATOM      3  C2  UNL d   1      -2.425  -3.972  -3.114  0.00  0.00     0.162 A 
ATOM      4  C3  UNL d   1      -1.401  -3.520  -3.946  0.00  0.00    -0.034 A 
ATOM      5  C4  UNL d   1      -0.555  -2.505  -3.496  0.00  0.00     0.162 A 
ATOM      6  C5  UNL d   1      -0.733  -1.953  -2.231  0.00  0.00     0.062 A 
ATOM      7  F   UNL d   1       0.084  -0.979  -1.807  0.00  0.00    -0.097 F 
ATOM      8  F1  UNL d   1       0.440  -2.047  -4.270  0.00  0.00    -0.096 F 
ATOM      9  I   UNL d   1      -1.138  -4.348  -5.838  0.00  0.00    -0.060 I 
ATOM     10  F2  UNL d   1      -3.256  -4.945  -3.515  0.00  0.00    -0.096 F 
ATOM     11  F3  UNL d   1      -3.586  -3.857  -1.057  0.00  0.00    -0.097 F 
ATOM     12  F4  UNL d   1      -1.923  -1.875  -0.192  0.00  0.00    -0.092 F 
ENDROOT
TORSDOF 0
ENDMDL
