MODEL 1
REMARK minimizedAffinity 1.99818194
REMARK minimizedRMSD -1
REMARK  0 active torsions:
REMARK  status: ('A' for Active; 'I' for Inactive)
ROOT
ATOM      1  O1  BZF d   1      -0.731   2.676  -3.781  0.00  0.00    -0.204 OA
ATOM      2  C2  BZF d   1       0.152   3.652  -3.361  0.00  0.00     0.174 A 
ATOM      3  C3  BZF d   1       0.090   3.810  -2.024  0.00  0.00    -0.012 A 
ATOM      4  C3A BZF d   1      -0.827   2.810  -1.569  0.00  0.00    -0.107 A 
ATOM      5  C4  BZF d   1      -1.291   2.453  -0.335  0.00  0.00     0.055 A 
ATOM      6  C5  BZF d   1      -2.235   1.481  -0.240  0.00  0.00    -0.016 A 
ATOM      7  C6  BZF d   1      -2.741   0.848  -1.358  0.00  0.00     0.022 A 
ATOM      8  C7  BZF d   1      -2.307   1.164  -2.602  0.00  0.00     0.029 A 
ATOM      9  C7A BZF d   1      -1.329   2.124  -2.699  0.00  0.00     0.058 A 
ENDROOT
TORSDOF 0
ENDMDL
