MODEL 1
REMARK minimizedAffinity 1.39719343
REMARK minimizedRMSD -1
REMARK  0 active torsions:
REMARK  status: ('A' for Active; 'I' for Inactive)
ROOT
ATOM      1  O1  BZF d   1       2.389  -2.388  -0.536  0.00  0.00    -0.204 OA
ATOM      2  C2  BZF d   1       3.269  -1.430  -0.070  0.00  0.00     0.174 A 
ATOM      3  C3  BZF d   1       2.624  -0.512   0.678  0.00  0.00    -0.012 A 
ATOM      4  C3A BZF d   1       1.271  -0.973   0.757  0.00  0.00    -0.107 A 
ATOM      5  C4  BZF d   1       0.151  -0.496   1.376  0.00  0.00     0.055 A 
ATOM      6  C5  BZF d   1      -1.029  -1.144   1.195  0.00  0.00    -0.016 A 
ATOM      7  C6  BZF d   1      -1.127  -2.267   0.399  0.00  0.00     0.022 A 
ATOM      8  C7  BZF d   1      -0.043  -2.780  -0.231  0.00  0.00     0.029 A 
ATOM      9  C7A BZF d   1       1.158  -2.146  -0.024  0.00  0.00     0.058 A 
ENDROOT
TORSDOF 0
ENDMDL
