MODEL 1
REMARK minimizedAffinity 0.212234601
REMARK minimizedRMSD -1
REMARK  0 active torsions:
REMARK  status: ('A' for Active; 'I' for Inactive)
ROOT
ATOM      1  O1  BZF d   1       2.274  -3.342  -0.625  0.00  0.00    -0.204 OA
ATOM      2  C2  BZF d   1       1.226  -4.106  -1.100  0.00  0.00     0.174 A 
ATOM      3  C3  BZF d   1       0.062  -3.726  -0.533  0.00  0.00    -0.012 A 
ATOM      4  C3A BZF d   1       0.392  -2.598   0.283  0.00  0.00    -0.107 A 
ATOM      5  C4  BZF d   1      -0.344  -1.772   1.084  0.00  0.00     0.055 A 
ATOM      6  C5  BZF d   1       0.293  -0.809   1.801  0.00  0.00    -0.016 A 
ATOM      7  C6  BZF d   1       1.662  -0.647   1.745  0.00  0.00     0.022 A 
ATOM      8  C7  BZF d   1       2.433  -1.439   0.960  0.00  0.00     0.029 A 
ATOM      9  C7A BZF d   1       1.789  -2.391   0.209  0.00  0.00     0.058 A 
ENDROOT
TORSDOF 0
ENDMDL
