MODEL 1
REMARK minimizedAffinity -2.76308131
REMARK minimizedRMSD -1
REMARK  0 active torsions:
REMARK  status: ('A' for Active; 'I' for Inactive)
ROOT
ATOM      1  O1  BZF d   1      -4.911  -2.998   2.384  0.00  0.00    -0.204 OA
ATOM      2  C2  BZF d   1      -4.880  -4.116   1.574  0.00  0.00     0.174 A 
ATOM      3  C3  BZF d   1      -4.943  -5.243   2.312  0.00  0.00    -0.012 A 
ATOM      4  C3A BZF d   1      -5.112  -4.800   3.662  0.00  0.00    -0.107 A 
ATOM      5  C4  BZF d   1      -5.254  -5.452   4.854  0.00  0.00     0.055 A 
ATOM      6  C5  BZF d   1      -5.325  -4.726   6.000  0.00  0.00    -0.016 A 
ATOM      7  C6  BZF d   1      -5.252  -3.348   5.992  0.00  0.00     0.022 A 
ATOM      8  C7  BZF d   1      -5.117  -2.657   4.834  0.00  0.00     0.029 A 
ATOM      9  C7A BZF d   1      -5.078  -3.386   3.671  0.00  0.00     0.058 A 
ENDROOT
TORSDOF 0
ENDMDL
