MODEL 1
REMARK minimizedAffinity -1.69346488
REMARK minimizedRMSD -1
REMARK  0 active torsions:
REMARK  status: ('A' for Active; 'I' for Inactive)
ROOT
ATOM      1  O1  BZF d   1      -1.133  -2.333   0.745  0.00  0.00    -0.204 OA
ATOM      2  C2  BZF d   1      -1.487  -1.165   1.392  0.00  0.00     0.174 A 
ATOM      3  C3  BZF d   1      -0.409  -0.378   1.582  0.00  0.00    -0.012 A 
ATOM      4  C3A BZF d   1       0.672  -1.057   0.936  0.00  0.00    -0.107 A 
ATOM      5  C4  BZF d   1       1.996  -0.768   0.767  0.00  0.00     0.055 A 
ATOM      6  C5  BZF d   1       2.797  -1.676   0.151  0.00  0.00    -0.016 A 
ATOM      7  C6  BZF d   1       2.310  -2.885  -0.302  0.00  0.00     0.022 A 
ATOM      8  C7  BZF d   1       1.003  -3.215  -0.161  0.00  0.00     0.029 A 
ATOM      9  C7A BZF d   1       0.184  -2.285   0.431  0.00  0.00     0.058 A 
ENDROOT
TORSDOF 0
ENDMDL
