MODEL 1
REMARK minimizedAffinity 1.53107154
REMARK minimizedRMSD -1
REMARK  0 active torsions:
REMARK  status: ('A' for Active; 'I' for Inactive)
ROOT
ATOM      1  O1  BZF d   1       2.130  -2.790  -0.405  0.00  0.00    -0.204 OA
ATOM      2  C2  BZF d   1       1.285  -3.718  -0.980  0.00  0.00     0.174 A 
ATOM      3  C3  BZF d   1       0.001  -3.467  -0.650  0.00  0.00    -0.012 A 
ATOM      4  C3A BZF d   1       0.039  -2.255   0.109  0.00  0.00    -0.107 A 
ATOM      5  C4  BZF d   1      -0.923  -1.490   0.703  0.00  0.00     0.055 A 
ATOM      6  C5  BZF d   1      -0.548  -0.405   1.431  0.00  0.00    -0.016 A 
ATOM      7  C6  BZF d   1       0.778  -0.060   1.590  0.00  0.00     0.022 A 
ATOM      8  C7  BZF d   1       1.768  -0.786   1.015  0.00  0.00     0.029 A 
ATOM      9  C7A BZF d   1       1.390  -1.864   0.252  0.00  0.00     0.058 A 
ENDROOT
TORSDOF 0
ENDMDL
