MODEL 1
REMARK minimizedAffinity 6.21368837
REMARK minimizedRMSD -1
REMARK  0 active torsions:
REMARK  status: ('A' for Active; 'I' for Inactive)
ROOT
ATOM      1  O1  BZF d   1       0.886  -0.898  -0.594  0.00  0.00    -0.204 OA
ATOM      2  C2  BZF d   1      -0.451  -1.191  -0.412  0.00  0.00     0.174 A 
ATOM      3  C3  BZF d   1      -0.766  -1.195   0.900  0.00  0.00    -0.012 A 
ATOM      4  C3A BZF d   1       0.431  -0.794   1.575  0.00  0.00    -0.107 A 
ATOM      5  C4  BZF d   1       0.746  -0.595   2.889  0.00  0.00     0.055 A 
ATOM      6  C5  BZF d   1       2.025  -0.277   3.220  0.00  0.00    -0.016 A 
ATOM      7  C6  BZF d   1       3.013  -0.154   2.266  0.00  0.00     0.022 A 
ATOM      8  C7  BZF d   1       2.747  -0.336   0.950  0.00  0.00     0.029 A 
ATOM      9  C7A BZF d   1       1.449  -0.626   0.608  0.00  0.00     0.058 A 
ENDROOT
TORSDOF 0
ENDMDL
