MODEL 1
REMARK minimizedAffinity 4.12716103
REMARK minimizedRMSD -1
REMARK  0 active torsions:
REMARK  status: ('A' for Active; 'I' for Inactive)
ROOT
ATOM      1  O1  BZF d   1       1.892   0.808   2.093  0.00  0.00    -0.204 OA
ATOM      2  C2  BZF d   1       3.134   0.515   1.564  0.00  0.00     0.174 A 
ATOM      3  C3  BZF d   1       3.055  -0.516   0.699  0.00  0.00    -0.012 A 
ATOM      4  C3A BZF d   1       1.661  -0.831   0.617  0.00  0.00    -0.107 A 
ATOM      5  C4  BZF d   1       0.948  -1.755  -0.093  0.00  0.00     0.055 A 
ATOM      6  C5  BZF d   1      -0.392  -1.851   0.109  0.00  0.00    -0.016 A 
ATOM      7  C6  BZF d   1      -1.050  -1.044   1.014  0.00  0.00     0.022 A 
ATOM      8  C7  BZF d   1      -0.386  -0.110   1.737  0.00  0.00     0.029 A 
ATOM      9  C7A BZF d   1       0.963   0.012   1.511  0.00  0.00     0.058 A 
ENDROOT
TORSDOF 0
ENDMDL
