MODEL 1
REMARK minimizedAffinity 2.70962143
REMARK minimizedRMSD -1
REMARK  0 active torsions:
REMARK  status: ('A' for Active; 'I' for Inactive)
ROOT
ATOM      1  O1  BZF d   1       2.365   0.306   2.542  0.00  0.00    -0.204 OA
ATOM      2  C2  BZF d   1       3.552   0.049   1.884  0.00  0.00     0.174 A 
ATOM      3  C3  BZF d   1       3.326  -0.609   0.728  0.00  0.00    -0.012 A 
ATOM      4  C3A BZF d   1       1.902  -0.692   0.615  0.00  0.00    -0.107 A 
ATOM      5  C4  BZF d   1       1.064  -1.219  -0.326  0.00  0.00     0.055 A 
ATOM      6  C5  BZF d   1      -0.276  -1.201  -0.101  0.00  0.00    -0.016 A 
ATOM      7  C6  BZF d   1      -0.811  -0.669   1.054  0.00  0.00     0.022 A 
ATOM      8  C7  BZF d   1      -0.020  -0.130   2.013  0.00  0.00     0.029 A 
ATOM      9  C7A BZF d   1       1.332  -0.117   1.775  0.00  0.00     0.058 A 
ENDROOT
TORSDOF 0
ENDMDL
