MODEL 1
REMARK minimizedAffinity 1.50241423
REMARK minimizedRMSD -1
REMARK  0 active torsions:
REMARK  status: ('A' for Active; 'I' for Inactive)
ROOT
ATOM      1  O1  BZF d   1       2.320  -2.671  -0.780  0.00  0.00    -0.204 OA
ATOM      2  C2  BZF d   1       1.455  -3.672  -1.179  0.00  0.00     0.174 A 
ATOM      3  C3  BZF d   1       0.227  -3.479  -0.658  0.00  0.00    -0.012 A 
ATOM      4  C3A BZF d   1       0.306  -2.232   0.041  0.00  0.00    -0.107 A 
ATOM      5  C4  BZF d   1      -0.597  -1.496   0.752  0.00  0.00     0.055 A 
ATOM      6  C5  BZF d   1      -0.182  -0.359   1.371  0.00  0.00    -0.016 A 
ATOM      7  C6  BZF d   1       1.128   0.067   1.303  0.00  0.00     0.022 A 
ATOM      8  C7  BZF d   1       2.060  -0.628   0.605  0.00  0.00     0.029 A 
ATOM      9  C7A BZF d   1       1.636  -1.759  -0.048  0.00  0.00     0.058 A 
ENDROOT
TORSDOF 0
ENDMDL
