MODEL 1
REMARK minimizedAffinity 0.0601319745
REMARK minimizedRMSD -1
REMARK  0 active torsions:
REMARK  status: ('A' for Active; 'I' for Inactive)
ROOT
ATOM      1  O1  BZF d   1      -0.391  -3.563  -0.002  0.00  0.00    -0.204 OA
ATOM      2  C2  BZF d   1       0.868  -4.131  -0.037  0.00  0.00     0.174 A 
ATOM      3  C3  BZF d   1       1.818  -3.202   0.194  0.00  0.00    -0.012 A 
ATOM      4  C3A BZF d   1       1.103  -1.995   0.477  0.00  0.00    -0.107 A 
ATOM      5  C4  BZF d   1       1.493  -0.727   0.800  0.00  0.00     0.055 A 
ATOM      6  C5  BZF d   1       0.547   0.239   0.941  0.00  0.00    -0.016 A 
ATOM      7  C6  BZF d   1      -0.794  -0.027   0.762  0.00  0.00     0.022 A 
ATOM      8  C7  BZF d   1      -1.230  -1.271   0.446  0.00  0.00     0.029 A 
ATOM      9  C7A BZF d   1      -0.279  -2.256   0.335  0.00  0.00     0.058 A 
ENDROOT
TORSDOF 0
ENDMDL
