MODEL 1
REMARK minimizedAffinity -2.80725241
REMARK minimizedRMSD -1
REMARK  0 active torsions:
REMARK  status: ('A' for Active; 'I' for Inactive)
ROOT
ATOM      1  O1  BZF d   1       3.117  -2.356  -0.125  0.00  0.00    -0.204 OA
ATOM      2  C2  BZF d   1       2.903  -3.694  -0.392  0.00  0.00     0.174 A 
ATOM      3  C3  BZF d   1       1.601  -4.011  -0.237  0.00  0.00    -0.012 A 
ATOM      4  C3A BZF d   1       0.946  -2.775   0.062  0.00  0.00    -0.107 A 
ATOM      5  C4  BZF d   1      -0.354  -2.436   0.305  0.00  0.00     0.055 A 
ATOM      6  C5  BZF d   1      -0.652  -1.152   0.637  0.00  0.00    -0.016 A 
ATOM      7  C6  BZF d   1       0.325  -0.184   0.739  0.00  0.00     0.022 A 
ATOM      8  C7  BZF d   1       1.628  -0.471   0.501  0.00  0.00     0.029 A 
ATOM      9  C7A BZF d   1       1.928  -1.760   0.134  0.00  0.00     0.058 A 
ENDROOT
TORSDOF 0
ENDMDL
