MODEL 1
REMARK minimizedAffinity 10.5145149
REMARK minimizedRMSD -1
REMARK  0 active torsions:
REMARK  status: ('A' for Active; 'I' for Inactive)
ROOT
ATOM      1  O1  BZF d   1       4.613   3.178  -1.352  0.00  0.00    -0.204 OA
ATOM      2  C2  BZF d   1       4.209   4.490  -1.193  0.00  0.00     0.174 A 
ATOM      3  C3  BZF d   1       3.195   4.784  -2.032  0.00  0.00    -0.012 A 
ATOM      4  C3A BZF d   1       2.888   3.554  -2.697  0.00  0.00    -0.107 A 
ATOM      5  C4  BZF d   1       1.963   3.201  -3.636  0.00  0.00     0.055 A 
ATOM      6  C5  BZF d   1       1.974   1.935  -4.131  0.00  0.00    -0.016 A 
ATOM      7  C6  BZF d   1       2.899   1.000  -3.713  0.00  0.00     0.022 A 
ATOM      8  C7  BZF d   1       3.833   1.303  -2.779  0.00  0.00     0.029 A 
ATOM      9  C7A BZF d   1       3.803   2.572  -2.254  0.00  0.00     0.058 A 
ENDROOT
TORSDOF 0
ENDMDL
