MODEL 1
REMARK minimizedAffinity -1.56542504
REMARK minimizedRMSD -1
REMARK  0 active torsions:
REMARK  status: ('A' for Active; 'I' for Inactive)
ROOT
ATOM      1  O1  BZF d   1      -1.670  -1.408   0.988  0.00  0.00    -0.204 OA
ATOM      2  C2  BZF d   1      -1.623  -0.156   1.571  0.00  0.00     0.174 A 
ATOM      3  C3  BZF d   1      -0.354   0.296   1.630  0.00  0.00    -0.012 A 
ATOM      4  C3A BZF d   1       0.431  -0.697   0.964  0.00  0.00    -0.107 A 
ATOM      5  C4  BZF d   1       1.763  -0.810   0.685  0.00  0.00     0.055 A 
ATOM      6  C5  BZF d   1       2.219  -1.940   0.084  0.00  0.00    -0.016 A 
ATOM      7  C6  BZF d   1       1.373  -2.979  -0.246  0.00  0.00     0.022 A 
ATOM      8  C7  BZF d   1       0.043  -2.911   0.007  0.00  0.00     0.029 A 
ATOM      9  C7A BZF d   1      -0.425  -1.756   0.584  0.00  0.00     0.058 A 
ENDROOT
TORSDOF 0
ENDMDL
