MODEL 1
REMARK minimizedAffinity -2.4986217
REMARK minimizedRMSD -1
REMARK  0 active torsions:
REMARK  status: ('A' for Active; 'I' for Inactive)
ROOT
ATOM      1  O1  BZF d   1       0.960  -3.675  -0.235  0.00  0.00    -0.204 OA
ATOM      2  C2  BZF d   1       2.289  -3.511  -0.574  0.00  0.00     0.174 A 
ATOM      3  C3  BZF d   1       2.690  -2.246  -0.338  0.00  0.00    -0.012 A 
ATOM      4  C3A BZF d   1       1.566  -1.601   0.268  0.00  0.00    -0.107 A 
ATOM      5  C4  BZF d   1       1.352  -0.340   0.745  0.00  0.00     0.055 A 
ATOM      6  C5  BZF d   1       0.118  -0.009   1.208  0.00  0.00    -0.016 A 
ATOM      7  C6  BZF d   1      -0.925  -0.913   1.205  0.00  0.00     0.022 A 
ATOM      8  C7  BZF d   1      -0.759  -2.177   0.746  0.00  0.00     0.029 A 
ATOM      9  C7A BZF d   1       0.495  -2.524   0.308  0.00  0.00     0.058 A 
ENDROOT
TORSDOF 0
ENDMDL
