MODEL 1
REMARK minimizedAffinity -3.73991585
REMARK minimizedRMSD -1
REMARK  0 active torsions:
REMARK  status: ('A' for Active; 'I' for Inactive)
ROOT
ATOM      1  O1  BZF d   1       1.611  -3.581  -0.218  0.00  0.00    -0.204 OA
ATOM      2  C2  BZF d   1       2.883  -3.233  -0.632  0.00  0.00     0.174 A 
ATOM      3  C3  BZF d   1       3.093  -1.910  -0.472  0.00  0.00    -0.012 A 
ATOM      4  C3A BZF d   1       1.910  -1.415   0.161  0.00  0.00    -0.107 A 
ATOM      5  C4  BZF d   1       1.523  -0.178   0.592  0.00  0.00     0.055 A 
ATOM      6  C5  BZF d   1       0.273  -0.017   1.102  0.00  0.00    -0.016 A 
ATOM      7  C6  BZF d   1      -0.615  -1.068   1.191  0.00  0.00     0.022 A 
ATOM      8  C7  BZF d   1      -0.275  -2.315   0.781  0.00  0.00     0.029 A 
ATOM      9  C7A BZF d   1       0.998  -2.488   0.296  0.00  0.00     0.058 A 
ENDROOT
TORSDOF 0
ENDMDL
