MODEL 1
REMARK minimizedAffinity 2.57774782
REMARK minimizedRMSD -1
REMARK  0 active torsions:
REMARK  status: ('A' for Active; 'I' for Inactive)
ROOT
ATOM      1  O1  BZF d   1       0.744   0.277   1.107  0.00  0.00    -0.204 OA
ATOM      2  C2  BZF d   1      -0.577   0.076   1.458  0.00  0.00     0.174 A 
ATOM      3  C3  BZF d   1      -1.006  -1.130   1.033  0.00  0.00    -0.012 A 
ATOM      4  C3A BZF d   1       0.143  -1.757   0.456  0.00  0.00    -0.107 A 
ATOM      5  C4  BZF d   1       0.356  -2.974  -0.125  0.00  0.00     0.055 A 
ATOM      6  C5  BZF d   1       1.577  -3.249  -0.654  0.00  0.00    -0.016 A 
ATOM      7  C6  BZF d   1       2.605  -2.330  -0.624  0.00  0.00     0.022 A 
ATOM      8  C7  BZF d   1       2.443  -1.111  -0.054  0.00  0.00     0.029 A 
ATOM      9  C7A BZF d   1       1.220  -0.842   0.511  0.00  0.00     0.058 A 
ENDROOT
TORSDOF 0
ENDMDL
