MODEL 1
REMARK minimizedAffinity 2.20850897
REMARK minimizedRMSD -1
REMARK  0 active torsions:
REMARK  status: ('A' for Active; 'I' for Inactive)
ROOT
ATOM      1  O1  BZF d   1       0.668  -3.900   0.193  0.00  0.00    -0.204 OA
ATOM      2  C2  BZF d   1       1.975  -4.030  -0.233  0.00  0.00     0.174 A 
ATOM      3  C3  BZF d   1       2.598  -2.834  -0.239  0.00  0.00    -0.012 A 
ATOM      4  C3A BZF d   1       1.647  -1.912   0.301  0.00  0.00    -0.107 A 
ATOM      5  C4  BZF d   1       1.682  -0.572   0.562  0.00  0.00     0.055 A 
ATOM      6  C5  BZF d   1       0.559   0.041   1.021  0.00  0.00    -0.016 A 
ATOM      7  C6  BZF d   1      -0.616  -0.652   1.223  0.00  0.00     0.022 A 
ATOM      8  C7  BZF d   1      -0.698  -1.984   0.983  0.00  0.00     0.029 A 
ATOM      9  C7A BZF d   1       0.444  -2.612   0.551  0.00  0.00     0.058 A 
ENDROOT
TORSDOF 0
ENDMDL
