MODEL 1
REMARK minimizedAffinity -3.59990811
REMARK minimizedRMSD -1
REMARK  1 active torsions:
REMARK  status: ('A' for Active; 'I' for Inactive)
REMARK    1  A    between atoms: C3_4  and  O_7 
ROOT
ATOM      1  C   UNL d   1       0.816   0.169   0.483  0.00  0.00    -0.033 A 
ATOM      2  C1  UNL d   1      -0.549  -0.009   0.716  0.00  0.00     0.039 A 
ATOM      3  C2  UNL d   1      -1.158   0.603   1.812  0.00  0.00    -0.080 A 
ATOM      4  C3  UNL d   1      -0.393   1.392   2.667  0.00  0.00     0.150 A 
ATOM      5  C4  UNL d   1       0.967   1.577   2.439  0.00  0.00    -0.007 A 
ATOM      6  C5  UNL d   1       1.574   0.964   1.344  0.00  0.00     0.039 A 
ENDROOT
BRANCH   4   7
ATOM      7  O   UNL d   1      -0.942   2.006   3.753  0.00  0.00    -0.526 OA
ATOM      8  H5  UNL d   1      -1.882   1.765   3.800  0.00  0.00     0.418 HD
ENDBRANCH   4   7
TORSDOF 1
ENDMDL
