MODEL 1
REMARK minimizedAffinity 0.237681597
REMARK minimizedRMSD -1
REMARK  1 active torsions:
REMARK  status: ('A' for Active; 'I' for Inactive)
REMARK    1  A    between atoms: C3_4  and  O_7 
ROOT
ATOM      1  C   UNL d   1       0.228   1.863   2.786  0.00  0.00    -0.033 A 
ATOM      2  C1  UNL d   1      -0.804   1.062   3.280  0.00  0.00     0.039 A 
ATOM      3  C2  UNL d   1      -1.530   0.244   2.412  0.00  0.00    -0.080 A 
ATOM      4  C3  UNL d   1      -1.215   0.235   1.057  0.00  0.00     0.150 A 
ATOM      5  C4  UNL d   1      -0.186   1.027   0.559  0.00  0.00    -0.007 A 
ATOM      6  C5  UNL d   1       0.538   1.845   1.426  0.00  0.00     0.039 A 
ENDROOT
BRANCH   4   7
ATOM      7  O   UNL d   1      -1.899  -0.544   0.171  0.00  0.00    -0.526 OA
ATOM      8  H5  UNL d   1      -2.599  -1.015   0.652  0.00  0.00     0.418 HD
ENDBRANCH   4   7
TORSDOF 1
ENDMDL
