MODEL 1
REMARK minimizedAffinity -2.51841521
REMARK minimizedRMSD -1
REMARK  1 active torsions:
REMARK  status: ('A' for Active; 'I' for Inactive)
REMARK    1  A    between atoms: C3_4  and  O_7 
ROOT
ATOM      1  C   UNL d   1      -1.384   0.322   1.806  0.00  0.00    -0.033 A 
ATOM      2  C1  UNL d   1      -0.569   1.137   2.596  0.00  0.00     0.039 A 
ATOM      3  C2  UNL d   1       0.708   1.488   2.154  0.00  0.00    -0.080 A 
ATOM      4  C3  UNL d   1       1.157   1.020   0.922  0.00  0.00     0.150 A 
ATOM      5  C4  UNL d   1       0.350   0.212   0.129  0.00  0.00    -0.007 A 
ATOM      6  C5  UNL d   1      -0.925  -0.139   0.572  0.00  0.00     0.039 A 
ENDROOT
BRANCH   4   7
ATOM      7  O   UNL d   1       2.398   1.332   0.451  0.00  0.00    -0.526 OA
ATOM      8  H5  UNL d   1       2.853   1.873   1.118  0.00  0.00     0.418 HD
ENDBRANCH   4   7
TORSDOF 1
ENDMDL
