MODEL 1
REMARK minimizedAffinity -4.04013157
REMARK minimizedRMSD -1
REMARK  1 active torsions:
REMARK  status: ('A' for Active; 'I' for Inactive)
REMARK    1  A    between atoms: C3_4  and  O_7 
ROOT
ATOM      1  C   UNL d   1      -0.017  -0.427   0.333  0.00  0.00    -0.033 A 
ATOM      2  C1  UNL d   1       0.983   0.413   0.827  0.00  0.00     0.039 A 
ATOM      3  C2  UNL d   1       0.737   1.213   1.944  0.00  0.00    -0.080 A 
ATOM      4  C3  UNL d   1      -0.512   1.163   2.559  0.00  0.00     0.150 A 
ATOM      5  C4  UNL d   1      -1.511   0.326   2.075  0.00  0.00    -0.007 A 
ATOM      6  C5  UNL d   1      -1.263  -0.472   0.958  0.00  0.00     0.039 A 
ENDROOT
BRANCH   4   7
ATOM      7  O   UNL d   1      -0.800   1.929   3.649  0.00  0.00    -0.526 OA
ATOM      8  H5  UNL d   1      -0.025   2.479   3.853  0.00  0.00     0.418 HD
ENDBRANCH   4   7
TORSDOF 1
ENDMDL
