MODEL 1
REMARK minimizedAffinity -3.75541568
REMARK minimizedRMSD -1
REMARK  1 active torsions:
REMARK  status: ('A' for Active; 'I' for Inactive)
REMARK    1  A    between atoms: C3_4  and  O_7 
ROOT
ATOM      1  C   UNL d   1      -0.273  -0.401   0.323  0.00  0.00    -0.033 A 
ATOM      2  C1  UNL d   1       0.743   0.481   0.697  0.00  0.00     0.039 A 
ATOM      3  C2  UNL d   1       0.582   1.300   1.816  0.00  0.00    -0.080 A 
ATOM      4  C3  UNL d   1      -0.597   1.227   2.552  0.00  0.00     0.150 A 
ATOM      5  C4  UNL d   1      -1.611   0.348   2.188  0.00  0.00    -0.007 A 
ATOM      6  C5  UNL d   1      -1.449  -0.468   1.070  0.00  0.00     0.039 A 
ENDROOT
BRANCH   4   7
ATOM      7  O   UNL d   1      -0.801   2.010   3.649  0.00  0.00    -0.526 OA
ATOM      8  H5  UNL d   1      -0.028   2.588   3.764  0.00  0.00     0.418 HD
ENDBRANCH   4   7
TORSDOF 1
ENDMDL
