MODEL 1
REMARK minimizedAffinity -1.7749685
REMARK minimizedRMSD -1
REMARK  1 active torsions:
REMARK  status: ('A' for Active; 'I' for Inactive)
REMARK    1  A    between atoms: C3_4  and  O_7 
ROOT
ATOM      1  C   UNL d   1       0.367   1.471   2.158  0.00  0.00    -0.033 A 
ATOM      2  C1  UNL d   1      -0.611   0.766   2.862  0.00  0.00     0.039 A 
ATOM      3  C2  UNL d   1      -1.539  -0.020   2.174  0.00  0.00    -0.080 A 
ATOM      4  C3  UNL d   1      -1.477  -0.092   0.785  0.00  0.00     0.150 A 
ATOM      5  C4  UNL d   1      -0.502   0.604   0.078  0.00  0.00    -0.007 A 
ATOM      6  C5  UNL d   1       0.422   1.388   0.766  0.00  0.00     0.039 A 
ENDROOT
BRANCH   4   7
ATOM      7  O   UNL d   1      -2.363  -0.842   0.071  0.00  0.00    -0.526 OA
ATOM      8  H5  UNL d   1      -2.996  -1.243   0.690  0.00  0.00     0.418 HD
ENDBRANCH   4   7
TORSDOF 1
ENDMDL
