MODEL 1
REMARK minimizedAffinity 0.923309743
REMARK minimizedRMSD -1
REMARK  1 active torsions:
REMARK  status: ('A' for Active; 'I' for Inactive)
REMARK    1  A    between atoms: C3_4  and  O_7 
ROOT
ATOM      1  C   UNL d   1      -1.627  -0.063   0.298  0.00  0.00    -0.033 A 
ATOM      2  C1  UNL d   1      -0.249   0.085   0.467  0.00  0.00     0.039 A 
ATOM      3  C2  UNL d   1       0.340  -0.201   1.701  0.00  0.00    -0.080 A 
ATOM      4  C3  UNL d   1      -0.460  -0.635   2.755  0.00  0.00     0.150 A 
ATOM      5  C4  UNL d   1      -1.833  -0.788   2.592  0.00  0.00    -0.007 A 
ATOM      6  C5  UNL d   1      -2.418  -0.501   1.360  0.00  0.00     0.039 A 
ENDROOT
BRANCH   4   7
ATOM      7  O   UNL d   1       0.068  -0.922   3.978  0.00  0.00    -0.526 OA
ATOM      8  H5  UNL d   1       1.023  -0.743   3.951  0.00  0.00     0.418 HD
ENDBRANCH   4   7
TORSDOF 1
ENDMDL
