MODEL 1
REMARK minimizedAffinity 8.2111969
REMARK minimizedRMSD -1
REMARK  0 active torsions:
REMARK  status: ('A' for Active; 'I' for Inactive)
ROOT
ATOM      1  C1  BNZ d   1      -3.273   5.670   0.749  0.00  0.00     0.000 A 
ATOM      2  C2  BNZ d   1      -4.027   5.982   1.849  0.00  0.00     0.000 A 
ATOM      3  C3  BNZ d   1      -5.392   5.997   1.781  0.00  0.00     0.000 A 
ATOM      4  C4  BNZ d   1      -6.000   5.739   0.605  0.00  0.00     0.000 A 
ATOM      5  C5  BNZ d   1      -5.253   5.432  -0.515  0.00  0.00     0.000 A 
ATOM      6  C6  BNZ d   1      -3.881   5.380  -0.433  0.00  0.00     0.000 A 
ENDROOT
TORSDOF 0
ENDMDL
