MODEL 1
REMARK minimizedAffinity 9.8178606
REMARK minimizedRMSD -1
REMARK  0 active torsions:
REMARK  status: ('A' for Active; 'I' for Inactive)
ROOT
ATOM      1  C1  BNZ d   1       0.488  -2.897  -5.998  0.00  0.00     0.000 A 
ATOM      2  C2  BNZ d   1       0.516  -1.528  -5.993  0.00  0.00     0.000 A 
ATOM      3  C3  BNZ d   1       1.704  -0.852  -5.988  0.00  0.00     0.000 A 
ATOM      4  C4  BNZ d   1       2.861  -1.544  -5.948  0.00  0.00     0.000 A 
ATOM      5  C5  BNZ d   1       2.849  -2.925  -5.944  0.00  0.00     0.000 A 
ATOM      6  C6  BNZ d   1       1.653  -3.602  -5.988  0.00  0.00     0.000 A 
ENDROOT
TORSDOF 0
ENDMDL
