MODEL 1
REMARK minimizedAffinity 10.2686453
REMARK minimizedRMSD -1
REMARK  0 active torsions:
REMARK  status: ('A' for Active; 'I' for Inactive)
ROOT
ATOM      1  C1  BNZ d   1      -1.052  -2.524   5.097  0.00  0.00     0.000 A 
ATOM      2  C2  BNZ d   1      -2.270  -1.899   5.128  0.00  0.00     0.000 A 
ATOM      3  C3  BNZ d   1      -3.357  -2.455   4.513  0.00  0.00     0.000 A 
ATOM      4  C4  BNZ d   1      -3.216  -3.612   3.834  0.00  0.00     0.000 A 
ATOM      5  C5  BNZ d   1      -1.992  -4.248   3.786  0.00  0.00     0.000 A 
ATOM      6  C6  BNZ d   1      -0.909  -3.706   4.439  0.00  0.00     0.000 A 
ENDROOT
TORSDOF 0
ENDMDL
