MODEL 1
REMARK minimizedAffinity 6.74567175
REMARK minimizedRMSD -1
REMARK  0 active torsions:
REMARK  status: ('A' for Active; 'I' for Inactive)
ROOT
ATOM      1  C1  BNZ d   1      -3.963   5.979  -0.706  0.00  0.00     0.000 A 
ATOM      2  C2  BNZ d   1      -5.331   5.973  -0.642  0.00  0.00     0.000 A 
ATOM      3  C3  BNZ d   1      -5.975   5.999   0.563  0.00  0.00     0.000 A 
ATOM      4  C4  BNZ d   1      -5.252   5.990   1.702  0.00  0.00     0.000 A 
ATOM      5  C5  BNZ d   1      -3.873   5.986   1.654  0.00  0.00     0.000 A 
ATOM      6  C6  BNZ d   1      -3.227   6.000   0.438  0.00  0.00     0.000 A 
ENDROOT
TORSDOF 0
ENDMDL
