MODEL 1
REMARK minimizedAffinity 3.81129408
REMARK minimizedRMSD -1
REMARK  0 active torsions:
REMARK  status: ('A' for Active; 'I' for Inactive)
ROOT
ATOM      1  C1  BNZ d   1      -5.261   5.726  -1.105  0.00  0.00     0.000 A 
ATOM      2  C2  BNZ d   1      -4.044   5.427  -1.657  0.00  0.00     0.000 A 
ATOM      3  C3  BNZ d   1      -2.916   5.386  -0.886  0.00  0.00     0.000 A 
ATOM      4  C4  BNZ d   1      -3.000   5.682   0.427  0.00  0.00     0.000 A 
ATOM      5  C5  BNZ d   1      -4.218   5.994   0.997  0.00  0.00     0.000 A 
ATOM      6  C6  BNZ d   1      -5.357   5.996   0.226  0.00  0.00     0.000 A 
ENDROOT
TORSDOF 0
ENDMDL
