MODEL 1
REMARK minimizedAffinity 11.4638338
REMARK minimizedRMSD -1
REMARK  0 active torsions:
REMARK  status: ('A' for Active; 'I' for Inactive)
ROOT
ATOM      1  C1  BNZ d   1      -0.582  -3.583   4.231  0.00  0.00     0.000 A 
ATOM      2  C2  BNZ d   1      -1.770  -3.462   4.903  0.00  0.00     0.000 A 
ATOM      3  C3  BNZ d   1      -2.410  -2.256   4.980  0.00  0.00     0.000 A 
ATOM      4  C4  BNZ d   1      -1.843  -1.168   4.422  0.00  0.00     0.000 A 
ATOM      5  C5  BNZ d   1      -0.641  -1.272   3.749  0.00  0.00     0.000 A 
ATOM      6  C6  BNZ d   1      -0.019  -2.495   3.640  0.00  0.00     0.000 A 
ENDROOT
TORSDOF 0
ENDMDL
