MODEL 1
REMARK minimizedAffinity 2.25186896
REMARK minimizedRMSD -1
REMARK  0 active torsions:
REMARK  status: ('A' for Active; 'I' for Inactive)
ROOT
ATOM      1  C1  BNZ d   1       0.232   4.994  -0.591  0.00  0.00     0.000 A 
ATOM      2  C2  BNZ d   1      -0.134   4.914  -1.908  0.00  0.00     0.000 A 
ATOM      3  C3  BNZ d   1      -0.803   3.821  -2.383  0.00  0.00     0.000 A 
ATOM      4  C4  BNZ d   1      -1.070   2.794  -1.551  0.00  0.00     0.000 A 
ATOM      5  C5  BNZ d   1      -0.699   2.856  -0.222  0.00  0.00     0.000 A 
ATOM      6  C6  BNZ d   1      -0.060   3.974   0.261  0.00  0.00     0.000 A 
ENDROOT
TORSDOF 0
ENDMDL
