MODEL 1
REMARK minimizedAffinity -3.99286437
REMARK minimizedRMSD -1
REMARK  0 active torsions:
REMARK  status: ('A' for Active; 'I' for Inactive)
ROOT
ATOM      1  C1  BNZ d   1       0.005   4.282   0.472  0.00  0.00     0.000 A 
ATOM      2  C2  BNZ d   1       0.012   4.886  -0.757  0.00  0.00     0.000 A 
ATOM      3  C3  BNZ d   1      -0.316   4.185  -1.884  0.00  0.00     0.000 A 
ATOM      4  C4  BNZ d   1      -0.611   2.873  -1.786  0.00  0.00     0.000 A 
ATOM      5  C5  BNZ d   1      -0.614   2.247  -0.555  0.00  0.00     0.000 A 
ATOM      6  C6  BNZ d   1      -0.321   2.966   0.582  0.00  0.00     0.000 A 
ENDROOT
TORSDOF 0
ENDMDL
