MODEL 1
REMARK minimizedAffinity -1.21763158
REMARK minimizedRMSD -1
REMARK  0 active torsions:
REMARK  status: ('A' for Active; 'I' for Inactive)
ROOT
ATOM      1  C1  BNZ d   1       0.456   3.702   1.275  0.00  0.00     0.000 A 
ATOM      2  C2  BNZ d   1       0.955   4.975   1.354  0.00  0.00     0.000 A 
ATOM      3  C3  BNZ d   1       0.962   5.794   0.260  0.00  0.00     0.000 A 
ATOM      4  C4  BNZ d   1       0.507   5.326  -0.921  0.00  0.00     0.000 A 
ATOM      5  C5  BNZ d   1       0.009   4.042  -1.019  0.00  0.00     0.000 A 
ATOM      6  C6  BNZ d   1      -0.032   3.234   0.094  0.00  0.00     0.000 A 
ENDROOT
TORSDOF 0
ENDMDL
