MODEL 1
REMARK minimizedAffinity 2.05336308
REMARK minimizedRMSD -1
REMARK  0 active torsions:
REMARK  status: ('A' for Active; 'I' for Inactive)
ROOT
ATOM      1  C1  BNZ d   1      -0.162   1.936  -0.555  0.00  0.00     0.000 A 
ATOM      2  C2  BNZ d   1       0.221   2.940   0.294  0.00  0.00     0.000 A 
ATOM      3  C3  BNZ d   1       0.049   4.251  -0.051  0.00  0.00     0.000 A 
ATOM      4  C4  BNZ d   1      -0.467   4.557  -1.259  0.00  0.00     0.000 A 
ATOM      5  C5  BNZ d   1      -0.849   3.556  -2.130  0.00  0.00     0.000 A 
ATOM      6  C6  BNZ d   1      -0.711   2.237  -1.763  0.00  0.00     0.000 A 
ENDROOT
TORSDOF 0
ENDMDL
