MODEL 1
REMARK minimizedAffinity 1.44298518
REMARK minimizedRMSD -1
REMARK  0 active torsions:
REMARK  status: ('A' for Active; 'I' for Inactive)
ROOT
ATOM      1  C1  BNZ d   1      -4.143  -3.839   3.813  0.00  0.00     0.000 A 
ATOM      2  C2  BNZ d   1      -4.156  -3.486   5.136  0.00  0.00     0.000 A 
ATOM      3  C3  BNZ d   1      -5.070  -4.028   5.996  0.00  0.00     0.000 A 
ATOM      4  C4  BNZ d   1      -5.994  -4.890   5.525  0.00  0.00     0.000 A 
ATOM      5  C5  BNZ d   1      -6.000  -5.248   4.191  0.00  0.00     0.000 A 
ATOM      6  C6  BNZ d   1      -5.054  -4.731   3.337  0.00  0.00     0.000 A 
ENDROOT
TORSDOF 0
ENDMDL
