MODEL 1
REMARK minimizedAffinity 8.76988411
REMARK minimizedRMSD -1
REMARK  0 active torsions:
REMARK  status: ('A' for Active; 'I' for Inactive)
ROOT
ATOM      1  C1  BNZ d   1      -5.960  -4.772   5.897  0.00  0.00     0.000 A 
ATOM      2  C2  BNZ d   1      -5.990  -5.860   5.066  0.00  0.00     0.000 A 
ATOM      3  C3  BNZ d   1      -5.987  -5.703   3.708  0.00  0.00     0.000 A 
ATOM      4  C4  BNZ d   1      -5.994  -4.461   3.184  0.00  0.00     0.000 A 
ATOM      5  C5  BNZ d   1      -5.973  -3.354   4.009  0.00  0.00     0.000 A 
ATOM      6  C6  BNZ d   1      -5.937  -3.515   5.375  0.00  0.00     0.000 A 
ENDROOT
TORSDOF 0
ENDMDL
