MODEL 1
REMARK minimizedAffinity 1.59934878
REMARK minimizedRMSD -1
REMARK  0 active torsions:
REMARK  status: ('A' for Active; 'I' for Inactive)
ROOT
ATOM      1  C1  BNZ d   1      -5.999  -1.222   0.341  0.00  0.00     0.000 A 
ATOM      2  C2  BNZ d   1      -5.528   0.044   0.121  0.00  0.00     0.000 A 
ATOM      3  C3  BNZ d   1      -4.353   0.248  -0.548  0.00  0.00     0.000 A 
ATOM      4  C4  BNZ d   1      -3.633  -0.814  -0.962  0.00  0.00     0.000 A 
ATOM      5  C5  BNZ d   1      -4.090  -2.098  -0.740  0.00  0.00     0.000 A 
ATOM      6  C6  BNZ d   1      -5.292  -2.298  -0.100  0.00  0.00     0.000 A 
ENDROOT
TORSDOF 0
ENDMDL
