MODEL 1
REMARK minimizedAffinity 1.42613482
REMARK minimizedRMSD -1
REMARK  0 active torsions:
REMARK  status: ('A' for Active; 'I' for Inactive)
ROOT
ATOM      1  C   UNL d   1       2.549  -5.945   1.891  0.00  0.00     0.172 C 
ATOM      2  N   UNL d   1       3.910  -5.642   2.266  0.00  0.00    -0.070 N 
ATOM      3  C1  UNL d   1       4.817  -4.963   1.498  0.00  0.00    -0.004 A 
ATOM      4  C2  UNL d   1       5.995  -4.881   2.208  0.00  0.00    -0.047 A 
ATOM      5  C3  UNL d   1       5.789  -5.535   3.446  0.00  0.00    -0.047 A 
ATOM      6  C4  UNL d   1       4.490  -5.997   3.455  0.00  0.00    -0.004 A 
ENDROOT
TORSDOF 0
ENDMDL
