MODEL 1
REMARK minimizedAffinity 3.20533609
REMARK minimizedRMSD -1
REMARK  0 active torsions:
REMARK  status: ('A' for Active; 'I' for Inactive)
ROOT
ATOM      1  C   UNL d   1       2.865  -5.961   1.581  0.00  0.00     0.172 C 
ATOM      2  N   UNL d   1       4.133  -5.468   2.064  0.00  0.00    -0.070 N 
ATOM      3  C1  UNL d   1       4.853  -5.998   3.101  0.00  0.00    -0.004 A 
ATOM      4  C2  UNL d   1       5.999  -5.246   3.248  0.00  0.00    -0.047 A 
ATOM      5  C3  UNL d   1       5.966  -4.229   2.265  0.00  0.00    -0.047 A 
ATOM      6  C4  UNL d   1       4.801  -4.389   1.546  0.00  0.00    -0.004 A 
ENDROOT
TORSDOF 0
ENDMDL
