MODEL 1
REMARK minimizedAffinity -1.13950312
REMARK minimizedRMSD -1
REMARK  0 active torsions:
REMARK  status: ('A' for Active; 'I' for Inactive)
ROOT
ATOM      1  C   UNL d   1      -0.043   1.005   2.919  0.00  0.00     0.172 C 
ATOM      2  N   UNL d   1      -1.412   0.946   2.463  0.00  0.00    -0.070 N 
ATOM      3  C1  UNL d   1      -1.939  -0.015   1.642  0.00  0.00    -0.004 A 
ATOM      4  C2  UNL d   1      -3.271   0.283   1.444  0.00  0.00    -0.047 A 
ATOM      5  C3  UNL d   1      -3.553   1.464   2.171  0.00  0.00    -0.047 A 
ATOM      6  C4  UNL d   1      -2.385   1.853   2.793  0.00  0.00    -0.004 A 
ENDROOT
TORSDOF 0
ENDMDL
