MODEL 1
REMARK minimizedAffinity 3.92446232
REMARK minimizedRMSD -1
REMARK  0 active torsions:
REMARK  status: ('A' for Active; 'I' for Inactive)
ROOT
ATOM      1  C   UNL d   1      -0.979   0.434   1.979  0.00  0.00     0.172 C 
ATOM      2  N   UNL d   1      -2.411   0.615   2.022  0.00  0.00    -0.070 N 
ATOM      3  C1  UNL d   1      -3.248   0.615   0.939  0.00  0.00    -0.004 A 
ATOM      4  C2  UNL d   1      -4.532   0.817   1.399  0.00  0.00    -0.047 A 
ATOM      5  C3  UNL d   1      -4.463   0.944   2.806  0.00  0.00    -0.047 A 
ATOM      6  C4  UNL d   1      -3.138   0.815   3.166  0.00  0.00    -0.004 A 
ENDROOT
TORSDOF 0
ENDMDL
