MODEL 1
REMARK minimizedAffinity 2.44828868
REMARK minimizedRMSD -1
REMARK  0 active torsions:
REMARK  status: ('A' for Active; 'I' for Inactive)
ROOT
ATOM      1  C   UNL d   1      -1.788  -3.070  -5.999  0.00  0.00     0.172 C 
ATOM      2  N   UNL d   1      -3.201  -2.770  -5.997  0.00  0.00    -0.070 N 
ATOM      3  C1  UNL d   1      -4.213  -3.693  -5.998  0.00  0.00    -0.004 A 
ATOM      4  C2  UNL d   1      -5.409  -3.008  -5.994  0.00  0.00    -0.047 A 
ATOM      5  C3  UNL d   1      -5.105  -1.626  -5.991  0.00  0.00    -0.047 A 
ATOM      6  C4  UNL d   1      -3.731  -1.507  -5.993  0.00  0.00    -0.004 A 
ENDROOT
TORSDOF 0
ENDMDL
