MODEL 1
REMARK minimizedAffinity 4.95308161
REMARK minimizedRMSD -1
REMARK  0 active torsions:
REMARK  status: ('A' for Active; 'I' for Inactive)
ROOT
ATOM      1  C   UNL d   1      -0.460   0.164   2.178  0.00  0.00     0.172 C 
ATOM      2  N   UNL d   1      -1.878   0.422   2.079  0.00  0.00    -0.070 N 
ATOM      3  C1  UNL d   1      -2.863  -0.280   2.721  0.00  0.00    -0.004 A 
ATOM      4  C2  UNL d   1      -4.074   0.275   2.368  0.00  0.00    -0.047 A 
ATOM      5  C3  UNL d   1      -3.808   1.347   1.484  0.00  0.00    -0.047 A 
ATOM      6  C4  UNL d   1      -2.440   1.415   1.322  0.00  0.00    -0.004 A 
ENDROOT
TORSDOF 0
ENDMDL
