MODEL 1
REMARK minimizedAffinity 3.91501689
REMARK minimizedRMSD -1
REMARK  0 active torsions:
REMARK  status: ('A' for Active; 'I' for Inactive)
ROOT
ATOM      1  C   UNL d   1      -1.867  -0.637  -5.993  0.00  0.00     0.172 C 
ATOM      2  N   UNL d   1      -3.007  -1.523  -5.987  0.00  0.00    -0.070 N 
ATOM      3  C1  UNL d   1      -2.956  -2.891  -5.972  0.00  0.00    -0.004 A 
ATOM      4  C2  UNL d   1      -4.251  -3.362  -5.970  0.00  0.00    -0.047 A 
ATOM      5  C3  UNL d   1      -5.110  -2.239  -5.985  0.00  0.00    -0.047 A 
ATOM      6  C4  UNL d   1      -4.314  -1.113  -5.995  0.00  0.00    -0.004 A 
ENDROOT
TORSDOF 0
ENDMDL
