MODEL 1
REMARK minimizedAffinity -1.17235529
REMARK minimizedRMSD -1
REMARK  0 active torsions:
REMARK  status: ('A' for Active; 'I' for Inactive)
ROOT
ATOM      1  C   UNL d   1       4.519  -5.999   2.243  0.00  0.00     0.172 C 
ATOM      2  N   UNL d   1       3.145  -5.566   2.349  0.00  0.00    -0.070 N 
ATOM      3  C1  UNL d   1       2.241  -6.000   3.281  0.00  0.00    -0.004 A 
ATOM      4  C2  UNL d   1       1.048  -5.350   3.047  0.00  0.00    -0.047 A 
ATOM      5  C3  UNL d   1       1.243  -4.496   1.935  0.00  0.00    -0.047 A 
ATOM      6  C4  UNL d   1       2.549  -4.650   1.522  0.00  0.00    -0.004 A 
ENDROOT
TORSDOF 0
ENDMDL
