MODEL 1
REMARK minimizedAffinity 5.33156967
REMARK minimizedRMSD -1
REMARK  0 active torsions:
REMARK  status: ('A' for Active; 'I' for Inactive)
ROOT
ATOM      1  C   UNL d   1      -3.059   0.313   1.540  0.00  0.00     0.172 C 
ATOM      2  N   UNL d   1      -1.836   0.697   2.206  0.00  0.00    -0.070 N 
ATOM      3  C1  UNL d   1      -1.705   1.719   3.107  0.00  0.00    -0.004 A 
ATOM      4  C2  UNL d   1      -0.388   1.760   3.511  0.00  0.00    -0.047 A 
ATOM      5  C3  UNL d   1       0.296   0.727   2.828  0.00  0.00    -0.047 A 
ATOM      6  C4  UNL d   1      -0.624   0.084   2.027  0.00  0.00    -0.004 A 
ENDROOT
TORSDOF 0
ENDMDL
