MODEL 1
REMARK minimizedAffinity 2.09068704
REMARK minimizedRMSD -1
REMARK  0 active torsions:
REMARK  status: ('A' for Active; 'I' for Inactive)
ROOT
ATOM      1  C   UNL d   1      -3.682   0.284   2.954  0.00  0.00     0.172 C 
ATOM      2  N   UNL d   1      -2.316   0.689   2.717  0.00  0.00    -0.070 N 
ATOM      3  C1  UNL d   1      -1.211  -0.105   2.870  0.00  0.00    -0.004 A 
ATOM      4  C2  UNL d   1      -0.102   0.648   2.548  0.00  0.00    -0.047 A 
ATOM      5  C3  UNL d   1      -0.557   1.939   2.189  0.00  0.00    -0.047 A 
ATOM      6  C4  UNL d   1      -1.931   1.936   2.303  0.00  0.00    -0.004 A 
ENDROOT
TORSDOF 0
ENDMDL
