MODEL 1
REMARK minimizedAffinity 2.11654067
REMARK minimizedRMSD -1
REMARK  0 active torsions:
REMARK  status: ('A' for Active; 'I' for Inactive)
ROOT
ATOM      1  C   UNL d   1      -2.035   0.562   2.329  0.00  0.00     0.172 C 
ATOM      2  N   UNL d   1      -3.465   0.378   2.257  0.00  0.00    -0.070 N 
ATOM      3  C1  UNL d   1      -4.259   0.701   1.189  0.00  0.00    -0.004 A 
ATOM      4  C2  UNL d   1      -5.557   0.372   1.513  0.00  0.00    -0.047 A 
ATOM      5  C3  UNL d   1      -5.544  -0.165   2.822  0.00  0.00    -0.047 A 
ATOM      6  C4  UNL d   1      -4.236  -0.150   3.259  0.00  0.00    -0.004 A 
ENDROOT
TORSDOF 0
ENDMDL
