MODEL 1
REMARK minimizedAffinity 1.71776772
REMARK minimizedRMSD -1
REMARK  0 active torsions:
REMARK  status: ('A' for Active; 'I' for Inactive)
ROOT
ATOM      1  C   UNL d   1      -1.528   0.711   2.151  0.00  0.00     0.172 C 
ATOM      2  N   UNL d   1      -2.956   0.915   2.091  0.00  0.00    -0.070 N 
ATOM      3  C1  UNL d   1      -3.702   1.612   3.004  0.00  0.00    -0.004 A 
ATOM      4  C2  UNL d   1      -5.016   1.577   2.590  0.00  0.00    -0.047 A 
ATOM      5  C3  UNL d   1      -5.062   0.833   1.388  0.00  0.00    -0.047 A 
ATOM      6  C4  UNL d   1      -3.773   0.435   1.101  0.00  0.00    -0.004 A 
ENDROOT
TORSDOF 0
ENDMDL
