MODEL 1
REMARK minimizedAffinity -1.16391039
REMARK minimizedRMSD -1
REMARK  0 active torsions:
REMARK  status: ('A' for Active; 'I' for Inactive)
ROOT
ATOM      1  C   UNL d   1       0.753  -5.953   3.369  0.00  0.00     0.172 C 
ATOM      2  N   UNL d   1       2.028  -5.749   2.723  0.00  0.00    -0.070 N 
ATOM      3  C1  UNL d   1       2.211  -5.279   1.450  0.00  0.00    -0.004 A 
ATOM      4  C2  UNL d   1       3.567  -5.228   1.210  0.00  0.00    -0.047 A 
ATOM      5  C3  UNL d   1       4.222  -5.683   2.379  0.00  0.00    -0.047 A 
ATOM      6  C4  UNL d   1       3.245  -5.999   3.300  0.00  0.00    -0.004 A 
ENDROOT
TORSDOF 0
ENDMDL
