MODEL 1
REMARK minimizedAffinity 3.16327715
REMARK minimizedRMSD -1
REMARK  0 active torsions:
REMARK  status: ('A' for Active; 'I' for Inactive)
ROOT
ATOM      1  C   UNL d   1       4.475  -0.217   1.483  0.00  0.00     0.172 C 
ATOM      2  N   UNL d   1       3.104   0.006   1.877  0.00  0.00    -0.070 N 
ATOM      3  C1  UNL d   1       2.611  -0.109   3.149  0.00  0.00    -0.004 A 
ATOM      4  C2  UNL d   1       1.265   0.184   3.108  0.00  0.00    -0.047 A 
ATOM      5  C3  UNL d   1       0.938   0.484   1.764  0.00  0.00    -0.047 A 
ATOM      6  C4  UNL d   1       2.095   0.366   1.024  0.00  0.00    -0.004 A 
ENDROOT
TORSDOF 0
ENDMDL
