MODEL 1
REMARK minimizedAffinity 5.06492472
REMARK minimizedRMSD -1
REMARK  0 active torsions:
REMARK  status: ('A' for Active; 'I' for Inactive)
ROOT
ATOM      1  C   UNL d   1      -4.789   2.389   1.864  0.00  0.00     0.172 C 
ATOM      2  N   UNL d   1      -4.159   1.186   1.375  0.00  0.00    -0.070 N 
ATOM      3  C1  UNL d   1      -4.761   0.223   0.610  0.00  0.00    -0.004 A 
ATOM      4  C2  UNL d   1      -3.827  -0.757   0.353  0.00  0.00    -0.047 A 
ATOM      5  C3  UNL d   1      -2.622  -0.371   0.986  0.00  0.00    -0.047 A 
ATOM      6  C4  UNL d   1      -2.855   0.836   1.611  0.00  0.00    -0.004 A 
ENDROOT
TORSDOF 0
ENDMDL
