MODEL 1
REMARK minimizedAffinity 0.820426226
REMARK minimizedRMSD -1
REMARK  0 active torsions:
REMARK  status: ('A' for Active; 'I' for Inactive)
ROOT
ATOM      1  C   UNL d   1      -4.247  -1.533   0.365  0.00  0.00     0.172 C 
ATOM      2  N   UNL d   1      -3.704  -0.493   1.207  0.00  0.00    -0.070 N 
ATOM      3  C1  UNL d   1      -2.374  -0.209   1.368  0.00  0.00    -0.004 A 
ATOM      4  C2  UNL d   1      -2.271   0.846   2.248  0.00  0.00    -0.047 A 
ATOM      5  C3  UNL d   1      -3.585   1.208   2.631  0.00  0.00    -0.047 A 
ATOM      6  C4  UNL d   1      -4.452   0.363   1.972  0.00  0.00    -0.004 A 
ENDROOT
TORSDOF 0
ENDMDL
