MODEL 1
REMARK minimizedAffinity 10.6297989
REMARK minimizedRMSD -1
REMARK  1 active torsions:
REMARK  status: ('A' for Active; 'I' for Inactive)
REMARK    1  A    between atoms: N_2  and  C1_3 
ROOT
ATOM      1  C1  UNL d   1      -2.466   3.262  -4.661  0.00  0.00     0.143 A 
ATOM      2  C2  UNL d   1      -1.130   3.674  -4.621  0.00  0.00    -0.057 A 
ATOM      3  C3  UNL d   1      -0.790   5.029  -4.513  0.00  0.00     0.033 A 
ATOM      4  C4  UNL d   1      -1.785   6.000  -4.472  0.00  0.00    -0.042 A 
ATOM      5  C5  UNL d   1      -3.119   5.615  -4.536  0.00  0.00     0.033 A 
ATOM      6  C6  UNL d   1      -3.452   4.261  -4.637  0.00  0.00    -0.057 A 
ENDROOT
BRANCH   1   7
ATOM      7  N   UNL d   1      -2.866   1.940  -4.867  0.00  0.00    -0.732 N 
ATOM      8  C   UNL d   1      -4.269   1.586  -4.866  0.00  0.00     0.284 C 
ATOM      9  H3  UNL d   1      -2.321   1.477  -5.591  0.00  0.00     0.395 HD
ENDBRANCH   1   7
TORSDOF 1
ENDMDL
