MODEL 1
REMARK minimizedAffinity 18.5215378
REMARK minimizedRMSD -1
REMARK  1 active torsions:
REMARK  status: ('A' for Active; 'I' for Inactive)
REMARK    1  A    between atoms: N_2  and  C1_3 
ROOT
ATOM      1  C1  UNL d   1      -4.351   5.249  -1.214  0.00  0.00     0.143 A 
ATOM      2  C2  UNL d   1      -5.307   5.762  -0.330  0.00  0.00    -0.057 A 
ATOM      3  C3  UNL d   1      -5.002   5.991   1.017  0.00  0.00     0.033 A 
ATOM      4  C4  UNL d   1      -3.740   5.684   1.512  0.00  0.00    -0.042 A 
ATOM      5  C5  UNL d   1      -2.781   5.150   0.658  0.00  0.00     0.033 A 
ATOM      6  C6  UNL d   1      -3.090   4.929  -0.688  0.00  0.00    -0.057 A 
ENDROOT
BRANCH   1   7
ATOM      7  N   UNL d   1      -4.623   4.907  -2.541  0.00  0.00    -0.732 N 
ATOM      8  C   UNL d   1      -3.553   4.520  -3.436  0.00  0.00     0.284 C 
ATOM      9  H3  UNL d   1      -5.465   4.344  -2.632  0.00  0.00     0.395 HD
ENDBRANCH   1   7
TORSDOF 1
ENDMDL
