MODEL 1
REMARK minimizedAffinity 8.00678921
REMARK minimizedRMSD -1
REMARK  1 active torsions:
REMARK  status: ('A' for Active; 'I' for Inactive)
REMARK    1  A    between atoms: N_2  and  C1_3 
ROOT
ATOM      1  C1  UNL d   1      -4.644  -3.938   5.310  0.00  0.00     0.143 A 
ATOM      2  C2  UNL d   1      -3.505  -4.388   4.633  0.00  0.00    -0.057 A 
ATOM      3  C3  UNL d   1      -2.310  -3.660   4.658  0.00  0.00     0.033 A 
ATOM      4  C4  UNL d   1      -2.240  -2.449   5.340  0.00  0.00    -0.042 A 
ATOM      5  C5  UNL d   1      -3.366  -1.970   5.999  0.00  0.00     0.033 A 
ATOM      6  C6  UNL d   1      -4.555  -2.705   5.976  0.00  0.00    -0.057 A 
ENDROOT
BRANCH   1   7
ATOM      7  N   UNL d   1      -5.889  -4.567   5.242  0.00  0.00    -0.732 N 
ATOM      8  C   UNL d   1      -5.992  -5.959   4.860  0.00  0.00     0.284 C 
ATOM      9  H3  UNL d   1      -6.502  -4.300   6.009  0.00  0.00     0.395 HD
ENDBRANCH   1   7
TORSDOF 1
ENDMDL
