MODEL 1
REMARK minimizedAffinity 13.5871506
REMARK minimizedRMSD -1
REMARK  1 active torsions:
REMARK  status: ('A' for Active; 'I' for Inactive)
REMARK    1  A    between atoms: N_2  and  C1_3 
ROOT
ATOM      1  C1  UNL d   1      -1.904   4.897  -4.746  0.00  0.00     0.143 A 
ATOM      2  C2  UNL d   1      -2.591   3.800  -5.278  0.00  0.00    -0.057 A 
ATOM      3  C3  UNL d   1      -2.938   2.705  -4.478  0.00  0.00     0.033 A 
ATOM      4  C4  UNL d   1      -2.578   2.674  -3.135  0.00  0.00    -0.042 A 
ATOM      5  C5  UNL d   1      -1.873   3.742  -2.592  0.00  0.00     0.033 A 
ATOM      6  C6  UNL d   1      -1.535   4.836  -3.394  0.00  0.00    -0.057 A 
ENDROOT
BRANCH   1   7
ATOM      7  N   UNL d   1      -1.444   5.972  -5.512  0.00  0.00    -0.732 N 
ATOM      8  C   UNL d   1      -0.082   6.000  -5.999  0.00  0.00     0.284 C 
ATOM      9  H3  UNL d   1      -2.134   6.291  -6.188  0.00  0.00     0.395 HD
ENDBRANCH   1   7
TORSDOF 1
ENDMDL
