MODEL 1
REMARK minimizedAffinity -0.0104158521
REMARK minimizedRMSD -1
REMARK  1 active torsions:
REMARK  status: ('A' for Active; 'I' for Inactive)
REMARK    1  A    between atoms: N_2  and  C1_3 
ROOT
ATOM      1  C1  UNL d   1      -3.469   3.315  -5.287  0.00  0.00     0.143 A 
ATOM      2  C2  UNL d   1      -4.144   4.312  -6.000  0.00  0.00    -0.057 A 
ATOM      3  C3  UNL d   1      -3.698   5.639  -5.991  0.00  0.00     0.033 A 
ATOM      4  C4  UNL d   1      -2.582   6.000  -5.243  0.00  0.00    -0.042 A 
ATOM      5  C5  UNL d   1      -1.911   5.030  -4.506  0.00  0.00     0.033 A 
ATOM      6  C6  UNL d   1      -2.357   3.705  -4.524  0.00  0.00    -0.057 A 
ENDROOT
BRANCH   1   7
ATOM      7  N   UNL d   1      -3.919   1.998  -5.176  0.00  0.00    -0.732 N 
ATOM      8  C   UNL d   1      -5.245   1.631  -5.628  0.00  0.00     0.284 C 
ATOM      9  H3  UNL d   1      -3.198   1.320  -5.411  0.00  0.00     0.395 HD
ENDBRANCH   1   7
TORSDOF 1
ENDMDL
