MODEL 1
REMARK minimizedAffinity 13.7132721
REMARK minimizedRMSD -1
REMARK  1 active torsions:
REMARK  status: ('A' for Active; 'I' for Inactive)
REMARK    1  A    between atoms: N_2  and  C1_3 
ROOT
ATOM      1  C1  UNL d   1       0.402   2.746   2.376  0.00  0.00     0.143 A 
ATOM      2  C2  UNL d   1       0.205   2.129   3.616  0.00  0.00    -0.057 A 
ATOM      3  C3  UNL d   1      -1.001   1.488   3.925  0.00  0.00     0.033 A 
ATOM      4  C4  UNL d   1      -2.045   1.477   3.005  0.00  0.00    -0.042 A 
ATOM      5  C5  UNL d   1      -1.880   2.105   1.776  0.00  0.00     0.033 A 
ATOM      6  C6  UNL d   1      -0.671   2.738   1.471  0.00  0.00    -0.057 A 
ENDROOT
BRANCH   1   7
ATOM      7  N   UNL d   1       1.542   3.484   2.047  0.00  0.00    -0.732 N 
ATOM      8  C   UNL d   1       1.430   4.722   1.307  0.00  0.00     0.284 C 
ATOM      9  H3  UNL d   1       2.218   3.513   2.807  0.00  0.00     0.395 HD
ENDBRANCH   1   7
TORSDOF 1
ENDMDL
