MODEL 1
REMARK minimizedAffinity 18.086195
REMARK minimizedRMSD -1
REMARK  1 active torsions:
REMARK  status: ('A' for Active; 'I' for Inactive)
REMARK    1  A    between atoms: N_2  and  C1_3 
ROOT
ATOM      1  C1  UNL d   1      -5.194   5.678   1.288  0.00  0.00     0.143 A 
ATOM      2  C2  UNL d   1      -5.998   5.985   0.185  0.00  0.00    -0.057 A 
ATOM      3  C3  UNL d   1      -5.564   5.732  -1.122  0.00  0.00     0.033 A 
ATOM      4  C4  UNL d   1      -4.303   5.193  -1.351  0.00  0.00    -0.042 A 
ATOM      5  C5  UNL d   1      -3.477   4.903  -0.271  0.00  0.00     0.033 A 
ATOM      6  C6  UNL d   1      -3.918   5.151   1.032  0.00  0.00    -0.057 A 
ENDROOT
BRANCH   1   7
ATOM      7  N   UNL d   1      -5.528   5.996   2.606  0.00  0.00    -0.732 N 
ATOM      8  C   UNL d   1      -4.518   6.000   3.642  0.00  0.00     0.284 C 
ATOM      9  H3  UNL d   1      -6.186   6.771   2.664  0.00  0.00     0.395 HD
ENDBRANCH   1   7
TORSDOF 1
ENDMDL
