MODEL 1
REMARK minimizedAffinity 5.48878193
REMARK minimizedRMSD -1
REMARK  1 active torsions:
REMARK  status: ('A' for Active; 'I' for Inactive)
REMARK    1  A    between atoms: N_2  and  C1_3 
ROOT
ATOM      1  C1  UNL d   1      -5.945  -2.736   0.023  0.00  0.00     0.143 A 
ATOM      2  C2  UNL d   1      -5.918  -4.118  -0.193  0.00  0.00    -0.057 A 
ATOM      3  C3  UNL d   1      -5.953  -5.021   0.876  0.00  0.00     0.033 A 
ATOM      4  C4  UNL d   1      -5.987  -4.556   2.186  0.00  0.00    -0.042 A 
ATOM      5  C5  UNL d   1      -5.989  -3.186   2.426  0.00  0.00     0.033 A 
ATOM      6  C6  UNL d   1      -5.961  -2.290   1.353  0.00  0.00    -0.057 A 
ENDROOT
BRANCH   1   7
ATOM      7  N   UNL d   1      -5.813  -1.787  -0.994  0.00  0.00    -0.732 N 
ATOM      8  C   UNL d   1      -4.538  -1.152  -1.248  0.00  0.00     0.284 C 
ATOM      9  H3  UNL d   1      -6.324  -2.045  -1.835  0.00  0.00     0.395 HD
ENDBRANCH   1   7
TORSDOF 1
ENDMDL
