MODEL 1
REMARK minimizedAffinity 8.41022015
REMARK minimizedRMSD -1
REMARK  1 active torsions:
REMARK  status: ('A' for Active; 'I' for Inactive)
REMARK    1  A    between atoms: N_2  and  C1_3 
ROOT
ATOM      1  C1  UNL d   1      -5.919  -2.773   0.517  0.00  0.00     0.143 A 
ATOM      2  C2  UNL d   1      -5.972  -2.193   1.789  0.00  0.00    -0.057 A 
ATOM      3  C3  UNL d   1      -5.997  -2.981   2.946  0.00  0.00     0.033 A 
ATOM      4  C4  UNL d   1      -5.998  -4.368   2.850  0.00  0.00    -0.042 A 
ATOM      5  C5  UNL d   1      -5.971  -4.967   1.596  0.00  0.00     0.033 A 
ATOM      6  C6  UNL d   1      -5.939  -4.175   0.444  0.00  0.00    -0.057 A 
ENDROOT
BRANCH   1   7
ATOM      7  N   UNL d   1      -5.992  -2.046  -0.673  0.00  0.00    -0.732 N 
ATOM      8  C   UNL d   1      -5.995  -0.599  -0.654  0.00  0.00     0.284 C 
ATOM      9  H3  UNL d   1      -5.420  -2.451  -1.411  0.00  0.00     0.395 HD
ENDBRANCH   1   7
TORSDOF 1
ENDMDL
