MODEL 1
REMARK minimizedAffinity -2.00231886
REMARK minimizedRMSD -1
REMARK  0 active torsions:
REMARK  status: ('A' for Active; 'I' for Inactive)
ROOT
ATOM      1  C   UNL d   1       1.113  -0.005  -1.653  0.00  0.00    -0.002 A 
ATOM      2  C1  UNL d   1       0.858  -0.067  -0.291  0.00  0.00     0.010 A 
ATOM      3  C2  UNL d   1       0.961   1.076   0.504  0.00  0.00     0.041 A 
ATOM      4  C3  UNL d   1       1.327   2.295  -0.100  0.00  0.00    -0.075 A 
ATOM      5  S   UNL d   1       1.515   3.824   0.674  0.00  0.00     0.015 SA
ATOM      6  C4  UNL d   1       1.938   4.595  -0.786  0.00  0.00     0.022 A 
ATOM      7  C5  UNL d   1       1.940   3.723  -1.848  0.00  0.00     0.026 A 
ATOM      8  C6  UNL d   1       1.588   2.383  -1.471  0.00  0.00    -0.082 A 
ATOM      9  C7  UNL d   1       1.475   1.206  -2.249  0.00  0.00     0.045 A 
ENDROOT
TORSDOF 0
ENDMDL
