MODEL 1
REMARK minimizedAffinity -3.8269453
REMARK minimizedRMSD -1
REMARK  0 active torsions:
REMARK  status: ('A' for Active; 'I' for Inactive)
ROOT
ATOM      1  C   UNL d   1       1.137  -0.825  -1.886  0.00  0.00    -0.002 A 
ATOM      2  C1  UNL d   1       1.028  -1.035  -0.519  0.00  0.00     0.010 A 
ATOM      3  C2  UNL d   1       1.082   0.039   0.371  0.00  0.00     0.041 A 
ATOM      4  C3  UNL d   1       1.247   1.341  -0.141  0.00  0.00    -0.075 A 
ATOM      5  S   UNL d   1       1.339   2.809   0.759  0.00  0.00     0.015 SA
ATOM      6  C4  UNL d   1       1.524   3.749  -0.651  0.00  0.00     0.022 A 
ATOM      7  C5  UNL d   1       1.518   2.978  -1.789  0.00  0.00     0.026 A 
ATOM      8  C6  UNL d   1       1.358   1.578  -1.514  0.00  0.00    -0.082 A 
ATOM      9  C7  UNL d   1       1.300   0.468  -2.391  0.00  0.00     0.045 A 
ENDROOT
TORSDOF 0
ENDMDL
