MODEL 1
REMARK minimizedAffinity -1.81537604
REMARK minimizedRMSD -1
REMARK  0 active torsions:
REMARK  status: ('A' for Active; 'I' for Inactive)
ROOT
ATOM      1  C   UNL d   1       1.110   0.044  -1.341  0.00  0.00    -0.002 A 
ATOM      2  C1  UNL d   1       0.806   0.091   0.012  0.00  0.00     0.010 A 
ATOM      3  C2  UNL d   1       0.794   1.308   0.696  0.00  0.00     0.041 A 
ATOM      4  C3  UNL d   1       1.093   2.489  -0.011  0.00  0.00    -0.075 A 
ATOM      5  S   UNL d   1       1.138   4.094   0.619  0.00  0.00     0.015 SA
ATOM      6  C4  UNL d   1       1.561   4.755  -0.894  0.00  0.00     0.022 A 
ATOM      7  C5  UNL d   1       1.670   3.790  -1.866  0.00  0.00     0.026 A 
ATOM      8  C6  UNL d   1       1.402   2.468  -1.374  0.00  0.00    -0.082 A 
ATOM      9  C7  UNL d   1       1.407   1.218  -2.039  0.00  0.00     0.045 A 
ENDROOT
TORSDOF 0
ENDMDL
