MODEL 1
REMARK minimizedAffinity 8.14308357
REMARK minimizedRMSD -1
REMARK  0 active torsions:
REMARK  status: ('A' for Active; 'I' for Inactive)
ROOT
ATOM      1  C   UNL d   1      -2.231  -4.674   3.119  0.00  0.00    -0.002 A 
ATOM      2  C1  UNL d   1      -3.377  -4.037   3.574  0.00  0.00     0.010 A 
ATOM      3  C2  UNL d   1      -3.289  -2.831   4.273  0.00  0.00     0.041 A 
ATOM      4  C3  UNL d   1      -2.018  -2.270   4.508  0.00  0.00    -0.075 A 
ATOM      5  S   UNL d   1      -1.668  -0.802   5.340  0.00  0.00     0.015 SA
ATOM      6  C4  UNL d   1       0.011  -0.985   5.110  0.00  0.00     0.022 A 
ATOM      7  C5  UNL d   1       0.314  -2.133   4.417  0.00  0.00     0.026 A 
ATOM      8  C6  UNL d   1      -0.850  -2.892   4.058  0.00  0.00    -0.082 A 
ATOM      9  C7  UNL d   1      -0.972  -4.114   3.353  0.00  0.00     0.045 A 
ENDROOT
TORSDOF 0
ENDMDL
