MODEL 1
REMARK minimizedAffinity 0.857185602
REMARK minimizedRMSD -1
REMARK  0 active torsions:
REMARK  status: ('A' for Active; 'I' for Inactive)
ROOT
ATOM      1  C   UNL d   1       1.195  -0.460   0.007  0.00  0.00    -0.002 A 
ATOM      2  C1  UNL d   1       1.271   0.333   1.143  0.00  0.00     0.010 A 
ATOM      3  C2  UNL d   1       1.381   1.721   1.035  0.00  0.00     0.041 A 
ATOM      4  C3  UNL d   1       1.412   2.304  -0.247  0.00  0.00    -0.075 A 
ATOM      5  S   UNL d   1       1.542   3.982  -0.624  0.00  0.00     0.015 SA
ATOM      6  C4  UNL d   1       1.499   3.685  -2.301  0.00  0.00     0.022 A 
ATOM      7  C5  UNL d   1       1.389   2.345  -2.585  0.00  0.00     0.026 A 
ATOM      8  C6  UNL d   1       1.337   1.527  -1.406  0.00  0.00    -0.082 A 
ATOM      9  C7  UNL d   1       1.227   0.122  -1.263  0.00  0.00     0.045 A 
ENDROOT
TORSDOF 0
ENDMDL
