MODEL 1
REMARK minimizedAffinity 0.70840019
REMARK minimizedRMSD -1
REMARK  0 active torsions:
REMARK  status: ('A' for Active; 'I' for Inactive)
ROOT
ATOM      1  C   UNL d   1       0.983   4.036   0.393  0.00  0.00    -0.002 A 
ATOM      2  C1  UNL d   1       1.519   3.310   1.447  0.00  0.00     0.010 A 
ATOM      3  C2  UNL d   1       1.928   1.988   1.264  0.00  0.00     0.041 A 
ATOM      4  C3  UNL d   1       1.789   1.402  -0.010  0.00  0.00    -0.075 A 
ATOM      5  S   UNL d   1       2.223  -0.202  -0.470  0.00  0.00     0.015 SA
ATOM      6  C4  UNL d   1       1.708   0.039  -2.076  0.00  0.00     0.022 A 
ATOM      7  C5  UNL d   1       1.214   1.307  -2.275  0.00  0.00     0.026 A 
ATOM      8  C6  UNL d   1       1.253   2.113  -1.088  0.00  0.00    -0.082 A 
ATOM      9  C7  UNL d   1       0.847   3.452  -0.869  0.00  0.00     0.045 A 
ENDROOT
TORSDOF 0
ENDMDL
