MODEL 1
REMARK minimizedAffinity 0.437320858
REMARK minimizedRMSD -1
REMARK  0 active torsions:
REMARK  status: ('A' for Active; 'I' for Inactive)
ROOT
ATOM      1  C   UNL d   1       1.191  -0.407  -1.523  0.00  0.00    -0.002 A 
ATOM      2  C1  UNL d   1       1.516   0.495  -2.526  0.00  0.00     0.010 A 
ATOM      3  C2  UNL d   1       1.527   1.868  -2.271  0.00  0.00     0.041 A 
ATOM      4  C3  UNL d   1       1.205   2.323  -0.977  0.00  0.00    -0.075 A 
ATOM      5  S   UNL d   1       1.155   3.958  -0.433  0.00  0.00     0.015 SA
ATOM      6  C4  UNL d   1       0.702   3.498   1.144  0.00  0.00     0.022 A 
ATOM      7  C5  UNL d   1       0.587   2.134   1.270  0.00  0.00     0.026 A 
ATOM      8  C6  UNL d   1       0.876   1.434   0.050  0.00  0.00    -0.082 A 
ATOM      9  C7  UNL d   1       0.872   0.048  -0.241  0.00  0.00     0.045 A 
ENDROOT
TORSDOF 0
ENDMDL
