MODEL 1
REMARK minimizedAffinity 1.49242973
REMARK minimizedRMSD -1
REMARK  0 active torsions:
REMARK  status: ('A' for Active; 'I' for Inactive)
ROOT
ATOM      1  C   UNL d   1       1.383   3.293  -0.229  0.00  0.00    -0.002 A 
ATOM      2  C1  UNL d   1       1.273   3.273  -1.612  0.00  0.00     0.010 A 
ATOM      3  C2  UNL d   1       1.169   2.061  -2.298  0.00  0.00     0.041 A 
ATOM      4  C3  UNL d   1       1.175   0.859  -1.564  0.00  0.00    -0.075 A 
ATOM      5  S   UNL d   1       1.058  -0.743  -2.191  0.00  0.00     0.015 SA
ATOM      6  C4  UNL d   1       1.150  -1.438  -0.637  0.00  0.00     0.022 A 
ATOM      7  C5  UNL d   1       1.268  -0.485   0.347  0.00  0.00     0.026 A 
ATOM      8  C6  UNL d   1       1.284   0.854  -0.170  0.00  0.00    -0.082 A 
ATOM      9  C7  UNL d   1       1.389   2.099   0.496  0.00  0.00     0.045 A 
ENDROOT
TORSDOF 0
ENDMDL
