MODEL 1
REMARK minimizedAffinity 6.17731285
REMARK minimizedRMSD -1
REMARK  0 active torsions:
REMARK  status: ('A' for Active; 'I' for Inactive)
ROOT
ATOM      1  C   UNL d   1      -4.087   1.891   1.447  0.00  0.00    -0.002 A 
ATOM      2  C1  UNL d   1      -3.627   3.112   0.974  0.00  0.00     0.010 A 
ATOM      3  C2  UNL d   1      -2.966   4.000   1.825  0.00  0.00     0.041 A 
ATOM      4  C3  UNL d   1      -2.770   3.636   3.172  0.00  0.00    -0.075 A 
ATOM      5  S   UNL d   1      -1.986   4.563   4.396  0.00  0.00     0.015 SA
ATOM      6  C4  UNL d   1      -2.241   3.359   5.575  0.00  0.00     0.022 A 
ATOM      7  C5  UNL d   1      -2.908   2.270   5.065  0.00  0.00     0.026 A 
ATOM      8  C6  UNL d   1      -3.223   2.411   3.671  0.00  0.00    -0.082 A 
ATOM      9  C7  UNL d   1      -3.891   1.534   2.784  0.00  0.00     0.045 A 
ENDROOT
TORSDOF 0
ENDMDL
