MODEL 1
REMARK minimizedAffinity 7.29111147
REMARK minimizedRMSD -1
REMARK  0 active torsions:
REMARK  status: ('A' for Active; 'I' for Inactive)
ROOT
ATOM      1  C   UNL d   1       1.380   1.361  -1.142  0.00  0.00    -0.002 A 
ATOM      2  C1  UNL d   1       1.596   1.799  -2.441  0.00  0.00     0.010 A 
ATOM      3  C2  UNL d   1       1.686   3.163  -2.725  0.00  0.00     0.041 A 
ATOM      4  C3  UNL d   1       1.556   4.088  -1.670  0.00  0.00    -0.075 A 
ATOM      5  S   UNL d   1       1.633   5.807  -1.780  0.00  0.00     0.015 SA
ATOM      6  C4  UNL d   1       1.382   6.000  -0.105  0.00  0.00     0.022 A 
ATOM      7  C5  UNL d   1       1.242   4.793   0.537  0.00  0.00     0.026 A 
ATOM      8  C6  UNL d   1       1.340   3.671  -0.354  0.00  0.00    -0.082 A 
ATOM      9  C7  UNL d   1       1.253   2.281  -0.099  0.00  0.00     0.045 A 
ENDROOT
TORSDOF 0
ENDMDL
