MODEL 1
REMARK minimizedAffinity 4.91117859
REMARK minimizedRMSD -1
REMARK  0 active torsions:
REMARK  status: ('A' for Active; 'I' for Inactive)
ROOT
ATOM      1  C   UNL d   1       1.307   0.823  -1.360  0.00  0.00    -0.002 A 
ATOM      2  C1  UNL d   1       1.845   0.494  -0.123  0.00  0.00     0.010 A 
ATOM      3  C2  UNL d   1       1.741  -0.807   0.373  0.00  0.00     0.041 A 
ATOM      4  C3  UNL d   1       1.082  -1.782  -0.402  0.00  0.00    -0.075 A 
ATOM      5  S   UNL d   1       0.836  -3.439   0.003  0.00  0.00     0.015 SA
ATOM      6  C4  UNL d   1       0.011  -3.750  -1.456  0.00  0.00     0.022 A 
ATOM      7  C5  UNL d   1      -0.083  -2.628  -2.244  0.00  0.00     0.026 A 
ATOM      8  C6  UNL d   1       0.533  -1.475  -1.650  0.00  0.00    -0.082 A 
ATOM      9  C7  UNL d   1       0.654  -0.147  -2.126  0.00  0.00     0.045 A 
ENDROOT
TORSDOF 0
ENDMDL
