MODEL 1
REMARK minimizedAffinity -2.63482165
REMARK minimizedRMSD -1
REMARK  0 active torsions:
REMARK  status: ('A' for Active; 'I' for Inactive)
ROOT
ATOM      1  C   UNL d   1       1.565   4.858  -0.142  0.00  0.00    -0.002 A 
ATOM      2  C1  UNL d   1       1.505   4.605  -1.505  0.00  0.00     0.010 A 
ATOM      3  C2  UNL d   1       1.326   3.304  -1.979  0.00  0.00     0.041 A 
ATOM      4  C3  UNL d   1       1.205   2.251  -1.050  0.00  0.00    -0.075 A 
ATOM      5  S   UNL d   1       0.980   0.578  -1.399  0.00  0.00     0.015 SA
ATOM      6  C4  UNL d   1       0.957   0.160   0.253  0.00  0.00     0.022 A 
ATOM      7  C5  UNL d   1       1.116   1.258   1.065  0.00  0.00     0.026 A 
ATOM      8  C6  UNL d   1       1.262   2.481   0.328  0.00  0.00    -0.082 A 
ATOM      9  C7  UNL d   1       1.445   3.812   0.776  0.00  0.00     0.045 A 
ENDROOT
TORSDOF 0
ENDMDL
