MODEL 1
REMARK minimizedAffinity -6.57854223
REMARK minimizedRMSD -1
REMARK  3 active torsions:
REMARK  status: ('A' for Active; 'I' for Inactive)
REMARK    1  A    between atoms: C3'_2  and  C2'_3 
REMARK    2  A    between atoms: C2'_3  and  C1'_4 
REMARK    3  A    between atoms: C1'_4  and  C1_5 
ROOT
ATOM      1  C1  N4B d   1      -0.310  -0.604   0.605  0.00  0.00    -0.075 A 
ATOM      2  C2  N4B d   1      -1.050  -1.543   1.357  0.00  0.00     0.002 A 
ATOM      3  C3  N4B d   1      -2.276  -1.970   0.908  0.00  0.00     0.002 A 
ATOM      4  C4  N4B d   1      -2.788  -1.458  -0.275  0.00  0.00    -0.004 A 
ATOM      5  C5  N4B d   1      -2.057  -0.571  -1.008  0.00  0.00     0.002 A 
ATOM      6  C6  N4B d   1      -0.821  -0.137  -0.571  0.00  0.00     0.002 A 
ENDROOT
BRANCH   1   7
ATOM      7  C1' N4B d   1       0.996  -0.044   1.099  0.00  0.00     0.057 C 
BRANCH   7   8
ATOM      8  C2' N4B d   1       1.347   1.199   0.286  0.00  0.00     0.009 C 
BRANCH   8   9
ATOM      9  C3' N4B d   1       2.213   2.167   1.073  0.00  0.00     0.004 C 
ATOM     10  C4' N4B d   1       1.862   2.206   2.531  0.00  0.00     0.003 C 
ENDBRANCH   8   9
ENDBRANCH   7   8
ENDBRANCH   1   7
TORSDOF 3
ENDMDL
