MODEL 1
REMARK minimizedAffinity -2.11194539
REMARK minimizedRMSD -1
REMARK  3 active torsions:
REMARK  status: ('A' for Active; 'I' for Inactive)
REMARK    1  A    between atoms: C3'_2  and  C2'_3 
REMARK    2  A    between atoms: C2'_3  and  C1'_4 
REMARK    3  A    between atoms: C1'_4  and  C1_5 
ROOT
ATOM      1  C1  N4B d   1       0.038   0.675  -0.043  0.00  0.00    -0.075 A 
ATOM      2  C2  N4B d   1      -0.115   2.060   0.186  0.00  0.00     0.002 A 
ATOM      3  C3  N4B d   1       0.989   2.843   0.420  0.00  0.00     0.002 A 
ATOM      4  C4  N4B d   1       2.248   2.262   0.449  0.00  0.00    -0.004 A 
ATOM      5  C5  N4B d   1       2.389   0.928   0.202  0.00  0.00     0.002 A 
ATOM      6  C6  N4B d   1       1.289   0.130  -0.038  0.00  0.00     0.002 A 
ENDROOT
BRANCH   1   7
ATOM      7  C1' N4B d   1      -1.146  -0.237  -0.218  0.00  0.00     0.057 C 
BRANCH   7   8
ATOM      8  C2' N4B d   1      -1.200  -0.715  -1.666  0.00  0.00     0.009 C 
BRANCH   8   9
ATOM      9  C3' N4B d   1      -2.417  -1.585  -1.932  0.00  0.00     0.004 C 
ATOM     10  C4' N4B d   1      -2.211  -2.538  -3.071  0.00  0.00     0.003 C 
ENDBRANCH   8   9
ENDBRANCH   7   8
ENDBRANCH   1   7
TORSDOF 3
ENDMDL
