MODEL 1
REMARK minimizedAffinity -5.937325
REMARK minimizedRMSD -1
REMARK  3 active torsions:
REMARK  status: ('A' for Active; 'I' for Inactive)
REMARK    1  A    between atoms: C3'_2  and  C2'_3 
REMARK    2  A    between atoms: C2'_3  and  C1'_4 
REMARK    3  A    between atoms: C1'_4  and  C1_5 
ROOT
ATOM      1  C1  N4B d   1      -0.164  -0.445  -0.384  0.00  0.00    -0.075 A 
ATOM      2  C2  N4B d   1      -0.281  -0.428  -1.791  0.00  0.00     0.002 A 
ATOM      3  C3  N4B d   1      -1.517  -0.546  -2.379  0.00  0.00     0.002 A 
ATOM      4  C4  N4B d   1      -2.643  -0.702  -1.584  0.00  0.00    -0.004 A 
ATOM      5  C5  N4B d   1      -2.524  -0.692  -0.225  0.00  0.00     0.002 A 
ATOM      6  C6  N4B d   1      -1.289  -0.570   0.380  0.00  0.00     0.002 A 
ENDROOT
BRANCH   1   7
ATOM      7  C1' N4B d   1       1.174  -0.405   0.302  0.00  0.00     0.057 C 
BRANCH   7   8
ATOM      8  C2' N4B d   1       1.806   0.967   0.086  0.00  0.00     0.009 C 
BRANCH   8   9
ATOM      9  C3' N4B d   1       2.259   1.596   1.392  0.00  0.00     0.004 C 
ATOM     10  C4' N4B d   1       1.934   3.058   1.476  0.00  0.00     0.003 C 
ENDBRANCH   8   9
ENDBRANCH   7   8
ENDBRANCH   1   7
TORSDOF 3
ENDMDL
