MODEL 1
REMARK minimizedAffinity -4.72990227
REMARK minimizedRMSD -1
REMARK  3 active torsions:
REMARK  status: ('A' for Active; 'I' for Inactive)
REMARK    1  A    between atoms: C3'_2  and  C2'_3 
REMARK    2  A    between atoms: C2'_3  and  C1'_4 
REMARK    3  A    between atoms: C1'_4  and  C1_5 
ROOT
ATOM      1  C1  N4B d   1      -0.116  -0.283  -0.019  0.00  0.00    -0.075 A 
ATOM      2  C2  N4B d   1      -1.180  -1.080   0.458  0.00  0.00     0.002 A 
ATOM      3  C3  N4B d   1      -2.371  -1.117  -0.225  0.00  0.00     0.002 A 
ATOM      4  C4  N4B d   1      -2.526  -0.355  -1.374  0.00  0.00    -0.004 A 
ATOM      5  C5  N4B d   1      -1.485   0.392  -1.842  0.00  0.00     0.002 A 
ATOM      6  C6  N4B d   1      -0.282   0.436  -1.168  0.00  0.00     0.002 A 
ENDROOT
BRANCH   1   7
ATOM      7  C1' N4B d   1       1.174  -0.143   0.741  0.00  0.00     0.057 C 
BRANCH   7   8
ATOM      8  C2' N4B d   1       1.824   1.191   0.384  0.00  0.00     0.009 C 
BRANCH   8   9
ATOM      9  C3' N4B d   1       1.941   2.107   1.590  0.00  0.00     0.004 C 
ATOM     10  C4' N4B d   1       2.213   3.532   1.212  0.00  0.00     0.003 C 
ENDBRANCH   8   9
ENDBRANCH   7   8
ENDBRANCH   1   7
TORSDOF 3
ENDMDL
