MODEL 1
REMARK minimizedAffinity -5.19312239
REMARK minimizedRMSD -1
REMARK  3 active torsions:
REMARK  status: ('A' for Active; 'I' for Inactive)
REMARK    1  A    between atoms: C3'_2  and  C2'_3 
REMARK    2  A    between atoms: C2'_3  and  C1'_4 
REMARK    3  A    between atoms: C1'_4  and  C1_5 
ROOT
ATOM      1  C1  N4B d   1      -1.223   0.333  -0.379  0.00  0.00    -0.075 A 
ATOM      2  C2  N4B d   1      -2.362   0.255   0.452  0.00  0.00     0.002 A 
ATOM      3  C3  N4B d   1      -3.415  -0.553   0.099  0.00  0.00     0.002 A 
ATOM      4  C4  N4B d   1      -3.360  -1.274  -1.084  0.00  0.00    -0.004 A 
ATOM      5  C5  N4B d   1      -2.246  -1.213  -1.869  0.00  0.00     0.002 A 
ATOM      6  C6  N4B d   1      -1.178  -0.409  -1.524  0.00  0.00     0.002 A 
ENDROOT
BRANCH   1   7
ATOM      7  C1' N4B d   1      -0.083   1.267  -0.079  0.00  0.00     0.057 C 
BRANCH   7   8
ATOM      8  C2' N4B d   1       1.236   0.519  -0.246  0.00  0.00     0.009 C 
BRANCH   8   9
ATOM      9  C3' N4B d   1       2.433   1.448  -0.147  0.00  0.00     0.004 C 
ATOM     10  C4' N4B d   1       2.160   2.809  -0.716  0.00  0.00     0.003 C 
ENDBRANCH   8   9
ENDBRANCH   7   8
ENDBRANCH   1   7
TORSDOF 3
ENDMDL
