MODEL 1
REMARK minimizedAffinity -5.57053804
REMARK minimizedRMSD -1
REMARK  3 active torsions:
REMARK  status: ('A' for Active; 'I' for Inactive)
REMARK    1  A    between atoms: C3'_2  and  C2'_3 
REMARK    2  A    between atoms: C2'_3  and  C1'_4 
REMARK    3  A    between atoms: C1'_4  and  C1_5 
ROOT
ATOM      1  C1  N4B d   1      -0.737  -0.091   0.184  0.00  0.00    -0.075 A 
ATOM      2  C2  N4B d   1      -1.932   0.068  -0.552  0.00  0.00     0.002 A 
ATOM      3  C3  N4B d   1      -2.999  -0.764  -0.316  0.00  0.00     0.002 A 
ATOM      4  C4  N4B d   1      -2.889  -1.769   0.634  0.00  0.00    -0.004 A 
ATOM      5  C5  N4B d   1      -1.740  -1.899   1.358  0.00  0.00     0.002 A 
ATOM      6  C6  N4B d   1      -0.661  -1.068   1.134  0.00  0.00     0.002 A 
ENDROOT
BRANCH   1   7
ATOM      7  C1' N4B d   1       0.486   0.738  -0.099  0.00  0.00     0.057 C 
BRANCH   7   8
ATOM      8  C2' N4B d   1       1.578   0.378   0.904  0.00  0.00     0.009 C 
BRANCH   8   9
ATOM      9  C3' N4B d   1       2.220   1.613   1.513  0.00  0.00     0.004 C 
ATOM     10  C4' N4B d   1       2.025   2.842   0.677  0.00  0.00     0.003 C 
ENDBRANCH   8   9
ENDBRANCH   7   8
ENDBRANCH   1   7
TORSDOF 3
ENDMDL
