MODEL 1
REMARK minimizedAffinity -3.92333913
REMARK minimizedRMSD -1
REMARK  1 active torsions:
REMARK  status: ('A' for Active; 'I' for Inactive)
REMARK    1  A    between atoms: C1_2  and  C2_3 
ROOT
ATOM      1  C2  UNL d   1       0.252  -0.045  -0.131  0.00  0.00    -0.076 A 
ATOM      2  C3  UNL d   1       0.145  -1.444  -0.220  0.00  0.00     0.004 A 
ATOM      3  C4  UNL d   1       1.220  -2.268   0.107  0.00  0.00    -0.003 A 
ATOM      4  C5  UNL d   1       2.420  -1.707   0.530  0.00  0.00     0.000 A 
ATOM      5  C6  UNL d   1       2.539  -0.322   0.641  0.00  0.00     0.000 A 
ATOM      6  C7  UNL d   1       1.459   0.522   0.330  0.00  0.00    -0.073 A 
ATOM      7  C8  UNL d   1       1.644   2.009   0.462  0.00  0.00     0.078 C 
ENDROOT
BRANCH   1   8
ATOM      8  C1  UNL d   1      -0.939   0.799  -0.526  0.00  0.00     0.053 C 
ATOM      9  C   UNL d   1      -2.133   0.587   0.392  0.00  0.00     0.018 C 
ENDBRANCH   1   8
TORSDOF 1
ENDMDL
