MODEL 1
REMARK minimizedAffinity -4.57377434
REMARK minimizedRMSD -1
REMARK  1 active torsions:
REMARK  status: ('A' for Active; 'I' for Inactive)
REMARK    1  A    between atoms: C1_2  and  C2_3 
ROOT
ATOM      1  C2  UNL d   1       0.196   0.037  -0.384  0.00  0.00    -0.076 A 
ATOM      2  C3  UNL d   1       1.098   0.543   0.568  0.00  0.00     0.004 A 
ATOM      3  C4  UNL d   1       2.150  -0.236   1.046  0.00  0.00    -0.003 A 
ATOM      4  C5  UNL d   1       2.318  -1.535   0.578  0.00  0.00     0.000 A 
ATOM      5  C6  UNL d   1       1.443  -2.047  -0.380  0.00  0.00     0.000 A 
ATOM      6  C7  UNL d   1       0.387  -1.269  -0.884  0.00  0.00    -0.073 A 
ATOM      7  C8  UNL d   1      -0.529  -1.874  -1.911  0.00  0.00     0.078 C 
ENDROOT
BRANCH   1   8
ATOM      8  C1  UNL d   1      -0.941   0.920  -0.845  0.00  0.00     0.053 C 
ATOM      9  C   UNL d   1      -2.167   0.804   0.048  0.00  0.00     0.018 C 
ENDBRANCH   1   8
TORSDOF 1
ENDMDL
