MODEL 1
REMARK minimizedAffinity -2.69035792
REMARK minimizedRMSD -1
REMARK  1 active torsions:
REMARK  status: ('A' for Active; 'I' for Inactive)
REMARK    1  A    between atoms: C1_2  and  C2_3 
ROOT
ATOM      1  C2  UNL d   1       1.024   0.282   0.015  0.00  0.00    -0.076 A 
ATOM      2  C3  UNL d   1       1.670  -0.936   0.289  0.00  0.00     0.004 A 
ATOM      3  C4  UNL d   1       3.028  -0.973   0.600  0.00  0.00    -0.003 A 
ATOM      4  C5  UNL d   1       3.762   0.208   0.642  0.00  0.00     0.000 A 
ATOM      5  C6  UNL d   1       3.133   1.426   0.389  0.00  0.00     0.000 A 
ATOM      6  C7  UNL d   1       1.761   1.483   0.091  0.00  0.00    -0.073 A 
ATOM      7  C8  UNL d   1       1.135   2.824  -0.179  0.00  0.00     0.078 C 
ENDROOT
BRANCH   1   8
ATOM      8  C1  UNL d   1      -0.445   0.257  -0.343  0.00  0.00     0.053 C 
ATOM      9  C   UNL d   1      -0.743  -0.656  -1.522  0.00  0.00     0.018 C 
ENDBRANCH   1   8
TORSDOF 1
ENDMDL
