MODEL 1
REMARK minimizedAffinity -5.05593634
REMARK minimizedRMSD -1
REMARK  1 active torsions:
REMARK  status: ('A' for Active; 'I' for Inactive)
REMARK    1  A    between atoms: C1_2  and  C2_3 
ROOT
ATOM      1  C2  UNL d   1      -0.106  -0.060  -0.198  0.00  0.00    -0.076 A 
ATOM      2  C3  UNL d   1       0.797   0.594   0.657  0.00  0.00     0.004 A 
ATOM      3  C4  UNL d   1       2.044   0.041   0.942  0.00  0.00    -0.003 A 
ATOM      4  C5  UNL d   1       2.409  -1.175   0.376  0.00  0.00     0.000 A 
ATOM      5  C6  UNL d   1       1.532  -1.830  -0.488  0.00  0.00     0.000 A 
ATOM      6  C7  UNL d   1       0.278  -1.278  -0.799  0.00  0.00    -0.073 A 
ATOM      7  C8  UNL d   1      -0.631  -2.030  -1.733  0.00  0.00     0.078 C 
ENDROOT
BRANCH   1   8
ATOM      8  C1  UNL d   1      -1.456   0.574  -0.449  0.00  0.00     0.053 C 
ATOM      9  C   UNL d   1      -2.233   0.817   0.836  0.00  0.00     0.018 C 
ENDBRANCH   1   8
TORSDOF 1
ENDMDL
