MODEL 1
REMARK minimizedAffinity -0.81981045
REMARK minimizedRMSD -1
REMARK  1 active torsions:
REMARK  status: ('A' for Active; 'I' for Inactive)
REMARK    1  A    between atoms: C1_2  and  C2_3 
ROOT
ATOM      1  C2  UNL d   1       1.001  -0.130   0.484  0.00  0.00    -0.076 A 
ATOM      2  C3  UNL d   1       0.131  -1.028  -0.157  0.00  0.00     0.004 A 
ATOM      3  C4  UNL d   1      -0.832  -0.576  -1.059  0.00  0.00    -0.003 A 
ATOM      4  C5  UNL d   1      -0.939   0.783  -1.334  0.00  0.00     0.000 A 
ATOM      5  C6  UNL d   1      -0.072   1.687  -0.720  0.00  0.00     0.000 A 
ATOM      6  C7  UNL d   1       0.915   1.245   0.178  0.00  0.00    -0.073 A 
ATOM      7  C8  UNL d   1       1.819   2.264   0.815  0.00  0.00     0.078 C 
ENDROOT
BRANCH   1   8
ATOM      8  C1  UNL d   1       2.007  -0.676   1.472  0.00  0.00     0.053 C 
ATOM      9  C   UNL d   1       3.124  -1.456   0.796  0.00  0.00     0.018 C 
ENDBRANCH   1   8
TORSDOF 1
ENDMDL
