MODEL 1
REMARK minimizedAffinity -1.83220649
REMARK minimizedRMSD -1
REMARK  1 active torsions:
REMARK  status: ('A' for Active; 'I' for Inactive)
REMARK    1  A    between atoms: C1_2  and  C2_3 
ROOT
ATOM      1  C2  UNL d   1       1.850   0.114   0.495  0.00  0.00    -0.076 A 
ATOM      2  C3  UNL d   1       2.711  -0.884   0.006  0.00  0.00     0.004 A 
ATOM      3  C4  UNL d   1       2.214  -1.976  -0.704  0.00  0.00    -0.003 A 
ATOM      4  C5  UNL d   1       0.848  -2.087  -0.937  0.00  0.00     0.000 A 
ATOM      5  C6  UNL d   1      -0.019  -1.097  -0.475  0.00  0.00     0.000 A 
ATOM      6  C7  UNL d   1       0.467   0.018   0.228  0.00  0.00    -0.073 A 
ATOM      7  C8  UNL d   1      -0.513   1.052   0.709  0.00  0.00     0.078 C 
ENDROOT
BRANCH   1   8
ATOM      8  C1  UNL d   1       2.443   1.261   1.281  0.00  0.00     0.053 C 
ATOM      9  C   UNL d   1       2.984   2.364   0.385  0.00  0.00     0.018 C 
ENDBRANCH   1   8
TORSDOF 1
ENDMDL
