MODEL 1
REMARK minimizedAffinity -0.388580412
REMARK minimizedRMSD -1
REMARK  0 active torsions:
REMARK  status: ('A' for Active; 'I' for Inactive)
ROOT
ATOM      1  C   UNL d   1       1.466   4.797  -5.141  0.00  0.00    -0.002 A 
ATOM      2  C1  UNL d   1       2.001   5.893  -5.804  0.00  0.00     0.010 A 
ATOM      3  C2  UNL d   1       3.380   6.000  -6.000  0.00  0.00     0.041 A 
ATOM      4  C3  UNL d   1       4.219   4.977  -5.516  0.00  0.00    -0.075 A 
ATOM      5  S   UNL d   1       5.936   4.894  -5.642  0.00  0.00     0.015 SA
ATOM      6  C4  UNL d   1       5.999   3.402  -4.820  0.00  0.00     0.022 A 
ATOM      7  C5  UNL d   1       4.750   2.963  -4.452  0.00  0.00     0.026 A 
ATOM      8  C6  UNL d   1       3.703   3.863  -4.847  0.00  0.00    -0.082 A 
ATOM      9  C7  UNL d   1       2.301   3.784  -4.663  0.00  0.00     0.045 A 
ENDROOT
TORSDOF 0
ENDMDL
