MODEL 1
REMARK minimizedAffinity 2.31225944
REMARK minimizedRMSD -1
REMARK  0 active torsions:
REMARK  status: ('A' for Active; 'I' for Inactive)
ROOT
ATOM      1  C   UNL d   1      -2.035   5.999  -3.163  0.00  0.00    -0.002 A 
ATOM      2  C1  UNL d   1      -1.140   5.996  -2.103  0.00  0.00     0.010 A 
ATOM      3  C2  UNL d   1       0.237   5.988  -2.335  0.00  0.00     0.041 A 
ATOM      4  C3  UNL d   1       0.704   5.987  -3.665  0.00  0.00    -0.075 A 
ATOM      5  S   UNL d   1       2.346   5.980  -4.190  0.00  0.00     0.015 SA
ATOM      6  C4  UNL d   1       1.898   5.983  -5.834  0.00  0.00     0.022 A 
ATOM      7  C5  UNL d   1       0.533   5.989  -5.997  0.00  0.00     0.026 A 
ATOM      8  C6  UNL d   1      -0.178   5.992  -4.749  0.00  0.00    -0.082 A 
ATOM      9  C7  UNL d   1      -1.568   5.998  -4.481  0.00  0.00     0.045 A 
ENDROOT
TORSDOF 0
ENDMDL
