MODEL 1
REMARK minimizedAffinity -3.01000881
REMARK minimizedRMSD -1
REMARK  0 active torsions:
REMARK  status: ('A' for Active; 'I' for Inactive)
ROOT
ATOM      1  C   UNL d   1       5.831   4.256  -4.408  0.00  0.00    -0.002 A 
ATOM      2  C1  UNL d   1       5.938   5.378  -5.218  0.00  0.00     0.010 A 
ATOM      3  C2  UNL d   1       4.796   5.980  -5.751  0.00  0.00     0.041 A 
ATOM      4  C3  UNL d   1       3.533   5.431  -5.452  0.00  0.00    -0.075 A 
ATOM      5  S   UNL d   1       1.998   5.999  -5.993  0.00  0.00     0.015 SA
ATOM      6  C4  UNL d   1       1.165   4.767  -5.161  0.00  0.00     0.022 A 
ATOM      7  C5  UNL d   1       2.022   3.933  -4.482  0.00  0.00     0.026 A 
ATOM      8  C6  UNL d   1       3.401   4.302  -4.639  0.00  0.00    -0.082 A 
ATOM      9  C7  UNL d   1       4.577   3.714  -4.114  0.00  0.00     0.045 A 
ENDROOT
TORSDOF 0
ENDMDL
