MODEL 1
REMARK minimizedAffinity 2.53884888
REMARK minimizedRMSD -1
REMARK  0 active torsions:
REMARK  status: ('A' for Active; 'I' for Inactive)
ROOT
ATOM      1  C   UNL d   1      -3.706   6.000  -2.225  0.00  0.00    -0.002 A 
ATOM      2  C1  UNL d   1      -4.124   5.999  -3.548  0.00  0.00     0.010 A 
ATOM      3  C2  UNL d   1      -3.191   6.000  -4.587  0.00  0.00     0.041 A 
ATOM      4  C3  UNL d   1      -1.818   5.999  -4.271  0.00  0.00    -0.075 A 
ATOM      5  S   UNL d   1      -0.496   5.999  -5.378  0.00  0.00     0.015 SA
ATOM      6  C4  UNL d   1       0.654   5.999  -4.120  0.00  0.00     0.022 A 
ATOM      7  C5  UNL d   1       0.061   5.999  -2.880  0.00  0.00     0.026 A 
ATOM      8  C6  UNL d   1      -1.373   5.999  -2.946  0.00  0.00    -0.082 A 
ATOM      9  C7  UNL d   1      -2.343   5.999  -1.915  0.00  0.00     0.045 A 
ENDROOT
TORSDOF 0
ENDMDL
