MODEL 1
REMARK minimizedAffinity 6.32914686
REMARK minimizedRMSD -1
REMARK  0 active torsions:
REMARK  status: ('A' for Active; 'I' for Inactive)
ROOT
ATOM      1  C   UNL d   1      -0.065   4.252  -4.143  0.00  0.00    -0.002 A 
ATOM      2  C1  UNL d   1      -0.216   5.394  -4.916  0.00  0.00     0.010 A 
ATOM      3  C2  UNL d   1       0.892   6.000  -5.512  0.00  0.00     0.041 A 
ATOM      4  C3  UNL d   1       2.166   5.431  -5.317  0.00  0.00    -0.075 A 
ATOM      5  S   UNL d   1       3.666   6.000  -5.951  0.00  0.00     0.015 SA
ATOM      6  C4  UNL d   1       4.541   4.739  -5.210  0.00  0.00     0.022 A 
ATOM      7  C5  UNL d   1       3.726   3.896  -4.493  0.00  0.00     0.026 A 
ATOM      8  C6  UNL d   1       2.343   4.281  -4.544  0.00  0.00    -0.082 A 
ATOM      9  C7  UNL d   1       1.200   3.691  -3.952  0.00  0.00     0.045 A 
ENDROOT
TORSDOF 0
ENDMDL
