MODEL 1
REMARK minimizedAffinity 16.1309986
REMARK minimizedRMSD -1
REMARK  0 active torsions:
REMARK  status: ('A' for Active; 'I' for Inactive)
ROOT
ATOM      1  C   UNL d   1       1.181   5.270  -5.026  0.00  0.00    -0.002 A 
ATOM      2  C1  UNL d   1       1.411   4.099  -4.317  0.00  0.00     0.010 A 
ATOM      3  C2  UNL d   1       2.705   3.593  -4.181  0.00  0.00     0.041 A 
ATOM      4  C3  UNL d   1       3.775   4.291  -4.774  0.00  0.00    -0.075 A 
ATOM      5  S   UNL d   1       5.444   3.861  -4.738  0.00  0.00     0.015 SA
ATOM      6  C4  UNL d   1       5.892   5.221  -5.662  0.00  0.00     0.022 A 
ATOM      7  C5  UNL d   1       4.807   5.996  -5.999  0.00  0.00     0.026 A 
ATOM      8  C6  UNL d   1       3.569   5.473  -5.492  0.00  0.00    -0.082 A 
ATOM      9  C7  UNL d   1       2.245   5.960  -5.613  0.00  0.00     0.045 A 
ENDROOT
TORSDOF 0
ENDMDL
