MODEL 1
REMARK minimizedAffinity 8.93816853
REMARK minimizedRMSD -1
REMARK  0 active torsions:
REMARK  status: ('A' for Active; 'I' for Inactive)
ROOT
ATOM      1  C   UNL d   1       1.083   3.085  -2.045  0.00  0.00    -0.002 A 
ATOM      2  C1  UNL d   1       0.646   3.648  -0.855  0.00  0.00     0.010 A 
ATOM      3  C2  UNL d   1       0.642   2.900   0.325  0.00  0.00     0.041 A 
ATOM      4  C3  UNL d   1       1.090   1.565   0.287  0.00  0.00    -0.075 A 
ATOM      5  S   UNL d   1       1.175   0.460   1.608  0.00  0.00     0.015 SA
ATOM      6  C4  UNL d   1       1.794  -0.786   0.622  0.00  0.00     0.022 A 
ATOM      7  C5  UNL d   1       1.938  -0.385  -0.685  0.00  0.00     0.026 A 
ATOM      8  C6  UNL d   1       1.535   0.976  -0.900  0.00  0.00    -0.082 A 
ATOM      9  C7  UNL d   1       1.526   1.760  -2.079  0.00  0.00     0.045 A 
ENDROOT
TORSDOF 0
ENDMDL
