MODEL 1
REMARK minimizedAffinity 4.39774609
REMARK minimizedRMSD -1
REMARK  0 active torsions:
REMARK  status: ('A' for Active; 'I' for Inactive)
ROOT
ATOM      1  C   UNL d   1       1.447   5.209  -6.000  0.00  0.00    -0.002 A 
ATOM      2  C1  UNL d   1       1.406   3.955  -5.407  0.00  0.00     0.010 A 
ATOM      3  C2  UNL d   1       2.545   3.417  -4.804  0.00  0.00     0.041 A 
ATOM      4  C3  UNL d   1       3.736   4.169  -4.805  0.00  0.00    -0.075 A 
ATOM      5  S   UNL d   1       5.254   3.714  -4.125  0.00  0.00     0.015 SA
ATOM      6  C4  UNL d   1       5.991   5.173  -4.605  0.00  0.00     0.022 A 
ATOM      7  C5  UNL d   1       5.116   6.000  -5.269  0.00  0.00     0.026 A 
ATOM      8  C6  UNL d   1       3.802   5.435  -5.395  0.00  0.00    -0.082 A 
ATOM      9  C7  UNL d   1       2.630   5.952  -5.999  0.00  0.00     0.045 A 
ENDROOT
TORSDOF 0
ENDMDL
