MODEL 1
REMARK minimizedAffinity 4.93639326
REMARK minimizedRMSD -1
REMARK  0 active torsions:
REMARK  status: ('A' for Active; 'I' for Inactive)
ROOT
ATOM      1  C   UNL d   1      -0.212   5.946  -4.072  0.00  0.00    -0.002 A 
ATOM      2  C1  UNL d   1      -0.076   5.950  -2.691  0.00  0.00     0.010 A 
ATOM      3  C2  UNL d   1      -1.203   5.967  -1.867  0.00  0.00     0.041 A 
ATOM      4  C3  UNL d   1      -2.481   5.978  -2.460  0.00  0.00    -0.075 A 
ATOM      5  S   UNL d   1      -4.003   5.998  -1.650  0.00  0.00     0.015 SA
ATOM      6  C4  UNL d   1      -4.869   6.000  -3.118  0.00  0.00     0.022 A 
ATOM      7  C5  UNL d   1      -4.033   5.986  -4.209  0.00  0.00     0.026 A 
ATOM      8  C6  UNL d   1      -2.643   5.972  -3.848  0.00  0.00    -0.082 A 
ATOM      9  C7  UNL d   1      -1.481   5.956  -4.657  0.00  0.00     0.045 A 
ENDROOT
TORSDOF 0
ENDMDL
