MODEL 1
REMARK minimizedAffinity 5.75691843
REMARK minimizedRMSD -1
REMARK  0 active torsions:
REMARK  status: ('A' for Active; 'I' for Inactive)
ROOT
ATOM      1  C   UNL d   1       3.218   2.334   0.645  0.00  0.00    -0.002 A 
ATOM      2  C1  UNL d   1       3.358   1.273   1.528  0.00  0.00     0.010 A 
ATOM      3  C2  UNL d   1       2.241   0.546   1.945  0.00  0.00     0.041 A 
ATOM      4  C3  UNL d   1       0.971   0.906   1.455  0.00  0.00    -0.075 A 
ATOM      5  S   UNL d   1      -0.538   0.158   1.827  0.00  0.00     0.015 SA
ATOM      6  C4  UNL d   1      -1.402   1.229   0.823  0.00  0.00     0.022 A 
ATOM      7  C5  UNL d   1      -0.576   2.142   0.210  0.00  0.00     0.026 A 
ATOM      8  C6  UNL d   1       0.805   1.970   0.564  0.00  0.00    -0.082 A 
ATOM      9  C7  UNL d   1       1.956   2.688   0.160  0.00  0.00     0.045 A 
ENDROOT
TORSDOF 0
ENDMDL
