MODEL 1
REMARK minimizedAffinity 12.1407547
REMARK minimizedRMSD -1
REMARK  0 active torsions:
REMARK  status: ('A' for Active; 'I' for Inactive)
ROOT
ATOM      1  C   UNL d   1       5.217   4.085  -4.522  0.00  0.00    -0.002 A 
ATOM      2  C1  UNL d   1       5.331   5.338  -5.109  0.00  0.00     0.010 A 
ATOM      3  C2  UNL d   1       4.201   6.000  -5.594  0.00  0.00     0.041 A 
ATOM      4  C3  UNL d   1       2.943   5.377  -5.477  0.00  0.00    -0.075 A 
ATOM      5  S   UNL d   1       1.423   5.999  -5.999  0.00  0.00     0.015 SA
ATOM      6  C4  UNL d   1       0.586   4.618  -5.455  0.00  0.00     0.022 A 
ATOM      7  C5  UNL d   1       1.431   3.694  -4.886  0.00  0.00     0.026 A 
ATOM      8  C6  UNL d   1       2.803   4.117  -4.889  0.00  0.00    -0.082 A 
ATOM      9  C7  UNL d   1       3.967   3.471  -4.407  0.00  0.00     0.045 A 
ENDROOT
TORSDOF 0
ENDMDL
