MODEL 1
REMARK minimizedAffinity 8.14009953
REMARK minimizedRMSD -1
REMARK  0 active torsions:
REMARK  status: ('A' for Active; 'I' for Inactive)
ROOT
ATOM      1  C   UNL d   1       1.726   2.274  -1.396  0.00  0.00    -0.002 A 
ATOM      2  C1  UNL d   1       1.093   1.226  -2.048  0.00  0.00     0.010 A 
ATOM      3  C2  UNL d   1       0.386   0.263  -1.325  0.00  0.00     0.041 A 
ATOM      4  C3  UNL d   1       0.324   0.374   0.078  0.00  0.00    -0.075 A 
ATOM      5  S   UNL d   1      -0.485  -0.687   1.170  0.00  0.00     0.015 SA
ATOM      6  C4  UNL d   1      -0.011   0.228   2.527  0.00  0.00     0.022 A 
ATOM      7  C5  UNL d   1       0.747   1.319   2.175  0.00  0.00     0.026 A 
ATOM      8  C6  UNL d   1       0.952   1.422   0.757  0.00  0.00    -0.082 A 
ATOM      9  C7  UNL d   1       1.662   2.381  -0.004  0.00  0.00     0.045 A 
ENDROOT
TORSDOF 0
ENDMDL
