MODEL 1
REMARK minimizedAffinity -3.37594008
REMARK minimizedRMSD -1
REMARK  0 active torsions:
REMARK  status: ('A' for Active; 'I' for Inactive)
ROOT
ATOM      1  C   UNL d   1       1.967   5.996  -4.545  0.00  0.00    -0.002 A 
ATOM      2  C1  UNL d   1       1.413   5.997  -5.817  0.00  0.00     0.010 A 
ATOM      3  C2  UNL d   1       0.027   5.996  -5.988  0.00  0.00     0.041 A 
ATOM      4  C3  UNL d   1      -0.800   5.997  -4.848  0.00  0.00    -0.075 A 
ATOM      5  S   UNL d   1      -2.524   5.998  -4.814  0.00  0.00     0.015 SA
ATOM      6  C4  UNL d   1      -2.565   5.998  -3.110  0.00  0.00     0.022 A 
ATOM      7  C5  UNL d   1      -1.304   5.997  -2.564  0.00  0.00     0.026 A 
ATOM      8  C6  UNL d   1      -0.266   5.997  -3.556  0.00  0.00    -0.082 A 
ATOM      9  C7  UNL d   1       1.143   5.997  -3.416  0.00  0.00     0.045 A 
ENDROOT
TORSDOF 0
ENDMDL
