MODEL 1
REMARK minimizedAffinity 4.25627804
REMARK minimizedRMSD -1
REMARK  0 active torsions:
REMARK  status: ('A' for Active; 'I' for Inactive)
ROOT
ATOM      1  C   UNL d   1       4.155   5.371  -5.259  0.00  0.00    -0.002 A 
ATOM      2  C1  UNL d   1       4.085   5.780  -3.934  0.00  0.00     0.010 A 
ATOM      3  C2  UNL d   1       2.849   5.997  -3.322  0.00  0.00     0.041 A 
ATOM      4  C3  UNL d   1       1.673   5.794  -4.070  0.00  0.00    -0.075 A 
ATOM      5  S   UNL d   1       0.048   5.998  -3.529  0.00  0.00     0.015 SA
ATOM      6  C4  UNL d   1      -0.591   5.547  -5.043  0.00  0.00     0.022 A 
ATOM      7  C5  UNL d   1       0.396   5.245  -5.951  0.00  0.00     0.026 A 
ATOM      8  C6  UNL d   1       1.717   5.382  -5.405  0.00  0.00    -0.082 A 
ATOM      9  C7  UNL d   1       2.986   5.171  -5.998  0.00  0.00     0.045 A 
ENDROOT
TORSDOF 0
ENDMDL
