MODEL 1
REMARK minimizedAffinity 2.25027132
REMARK minimizedRMSD -1
REMARK  0 active torsions:
REMARK  status: ('A' for Active; 'I' for Inactive)
ROOT
ATOM      1  C   UNL d   1      -2.794   5.999  -1.979  0.00  0.00    -0.002 A 
ATOM      2  C1  UNL d   1      -1.661   6.000  -1.177  0.00  0.00     0.010 A 
ATOM      3  C2  UNL d   1      -0.387   5.999  -1.748  0.00  0.00     0.041 A 
ATOM      4  C3  UNL d   1      -0.269   5.999  -3.152  0.00  0.00    -0.075 A 
ATOM      5  S   UNL d   1       1.189   5.999  -4.072  0.00  0.00     0.015 SA
ATOM      6  C4  UNL d   1       0.342   6.000  -5.552  0.00  0.00     0.022 A 
ATOM      7  C5  UNL d   1      -1.020   5.999  -5.366  0.00  0.00     0.026 A 
ATOM      8  C6  UNL d   1      -1.395   6.000  -3.980  0.00  0.00    -0.082 A 
ATOM      9  C7  UNL d   1      -2.673   6.000  -3.371  0.00  0.00     0.045 A 
ENDROOT
TORSDOF 0
ENDMDL
