MODEL 1
REMARK minimizedAffinity -1.99383366
REMARK minimizedRMSD -1
REMARK  0 active torsions:
REMARK  status: ('A' for Active; 'I' for Inactive)
ROOT
ATOM      1  C   UNL d   1       1.286   0.877  -0.001  0.00  0.00     0.172 C 
ATOM      2  N   UNL d   1      -0.060   0.410   0.233  0.00  0.00    -0.070 N 
ATOM      3  C1  UNL d   1      -1.132   1.196   0.561  0.00  0.00    -0.004 A 
ATOM      4  C2  UNL d   1      -2.231   0.375   0.699  0.00  0.00    -0.047 A 
ATOM      5  C3  UNL d   1      -1.804  -0.950   0.446  0.00  0.00    -0.047 A 
ATOM      6  C4  UNL d   1      -0.456  -0.900   0.161  0.00  0.00    -0.004 A 
ENDROOT
TORSDOF 0
ENDMDL
