MODEL 1
REMARK minimizedAffinity -3.6872611
REMARK minimizedRMSD -1
REMARK  0 active torsions:
REMARK  status: ('A' for Active; 'I' for Inactive)
ROOT
ATOM      1  C   UNL d   1       0.416   1.382   0.273  0.00  0.00     0.172 C 
ATOM      2  N   UNL d   1       0.070  -0.014   0.402  0.00  0.00    -0.070 N 
ATOM      3  C1  UNL d   1      -1.172  -0.551   0.189  0.00  0.00    -0.004 A 
ATOM      4  C2  UNL d   1      -1.088  -1.909   0.413  0.00  0.00    -0.047 A 
ATOM      5  C3  UNL d   1       0.249  -2.197   0.774  0.00  0.00    -0.047 A 
ATOM      6  C4  UNL d   1       0.944  -1.006   0.759  0.00  0.00    -0.004 A 
ENDROOT
TORSDOF 0
ENDMDL
