MODEL 1
REMARK minimizedAffinity -2.10658026
REMARK minimizedRMSD -1
REMARK  0 active torsions:
REMARK  status: ('A' for Active; 'I' for Inactive)
ROOT
ATOM      1  C   UNL d   1       0.874   1.587  -0.202  0.00  0.00     0.172 C 
ATOM      2  N   UNL d   1      -0.358   0.906   0.118  0.00  0.00    -0.070 N 
ATOM      3  C1  UNL d   1      -1.499   1.498   0.589  0.00  0.00    -0.004 A 
ATOM      4  C2  UNL d   1      -2.444   0.512   0.767  0.00  0.00    -0.047 A 
ATOM      5  C3  UNL d   1      -1.851  -0.717   0.391  0.00  0.00    -0.047 A 
ATOM      6  C4  UNL d   1      -0.559  -0.443  -0.007  0.00  0.00    -0.004 A 
ENDROOT
TORSDOF 0
ENDMDL
