MODEL 1
REMARK minimizedAffinity -3.3544004
REMARK minimizedRMSD -1
REMARK  0 active torsions:
REMARK  status: ('A' for Active; 'I' for Inactive)
ROOT
ATOM      1  C   UNL d   1      -0.031   0.868  -0.474  0.00  0.00     0.172 C 
ATOM      2  N   UNL d   1       0.631   1.488  -1.597  0.00  0.00    -0.070 N 
ATOM      3  C1  UNL d   1       0.009   2.064  -2.672  0.00  0.00    -0.004 A 
ATOM      4  C2  UNL d   1       0.985   2.539  -3.521  0.00  0.00    -0.047 A 
ATOM      5  C3  UNL d   1       2.238   2.237  -2.936  0.00  0.00    -0.047 A 
ATOM      6  C4  UNL d   1       1.989   1.586  -1.746  0.00  0.00    -0.004 A 
ENDROOT
TORSDOF 0
ENDMDL
