MODEL 1
REMARK minimizedAffinity -3.00239563
REMARK minimizedRMSD -1
REMARK  0 active torsions:
REMARK  status: ('A' for Active; 'I' for Inactive)
ROOT
ATOM      1  C   UNL d   1       0.385   1.019  -0.661  0.00  0.00     0.172 C 
ATOM      2  N   UNL d   1      -0.122  -0.214  -0.105  0.00  0.00    -0.070 N 
ATOM      3  C1  UNL d   1      -1.424  -0.456   0.245  0.00  0.00    -0.004 A 
ATOM      4  C2  UNL d   1      -1.498  -1.742   0.732  0.00  0.00    -0.047 A 
ATOM      5  C3  UNL d   1      -0.196  -2.293   0.674  0.00  0.00    -0.047 A 
ATOM      6  C4  UNL d   1       0.636  -1.325   0.152  0.00  0.00    -0.004 A 
ENDROOT
TORSDOF 0
ENDMDL
