MODEL 1
REMARK minimizedAffinity -3.77285242
REMARK minimizedRMSD -1
REMARK  0 active torsions:
REMARK  status: ('A' for Active; 'I' for Inactive)
ROOT
ATOM      1  C   UNL d   1       0.114   0.410  -0.668  0.00  0.00     0.172 C 
ATOM      2  N   UNL d   1      -0.350  -0.689   0.146  0.00  0.00    -0.070 N 
ATOM      3  C1  UNL d   1       0.445  -1.623   0.756  0.00  0.00    -0.004 A 
ATOM      4  C2  UNL d   1      -0.375  -2.497   1.435  0.00  0.00    -0.047 A 
ATOM      5  C3  UNL d   1      -1.710  -2.075   1.227  0.00  0.00    -0.047 A 
ATOM      6  C4  UNL d   1      -1.665  -0.954   0.425  0.00  0.00    -0.004 A 
ENDROOT
TORSDOF 0
ENDMDL
