MODEL 1
REMARK minimizedAffinity -1.25138712
REMARK minimizedRMSD -1
REMARK  0 active torsions:
REMARK  status: ('A' for Active; 'I' for Inactive)
ROOT
ATOM      1  C   UNL d   1      -0.653  -2.171   1.561  0.00  0.00     0.172 C 
ATOM      2  N   UNL d   1      -0.212  -1.064   0.745  0.00  0.00    -0.070 N 
ATOM      3  C1  UNL d   1      -0.837   0.150   0.642  0.00  0.00    -0.004 A 
ATOM      4  C2  UNL d   1      -0.107   0.928  -0.231  0.00  0.00    -0.047 A 
ATOM      5  C3  UNL d   1       0.994   0.153  -0.669  0.00  0.00    -0.047 A 
ATOM      6  C4  UNL d   1       0.904  -1.075  -0.049  0.00  0.00    -0.004 A 
ENDROOT
TORSDOF 0
ENDMDL
