MODEL 1
REMARK minimizedAffinity -3.75393701
REMARK minimizedRMSD -1
REMARK  0 active torsions:
REMARK  status: ('A' for Active; 'I' for Inactive)
ROOT
ATOM      1  C   UNL d   1      -0.345   0.526   0.143  0.00  0.00     0.172 C 
ATOM      2  N   UNL d   1      -1.099  -0.565   0.713  0.00  0.00    -0.070 N 
ATOM      3  C1  UNL d   1      -0.717  -1.880   0.723  0.00  0.00    -0.004 A 
ATOM      4  C2  UNL d   1      -1.705  -2.602   1.358  0.00  0.00    -0.047 A 
ATOM      5  C3  UNL d   1      -2.716  -1.689   1.741  0.00  0.00    -0.047 A 
ATOM      6  C4  UNL d   1      -2.315  -0.435   1.330  0.00  0.00    -0.004 A 
ENDROOT
TORSDOF 0
ENDMDL
