MODEL 1
REMARK minimizedAffinity -3.4200139
REMARK minimizedRMSD -1
REMARK  0 active torsions:
REMARK  status: ('A' for Active; 'I' for Inactive)
ROOT
ATOM      1  C   UNL d   1       0.208   0.886  -0.388  0.00  0.00     0.172 C 
ATOM      2  N   UNL d   1       0.029  -0.352   0.334  0.00  0.00    -0.070 N 
ATOM      3  C1  UNL d   1      -1.174  -0.905   0.682  0.00  0.00    -0.004 A 
ATOM      4  C2  UNL d   1      -0.919  -2.080   1.357  0.00  0.00    -0.047 A 
ATOM      5  C3  UNL d   1       0.487  -2.237   1.416  0.00  0.00    -0.047 A 
ATOM      6  C4  UNL d   1       1.048  -1.153   0.776  0.00  0.00    -0.004 A 
ENDROOT
TORSDOF 0
ENDMDL
