MODEL 1
REMARK minimizedAffinity -3.03837943
REMARK minimizedRMSD -1
REMARK  0 active torsions:
REMARK  status: ('A' for Active; 'I' for Inactive)
ROOT
ATOM      1  C   UNL d   1       0.725   0.908  -0.733  0.00  0.00     0.172 C 
ATOM      2  N   UNL d   1       0.332  -0.195   0.113  0.00  0.00    -0.070 N 
ATOM      3  C1  UNL d   1       1.178  -0.958   0.873  0.00  0.00    -0.004 A 
ATOM      4  C2  UNL d   1       0.418  -1.901   1.531  0.00  0.00    -0.047 A 
ATOM      5  C3  UNL d   1      -0.930  -1.698   1.153  0.00  0.00    -0.047 A 
ATOM      6  C4  UNL d   1      -0.955  -0.635   0.274  0.00  0.00    -0.004 A 
ENDROOT
TORSDOF 0
ENDMDL
