MODEL 1
REMARK minimizedAffinity -3.95204043
REMARK minimizedRMSD -1
REMARK  0 active torsions:
REMARK  status: ('A' for Active; 'I' for Inactive)
ROOT
ATOM      1  C   UNL d   1       0.498   0.590  -0.884  0.00  0.00     0.172 C 
ATOM      2  N   UNL d   1       0.046  -0.586  -0.177  0.00  0.00    -0.070 N 
ATOM      3  C1  UNL d   1       0.785  -1.313   0.718  0.00  0.00    -0.004 A 
ATOM      4  C2  UNL d   1      -0.000  -2.351   1.169  0.00  0.00    -0.047 A 
ATOM      5  C3  UNL d   1      -1.255  -2.245   0.522  0.00  0.00    -0.047 A 
ATOM      6  C4  UNL d   1      -1.198  -1.144  -0.306  0.00  0.00    -0.004 A 
ENDROOT
TORSDOF 0
ENDMDL
