MODEL 1
REMARK minimizedAffinity -3.49529314
REMARK minimizedRMSD -1
REMARK  0 active torsions:
REMARK  status: ('A' for Active; 'I' for Inactive)
ROOT
ATOM      1  C   UNL d   1       0.247   0.302  -1.102  0.00  0.00     0.172 C 
ATOM      2  N   UNL d   1      -0.284  -0.767  -0.289  0.00  0.00    -0.070 N 
ATOM      3  C1  UNL d   1      -1.425  -1.477  -0.551  0.00  0.00    -0.004 A 
ATOM      4  C2  UNL d   1      -1.586  -2.403   0.457  0.00  0.00    -0.047 A 
ATOM      5  C3  UNL d   1      -0.506  -2.243   1.357  0.00  0.00    -0.047 A 
ATOM      6  C4  UNL d   1       0.285  -1.223   0.871  0.00  0.00    -0.004 A 
ENDROOT
TORSDOF 0
ENDMDL
