MODEL 1
REMARK minimizedAffinity -3.35563016
REMARK minimizedRMSD -1
REMARK  0 active torsions:
REMARK  status: ('A' for Active; 'I' for Inactive)
ROOT
ATOM      1  C   UNL d   1       0.475   0.988  -0.151  0.00  0.00     0.172 C 
ATOM      2  N   UNL d   1      -0.066  -0.240   0.383  0.00  0.00    -0.070 N 
ATOM      3  C1  UNL d   1      -1.393  -0.576   0.425  0.00  0.00    -0.004 A 
ATOM      4  C2  UNL d   1      -1.494  -1.821   1.007  0.00  0.00    -0.047 A 
ATOM      5  C3  UNL d   1      -0.183  -2.248   1.325  0.00  0.00    -0.047 A 
ATOM      6  C4  UNL d   1       0.681  -1.250   0.929  0.00  0.00    -0.004 A 
ENDROOT
TORSDOF 0
ENDMDL
