MODEL 1
REMARK minimizedAffinity 1.82508492
REMARK minimizedRMSD -1
REMARK  0 active torsions:
REMARK  status: ('A' for Active; 'I' for Inactive)
ROOT
ATOM      1  C   UNL d   1      -1.112   1.628  -1.717  0.00  0.00     0.124 A 
ATOM      2  C1  UNL d   1      -1.087   0.291  -1.347  0.00  0.00     0.062 A 
ATOM      3  C2  UNL d   1      -0.466  -0.097  -0.163  0.00  0.00     0.162 A 
ATOM      4  C3  UNL d   1       0.134   0.855   0.661  0.00  0.00    -0.034 A 
ATOM      5  C4  UNL d   1       0.106   2.198   0.282  0.00  0.00     0.162 A 
ATOM      6  C5  UNL d   1      -0.516   2.580  -0.902  0.00  0.00     0.062 A 
ATOM      7  F   UNL d   1      -0.538   3.873  -1.257  0.00  0.00    -0.097 F 
ATOM      8  F1  UNL d   1       0.674   3.139   1.051  0.00  0.00    -0.096 F 
ATOM      9  I   UNL d   1       1.063   0.279   2.432  0.00  0.00    -0.060 I 
ATOM     10  F2  UNL d   1      -0.458  -1.397   0.169  0.00  0.00    -0.096 F 
ATOM     11  F3  UNL d   1      -1.661  -0.631  -2.133  0.00  0.00    -0.097 F 
ATOM     12  F4  UNL d   1      -1.709   1.999  -2.857  0.00  0.00    -0.092 F 
ENDROOT
TORSDOF 0
ENDMDL
