MODEL 1
REMARK minimizedAffinity 6.99387836
REMARK minimizedRMSD -1
REMARK  0 active torsions:
REMARK  status: ('A' for Active; 'I' for Inactive)
ROOT
ATOM      1  C   UNL d   1       0.920  -0.013   1.724  0.00  0.00     0.124 A 
ATOM      2  C1  UNL d   1       0.788   1.346   1.479  0.00  0.00     0.062 A 
ATOM      3  C2  UNL d   1       0.396   1.796   0.221  0.00  0.00     0.162 A 
ATOM      4  C3  UNL d   1       0.133   0.884  -0.802  0.00  0.00    -0.034 A 
ATOM      5  C4  UNL d   1       0.269  -0.482  -0.547  0.00  0.00     0.162 A 
ATOM      6  C5  UNL d   1       0.661  -0.926   0.711  0.00  0.00     0.062 A 
ATOM      7  F   UNL d   1       0.789  -2.240   0.947  0.00  0.00    -0.097 F 
ATOM      8  F1  UNL d   1       0.024  -1.386  -1.508  0.00  0.00    -0.096 F 
ATOM      9  I   UNL d   1      -0.453   1.552  -2.684  0.00  0.00    -0.060 I 
ATOM     10  F2  UNL d   1       0.276   3.115   0.012  0.00  0.00    -0.096 F 
ATOM     11  F3  UNL d   1       1.039   2.230   2.455  0.00  0.00    -0.097 F 
ATOM     12  F4  UNL d   1       1.298  -0.443   2.935  0.00  0.00    -0.092 F 
ENDROOT
TORSDOF 0
ENDMDL
