MODEL 1
REMARK minimizedAffinity 11.6415987
REMARK minimizedRMSD -1
REMARK  0 active torsions:
REMARK  status: ('A' for Active; 'I' for Inactive)
ROOT
ATOM      1  C   UNL d   1      -0.281  -0.216   0.316  0.00  0.00     0.124 A 
ATOM      2  C1  UNL d   1      -0.352  -0.499   1.673  0.00  0.00     0.062 A 
ATOM      3  C2  UNL d   1       0.806  -0.786   2.390  0.00  0.00     0.162 A 
ATOM      4  C3  UNL d   1       2.046  -0.793   1.751  0.00  0.00    -0.034 A 
ATOM      5  C4  UNL d   1       2.109  -0.509   0.385  0.00  0.00     0.162 A 
ATOM      6  C5  UNL d   1       0.949  -0.222  -0.326  0.00  0.00     0.062 A 
ATOM      7  F   UNL d   1       1.019   0.051  -1.637  0.00  0.00    -0.097 F 
ATOM      8  F1  UNL d   1       3.285  -0.506  -0.260  0.00  0.00    -0.096 F 
ATOM      9  I   UNL d   1       3.779  -1.223   2.819  0.00  0.00    -0.060 I 
ATOM     10  F2  UNL d   1       0.707  -1.055   3.700  0.00  0.00    -0.096 F 
ATOM     11  F3  UNL d   1      -1.540  -0.495   2.296  0.00  0.00    -0.097 F 
ATOM     12  F4  UNL d   1      -1.397   0.059  -0.371  0.00  0.00    -0.092 F 
ENDROOT
TORSDOF 0
ENDMDL
