MODEL 1
REMARK minimizedAffinity 15.5016594
REMARK minimizedRMSD -1
REMARK  0 active torsions:
REMARK  status: ('A' for Active; 'I' for Inactive)
ROOT
ATOM      1  C   UNL d   1       1.145   0.600   2.228  0.00  0.00     0.124 A 
ATOM      2  C1  UNL d   1       1.618  -0.549   1.610  0.00  0.00     0.062 A 
ATOM      3  C2  UNL d   1       1.129  -0.925   0.362  0.00  0.00     0.162 A 
ATOM      4  C3  UNL d   1       0.162  -0.149  -0.277  0.00  0.00    -0.034 A 
ATOM      5  C4  UNL d   1      -0.309   1.006   0.351  0.00  0.00     0.162 A 
ATOM      6  C5  UNL d   1       0.183   1.376   1.598  0.00  0.00     0.062 A 
ATOM      7  F   UNL d   1      -0.275   2.487   2.194  0.00  0.00    -0.097 F 
ATOM      8  F1  UNL d   1      -1.239   1.775  -0.235  0.00  0.00    -0.096 F 
ATOM      9  I   UNL d   1      -0.572  -0.707  -2.143  0.00  0.00    -0.060 I 
ATOM     10  F2  UNL d   1       1.603  -2.041  -0.211  0.00  0.00    -0.096 F 
ATOM     11  F3  UNL d   1       2.547  -1.302   2.217  0.00  0.00    -0.097 F 
ATOM     12  F4  UNL d   1       1.617   0.958   3.429  0.00  0.00    -0.092 F 
ENDROOT
TORSDOF 0
ENDMDL
