MODEL 1
REMARK minimizedAffinity -1.37123227
REMARK minimizedRMSD -1
REMARK  0 active torsions:
REMARK  status: ('A' for Active; 'I' for Inactive)
ROOT
ATOM      1  C   UNL d   1      -0.111   1.969   0.794  0.00  0.00     0.124 A 
ATOM      2  C1  UNL d   1       0.160   1.056   1.804  0.00  0.00     0.062 A 
ATOM      3  C2  UNL d   1       0.340  -0.291   1.500  0.00  0.00     0.162 A 
ATOM      4  C3  UNL d   1       0.251  -0.732   0.179  0.00  0.00    -0.034 A 
ATOM      5  C4  UNL d   1      -0.023   0.193  -0.830  0.00  0.00     0.162 A 
ATOM      6  C5  UNL d   1      -0.202   1.537  -0.521  0.00  0.00     0.062 A 
ATOM      7  F   UNL d   1      -0.464   2.418  -1.498  0.00  0.00    -0.097 F 
ATOM      8  F1  UNL d   1      -0.116  -0.198  -2.110  0.00  0.00    -0.096 F 
ATOM      9  I   UNL d   1       0.519  -2.744  -0.279  0.00  0.00    -0.060 I 
ATOM     10  F2  UNL d   1       0.600  -1.151   2.495  0.00  0.00    -0.096 F 
ATOM     11  F3  UNL d   1       0.248   1.471   3.076  0.00  0.00    -0.097 F 
ATOM     12  F4  UNL d   1      -0.284   3.264   1.090  0.00  0.00    -0.092 F 
ENDROOT
TORSDOF 0
ENDMDL
