MODEL 1
REMARK minimizedAffinity 14.299427
REMARK minimizedRMSD -1
REMARK  0 active torsions:
REMARK  status: ('A' for Active; 'I' for Inactive)
ROOT
ATOM      1  C   UNL d   1       0.223  -0.572   2.057  0.00  0.00     0.124 A 
ATOM      2  C1  UNL d   1      -0.008  -0.010   0.809  0.00  0.00     0.062 A 
ATOM      3  C2  UNL d   1       0.154   1.359   0.617  0.00  0.00     0.162 A 
ATOM      4  C3  UNL d   1       0.550   2.176   1.676  0.00  0.00    -0.034 A 
ATOM      5  C4  UNL d   1       0.779   1.604   2.929  0.00  0.00     0.162 A 
ATOM      6  C5  UNL d   1       0.616   0.235   3.115  0.00  0.00     0.062 A 
ATOM      7  F   UNL d   1       0.839  -0.306   4.322  0.00  0.00    -0.097 F 
ATOM      8  F1  UNL d   1       1.161   2.360   3.968  0.00  0.00    -0.096 F 
ATOM      9  I   UNL d   1       0.793   4.224   1.393  0.00  0.00    -0.060 I 
ATOM     10  F2  UNL d   1      -0.076   1.875  -0.599  0.00  0.00    -0.096 F 
ATOM     11  F3  UNL d   1      -0.389  -0.787  -0.215  0.00  0.00    -0.097 F 
ATOM     12  F4  UNL d   1       0.065  -1.889   2.239  0.00  0.00    -0.092 F 
ENDROOT
TORSDOF 0
ENDMDL
