MODEL 1
REMARK minimizedAffinity 16.8864365
REMARK minimizedRMSD -1
REMARK  0 active torsions:
REMARK  status: ('A' for Active; 'I' for Inactive)
ROOT
ATOM      1  C   UNL d   1       1.634   4.294   2.038  0.00  0.00     0.124 A 
ATOM      2  C1  UNL d   1       0.902   3.568   1.109  0.00  0.00     0.062 A 
ATOM      3  C2  UNL d   1       0.460   2.284   1.415  0.00  0.00     0.162 A 
ATOM      4  C3  UNL d   1       0.749   1.717   2.657  0.00  0.00    -0.034 A 
ATOM      5  C4  UNL d   1       1.487   2.453   3.585  0.00  0.00     0.162 A 
ATOM      6  C5  UNL d   1       1.926   3.736   3.275  0.00  0.00     0.062 A 
ATOM      7  F   UNL d   1       2.634   4.436   4.174  0.00  0.00    -0.097 F 
ATOM      8  F1  UNL d   1       1.782   1.939   4.789  0.00  0.00    -0.096 F 
ATOM      9  I   UNL d   1       0.090  -0.202   3.118  0.00  0.00    -0.060 I 
ATOM     10  F2  UNL d   1      -0.246   1.605   0.499  0.00  0.00    -0.096 F 
ATOM     11  F3  UNL d   1       0.619   4.104  -0.087  0.00  0.00    -0.097 F 
ATOM     12  F4  UNL d   1       2.059   5.528   1.741  0.00  0.00    -0.092 F 
ENDROOT
TORSDOF 0
ENDMDL
