MODEL 1
REMARK minimizedAffinity 12.3843946
REMARK minimizedRMSD -1
REMARK  0 active torsions:
REMARK  status: ('A' for Active; 'I' for Inactive)
ROOT
ATOM      1  C   UNL d   1       1.064   3.074   2.531  0.00  0.00     0.124 A 
ATOM      2  C1  UNL d   1       0.779   3.700   1.326  0.00  0.00     0.062 A 
ATOM      3  C2  UNL d   1       0.023   3.045   0.358  0.00  0.00     0.162 A 
ATOM      4  C3  UNL d   1      -0.454   1.755   0.592  0.00  0.00    -0.034 A 
ATOM      5  C4  UNL d   1      -0.162   1.131   1.806  0.00  0.00     0.162 A 
ATOM      6  C5  UNL d   1       0.594   1.790   2.770  0.00  0.00     0.062 A 
ATOM      7  F   UNL d   1       0.869   1.183   3.934  0.00  0.00    -0.097 F 
ATOM      8  F1  UNL d   1      -0.604  -0.109   2.063  0.00  0.00    -0.096 F 
ATOM      9  I   UNL d   1      -1.584   0.772  -0.853  0.00  0.00    -0.060 I 
ATOM     10  F2  UNL d   1      -0.238   3.674  -0.797  0.00  0.00    -0.096 F 
ATOM     11  F3  UNL d   1       1.232   4.940   1.092  0.00  0.00    -0.097 F 
ATOM     12  F4  UNL d   1       1.792   3.706   3.460  0.00  0.00    -0.092 F 
ENDROOT
TORSDOF 0
ENDMDL
