MODEL 1
REMARK minimizedAffinity 13.7796135
REMARK minimizedRMSD -1
REMARK  0 active torsions:
REMARK  status: ('A' for Active; 'I' for Inactive)
ROOT
ATOM      1  C   UNL d   1      -1.712  -1.006  -2.163  0.00  0.00     0.124 A 
ATOM      2  C1  UNL d   1      -1.131   0.237  -1.953  0.00  0.00     0.062 A 
ATOM      3  C2  UNL d   1      -0.284   0.438  -0.867  0.00  0.00     0.162 A 
ATOM      4  C3  UNL d   1      -0.011  -0.606   0.016  0.00  0.00    -0.034 A 
ATOM      5  C4  UNL d   1      -0.600  -1.853  -0.201  0.00  0.00     0.162 A 
ATOM      6  C5  UNL d   1      -1.446  -2.049  -1.288  0.00  0.00     0.062 A 
ATOM      7  F   UNL d   1      -2.007  -3.251  -1.489  0.00  0.00    -0.097 F 
ATOM      8  F1  UNL d   1      -0.360  -2.879   0.629  0.00  0.00    -0.096 F 
ATOM      9  I   UNL d   1       1.256  -0.309   1.641  0.00  0.00    -0.060 I 
ATOM     10  F2  UNL d   1       0.264   1.650  -0.688  0.00  0.00    -0.096 F 
ATOM     11  F3  UNL d   1      -1.387   1.246  -2.797  0.00  0.00    -0.097 F 
ATOM     12  F4  UNL d   1      -2.528  -1.197  -3.208  0.00  0.00    -0.092 F 
ENDROOT
TORSDOF 0
ENDMDL
