MODEL 1
REMARK minimizedAffinity 0.734197259
REMARK minimizedRMSD -1
REMARK  0 active torsions:
REMARK  status: ('A' for Active; 'I' for Inactive)
ROOT
ATOM      1  C   UNL d   1      -1.982  -1.033  -1.291  0.00  0.00     0.124 A 
ATOM      2  C1  UNL d   1      -0.984  -1.076  -0.327  0.00  0.00     0.062 A 
ATOM      3  C2  UNL d   1      -0.329   0.091   0.055  0.00  0.00     0.162 A 
ATOM      4  C3  UNL d   1      -0.670   1.312  -0.527  0.00  0.00    -0.034 A 
ATOM      5  C4  UNL d   1      -1.674   1.347  -1.496  0.00  0.00     0.162 A 
ATOM      6  C5  UNL d   1      -2.326   0.178  -1.874  0.00  0.00     0.062 A 
ATOM      7  F   UNL d   1      -3.290   0.221  -2.806  0.00  0.00    -0.097 F 
ATOM      8  F1  UNL d   1      -2.027   2.504  -2.076  0.00  0.00    -0.096 F 
ATOM      9  I   UNL d   1       0.307   3.060   0.041  0.00  0.00    -0.060 I 
ATOM     10  F2  UNL d   1       0.631   0.021   0.989  0.00  0.00    -0.096 F 
ATOM     11  F3  UNL d   1      -0.649  -2.245   0.238  0.00  0.00    -0.097 F 
ATOM     12  F4  UNL d   1      -2.610  -2.158  -1.656  0.00  0.00    -0.092 F 
ENDROOT
TORSDOF 0
ENDMDL
