MODEL 1
REMARK minimizedAffinity 6.74888754
REMARK minimizedRMSD -1
REMARK  1 active torsions:
REMARK  status: ('A' for Active; 'I' for Inactive)
REMARK    1  A    between atoms: C1_2  and  C2_3 
ROOT
ATOM      1  C2  UNL d   1       0.299  -0.063   0.529  0.00  0.00    -0.081 A 
ATOM      2  C3  UNL d   1      -0.215  -0.581  -0.666  0.00  0.00     0.006 A 
ATOM      3  C4  UNL d   1      -1.559  -0.397  -0.998  0.00  0.00     0.002 A 
ATOM      4  C5  UNL d   1      -2.410   0.315  -0.146  0.00  0.00    -0.080 A 
ATOM      5  C6  UNL d   1      -3.848   0.545  -0.504  0.00  0.00     0.076 C 
ATOM      6  C7  UNL d   1      -1.901   0.818   1.057  0.00  0.00     0.002 A 
ATOM      7  C8  UNL d   1      -0.557   0.633   1.389  0.00  0.00     0.006 A 
ENDROOT
BRANCH   1   8
ATOM      8  C1  UNL d   1       1.763  -0.204   0.859  0.00  0.00     0.054 C 
ATOM      9  C   UNL d   1       2.430   1.156   1.009  0.00  0.00     0.018 C 
ENDBRANCH   1   8
TORSDOF 1
ENDMDL
