MODEL 1
REMARK minimizedAffinity -4.45759106
REMARK minimizedRMSD -1
REMARK  1 active torsions:
REMARK  status: ('A' for Active; 'I' for Inactive)
REMARK    1  A    between atoms: C1_2  and  C2_3 
ROOT
ATOM      1  C2  UNL d   1      -0.024  -1.001   3.656  0.00  0.00    -0.081 A 
ATOM      2  C3  UNL d   1      -1.353  -0.563   3.698  0.00  0.00     0.006 A 
ATOM      3  C4  UNL d   1      -1.899   0.146   2.626  0.00  0.00     0.002 A 
ATOM      4  C5  UNL d   1      -1.128   0.423   1.492  0.00  0.00    -0.080 A 
ATOM      5  C6  UNL d   1      -1.710   1.157   0.321  0.00  0.00     0.076 C 
ATOM      6  C7  UNL d   1       0.205   0.000   1.457  0.00  0.00     0.002 A 
ATOM      7  C8  UNL d   1       0.752  -0.709   2.529  0.00  0.00     0.006 A 
ENDROOT
BRANCH   1   8
ATOM      8  C1  UNL d   1       0.548  -1.823   4.784  0.00  0.00     0.054 C 
ATOM      9  C   UNL d   1       1.582  -1.034   5.574  0.00  0.00     0.018 C 
ENDBRANCH   1   8
TORSDOF 1
ENDMDL
