MODEL 1
REMARK minimizedAffinity 2.90324926
REMARK minimizedRMSD -1
REMARK  1 active torsions:
REMARK  status: ('A' for Active; 'I' for Inactive)
REMARK    1  A    between atoms: C1_2  and  C2_3 
ROOT
ATOM      1  C2  UNL d   1      -0.893   0.228   1.247  0.00  0.00    -0.081 A 
ATOM      2  C3  UNL d   1       0.429  -0.167   1.488  0.00  0.00     0.006 A 
ATOM      3  C4  UNL d   1       0.826  -0.568   2.765  0.00  0.00     0.002 A 
ATOM      4  C5  UNL d   1      -0.092  -0.588   3.821  0.00  0.00    -0.080 A 
ATOM      5  C6  UNL d   1       0.314  -1.045   5.190  0.00  0.00     0.076 C 
ATOM      6  C7  UNL d   1      -1.408  -0.177   3.584  0.00  0.00     0.002 A 
ATOM      7  C8  UNL d   1      -1.806   0.224   2.307  0.00  0.00     0.006 A 
ENDROOT
BRANCH   1   8
ATOM      8  C1  UNL d   1      -1.340   0.599  -0.144  0.00  0.00     0.054 C 
ATOM      9  C   UNL d   1      -1.072  -0.529  -1.131  0.00  0.00     0.018 C 
ENDBRANCH   1   8
TORSDOF 1
ENDMDL
