MODEL 1
REMARK minimizedAffinity -1.84902608
REMARK minimizedRMSD -1
REMARK  1 active torsions:
REMARK  status: ('A' for Active; 'I' for Inactive)
REMARK    1  A    between atoms: C1_2  and  C2_3 
ROOT
ATOM      1  C2  UNL d   1       0.221  -0.610   2.996  0.00  0.00    -0.081 A 
ATOM      2  C3  UNL d   1      -0.174  -1.407   4.078  0.00  0.00     0.006 A 
ATOM      3  C4  UNL d   1      -1.522  -1.502   4.432  0.00  0.00     0.002 A 
ATOM      4  C5  UNL d   1      -2.497  -0.809   3.707  0.00  0.00    -0.080 A 
ATOM      5  C6  UNL d   1      -3.950  -0.927   4.058  0.00  0.00     0.076 C 
ATOM      6  C7  UNL d   1      -2.100   0.001   2.637  0.00  0.00     0.002 A 
ATOM      7  C8  UNL d   1      -0.753   0.097   2.283  0.00  0.00     0.006 A 
ENDROOT
BRANCH   1   8
ATOM      8  C1  UNL d   1       1.667  -0.557   2.572  0.00  0.00     0.054 C 
ATOM      9  C   UNL d   1       1.797  -0.221   1.093  0.00  0.00     0.018 C 
ENDBRANCH   1   8
TORSDOF 1
ENDMDL
