MODEL 1
REMARK minimizedAffinity 3.81651425
REMARK minimizedRMSD -1
REMARK  1 active torsions:
REMARK  status: ('A' for Active; 'I' for Inactive)
REMARK    1  A    between atoms: C1_2  and  C2_3 
ROOT
ATOM      1  C2  UNL d   1      -1.112  -0.089   0.704  0.00  0.00    -0.081 A 
ATOM      2  C3  UNL d   1       0.225  -0.011   0.296  0.00  0.00     0.006 A 
ATOM      3  C4  UNL d   1       1.256  -0.337   1.180  0.00  0.00     0.002 A 
ATOM      4  C5  UNL d   1       0.967  -0.754   2.484  0.00  0.00    -0.080 A 
ATOM      5  C6  UNL d   1       2.063  -1.136   3.434  0.00  0.00     0.076 C 
ATOM      6  C7  UNL d   1      -0.368  -0.815   2.898  0.00  0.00     0.002 A 
ATOM      7  C8  UNL d   1      -1.399  -0.488   2.014  0.00  0.00     0.006 A 
ENDROOT
BRANCH   1   8
ATOM      8  C1  UNL d   1      -2.228   0.200  -0.267  0.00  0.00     0.054 C 
ATOM      9  C   UNL d   1      -3.025  -1.058  -0.583  0.00  0.00     0.018 C 
ENDBRANCH   1   8
TORSDOF 1
ENDMDL
