MODEL 1
REMARK minimizedAffinity -2.56251717
REMARK minimizedRMSD -1
REMARK  1 active torsions:
REMARK  status: ('A' for Active; 'I' for Inactive)
REMARK    1  A    between atoms: C1_2  and  C2_3 
ROOT
ATOM      1  C2  UNL d   1       0.228  -1.075   2.347  0.00  0.00    -0.076 A 
ATOM      2  C3  UNL d   1       0.425   0.045   1.519  0.00  0.00     0.004 A 
ATOM      3  C4  UNL d   1      -0.624   0.580   0.775  0.00  0.00    -0.003 A 
ATOM      4  C5  UNL d   1      -1.889   0.006   0.846  0.00  0.00     0.000 A 
ATOM      5  C6  UNL d   1      -2.107  -1.094   1.675  0.00  0.00     0.000 A 
ATOM      6  C7  UNL d   1      -1.063  -1.636   2.445  0.00  0.00    -0.073 A 
ATOM      7  C8  UNL d   1      -1.353  -2.827   3.318  0.00  0.00     0.078 C 
ENDROOT
BRANCH   1   8
ATOM      8  C1  UNL d   1       1.410  -1.628   3.110  0.00  0.00     0.053 C 
ATOM      9  C   UNL d   1       2.522  -2.112   2.192  0.00  0.00     0.018 C 
ENDBRANCH   1   8
TORSDOF 1
ENDMDL
