MODEL 1
REMARK minimizedAffinity -4.29487085
REMARK minimizedRMSD -1
REMARK  1 active torsions:
REMARK  status: ('A' for Active; 'I' for Inactive)
REMARK    1  A    between atoms: C1_2  and  C2_3 
ROOT
ATOM      1  C2  UNL d   1       0.809  -0.762   0.303  0.00  0.00    -0.076 A 
ATOM      2  C3  UNL d   1       2.013  -1.472   0.458  0.00  0.00     0.004 A 
ATOM      3  C4  UNL d   1       2.441  -1.893   1.715  0.00  0.00    -0.003 A 
ATOM      4  C5  UNL d   1       1.672  -1.612   2.839  0.00  0.00     0.000 A 
ATOM      5  C6  UNL d   1       0.467  -0.924   2.703  0.00  0.00     0.000 A 
ATOM      6  C7  UNL d   1       0.012  -0.507   1.440  0.00  0.00    -0.073 A 
ATOM      7  C8  UNL d   1      -1.292   0.236   1.351  0.00  0.00     0.078 C 
ENDROOT
BRANCH   1   8
ATOM      8  C1  UNL d   1       0.409  -0.308  -1.082  0.00  0.00     0.053 C 
ATOM      9  C   UNL d   1       0.932  -1.230  -2.172  0.00  0.00     0.018 C 
ENDBRANCH   1   8
TORSDOF 1
ENDMDL
