MODEL 1
REMARK minimizedAffinity -3.67832661
REMARK minimizedRMSD -1
REMARK  1 active torsions:
REMARK  status: ('A' for Active; 'I' for Inactive)
REMARK    1  A    between atoms: C1_2  and  C2_3 
ROOT
ATOM      1  C2  UNL d   1       0.964  -0.559   0.388  0.00  0.00    -0.076 A 
ATOM      2  C3  UNL d   1       0.188  -0.040   1.439  0.00  0.00     0.004 A 
ATOM      3  C4  UNL d   1       0.437  -0.402   2.762  0.00  0.00    -0.003 A 
ATOM      4  C5  UNL d   1       1.468  -1.288   3.055  0.00  0.00     0.000 A 
ATOM      5  C6  UNL d   1       2.259  -1.799   2.027  0.00  0.00     0.000 A 
ATOM      6  C7  UNL d   1       2.031  -1.432   0.690  0.00  0.00    -0.073 A 
ATOM      7  C8  UNL d   1       2.912  -2.018  -0.380  0.00  0.00     0.078 C 
ENDROOT
BRANCH   1   8
ATOM      8  C1  UNL d   1       0.630  -0.151  -1.029  0.00  0.00     0.053 C 
ATOM      9  C   UNL d   1      -0.727   0.526  -1.136  0.00  0.00     0.018 C 
ENDBRANCH   1   8
TORSDOF 1
ENDMDL
