MODEL 1
REMARK minimizedAffinity -5.82198906
REMARK minimizedRMSD -1
REMARK  1 active torsions:
REMARK  status: ('A' for Active; 'I' for Inactive)
REMARK    1  A    between atoms: C1_2  and  C2_3 
ROOT
ATOM      1  C2  UNL d   1       0.548  -0.623   0.507  0.00  0.00    -0.076 A 
ATOM      2  C3  UNL d   1       1.404  -1.180  -0.459  0.00  0.00     0.004 A 
ATOM      3  C4  UNL d   1       2.554  -1.872  -0.086  0.00  0.00    -0.003 A 
ATOM      4  C5  UNL d   1       2.867  -2.021   1.261  0.00  0.00     0.000 A 
ATOM      5  C6  UNL d   1       2.021  -1.491   2.234  0.00  0.00     0.000 A 
ATOM      6  C7  UNL d   1       0.848  -0.804   1.874  0.00  0.00    -0.073 A 
ATOM      7  C8  UNL d   1      -0.025  -0.247   2.965  0.00  0.00     0.078 C 
ENDROOT
BRANCH   1   8
ATOM      8  C1  UNL d   1      -0.671   0.141   0.042  0.00  0.00     0.053 C 
ATOM      9  C   UNL d   1      -0.904   0.010  -1.455  0.00  0.00     0.018 C 
ENDBRANCH   1   8
TORSDOF 1
ENDMDL
