MODEL 1
REMARK minimizedAffinity -6.10754633
REMARK minimizedRMSD -1
REMARK  1 active torsions:
REMARK  status: ('A' for Active; 'I' for Inactive)
REMARK    1  A    between atoms: C1_2  and  C2_3 
ROOT
ATOM      1  C2  UNL d   1       0.796  -0.564   0.382  0.00  0.00    -0.076 A 
ATOM      2  C3  UNL d   1      -0.033   0.029   1.351  0.00  0.00     0.004 A 
ATOM      3  C4  UNL d   1       0.243  -0.107   2.710  0.00  0.00    -0.003 A 
ATOM      4  C5  UNL d   1       1.353  -0.836   3.123  0.00  0.00     0.000 A 
ATOM      5  C6  UNL d   1       2.196  -1.416   2.175  0.00  0.00     0.000 A 
ATOM      6  C7  UNL d   1       1.941  -1.275   0.800  0.00  0.00    -0.073 A 
ATOM      7  C8  UNL d   1       2.879  -1.927  -0.178  0.00  0.00     0.078 C 
ENDROOT
BRANCH   1   8
ATOM      8  C1  UNL d   1       0.431  -0.406  -1.077  0.00  0.00     0.053 C 
ATOM      9  C   UNL d   1      -0.415   0.830  -1.336  0.00  0.00     0.018 C 
ENDBRANCH   1   8
TORSDOF 1
ENDMDL
