MODEL 1
REMARK minimizedAffinity -4.79563856
REMARK minimizedRMSD -1
REMARK  1 active torsions:
REMARK  status: ('A' for Active; 'I' for Inactive)
REMARK    1  A    between atoms: C1_2  and  C2_3 
ROOT
ATOM      1  C2  UNL d   1       0.212   0.143   0.528  0.00  0.00    -0.076 A 
ATOM      2  C3  UNL d   1       1.512  -0.388   0.586  0.00  0.00     0.004 A 
ATOM      3  C4  UNL d   1       1.891  -1.245   1.618  0.00  0.00    -0.003 A 
ATOM      4  C5  UNL d   1       0.977  -1.584   2.609  0.00  0.00     0.000 A 
ATOM      5  C6  UNL d   1      -0.323  -1.079   2.558  0.00  0.00     0.000 A 
ATOM      6  C7  UNL d   1      -0.726  -0.228   1.515  0.00  0.00    -0.073 A 
ATOM      7  C8  UNL d   1      -2.138   0.292   1.513  0.00  0.00     0.078 C 
ENDROOT
BRANCH   1   8
ATOM      8  C1  UNL d   1      -0.135   1.089  -0.600  0.00  0.00     0.053 C 
ATOM      9  C   UNL d   1      -0.687   0.364  -1.818  0.00  0.00     0.018 C 
ENDBRANCH   1   8
TORSDOF 1
ENDMDL
