MODEL 1
REMARK minimizedAffinity -5.14735699
REMARK minimizedRMSD -1
REMARK  1 active torsions:
REMARK  status: ('A' for Active; 'I' for Inactive)
REMARK    1  A    between atoms: C1_2  and  C2_3 
ROOT
ATOM      1  C2  UNL d   1       0.232  -0.311   0.461  0.00  0.00    -0.076 A 
ATOM      2  C3  UNL d   1       1.503  -0.910   0.431  0.00  0.00     0.004 A 
ATOM      3  C4  UNL d   1       2.184  -1.208   1.610  0.00  0.00    -0.003 A 
ATOM      4  C5  UNL d   1       1.604  -0.912   2.839  0.00  0.00     0.000 A 
ATOM      5  C6  UNL d   1       0.336  -0.334   2.888  0.00  0.00     0.000 A 
ATOM      6  C7  UNL d   1      -0.371  -0.042   1.709  0.00  0.00    -0.073 A 
ATOM      7  C8  UNL d   1      -1.733   0.587   1.820  0.00  0.00     0.078 C 
ENDROOT
BRANCH   1   8
ATOM      8  C1  UNL d   1      -0.447   0.014  -0.850  0.00  0.00     0.053 C 
ATOM      9  C   UNL d   1      -0.302   1.478  -1.234  0.00  0.00     0.018 C 
ENDBRANCH   1   8
TORSDOF 1
ENDMDL
