MODEL 1
REMARK minimizedAffinity -4.82911825
REMARK minimizedRMSD -1
REMARK  0 active torsions:
REMARK  status: ('A' for Active; 'I' for Inactive)
ROOT
ATOM      1  C1  DEN d   1       1.807  -4.405  -0.096  0.00  0.00     0.130 A 
ATOM      2  C2  DEN d   1       3.265  -4.374  -0.157  0.00  0.00    -0.031 A 
ATOM      3  C3  DEN d   1       3.704  -2.988   0.101  0.00  0.00     0.027 A 
ATOM      4  C4  DEN d   1       2.273  -0.898   0.589  0.00  0.00     0.027 A 
ATOM      5  C5  DEN d   1       0.987  -0.426   0.731  0.00  0.00    -0.003 A 
ATOM      6  C6  DEN d   1      -0.108  -1.234   0.575  0.00  0.00     0.001 A 
ATOM      7  C7  DEN d   1       0.063  -2.567   0.312  0.00  0.00     0.017 A 
ATOM      8  C8  DEN d   1       1.357  -3.049   0.160  0.00  0.00    -0.094 A 
ATOM      9  C9  DEN d   1       2.452  -2.219   0.334  0.00  0.00    -0.072 A 
ENDROOT
TORSDOF 0
ENDMDL
