MODEL 1
REMARK minimizedAffinity 0.834954858
REMARK minimizedRMSD -1
REMARK  0 active torsions:
REMARK  status: ('A' for Active; 'I' for Inactive)
ROOT
ATOM      1  C1  DEN d   1      -0.757  -1.124   0.478  0.00  0.00     0.130 A 
ATOM      2  C2  DEN d   1       0.250  -0.923   1.517  0.00  0.00    -0.031 A 
ATOM      3  C3  DEN d   1      -0.145   0.256   2.314  0.00  0.00     0.027 A 
ATOM      4  C4  DEN d   1      -2.209   1.779   2.044  0.00  0.00     0.027 A 
ATOM      5  C5  DEN d   1      -3.342   2.012   1.297  0.00  0.00    -0.003 A 
ATOM      6  C6  DEN d   1      -3.673   1.243   0.212  0.00  0.00     0.001 A 
ATOM      7  C7  DEN d   1      -2.884   0.176  -0.128  0.00  0.00     0.017 A 
ATOM      8  C8  DEN d   1      -1.736  -0.061   0.616  0.00  0.00    -0.094 A 
ATOM      9  C9  DEN d   1      -1.426   0.720   1.716  0.00  0.00    -0.072 A 
ENDROOT
TORSDOF 0
ENDMDL
