MODEL 1
REMARK minimizedAffinity 1.24033558
REMARK minimizedRMSD -1
REMARK  0 active torsions:
REMARK  status: ('A' for Active; 'I' for Inactive)
ROOT
ATOM      1  C1  DEN d   1       1.927  -3.815   0.856  0.00  0.00     0.130 A 
ATOM      2  C2  DEN d   1       3.352  -3.506   0.768  0.00  0.00    -0.031 A 
ATOM      3  C3  DEN d   1       3.503  -2.037   0.799  0.00  0.00     0.027 A 
ATOM      4  C4  DEN d   1       1.680  -0.222   0.980  0.00  0.00     0.027 A 
ATOM      5  C5  DEN d   1       0.324   0.002   1.068  0.00  0.00    -0.003 A 
ATOM      6  C6  DEN d   1      -0.588  -1.020   1.057  0.00  0.00     0.001 A 
ATOM      7  C7  DEN d   1      -0.151  -2.318   1.002  0.00  0.00     0.017 A 
ATOM      8  C8  DEN d   1       1.214  -2.551   0.906  0.00  0.00    -0.094 A 
ATOM      9  C9  DEN d   1       2.120  -1.504   0.930  0.00  0.00    -0.072 A 
ENDROOT
TORSDOF 0
ENDMDL
