MODEL 1
REMARK minimizedAffinity 6.03817368
REMARK minimizedRMSD -1
REMARK  0 active torsions:
REMARK  status: ('A' for Active; 'I' for Inactive)
ROOT
ATOM      1  C1  DEN d   1       1.502  -0.390   1.131  0.00  0.00     0.130 A 
ATOM      2  C2  DEN d   1       0.055  -0.296   1.307  0.00  0.00    -0.031 A 
ATOM      3  C3  DEN d   1      -0.544  -1.565   0.849  0.00  0.00     0.027 A 
ATOM      4  C4  DEN d   1       0.622  -3.658  -0.107  0.00  0.00     0.027 A 
ATOM      5  C5  DEN d   1       1.837  -4.205  -0.456  0.00  0.00    -0.003 A 
ATOM      6  C6  DEN d   1       3.012  -3.512  -0.334  0.00  0.00     0.001 A 
ATOM      7  C7  DEN d   1       3.003  -2.248   0.193  0.00  0.00     0.017 A 
ATOM      8  C8  DEN d   1       1.781  -1.687   0.541  0.00  0.00    -0.094 A 
ATOM      9  C9  DEN d   1       0.605  -2.408   0.421  0.00  0.00    -0.072 A 
ENDROOT
TORSDOF 0
ENDMDL
