MODEL 1
REMARK minimizedAffinity -1.08720458
REMARK minimizedRMSD -1
REMARK  0 active torsions:
REMARK  status: ('A' for Active; 'I' for Inactive)
ROOT
ATOM      1  C1  DEN d   1      -0.260  -2.152   1.986  0.00  0.00     0.130 A 
ATOM      2  C2  DEN d   1      -0.578  -0.733   1.854  0.00  0.00    -0.031 A 
ATOM      3  C3  DEN d   1       0.357  -0.145   0.874  0.00  0.00     0.027 A 
ATOM      4  C4  DEN d   1       2.253  -1.289  -0.449  0.00  0.00     0.027 A 
ATOM      5  C5  DEN d   1       2.912  -2.479  -0.663  0.00  0.00    -0.003 A 
ATOM      6  C6  DEN d   1       2.585  -3.627   0.010  0.00  0.00     0.001 A 
ATOM      7  C7  DEN d   1       1.542  -3.619   0.897  0.00  0.00     0.017 A 
ATOM      8  C8  DEN d   1       0.877  -2.421   1.124  0.00  0.00    -0.094 A 
ATOM      9  C9  DEN d   1       1.215  -1.275   0.425  0.00  0.00    -0.072 A 
ENDROOT
TORSDOF 0
ENDMDL
