MODEL 1
REMARK minimizedAffinity 1.632303
REMARK minimizedRMSD -1
REMARK  0 active torsions:
REMARK  status: ('A' for Active; 'I' for Inactive)
ROOT
ATOM      1  C1  DEN d   1       2.774  -0.916   0.764  0.00  0.00     0.130 A 
ATOM      2  C2  DEN d   1       2.267   0.365   1.246  0.00  0.00    -0.031 A 
ATOM      3  C3  DEN d   1       0.800   0.258   1.371  0.00  0.00     0.027 A 
ATOM      4  C4  DEN d   1      -0.728  -1.760   0.872  0.00  0.00     0.027 A 
ATOM      5  C5  DEN d   1      -0.756  -3.064   0.430  0.00  0.00    -0.003 A 
ATOM      6  C6  DEN d   1       0.376  -3.727   0.039  0.00  0.00     0.001 A 
ATOM      7  C7  DEN d   1       1.593  -3.103   0.125  0.00  0.00     0.017 A 
ATOM      8  C8  DEN d   1       1.629  -1.785   0.563  0.00  0.00    -0.094 A 
ATOM      9  C9  DEN d   1       0.474  -1.136   0.966  0.00  0.00    -0.072 A 
ENDROOT
TORSDOF 0
ENDMDL
