MODEL 1
REMARK minimizedAffinity -4.70268869
REMARK minimizedRMSD -1
REMARK  0 active torsions:
REMARK  status: ('A' for Active; 'I' for Inactive)
ROOT
ATOM      1  C1  DEN d   1       1.391  -0.636   0.956  0.00  0.00     0.130 A 
ATOM      2  C2  DEN d   1      -0.027  -0.399   0.701  0.00  0.00    -0.031 A 
ATOM      3  C3  DEN d   1      -0.570  -1.582   0.003  0.00  0.00     0.027 A 
ATOM      4  C4  DEN d   1       0.640  -3.749  -0.697  0.00  0.00     0.027 A 
ATOM      5  C5  DEN d   1       1.851  -4.407  -0.705  0.00  0.00    -0.003 A 
ATOM      6  C6  DEN d   1       2.991  -3.844  -0.195  0.00  0.00     0.001 A 
ATOM      7  C7  DEN d   1       2.935  -2.605   0.386  0.00  0.00     0.017 A 
ATOM      8  C8  DEN d   1       1.719  -1.933   0.392  0.00  0.00    -0.094 A 
ATOM      9  C9  DEN d   1       0.576  -2.523  -0.118  0.00  0.00    -0.072 A 
ENDROOT
TORSDOF 0
ENDMDL
