MODEL 1
REMARK minimizedAffinity -3.36054277
REMARK minimizedRMSD -1
REMARK  0 active torsions:
REMARK  status: ('A' for Active; 'I' for Inactive)
ROOT
ATOM      1  C1  DEN d   1      -1.649  -1.639   0.722  0.00  0.00     0.130 A 
ATOM      2  C2  DEN d   1      -1.696  -0.365   1.434  0.00  0.00    -0.031 A 
ATOM      3  C3  DEN d   1      -0.307   0.073   1.678  0.00  0.00     0.027 A 
ATOM      4  C4  DEN d   1       1.900  -1.087   1.019  0.00  0.00     0.027 A 
ATOM      5  C5  DEN d   1       2.448  -2.195   0.411  0.00  0.00    -0.003 A 
ATOM      6  C6  DEN d   1       1.675  -3.203  -0.102  0.00  0.00     0.001 A 
ATOM      7  C7  DEN d   1       0.310  -3.102  -0.056  0.00  0.00     0.017 A 
ATOM      8  C8  DEN d   1      -0.250  -1.992   0.562  0.00  0.00    -0.094 A 
ATOM      9  C9  DEN d   1       0.548  -0.978   1.064  0.00  0.00    -0.072 A 
ENDROOT
TORSDOF 0
ENDMDL
