MODEL 1
REMARK minimizedAffinity -2.41171336
REMARK minimizedRMSD -1
REMARK  0 active torsions:
REMARK  status: ('A' for Active; 'I' for Inactive)
ROOT
ATOM      1  C1  DEN d   1       3.068  -2.938  -0.212  0.00  0.00     0.130 A 
ATOM      2  C2  DEN d   1       2.299  -4.179  -0.246  0.00  0.00    -0.031 A 
ATOM      3  C3  DEN d   1       0.898  -3.858   0.094  0.00  0.00     0.027 A 
ATOM      4  C4  DEN d   1      -0.150  -1.571   0.662  0.00  0.00     0.027 A 
ATOM      5  C5  DEN d   1       0.108  -0.229   0.829  0.00  0.00    -0.003 A 
ATOM      6  C6  DEN d   1       1.366   0.295   0.695  0.00  0.00     0.001 A 
ATOM      7  C7  DEN d   1       2.407  -0.521   0.341  0.00  0.00     0.017 A 
ATOM      8  C8  DEN d   1       2.156  -1.877   0.178  0.00  0.00    -0.094 A 
ATOM      9  C9  DEN d   1       0.875  -2.386   0.306  0.00  0.00    -0.072 A 
ENDROOT
TORSDOF 0
ENDMDL
