MODEL 1
REMARK minimizedAffinity -4.95292044
REMARK minimizedRMSD -1
REMARK  0 active torsions:
REMARK  status: ('A' for Active; 'I' for Inactive)
ROOT
ATOM      1  C1  DEN d   1       2.468  -3.936   0.367  0.00  0.00     0.130 A 
ATOM      2  C2  DEN d   1       3.760  -3.384  -0.030  0.00  0.00    -0.031 A 
ATOM      3  C3  DEN d   1       3.656  -1.912  -0.000  0.00  0.00     0.027 A 
ATOM      4  C4  DEN d   1       1.632  -0.440   0.623  0.00  0.00     0.027 A 
ATOM      5  C5  DEN d   1       0.312  -0.455   1.016  0.00  0.00    -0.003 A 
ATOM      6  C6  DEN d   1      -0.386  -1.621   1.186  0.00  0.00     0.001 A 
ATOM      7  C7  DEN d   1       0.246  -2.823   1.006  0.00  0.00     0.017 A 
ATOM      8  C8  DEN d   1       1.575  -2.816   0.603  0.00  0.00    -0.094 A 
ATOM      9  C9  DEN d   1       2.267  -1.627   0.448  0.00  0.00    -0.072 A 
ENDROOT
TORSDOF 0
ENDMDL
