MODEL 1
REMARK minimizedAffinity -4.2143321
REMARK minimizedRMSD -1
REMARK  0 active torsions:
REMARK  status: ('A' for Active; 'I' for Inactive)
ROOT
ATOM      1  C1  DEN d   1       2.379  -3.832  -0.392  0.00  0.00     0.130 A 
ATOM      2  C2  DEN d   1       3.784  -3.442  -0.305  0.00  0.00    -0.031 A 
ATOM      3  C3  DEN d   1       3.843  -2.055   0.197  0.00  0.00     0.027 A 
ATOM      4  C4  DEN d   1       1.906  -0.482   0.849  0.00  0.00     0.027 A 
ATOM      5  C5  DEN d   1       0.536  -0.363   0.934  0.00  0.00    -0.003 A 
ATOM      6  C6  DEN d   1      -0.309  -1.372   0.554  0.00  0.00     0.001 A 
ATOM      7  C7  DEN d   1       0.208  -2.561   0.114  0.00  0.00     0.017 A 
ATOM      8  C8  DEN d   1       1.588  -2.686   0.018  0.00  0.00    -0.094 A 
ATOM      9  C9  DEN d   1       2.426  -1.659   0.419  0.00  0.00    -0.072 A 
ENDROOT
TORSDOF 0
ENDMDL
