MODEL 1
REMARK minimizedAffinity 2.31988072
REMARK minimizedRMSD -1
REMARK  0 active torsions:
REMARK  status: ('A' for Active; 'I' for Inactive)
ROOT
ATOM      1  C1  DEN d   1      -1.724  -0.961   0.570  0.00  0.00     0.130 A 
ATOM      2  C2  DEN d   1      -1.510   0.373   1.125  0.00  0.00    -0.031 A 
ATOM      3  C3  DEN d   1      -0.130   0.433   1.649  0.00  0.00     0.027 A 
ATOM      4  C4  DEN d   1       1.686  -1.398   1.651  0.00  0.00     0.027 A 
ATOM      5  C5  DEN d   1       1.968  -2.700   1.301  0.00  0.00    -0.003 A 
ATOM      6  C6  DEN d   1       1.036  -3.517   0.718  0.00  0.00     0.001 A 
ATOM      7  C7  DEN d   1      -0.210  -3.027   0.427  0.00  0.00     0.017 A 
ATOM      8  C8  DEN d   1      -0.504  -1.718   0.784  0.00  0.00    -0.094 A 
ATOM      9  C9  DEN d   1       0.456  -0.903   1.361  0.00  0.00    -0.072 A 
ENDROOT
TORSDOF 0
ENDMDL
