MODEL 1
REMARK minimizedAffinity 3.78964353
REMARK minimizedRMSD -1
REMARK  0 active torsions:
REMARK  status: ('A' for Active; 'I' for Inactive)
ROOT
ATOM      1  C1  DEN d   1       2.136  -2.877   0.327  0.00  0.00     0.130 A 
ATOM      2  C2  DEN d   1       1.360  -3.885  -0.392  0.00  0.00    -0.031 A 
ATOM      3  C3  DEN d   1      -0.034  -3.408  -0.484  0.00  0.00     0.027 A 
ATOM      4  C4  DEN d   1      -1.061  -1.216   0.408  0.00  0.00     0.027 A 
ATOM      5  C5  DEN d   1      -0.799  -0.052   1.095  0.00  0.00    -0.003 A 
ATOM      6  C6  DEN d   1       0.441   0.234   1.600  0.00  0.00     0.001 A 
ATOM      7  C7  DEN d   1       1.478  -0.635   1.386  0.00  0.00     0.017 A 
ATOM      8  C8  DEN d   1       1.220  -1.814   0.700  0.00  0.00    -0.094 A 
ATOM      9  C9  DEN d   1      -0.038  -2.079   0.187  0.00  0.00    -0.072 A 
ENDROOT
TORSDOF 0
ENDMDL
