MODEL 1
REMARK minimizedAffinity -0.562256098
REMARK minimizedRMSD -1
REMARK  0 active torsions:
REMARK  status: ('A' for Active; 'I' for Inactive)
ROOT
ATOM      1  C1  DEN d   1       3.555  -2.139   0.459  0.00  0.00     0.130 A 
ATOM      2  C2  DEN d   1       3.501  -3.424  -0.233  0.00  0.00    -0.031 A 
ATOM      3  C3  DEN d   1       2.080  -3.766  -0.450  0.00  0.00     0.027 A 
ATOM      4  C4  DEN d   1      -0.028  -2.434   0.210  0.00  0.00     0.027 A 
ATOM      5  C5  DEN d   1      -0.486  -1.291   0.826  0.00  0.00    -0.003 A 
ATOM      6  C6  DEN d   1       0.362  -0.374   1.388  0.00  0.00     0.001 A 
ATOM      7  C7  DEN d   1       1.716  -0.562   1.306  0.00  0.00     0.017 A 
ATOM      8  C8  DEN d   1       2.186  -1.717   0.693  0.00  0.00    -0.094 A 
ATOM      9  C9  DEN d   1       1.313  -2.626   0.120  0.00  0.00    -0.072 A 
ENDROOT
TORSDOF 0
ENDMDL
