MODEL 1
REMARK minimizedAffinity 1.57008398
REMARK minimizedRMSD -1
REMARK  0 active torsions:
REMARK  status: ('A' for Active; 'I' for Inactive)
ROOT
ATOM      1  C1  DEN d   1       1.033  -0.322   0.825  0.00  0.00     0.130 A 
ATOM      2  C2  DEN d   1      -0.329  -0.625   1.258  0.00  0.00    -0.031 A 
ATOM      3  C3  DEN d   1      -0.485  -2.093   1.277  0.00  0.00     0.027 A 
ATOM      4  C4  DEN d   1       1.240  -3.917   0.687  0.00  0.00     0.027 A 
ATOM      5  C5  DEN d   1       2.528  -4.146   0.255  0.00  0.00    -0.003 A 
ATOM      6  C6  DEN d   1       3.390  -3.125  -0.048  0.00  0.00     0.001 A 
ATOM      7  C7  DEN d   1       2.988  -1.826   0.121  0.00  0.00     0.017 A 
ATOM      8  C8  DEN d   1       1.689  -1.587   0.549  0.00  0.00    -0.094 A 
ATOM      9  C9  DEN d   1       0.837  -2.633   0.862  0.00  0.00    -0.072 A 
ENDROOT
TORSDOF 0
ENDMDL
