MODEL 1
REMARK minimizedAffinity -1.11554694
REMARK minimizedRMSD -1
REMARK  0 active torsions:
REMARK  status: ('A' for Active; 'I' for Inactive)
ROOT
ATOM      1  C1  DEN d   1       1.399  -4.349   0.533  0.00  0.00     0.130 A 
ATOM      2  C2  DEN d   1       2.745  -4.227  -0.020  0.00  0.00    -0.031 A 
ATOM      3  C3  DEN d   1       3.027  -2.793  -0.225  0.00  0.00     0.027 A 
ATOM      4  C4  DEN d   1       1.520  -0.757   0.263  0.00  0.00     0.027 A 
ATOM      5  C5  DEN d   1       0.286  -0.360   0.727  0.00  0.00    -0.003 A 
ATOM      6  C6  DEN d   1      -0.669  -1.258   1.123  0.00  0.00     0.001 A 
ATOM      7  C7  DEN d   1      -0.388  -2.599   1.106  0.00  0.00     0.017 A 
ATOM      8  C8  DEN d   1       0.852  -3.008   0.633  0.00  0.00    -0.094 A 
ATOM      9  C9  DEN d   1       1.808  -2.083   0.248  0.00  0.00    -0.072 A 
ENDROOT
TORSDOF 0
ENDMDL
