MODEL 1
REMARK minimizedAffinity 10.8527718
REMARK minimizedRMSD -1
REMARK  0 active torsions:
REMARK  status: ('A' for Active; 'I' for Inactive)
ROOT
ATOM      1  C4' PXY d   1      -2.976  -1.514   1.612  0.00  0.00     0.077 C 
ATOM      2  C1' PXY d   1       1.933  -3.176   4.172  0.00  0.00     0.077 C 
ATOM      3  C1  PXY d   1       0.650  -2.728   3.501  0.00  0.00    -0.082 A 
ATOM      4  C2  PXY d   1      -0.436  -3.477   3.600  0.00  0.00     0.003 A 
ATOM      5  C3  PXY d   1      -1.597  -3.103   2.973  0.00  0.00     0.003 A 
ATOM      6  C4  PXY d   1      -1.661  -1.923   2.281  0.00  0.00    -0.082 A 
ATOM      7  C5  PXY d   1      -0.560  -1.148   2.184  0.00  0.00     0.003 A 
ATOM      8  C6  PXY d   1       0.620  -1.566   2.794  0.00  0.00     0.003 A 
ENDROOT
TORSDOF 0
ENDMDL
