MODEL 1
REMARK minimizedAffinity 17.6725597
REMARK minimizedRMSD -1
REMARK  0 active torsions:
REMARK  status: ('A' for Active; 'I' for Inactive)
ROOT
ATOM      1  C4' PXY d   1      -0.409  -1.643   0.966  0.00  0.00     0.077 C 
ATOM      2  C1' PXY d   1       0.944   2.319   4.952  0.00  0.00     0.077 C 
ATOM      3  C1  PXY d   1       0.601   1.275   3.908  0.00  0.00    -0.082 A 
ATOM      4  C2  PXY d   1      -0.314   1.543   2.991  0.00  0.00     0.003 A 
ATOM      5  C3  PXY d   1      -0.660   0.598   2.059  0.00  0.00     0.003 A 
ATOM      6  C4  PXY d   1      -0.024  -0.615   2.034  0.00  0.00    -0.082 A 
ATOM      7  C5  PXY d   1       0.919  -0.891   2.960  0.00  0.00     0.003 A 
ATOM      8  C6  PXY d   1       1.225   0.066   3.922  0.00  0.00     0.003 A 
ENDROOT
TORSDOF 0
ENDMDL
