MODEL 1
REMARK minimizedAffinity 6.2118082
REMARK minimizedRMSD -1
REMARK  0 active torsions:
REMARK  status: ('A' for Active; 'I' for Inactive)
ROOT
ATOM      1  C4' PXY d   1       1.483  -1.961   4.300  0.00  0.00     0.077 C 
ATOM      2  C1' PXY d   1      -2.799   1.231   2.090  0.00  0.00     0.077 C 
ATOM      3  C1  PXY d   1      -1.669   0.405   2.671  0.00  0.00    -0.082 A 
ATOM      4  C2  PXY d   1      -1.578  -0.881   2.372  0.00  0.00     0.003 A 
ATOM      5  C3  PXY d   1      -0.581  -1.650   2.915  0.00  0.00     0.003 A 
ATOM      6  C4  PXY d   1       0.364  -1.086   3.729  0.00  0.00    -0.082 A 
ATOM      7  C5  PXY d   1       0.284   0.228   4.030  0.00  0.00     0.003 A 
ATOM      8  C6  PXY d   1      -0.759   0.982   3.502  0.00  0.00     0.003 A 
ENDROOT
TORSDOF 0
ENDMDL
