MODEL 1
REMARK minimizedAffinity 4.6675396
REMARK minimizedRMSD -1
REMARK  0 active torsions:
REMARK  status: ('A' for Active; 'I' for Inactive)
ROOT
ATOM      1  C4' PXY d   1       0.451   2.377   5.856  0.00  0.00     0.077 C 
ATOM      2  C1' PXY d   1       0.114  -1.329   1.433  0.00  0.00     0.077 C 
ATOM      3  C1  PXY d   1       0.200  -0.347   2.584  0.00  0.00    -0.082 A 
ATOM      4  C2  PXY d   1       0.879  -0.673   3.672  0.00  0.00     0.003 A 
ATOM      5  C3  PXY d   1       0.941   0.190   4.736  0.00  0.00     0.003 A 
ATOM      6  C4  PXY d   1       0.345   1.421   4.665  0.00  0.00    -0.082 A 
ATOM      7  C5  PXY d   1      -0.341   1.765   3.554  0.00  0.00     0.003 A 
ATOM      8  C6  PXY d   1      -0.426   0.858   2.502  0.00  0.00     0.003 A 
ENDROOT
TORSDOF 0
ENDMDL
