MODEL 1
REMARK minimizedAffinity 9.72203255
REMARK minimizedRMSD -1
REMARK  0 active torsions:
REMARK  status: ('A' for Active; 'I' for Inactive)
ROOT
ATOM      1  C4' PXY d   1      -4.872   2.328  -0.581  0.00  0.00     0.077 C 
ATOM      2  C1' PXY d   1      -2.725  -2.766   1.111  0.00  0.00     0.077 C 
ATOM      3  C1  PXY d   1      -3.284  -1.433   0.655  0.00  0.00    -0.082 A 
ATOM      4  C2  PXY d   1      -3.383  -0.435   1.518  0.00  0.00     0.003 A 
ATOM      5  C3  PXY d   1      -3.916   0.767   1.131  0.00  0.00     0.003 A 
ATOM      6  C4  PXY d   1      -4.304   0.967  -0.167  0.00  0.00    -0.082 A 
ATOM      7  C5  PXY d   1      -4.197  -0.043  -1.056  0.00  0.00     0.003 A 
ATOM      8  C6  PXY d   1      -3.691  -1.268  -0.633  0.00  0.00     0.003 A 
ENDROOT
TORSDOF 0
ENDMDL
