MODEL 1
REMARK minimizedAffinity 9.29454231
REMARK minimizedRMSD -1
REMARK  0 active torsions:
REMARK  status: ('A' for Active; 'I' for Inactive)
ROOT
ATOM      1  C4' PXY d   1       0.114   0.382   2.249  0.00  0.00     0.077 C 
ATOM      2  C1' PXY d   1       2.420  -3.363   6.000  0.00  0.00     0.077 C 
ATOM      3  C1  PXY d   1       1.820  -2.371   5.023  0.00  0.00    -0.082 A 
ATOM      4  C2  PXY d   1       0.775  -2.723   4.293  0.00  0.00     0.003 A 
ATOM      5  C3  PXY d   1       0.239  -1.849   3.382  0.00  0.00     0.003 A 
ATOM      6  C4  PXY d   1       0.746  -0.584   3.255  0.00  0.00    -0.082 A 
ATOM      7  C5  PXY d   1       1.806  -0.213   4.004  0.00  0.00     0.003 A 
ATOM      8  C6  PXY d   1       2.361  -1.129   4.894  0.00  0.00     0.003 A 
ENDROOT
TORSDOF 0
ENDMDL
