MODEL 1
REMARK minimizedAffinity 10.6267309
REMARK minimizedRMSD -1
REMARK  0 active torsions:
REMARK  status: ('A' for Active; 'I' for Inactive)
ROOT
ATOM      1  C4' PXY d   1       0.309  -0.628  -4.829  0.00  0.00     0.077 C 
ATOM      2  C1' PXY d   1      -1.576  -5.998  -5.839  0.00  0.00     0.077 C 
ATOM      3  C1  PXY d   1      -1.094  -4.586  -5.573  0.00  0.00    -0.082 A 
ATOM      4  C2  PXY d   1       0.101  -4.212  -5.999  0.00  0.00     0.003 A 
ATOM      5  C3  PXY d   1       0.566  -2.948  -5.740  0.00  0.00     0.003 A 
ATOM      6  C4  PXY d   1      -0.223  -2.041  -5.083  0.00  0.00    -0.082 A 
ATOM      7  C5  PXY d   1      -1.448  -2.412  -4.654  0.00  0.00     0.003 A 
ATOM      8  C6  PXY d   1      -1.884  -3.713  -4.892  0.00  0.00     0.003 A 
ENDROOT
TORSDOF 0
ENDMDL
