MODEL 1
REMARK minimizedAffinity 10.7181854
REMARK minimizedRMSD -1
REMARK  0 active torsions:
REMARK  status: ('A' for Active; 'I' for Inactive)
ROOT
ATOM      1  C4' PXY d   1       0.821  -0.006  -5.996  0.00  0.00     0.077 C 
ATOM      2  C1' PXY d   1      -0.977  -3.002  -1.391  0.00  0.00     0.077 C 
ATOM      3  C1  PXY d   1      -0.509  -2.205  -2.593  0.00  0.00    -0.082 A 
ATOM      4  C2  PXY d   1      -0.437  -2.789  -3.777  0.00  0.00     0.003 A 
ATOM      5  C3  PXY d   1       0.015  -2.093  -4.869  0.00  0.00     0.003 A 
ATOM      6  C4  PXY d   1       0.345  -0.769  -4.757  0.00  0.00    -0.082 A 
ATOM      7  C5  PXY d   1       0.265  -0.162  -3.554  0.00  0.00     0.003 A 
ATOM      8  C6  PXY d   1      -0.157  -0.898  -2.450  0.00  0.00     0.003 A 
ENDROOT
TORSDOF 0
ENDMDL
