MODEL 1
REMARK minimizedAffinity 16.1470013
REMARK minimizedRMSD -1
REMARK  0 active torsions:
REMARK  status: ('A' for Active; 'I' for Inactive)
ROOT
ATOM      1  C4' PXY d   1      -2.909  -1.546   2.331  0.00  0.00     0.077 C 
ATOM      2  C1' PXY d   1       2.463   0.370   3.269  0.00  0.00     0.077 C 
ATOM      3  C1  PXY d   1       1.059  -0.144   3.020  0.00  0.00    -0.082 A 
ATOM      4  C2  PXY d   1       0.091   0.711   2.730  0.00  0.00     0.003 A 
ATOM      5  C3  PXY d   1      -1.191   0.266   2.534  0.00  0.00     0.003 A 
ATOM      6  C4  PXY d   1      -1.475  -1.072   2.581  0.00  0.00    -0.082 A 
ATOM      7  C5  PXY d   1      -0.491  -1.952   2.865  0.00  0.00     0.003 A 
ATOM      8  C6  PXY d   1       0.796  -1.476   3.103  0.00  0.00     0.003 A 
ENDROOT
TORSDOF 0
ENDMDL
