MODEL 1
REMARK minimizedAffinity 7.41752195
REMARK minimizedRMSD -1
REMARK  0 active torsions:
REMARK  status: ('A' for Active; 'I' for Inactive)
ROOT
ATOM      1  C4' PXY d   1       0.693   2.095   5.999  0.00  0.00     0.077 C 
ATOM      2  C1' PXY d   1       0.686  -1.408   1.400  0.00  0.00     0.077 C 
ATOM      3  C1  PXY d   1       0.697  -0.497   2.612  0.00  0.00    -0.082 A 
ATOM      4  C2  PXY d   1      -0.355   0.265   2.867  0.00  0.00     0.003 A 
ATOM      5  C3  PXY d   1      -0.349   1.118   3.940  0.00  0.00     0.003 A 
ATOM      6  C4  PXY d   1       0.722   1.153   4.792  0.00  0.00    -0.082 A 
ATOM      7  C5  PXY d   1       1.794   0.370   4.545  0.00  0.00     0.003 A 
ATOM      8  C6  PXY d   1       1.785  -0.459   3.427  0.00  0.00     0.003 A 
ENDROOT
TORSDOF 0
ENDMDL
