MODEL 1
REMARK minimizedAffinity -2.72194743
REMARK minimizedRMSD -1
REMARK  1 active torsions:
REMARK  status: ('A' for Active; 'I' for Inactive)
REMARK    1  A    between atoms: C1_2  and  C2_3 
ROOT
ATOM      1  C2  UNL d   1      -3.667   1.430  -3.759  0.00  0.00    -0.077 A 
ATOM      2  C3  UNL d   1      -3.310   2.729  -3.370  0.00  0.00     0.002 A 
ATOM      3  C4  UNL d   1      -4.291   3.650  -2.997  0.00  0.00     0.002 A 
ATOM      4  C5  UNL d   1      -5.635   3.280  -3.005  0.00  0.00    -0.004 A 
ATOM      5  C6  UNL d   1      -6.000   1.991  -3.391  0.00  0.00     0.002 A 
ATOM      6  C7  UNL d   1      -5.021   1.070  -3.766  0.00  0.00     0.002 A 
ENDROOT
BRANCH   1   7
ATOM      7  C1  UNL d   1      -2.607   0.421  -4.114  0.00  0.00     0.055 C 
ATOM      8  C   UNL d   1      -2.180  -0.386  -2.897  0.00  0.00     0.019 C 
ENDBRANCH   1   7
TORSDOF 1
ENDMDL
