MODEL 1
REMARK minimizedAffinity -2.13067079
REMARK minimizedRMSD -1
REMARK  1 active torsions:
REMARK  status: ('A' for Active; 'I' for Inactive)
REMARK    1  A    between atoms: C1_2  and  C2_3 
ROOT
ATOM      1  C2  UNL d   1       3.163   2.172   1.724  0.00  0.00    -0.077 A 
ATOM      2  C3  UNL d   1       2.561   1.490   0.657  0.00  0.00     0.002 A 
ATOM      3  C4  UNL d   1       3.299   1.174  -0.485  0.00  0.00     0.002 A 
ATOM      4  C5  UNL d   1       4.643   1.532  -0.570  0.00  0.00    -0.004 A 
ATOM      5  C6  UNL d   1       5.250   2.213   0.485  0.00  0.00     0.002 A 
ATOM      6  C7  UNL d   1       4.514   2.530   1.627  0.00  0.00     0.002 A 
ENDROOT
BRANCH   1   7
ATOM      7  C1  UNL d   1       2.382   2.470   2.977  0.00  0.00     0.055 C 
ATOM      8  C   UNL d   1       1.003   1.827   2.936  0.00  0.00     0.019 C 
ENDBRANCH   1   7
TORSDOF 1
ENDMDL
