MODEL 1
REMARK minimizedAffinity 4.20186996
REMARK minimizedRMSD -1
REMARK  1 active torsions:
REMARK  status: ('A' for Active; 'I' for Inactive)
REMARK    1  A    between atoms: C1_2  and  C2_3 
ROOT
ATOM      1  C2  UNL d   1      -4.492   1.369  -3.348  0.00  0.00    -0.077 A 
ATOM      2  C3  UNL d   1      -4.836   2.696  -3.052  0.00  0.00     0.002 A 
ATOM      3  C4  UNL d   1      -5.589   2.993  -1.915  0.00  0.00     0.002 A 
ATOM      4  C5  UNL d   1      -6.000   1.970  -1.062  0.00  0.00    -0.004 A 
ATOM      5  C6  UNL d   1      -5.664   0.648  -1.349  0.00  0.00     0.002 A 
ATOM      6  C7  UNL d   1      -4.913   0.349  -2.487  0.00  0.00     0.002 A 
ENDROOT
BRANCH   1   7
ATOM      7  C1  UNL d   1      -3.638   1.052  -4.548  0.00  0.00     0.055 C 
ATOM      8  C   UNL d   1      -2.276   0.514  -4.133  0.00  0.00     0.019 C 
ENDBRANCH   1   7
TORSDOF 1
ENDMDL
