MODEL 1
REMARK minimizedAffinity 0.275685012
REMARK minimizedRMSD -1
REMARK  1 active torsions:
REMARK  status: ('A' for Active; 'I' for Inactive)
REMARK    1  A    between atoms: C1_2  and  C2_3 
ROOT
ATOM      1  C2  UNL d   1      -4.834   1.192  -2.679  0.00  0.00    -0.077 A 
ATOM      2  C3  UNL d   1      -5.546   0.752  -3.803  0.00  0.00     0.002 A 
ATOM      3  C4  UNL d   1      -4.869   0.345  -4.955  0.00  0.00     0.002 A 
ATOM      4  C5  UNL d   1      -3.476   0.370  -4.991  0.00  0.00    -0.004 A 
ATOM      5  C6  UNL d   1      -2.759   0.807  -3.878  0.00  0.00     0.002 A 
ATOM      6  C7  UNL d   1      -3.434   1.215  -2.728  0.00  0.00     0.002 A 
ENDROOT
BRANCH   1   7
ATOM      7  C1  UNL d   1      -5.561   1.584  -1.420  0.00  0.00     0.055 C 
ATOM      8  C   UNL d   1      -5.375   0.543  -0.326  0.00  0.00     0.019 C 
ENDBRANCH   1   7
TORSDOF 1
ENDMDL
