MODEL 1
REMARK minimizedAffinity 8.25523376
REMARK minimizedRMSD -1
REMARK  1 active torsions:
REMARK  status: ('A' for Active; 'I' for Inactive)
REMARK    1  A    between atoms: C1_2  and  C2_3 
ROOT
ATOM      1  C2  UNL d   1      -3.124  -5.461  -2.731  0.00  0.00    -0.077 A 
ATOM      2  C3  UNL d   1      -4.111  -5.998  -3.569  0.00  0.00     0.002 A 
ATOM      3  C4  UNL d   1      -4.261  -5.528  -4.875  0.00  0.00     0.002 A 
ATOM      4  C5  UNL d   1      -3.425  -4.523  -5.357  0.00  0.00    -0.004 A 
ATOM      5  C6  UNL d   1      -2.441  -3.981  -4.531  0.00  0.00     0.002 A 
ATOM      6  C7  UNL d   1      -2.291  -4.448  -3.224  0.00  0.00     0.002 A 
ENDROOT
BRANCH   1   7
ATOM      7  C1  UNL d   1      -2.928  -6.000  -1.338  0.00  0.00     0.055 C 
ATOM      8  C   UNL d   1      -1.465  -5.948  -0.925  0.00  0.00     0.019 C 
ENDBRANCH   1   7
TORSDOF 1
ENDMDL
