MODEL 1
REMARK minimizedAffinity -3.93717504
REMARK minimizedRMSD -1
REMARK  1 active torsions:
REMARK  status: ('A' for Active; 'I' for Inactive)
REMARK    1  A    between atoms: C3_4  and  O_7 
ROOT
ATOM      1  C   UNL d   1      -4.211   2.467  -2.970  0.00  0.00    -0.033 A 
ATOM      2  C1  UNL d   1      -4.249   2.737  -4.340  0.00  0.00     0.039 A 
ATOM      3  C2  UNL d   1      -4.822   3.922  -4.804  0.00  0.00    -0.080 A 
ATOM      4  C3  UNL d   1      -5.351   4.829  -3.890  0.00  0.00     0.150 A 
ATOM      5  C4  UNL d   1      -5.312   4.569  -2.524  0.00  0.00    -0.007 A 
ATOM      6  C5  UNL d   1      -4.741   3.384  -2.062  0.00  0.00     0.039 A 
ENDROOT
BRANCH   4   7
ATOM      7  O   UNL d   1      -5.924   5.998  -4.296  0.00  0.00    -0.526 OA
ATOM      8  H5  UNL d   1      -5.905   6.029  -5.267  0.00  0.00     0.418 HD
ENDBRANCH   4   7
TORSDOF 1
ENDMDL
