MODEL 1
REMARK minimizedAffinity 7.08737707
REMARK minimizedRMSD -1
REMARK  1 active torsions:
REMARK  status: ('A' for Active; 'I' for Inactive)
REMARK    1  A    between atoms: C3_4  and  O_7 
ROOT
ATOM      1  C   UNL d   1      -0.008   3.306   0.325  0.00  0.00    -0.033 A 
ATOM      2  C1  UNL d   1      -0.958   3.010   1.305  0.00  0.00     0.039 A 
ATOM      3  C2  UNL d   1      -1.997   3.907   1.565  0.00  0.00    -0.080 A 
ATOM      4  C3  UNL d   1      -2.074   5.092   0.840  0.00  0.00     0.150 A 
ATOM      5  C4  UNL d   1      -1.133   5.392  -0.139  0.00  0.00    -0.007 A 
ATOM      6  C5  UNL d   1      -0.096   4.496  -0.398  0.00  0.00     0.039 A 
ENDROOT
BRANCH   4   7
ATOM      7  O   UNL d   1      -3.067   6.000   1.063  0.00  0.00    -0.526 OA
ATOM      8  H5  UNL d   1      -3.626   5.673   1.787  0.00  0.00     0.418 HD
ENDBRANCH   4   7
TORSDOF 1
ENDMDL
