MODEL 1
REMARK minimizedAffinity -3.08548784
REMARK minimizedRMSD -1
REMARK  1 active torsions:
REMARK  status: ('A' for Active; 'I' for Inactive)
REMARK    1  A    between atoms: C3_4  and  O_7 
ROOT
ATOM      1  C   UNL d   1      -5.062   3.174  -2.069  0.00  0.00    -0.033 A 
ATOM      2  C1  UNL d   1      -4.125   2.662  -2.969  0.00  0.00     0.039 A 
ATOM      3  C2  UNL d   1      -4.120   3.094  -4.296  0.00  0.00    -0.080 A 
ATOM      4  C3  UNL d   1      -5.055   4.039  -4.711  0.00  0.00     0.150 A 
ATOM      5  C4  UNL d   1      -5.989   4.556  -3.819  0.00  0.00    -0.007 A 
ATOM      6  C5  UNL d   1      -5.993   4.123  -2.494  0.00  0.00     0.039 A 
ENDROOT
BRANCH   4   7
ATOM      7  O   UNL d   1      -5.092   4.488  -5.998  0.00  0.00    -0.526 OA
ATOM      8  H5  UNL d   1      -4.407   4.021  -6.506  0.00  0.00     0.418 HD
ENDBRANCH   4   7
TORSDOF 1
ENDMDL
