MODEL 1
REMARK minimizedAffinity -4.75356531
REMARK minimizedRMSD -1
REMARK  1 active torsions:
REMARK  status: ('A' for Active; 'I' for Inactive)
REMARK    1  A    between atoms: C3_4  and  O_7 
ROOT
ATOM      1  C   UNL d   1      -4.028   2.549  -4.853  0.00  0.00    -0.033 A 
ATOM      2  C1  UNL d   1      -5.345   2.344  -4.436  0.00  0.00     0.039 A 
ATOM      3  C2  UNL d   1      -5.998   1.150  -4.745  0.00  0.00    -0.080 A 
ATOM      4  C3  UNL d   1      -5.325   0.170  -5.470  0.00  0.00     0.150 A 
ATOM      5  C4  UNL d   1      -4.012   0.366  -5.885  0.00  0.00    -0.007 A 
ATOM      6  C5  UNL d   1      -3.361   1.560  -5.576  0.00  0.00     0.039 A 
ENDROOT
BRANCH   4   7
ATOM      7  O   UNL d   1      -5.924  -1.010  -5.800  0.00  0.00    -0.526 OA
ATOM      8  H5  UNL d   1      -6.838  -0.993  -5.473  0.00  0.00     0.418 HD
ENDBRANCH   4   7
TORSDOF 1
ENDMDL
