MODEL 1
REMARK minimizedAffinity -4.00257111
REMARK minimizedRMSD -1
REMARK  1 active torsions:
REMARK  status: ('A' for Active; 'I' for Inactive)
REMARK    1  A    between atoms: C3_4  and  O_7 
ROOT
ATOM      1  C   UNL d   1      -6.000   3.579  -3.272  0.00  0.00    -0.033 A 
ATOM      2  C1  UNL d   1      -5.484   4.545  -4.138  0.00  0.00     0.039 A 
ATOM      3  C2  UNL d   1      -4.499   4.200  -5.065  0.00  0.00    -0.080 A 
ATOM      4  C3  UNL d   1      -4.039   2.887  -5.116  0.00  0.00     0.150 A 
ATOM      5  C4  UNL d   1      -4.551   1.918  -4.259  0.00  0.00    -0.007 A 
ATOM      6  C5  UNL d   1      -5.534   2.265  -3.333  0.00  0.00     0.039 A 
ENDROOT
BRANCH   4   7
ATOM      7  O   UNL d   1      -3.074   2.504  -6.000  0.00  0.00    -0.526 OA
ATOM      8  H5  UNL d   1      -2.795   3.284  -6.508  0.00  0.00     0.418 HD
ENDBRANCH   4   7
TORSDOF 1
ENDMDL
