MODEL 1
REMARK minimizedAffinity -3.54470801
REMARK minimizedRMSD -1
REMARK  1 active torsions:
REMARK  status: ('A' for Active; 'I' for Inactive)
REMARK    1  A    between atoms: C3_4  and  O_7 
ROOT
ATOM      1  C   UNL d   1      -5.249   2.967  -5.812  0.00  0.00    -0.033 A 
ATOM      2  C1  UNL d   1      -5.741   1.816  -5.194  0.00  0.00     0.039 A 
ATOM      3  C2  UNL d   1      -5.999   1.815  -3.822  0.00  0.00    -0.080 A 
ATOM      4  C3  UNL d   1      -5.764   2.970  -3.081  0.00  0.00     0.150 A 
ATOM      5  C4  UNL d   1      -5.277   4.121  -3.691  0.00  0.00    -0.007 A 
ATOM      6  C5  UNL d   1      -5.019   4.120  -5.061  0.00  0.00     0.039 A 
ENDROOT
BRANCH   4   7
ATOM      7  O   UNL d   1      -5.996   3.015  -1.738  0.00  0.00    -0.526 OA
ATOM      8  H5  UNL d   1      -6.302   2.139  -1.449  0.00  0.00     0.418 HD
ENDBRANCH   4   7
TORSDOF 1
ENDMDL
