MODEL 1
REMARK minimizedAffinity -3.68294954
REMARK minimizedRMSD -1
REMARK  1 active torsions:
REMARK  status: ('A' for Active; 'I' for Inactive)
REMARK    1  A    between atoms: C3_4  and  O_7 
ROOT
ATOM      1  C   UNL d   1      -4.384   0.960  -5.590  0.00  0.00    -0.033 A 
ATOM      2  C1  UNL d   1      -5.405   1.526  -4.823  0.00  0.00     0.039 A 
ATOM      3  C2  UNL d   1      -5.210   2.759  -4.199  0.00  0.00    -0.080 A 
ATOM      4  C3  UNL d   1      -3.992   3.417  -4.350  0.00  0.00     0.150 A 
ATOM      5  C4  UNL d   1      -2.972   2.861  -5.116  0.00  0.00    -0.007 A 
ATOM      6  C5  UNL d   1      -3.169   1.628  -5.737  0.00  0.00     0.039 A 
ENDROOT
BRANCH   4   7
ATOM      7  O   UNL d   1      -3.753   4.620  -3.756  0.00  0.00    -0.526 OA
ATOM      8  H5  UNL d   1      -4.536   4.867  -3.236  0.00  0.00     0.418 HD
ENDBRANCH   4   7
TORSDOF 1
ENDMDL
