MODEL 1
REMARK minimizedAffinity -1.92262757
REMARK minimizedRMSD -1
REMARK  0 active torsions:
REMARK  status: ('A' for Active; 'I' for Inactive)
ROOT
ATOM      1  C   UNL d   1      -0.714   0.879  -0.119  0.00  0.00     0.172 C 
ATOM      2  N   UNL d   1      -1.338   1.404  -1.310  0.00  0.00    -0.070 N 
ATOM      3  C1  UNL d   1      -2.585   1.072  -1.771  0.00  0.00    -0.004 A 
ATOM      4  C2  UNL d   1      -2.810   1.786  -2.929  0.00  0.00    -0.047 A 
ATOM      5  C3  UNL d   1      -1.660   2.572  -3.172  0.00  0.00    -0.047 A 
ATOM      6  C4  UNL d   1      -0.764   2.316  -2.155  0.00  0.00    -0.004 A 
ENDROOT
TORSDOF 0
ENDMDL
