MODEL 1
REMARK minimizedAffinity -2.3873117
REMARK minimizedRMSD -1
REMARK  0 active torsions:
REMARK  status: ('A' for Active; 'I' for Inactive)
ROOT
ATOM      1  C   UNL d   1       0.083   2.915  -4.453  0.00  0.00     0.172 C 
ATOM      2  N   UNL d   1      -0.887   2.455  -3.488  0.00  0.00    -0.070 N 
ATOM      3  C1  UNL d   1      -2.105   1.902  -3.782  0.00  0.00    -0.004 A 
ATOM      4  C2  UNL d   1      -2.728   1.597  -2.591  0.00  0.00    -0.047 A 
ATOM      5  C3  UNL d   1      -1.855   1.981  -1.546  0.00  0.00    -0.047 A 
ATOM      6  C4  UNL d   1      -0.723   2.509  -2.129  0.00  0.00    -0.004 A 
ENDROOT
TORSDOF 0
ENDMDL
