MODEL 1
REMARK minimizedAffinity -3.13905478
REMARK minimizedRMSD -1
REMARK  0 active torsions:
REMARK  status: ('A' for Active; 'I' for Inactive)
ROOT
ATOM      1  C   UNL d   1      -3.175   1.008  -2.008  0.00  0.00     0.172 C 
ATOM      2  N   UNL d   1      -1.997   1.625  -2.571  0.00  0.00    -0.070 N 
ATOM      3  C1  UNL d   1      -1.580   1.513  -3.870  0.00  0.00    -0.004 A 
ATOM      4  C2  UNL d   1      -0.422   2.247  -4.007  0.00  0.00    -0.047 A 
ATOM      5  C3  UNL d   1      -0.132   2.820  -2.745  0.00  0.00    -0.047 A 
ATOM      6  C4  UNL d   1      -1.123   2.419  -1.875  0.00  0.00    -0.004 A 
ENDROOT
TORSDOF 0
ENDMDL
