MODEL 1
REMARK minimizedAffinity -2.99378633
REMARK minimizedRMSD -1
REMARK  0 active torsions:
REMARK  status: ('A' for Active; 'I' for Inactive)
ROOT
ATOM      1  C   UNL d   1      -0.578   1.007  -0.353  0.00  0.00     0.172 C 
ATOM      2  N   UNL d   1       0.539   0.161  -0.003  0.00  0.00    -0.070 N 
ATOM      3  C1  UNL d   1       1.812   0.275  -0.494  0.00  0.00    -0.004 A 
ATOM      4  C2  UNL d   1       2.577  -0.715   0.083  0.00  0.00    -0.047 A 
ATOM      5  C3  UNL d   1       1.735  -1.449   0.951  0.00  0.00    -0.047 A 
ATOM      6  C4  UNL d   1       0.479  -0.886   0.878  0.00  0.00    -0.004 A 
ENDROOT
TORSDOF 0
ENDMDL
