MODEL 1
REMARK minimizedAffinity -1.88132203
REMARK minimizedRMSD -1
REMARK  0 active torsions:
REMARK  status: ('A' for Active; 'I' for Inactive)
ROOT
ATOM      1  C   UNL d   1      -0.223  -0.041  -0.674  0.00  0.00     0.172 C 
ATOM      2  N   UNL d   1      -1.231   0.715  -1.380  0.00  0.00    -0.070 N 
ATOM      3  C1  UNL d   1      -1.499   0.630  -2.720  0.00  0.00    -0.004 A 
ATOM      4  C2  UNL d   1      -2.525   1.506  -3.002  0.00  0.00    -0.047 A 
ATOM      5  C3  UNL d   1      -2.884   2.141  -1.789  0.00  0.00    -0.047 A 
ATOM      6  C4  UNL d   1      -2.067   1.632  -0.801  0.00  0.00    -0.004 A 
ENDROOT
TORSDOF 0
ENDMDL
