MODEL 1
REMARK minimizedAffinity -0.225543872
REMARK minimizedRMSD -1
REMARK  0 active torsions:
REMARK  status: ('A' for Active; 'I' for Inactive)
ROOT
ATOM      1  C   UNL d   1      -0.281   1.188  -0.344  0.00  0.00     0.172 C 
ATOM      2  N   UNL d   1      -1.339   1.278  -1.322  0.00  0.00    -0.070 N 
ATOM      3  C1  UNL d   1      -2.514   0.576  -1.294  0.00  0.00    -0.004 A 
ATOM      4  C2  UNL d   1      -3.252   0.943  -2.399  0.00  0.00    -0.047 A 
ATOM      5  C3  UNL d   1      -2.493   1.898  -3.117  0.00  0.00    -0.047 A 
ATOM      6  C4  UNL d   1      -1.313   2.087  -2.428  0.00  0.00    -0.004 A 
ENDROOT
TORSDOF 0
ENDMDL
