MODEL 1
REMARK minimizedAffinity -3.39351749
REMARK minimizedRMSD -1
REMARK  0 active torsions:
REMARK  status: ('A' for Active; 'I' for Inactive)
ROOT
ATOM      1  C   UNL d   1       2.082  -1.450   0.712  0.00  0.00     0.172 C 
ATOM      2  N   UNL d   1       1.258  -0.401   0.159  0.00  0.00    -0.070 N 
ATOM      3  C1  UNL d   1       1.693   0.612  -0.652  0.00  0.00    -0.004 A 
ATOM      4  C2  UNL d   1       0.606   1.400  -0.964  0.00  0.00    -0.047 A 
ATOM      5  C3  UNL d   1      -0.521   0.841  -0.318  0.00  0.00    -0.047 A 
ATOM      6  C4  UNL d   1      -0.090  -0.273   0.371  0.00  0.00    -0.004 A 
ENDROOT
TORSDOF 0
ENDMDL
