MODEL 1
REMARK minimizedAffinity -2.83869076
REMARK minimizedRMSD -1
REMARK  0 active torsions:
REMARK  status: ('A' for Active; 'I' for Inactive)
ROOT
ATOM      1  C   UNL d   1      -0.358   1.101  -0.607  0.00  0.00     0.172 C 
ATOM      2  N   UNL d   1       0.516   0.047  -0.147  0.00  0.00    -0.070 N 
ATOM      3  C1  UNL d   1       1.843  -0.082  -0.457  0.00  0.00    -0.004 A 
ATOM      4  C2  UNL d   1       2.317  -1.211   0.176  0.00  0.00    -0.047 A 
ATOM      5  C3  UNL d   1       1.236  -1.780   0.891  0.00  0.00    -0.047 A 
ATOM      6  C4  UNL d   1       0.134  -0.981   0.673  0.00  0.00    -0.004 A 
ENDROOT
TORSDOF 0
ENDMDL
