MODEL 1
REMARK minimizedAffinity -3.73556137
REMARK minimizedRMSD -1
REMARK  0 active torsions:
REMARK  status: ('A' for Active; 'I' for Inactive)
ROOT
ATOM      1  C   UNL d   1      -1.358  -0.769   0.748  0.00  0.00     0.172 C 
ATOM      2  N   UNL d   1       0.068  -0.695   0.532  0.00  0.00    -0.070 N 
ATOM      3  C1  UNL d   1       0.982  -1.648   0.895  0.00  0.00    -0.004 A 
ATOM      4  C2  UNL d   1       2.230  -1.203   0.515  0.00  0.00    -0.047 A 
ATOM      5  C3  UNL d   1       2.060   0.061  -0.098  0.00  0.00    -0.047 A 
ATOM      6  C4  UNL d   1       0.712   0.352  -0.074  0.00  0.00    -0.004 A 
ENDROOT
TORSDOF 0
ENDMDL
