MODEL 1
REMARK minimizedAffinity -1.65158761
REMARK minimizedRMSD -1
REMARK  0 active torsions:
REMARK  status: ('A' for Active; 'I' for Inactive)
ROOT
ATOM      1  C   UNL d   1       1.752   0.272  -0.246  0.00  0.00     0.172 C 
ATOM      2  N   UNL d   1       0.378   0.368   0.190  0.00  0.00    -0.070 N 
ATOM      3  C1  UNL d   1      -0.673   0.804  -0.571  0.00  0.00    -0.004 A 
ATOM      4  C2  UNL d   1      -1.810   0.745   0.205  0.00  0.00    -0.047 A 
ATOM      5  C3  UNL d   1      -1.429   0.257   1.478  0.00  0.00    -0.047 A 
ATOM      6  C4  UNL d   1      -0.069   0.031   1.441  0.00  0.00    -0.004 A 
ENDROOT
TORSDOF 0
ENDMDL
