MODEL 1
REMARK minimizedAffinity -1.07407522
REMARK minimizedRMSD -1
REMARK  0 active torsions:
REMARK  status: ('A' for Active; 'I' for Inactive)
ROOT
ATOM      1  C   UNL d   1       3.071  -0.406  -0.822  0.00  0.00     0.172 C 
ATOM      2  N   UNL d   1       1.758   0.148  -0.588  0.00  0.00    -0.070 N 
ATOM      3  C1  UNL d   1       1.495   1.351   0.011  0.00  0.00    -0.004 A 
ATOM      4  C2  UNL d   1       0.127   1.515   0.045  0.00  0.00    -0.047 A 
ATOM      5  C3  UNL d   1      -0.452   0.371  -0.553  0.00  0.00    -0.047 A 
ATOM      6  C4  UNL d   1       0.581  -0.459  -0.936  0.00  0.00    -0.004 A 
ENDROOT
TORSDOF 0
ENDMDL
