MODEL 1
REMARK minimizedAffinity 0.666291535
REMARK minimizedRMSD -1
REMARK  0 active torsions:
REMARK  status: ('A' for Active; 'I' for Inactive)
ROOT
ATOM      1  C   UNL d   1       0.539   0.811  -1.123  0.00  0.00     0.172 C 
ATOM      2  N   UNL d   1       1.917   1.041  -0.759  0.00  0.00    -0.070 N 
ATOM      3  C1  UNL d   1       2.522   0.608   0.391  0.00  0.00    -0.004 A 
ATOM      4  C2  UNL d   1       3.834   1.028   0.362  0.00  0.00    -0.047 A 
ATOM      5  C3  UNL d   1       4.025   1.738  -0.848  0.00  0.00    -0.047 A 
ATOM      6  C4  UNL d   1       2.822   1.730  -1.522  0.00  0.00    -0.004 A 
ENDROOT
TORSDOF 0
ENDMDL
