MODEL 1
REMARK minimizedAffinity -0.167003945
REMARK minimizedRMSD -1
REMARK  0 active torsions:
REMARK  status: ('A' for Active; 'I' for Inactive)
ROOT
ATOM      1  C   UNL d   1      -1.270   0.084   1.229  0.00  0.00     0.172 C 
ATOM      2  N   UNL d   1      -0.152   0.320   0.347  0.00  0.00    -0.070 N 
ATOM      3  C1  UNL d   1      -0.232   0.812  -0.929  0.00  0.00    -0.004 A 
ATOM      4  C2  UNL d   1       1.049   0.890  -1.432  0.00  0.00    -0.047 A 
ATOM      5  C3  UNL d   1       1.928   0.427  -0.425  0.00  0.00    -0.047 A 
ATOM      6  C4  UNL d   1       1.159   0.081   0.666  0.00  0.00    -0.004 A 
ENDROOT
TORSDOF 0
ENDMDL
