MODEL 1
REMARK minimizedAffinity -2.76590085
REMARK minimizedRMSD -1
REMARK  0 active torsions:
REMARK  status: ('A' for Active; 'I' for Inactive)
ROOT
ATOM      1  C   UNL d   1      -0.745   0.794  -0.063  0.00  0.00     0.172 C 
ATOM      2  N   UNL d   1      -0.537  -0.201   0.963  0.00  0.00    -0.070 N 
ATOM      3  C1  UNL d   1       0.596  -0.952   1.128  0.00  0.00    -0.004 A 
ATOM      4  C2  UNL d   1       0.399  -1.779   2.213  0.00  0.00    -0.047 A 
ATOM      5  C3  UNL d   1      -0.897  -1.516   2.717  0.00  0.00    -0.047 A 
ATOM      6  C4  UNL d   1      -1.454  -0.535   1.924  0.00  0.00    -0.004 A 
ENDROOT
TORSDOF 0
ENDMDL
