MODEL 1
REMARK minimizedAffinity -0.0432847179
REMARK minimizedRMSD -1
REMARK  0 active torsions:
REMARK  status: ('A' for Active; 'I' for Inactive)
ROOT
ATOM      1  C   UNL d   1      -2.292   1.216  -2.544  0.00  0.00     0.172 C 
ATOM      2  N   UNL d   1      -1.324   0.871  -1.530  0.00  0.00    -0.070 N 
ATOM      3  C1  UNL d   1      -0.710  -0.345  -1.393  0.00  0.00    -0.004 A 
ATOM      4  C2  UNL d   1       0.141  -0.269  -0.311  0.00  0.00    -0.047 A 
ATOM      5  C3  UNL d   1       0.034   1.038   0.220  0.00  0.00    -0.047 A 
ATOM      6  C4  UNL d   1      -0.880   1.723  -0.553  0.00  0.00    -0.004 A 
ENDROOT
TORSDOF 0
ENDMDL
