MODEL 1
REMARK minimizedAffinity 3.04975414
REMARK minimizedRMSD -1
REMARK  0 active torsions:
REMARK  status: ('A' for Active; 'I' for Inactive)
ROOT
ATOM      1  C2' OXE d   1       2.260   5.108   0.480  0.00  0.00     0.078 C 
ATOM      2  C1' OXE d   1      -0.157   3.956   1.326  0.00  0.00     0.078 C 
ATOM      3  C1  OXE d   1      -0.135   4.636  -0.020  0.00  0.00    -0.078 A 
ATOM      4  C2  OXE d   1       1.039   5.237  -0.405  0.00  0.00    -0.078 A 
ATOM      5  C3  OXE d   1       1.130   5.831  -1.661  0.00  0.00     0.003 A 
ATOM      6  C4  OXE d   1      -0.006   5.955  -2.470  0.00  0.00    -0.002 A 
ATOM      7  C5  OXE d   1      -1.222   5.385  -2.079  0.00  0.00    -0.002 A 
ATOM      8  C6  OXE d   1      -1.292   4.686  -0.879  0.00  0.00     0.003 A 
ENDROOT
TORSDOF 0
ENDMDL
