MODEL 1
REMARK minimizedAffinity 19.3883095
REMARK minimizedRMSD -1
REMARK  0 active torsions:
REMARK  status: ('A' for Active; 'I' for Inactive)
ROOT
ATOM      1  C2' OXE d   1       0.117  -5.957  -5.807  0.00  0.00     0.078 C 
ATOM      2  C1' OXE d   1      -1.513  -5.943  -3.521  0.00  0.00     0.078 C 
ATOM      3  C1  OXE d   1      -0.018  -5.946  -3.319  0.00  0.00    -0.078 A 
ATOM      4  C2  OXE d   1       0.771  -6.000  -4.443  0.00  0.00    -0.078 A 
ATOM      5  C3  OXE d   1       2.156  -5.949  -4.315  0.00  0.00     0.003 A 
ATOM      6  C4  OXE d   1       2.754  -6.000  -3.050  0.00  0.00    -0.002 A 
ATOM      7  C5  OXE d   1       1.968  -5.985  -1.892  0.00  0.00    -0.002 A 
ATOM      8  C6  OXE d   1       0.584  -5.916  -2.009  0.00  0.00     0.003 A 
ENDROOT
TORSDOF 0
ENDMDL
