MODEL 1
REMARK minimizedAffinity 5.65835762
REMARK minimizedRMSD -1
REMARK  0 active torsions:
REMARK  status: ('A' for Active; 'I' for Inactive)
ROOT
ATOM      1  C2' OXE d   1       2.998  -1.128  -0.367  0.00  0.00     0.078 C 
ATOM      2  C1' OXE d   1       2.984  -3.407   1.272  0.00  0.00     0.078 C 
ATOM      3  C1  OXE d   1       4.059  -3.304   0.219  0.00  0.00    -0.078 A 
ATOM      4  C2  OXE d   1       4.030  -2.208  -0.609  0.00  0.00    -0.078 A 
ATOM      5  C3  OXE d   1       5.031  -2.037  -1.561  0.00  0.00     0.003 A 
ATOM      6  C4  OXE d   1       5.976  -3.045  -1.785  0.00  0.00    -0.002 A 
ATOM      7  C5  OXE d   1       5.999  -4.188  -0.979  0.00  0.00    -0.002 A 
ATOM      8  C6  OXE d   1       5.076  -4.313   0.053  0.00  0.00     0.003 A 
ENDROOT
TORSDOF 0
ENDMDL
