MODEL 1
REMARK minimizedAffinity 8.68264675
REMARK minimizedRMSD -1
REMARK  0 active torsions:
REMARK  status: ('A' for Active; 'I' for Inactive)
ROOT
ATOM      1  C2' OXE d   1       2.766   3.600   3.669  0.00  0.00     0.078 C 
ATOM      2  C1' OXE d   1       0.303   2.301   3.314  0.00  0.00     0.078 C 
ATOM      3  C1  OXE d   1       0.754   3.259   2.240  0.00  0.00    -0.078 A 
ATOM      4  C2  OXE d   1       1.938   3.925   2.444  0.00  0.00    -0.078 A 
ATOM      5  C3  OXE d   1       2.428   4.779   1.460  0.00  0.00     0.003 A 
ATOM      6  C4  OXE d   1       1.652   5.082   0.335  0.00  0.00    -0.002 A 
ATOM      7  C5  OXE d   1       0.424   4.445   0.126  0.00  0.00    -0.002 A 
ATOM      8  C6  OXE d   1      -0.018   3.501   1.046  0.00  0.00     0.003 A 
ENDROOT
TORSDOF 0
ENDMDL
