MODEL 1
REMARK minimizedAffinity 12.3340921
REMARK minimizedRMSD -1
REMARK  0 active torsions:
REMARK  status: ('A' for Active; 'I' for Inactive)
ROOT
ATOM      1  C2' OXE d   1       5.321  -3.360  -4.693  0.00  0.00     0.078 C 
ATOM      2  C1' OXE d   1       3.751  -5.175  -3.238  0.00  0.00     0.078 C 
ATOM      3  C1  OXE d   1       4.514  -4.128  -2.466  0.00  0.00    -0.078 A 
ATOM      4  C2  OXE d   1       5.317  -3.274  -3.182  0.00  0.00    -0.078 A 
ATOM      5  C3  OXE d   1       6.000  -2.255  -2.524  0.00  0.00     0.003 A 
ATOM      6  C4  OXE d   1       5.998  -2.189  -1.125  0.00  0.00    -0.002 A 
ATOM      7  C5  OXE d   1       5.218  -3.075  -0.374  0.00  0.00    -0.002 A 
ATOM      8  C6  OXE d   1       4.439  -4.021  -1.029  0.00  0.00     0.003 A 
ENDROOT
TORSDOF 0
ENDMDL
