MODEL 1
REMARK minimizedAffinity 5.61289215
REMARK minimizedRMSD -1
REMARK  0 active torsions:
REMARK  status: ('A' for Active; 'I' for Inactive)
ROOT
ATOM      1  C2' OXE d   1      -0.007   1.708   0.002  0.00  0.00     0.078 C 
ATOM      2  C1' OXE d   1      -0.732   2.740   2.510  0.00  0.00     0.078 C 
ATOM      3  C1  OXE d   1      -0.421   3.722   1.408  0.00  0.00    -0.078 A 
ATOM      4  C2  OXE d   1      -0.022   3.209   0.198  0.00  0.00    -0.078 A 
ATOM      5  C3  OXE d   1       0.223   4.069  -0.869  0.00  0.00     0.003 A 
ATOM      6  C4  OXE d   1       0.216   5.455  -0.677  0.00  0.00    -0.002 A 
ATOM      7  C5  OXE d   1      -0.149   5.999   0.559  0.00  0.00    -0.002 A 
ATOM      8  C6  OXE d   1      -0.511   5.149   1.597  0.00  0.00     0.003 A 
ENDROOT
TORSDOF 0
ENDMDL
