MODEL 1
REMARK minimizedAffinity 8.04226208
REMARK minimizedRMSD -1
REMARK  0 active torsions:
REMARK  status: ('A' for Active; 'I' for Inactive)
ROOT
ATOM      1  C2' OXE d   1       0.795   2.944   2.124  0.00  0.00     0.078 C 
ATOM      2  C1' OXE d   1      -0.079   1.715  -0.243  0.00  0.00     0.078 C 
ATOM      3  C1  OXE d   1      -0.013   3.221  -0.216  0.00  0.00    -0.078 A 
ATOM      4  C2  OXE d   1       0.371   3.816   0.962  0.00  0.00    -0.078 A 
ATOM      5  C3  OXE d   1       0.501   5.200   1.025  0.00  0.00     0.003 A 
ATOM      6  C4  OXE d   1       0.097   6.000  -0.051  0.00  0.00    -0.002 A 
ATOM      7  C5  OXE d   1      -0.335   5.416  -1.246  0.00  0.00    -0.002 A 
ATOM      8  C6  OXE d   1      -0.355   4.030  -1.359  0.00  0.00     0.003 A 
ENDROOT
TORSDOF 0
ENDMDL
