MODEL 1
REMARK minimizedAffinity 9.31310368
REMARK minimizedRMSD -1
REMARK  0 active torsions:
REMARK  status: ('A' for Active; 'I' for Inactive)
ROOT
ATOM      1  C2' OXE d   1      -0.213   3.396   2.382  0.00  0.00     0.078 C 
ATOM      2  C1' OXE d   1      -1.788   5.719   2.348  0.00  0.00     0.078 C 
ATOM      3  C1  OXE d   1      -1.151   5.283   1.053  0.00  0.00    -0.078 A 
ATOM      4  C2  OXE d   1      -0.343   4.171   1.088  0.00  0.00    -0.078 A 
ATOM      5  C3  OXE d   1       0.225   3.694  -0.089  0.00  0.00     0.003 A 
ATOM      6  C4  OXE d   1       0.107   4.422  -1.279  0.00  0.00    -0.002 A 
ATOM      7  C5  OXE d   1      -0.678   5.579  -1.328  0.00  0.00    -0.002 A 
ATOM      8  C6  OXE d   1      -1.347   5.998  -0.184  0.00  0.00     0.003 A 
ENDROOT
TORSDOF 0
ENDMDL
