MODEL 1
REMARK minimizedAffinity 12.3383598
REMARK minimizedRMSD -1
REMARK  0 active torsions:
REMARK  status: ('A' for Active; 'I' for Inactive)
ROOT
ATOM      1  C2' OXE d   1      -0.721   2.262   3.675  0.00  0.00     0.078 C 
ATOM      2  C1' OXE d   1      -0.169  -0.249   4.801  0.00  0.00     0.078 C 
ATOM      3  C1  OXE d   1      -1.540  -0.029   4.212  0.00  0.00    -0.078 A 
ATOM      4  C2  OXE d   1      -1.817   1.218   3.705  0.00  0.00    -0.078 A 
ATOM      5  C3  OXE d   1      -3.047   1.459   3.100  0.00  0.00     0.003 A 
ATOM      6  C4  OXE d   1      -4.058   0.491   3.141  0.00  0.00    -0.002 A 
ATOM      7  C5  OXE d   1      -3.810  -0.773   3.688  0.00  0.00    -0.002 A 
ATOM      8  C6  OXE d   1      -2.545  -1.062   4.188  0.00  0.00     0.003 A 
ENDROOT
TORSDOF 0
ENDMDL
