MODEL 1
REMARK minimizedAffinity 12.0197277
REMARK minimizedRMSD -1
REMARK  0 active torsions:
REMARK  status: ('A' for Active; 'I' for Inactive)
ROOT
ATOM      1  C2' OXE d   1       0.470   1.512   0.031  0.00  0.00     0.078 C 
ATOM      2  C1' OXE d   1       0.029   2.443   2.642  0.00  0.00     0.078 C 
ATOM      3  C1  OXE d   1       0.069   3.461   1.530  0.00  0.00    -0.078 A 
ATOM      4  C2  OXE d   1       0.332   3.002   0.262  0.00  0.00    -0.078 A 
ATOM      5  C3  OXE d   1       0.327   3.891  -0.809  0.00  0.00     0.003 A 
ATOM      6  C4  OXE d   1       0.208   5.268  -0.586  0.00  0.00    -0.002 A 
ATOM      7  C5  OXE d   1      -0.021   5.761   0.703  0.00  0.00    -0.002 A 
ATOM      8  C6  OXE d   1      -0.135   4.869   1.764  0.00  0.00     0.003 A 
ENDROOT
TORSDOF 0
ENDMDL
