MODEL 1
REMARK minimizedAffinity 12.7305546
REMARK minimizedRMSD -1
REMARK  0 active torsions:
REMARK  status: ('A' for Active; 'I' for Inactive)
ROOT
ATOM      1  C2' OXE d   1      -1.036   6.000   1.370  0.00  0.00     0.078 C 
ATOM      2  C1' OXE d   1       0.924   5.345  -0.530  0.00  0.00     0.078 C 
ATOM      3  C1  OXE d   1       0.581   4.310   0.512  0.00  0.00    -0.078 A 
ATOM      4  C2  OXE d   1      -0.345   4.656   1.466  0.00  0.00    -0.078 A 
ATOM      5  C3  OXE d   1      -0.738   3.720   2.417  0.00  0.00     0.003 A 
ATOM      6  C4  OXE d   1      -0.088   2.483   2.505  0.00  0.00    -0.002 A 
ATOM      7  C5  OXE d   1       0.886   2.125   1.567  0.00  0.00    -0.002 A 
ATOM      8  C6  OXE d   1       1.201   3.009   0.541  0.00  0.00     0.003 A 
ENDROOT
TORSDOF 0
ENDMDL
