MODEL 1
REMARK minimizedAffinity 11.7111034
REMARK minimizedRMSD -1
REMARK  0 active torsions:
REMARK  status: ('A' for Active; 'I' for Inactive)
ROOT
ATOM      1  C2' OXE d   1       0.365   1.450   0.047  0.00  0.00     0.078 C 
ATOM      2  C1' OXE d   1      -0.393   2.320   2.606  0.00  0.00     0.078 C 
ATOM      3  C1  OXE d   1      -0.306   3.352   1.510  0.00  0.00    -0.078 A 
ATOM      4  C2  OXE d   1       0.111   2.925   0.272  0.00  0.00    -0.078 A 
ATOM      5  C3  OXE d   1       0.156   3.826  -0.789  0.00  0.00     0.003 A 
ATOM      6  C4  OXE d   1      -0.071   5.190  -0.570  0.00  0.00    -0.002 A 
ATOM      7  C5  OXE d   1      -0.458   5.652   0.692  0.00  0.00    -0.002 A 
ATOM      8  C6  OXE d   1      -0.622   4.742   1.730  0.00  0.00     0.003 A 
ENDROOT
TORSDOF 0
ENDMDL
