MODEL 1
REMARK minimizedAffinity 10.4904947
REMARK minimizedRMSD -1
REMARK  0 active torsions:
REMARK  status: ('A' for Active; 'I' for Inactive)
ROOT
ATOM      1  C2' OXE d   1       5.499  -4.611   1.044  0.00  0.00     0.078 C 
ATOM      2  C1' OXE d   1       3.565  -2.799   1.971  0.00  0.00     0.078 C 
ATOM      3  C1  OXE d   1       4.328  -2.436   0.721  0.00  0.00    -0.078 A 
ATOM      4  C2  OXE d   1       5.304  -3.307   0.301  0.00  0.00    -0.078 A 
ATOM      5  C3  OXE d   1       6.000  -3.047  -0.876  0.00  0.00     0.003 A 
ATOM      6  C4  OXE d   1       5.821  -1.833  -1.552  0.00  0.00    -0.002 A 
ATOM      7  C5  OXE d   1       4.859  -0.915  -1.119  0.00  0.00    -0.002 A 
ATOM      8  C6  OXE d   1       4.076  -1.219  -0.011  0.00  0.00     0.003 A 
ENDROOT
TORSDOF 0
ENDMDL
