MODEL 1
REMARK minimizedAffinity 6.72559738
REMARK minimizedRMSD -1
REMARK  0 active torsions:
REMARK  status: ('A' for Active; 'I' for Inactive)
ROOT
ATOM      1  C2' OXE d   1       0.872   2.398   2.288  0.00  0.00     0.078 C 
ATOM      2  C1' OXE d   1      -1.017   2.189   0.222  0.00  0.00     0.078 C 
ATOM      3  C1  OXE d   1      -0.070   3.362   0.193  0.00  0.00    -0.078 A 
ATOM      4  C2  OXE d   1       0.821   3.482   1.233  0.00  0.00    -0.078 A 
ATOM      5  C3  OXE d   1       1.753   4.515   1.226  0.00  0.00     0.003 A 
ATOM      6  C4  OXE d   1       1.692   5.519   0.252  0.00  0.00    -0.002 A 
ATOM      7  C5  OXE d   1       0.767   5.438  -0.794  0.00  0.00    -0.002 A 
ATOM      8  C6  OXE d   1      -0.091   4.345  -0.862  0.00  0.00     0.003 A 
ENDROOT
TORSDOF 0
ENDMDL
