MODEL 1
REMARK minimizedAffinity 16.4047985
REMARK minimizedRMSD -1
REMARK  0 active torsions:
REMARK  status: ('A' for Active; 'I' for Inactive)
ROOT
ATOM      1  N1  IND d   1      -2.075   1.158   2.733  0.00  0.00    -0.196 N 
ATOM      2  C2  IND d   1      -3.179   1.682   3.347  0.00  0.00     0.054 A 
ATOM      3  C3  IND d   1      -2.859   2.136   4.580  0.00  0.00    -0.031 A 
ATOM      4  C4  IND d   1      -0.568   2.216   5.750  0.00  0.00     0.051 A 
ATOM      5  C5  IND d   1       0.732   1.823   5.601  0.00  0.00    -0.031 A 
ATOM      6  C6  IND d   1       1.172   1.176   4.464  0.00  0.00     0.015 A 
ATOM      7  C7  IND d   1       0.327   0.909   3.425  0.00  0.00    -0.016 A 
ATOM      8  C8  IND d   1      -0.995   1.301   3.575  0.00  0.00    -0.047 A 
ATOM      9  C9  IND d   1      -1.457   1.919   4.745  0.00  0.00    -0.096 A 
ATOM     10  HN1 IND d   1      -2.059   0.800   1.951  0.00  0.00     0.298 HD
ENDROOT
TORSDOF 0
ENDMDL
