MODEL 1
REMARK minimizedAffinity 13.006505
REMARK minimizedRMSD -1
REMARK  0 active torsions:
REMARK  status: ('A' for Active; 'I' for Inactive)
ROOT
ATOM      1  N1  IND d   1       1.825  -3.058  -0.182  0.00  0.00    -0.196 N 
ATOM      2  C2  IND d   1       1.057  -3.803  -1.033  0.00  0.00     0.054 A 
ATOM      3  C3  IND d   1       0.524  -3.017  -1.995  0.00  0.00    -0.031 A 
ATOM      4  C4  IND d   1       0.860  -0.501  -2.424  0.00  0.00     0.051 A 
ATOM      5  C5  IND d   1       1.445   0.614  -1.893  0.00  0.00    -0.031 A 
ATOM      6  C6  IND d   1       2.205   0.560  -0.742  0.00  0.00     0.015 A 
ATOM      7  C7  IND d   1       2.418  -0.618  -0.083  0.00  0.00    -0.016 A 
ATOM      8  C8  IND d   1       1.819  -1.751  -0.616  0.00  0.00    -0.047 A 
ATOM      9  C9  IND d   1       1.012  -1.695  -1.760  0.00  0.00    -0.096 A 
ATOM     10  HN1 IND d   1       2.242  -3.356   0.509  0.00  0.00     0.298 HD
ENDROOT
TORSDOF 0
ENDMDL
