MODEL 1
REMARK minimizedAffinity 16.0266304
REMARK minimizedRMSD -1
REMARK  0 active torsions:
REMARK  status: ('A' for Active; 'I' for Inactive)
ROOT
ATOM      1  N1  IND d   1      -5.893  -0.889   2.590  0.00  0.00    -0.196 N 
ATOM      2  C2  IND d   1      -5.999  -1.877   3.529  0.00  0.00     0.054 A 
ATOM      3  C3  IND d   1      -5.071  -1.709   4.497  0.00  0.00    -0.031 A 
ATOM      4  C4  IND d   1      -3.342   0.176   4.795  0.00  0.00     0.051 A 
ATOM      5  C5  IND d   1      -2.840   1.285   4.173  0.00  0.00    -0.031 A 
ATOM      6  C6  IND d   1      -3.341   1.736   2.970  0.00  0.00     0.015 A 
ATOM      7  C7  IND d   1      -4.376   1.100   2.345  0.00  0.00    -0.016 A 
ATOM      8  C8  IND d   1      -4.884  -0.031   2.970  0.00  0.00    -0.047 A 
ATOM      9  C9  IND d   1      -4.351  -0.519   4.170  0.00  0.00    -0.096 A 
ATOM     10  HN1 IND d   1      -6.375  -0.816   1.882  0.00  0.00     0.298 HD
ENDROOT
TORSDOF 0
ENDMDL
