MODEL 1
REMARK minimizedAffinity 12.730669
REMARK minimizedRMSD -1
REMARK  0 active torsions:
REMARK  status: ('A' for Active; 'I' for Inactive)
ROOT
ATOM      1  N1  IND d   1      -4.414  -1.666   3.820  0.00  0.00    -0.196 N 
ATOM      2  C2  IND d   1      -4.327  -2.366   4.991  0.00  0.00     0.054 A 
ATOM      3  C3  IND d   1      -3.936  -1.552   5.997  0.00  0.00    -0.031 A 
ATOM      4  C4  IND d   1      -3.482   0.982   5.970  0.00  0.00     0.051 A 
ATOM      5  C5  IND d   1      -3.395   2.051   5.123  0.00  0.00    -0.031 A 
ATOM      6  C6  IND d   1      -3.651   1.935   3.772  0.00  0.00     0.015 A 
ATOM      7  C7  IND d   1      -4.017   0.741   3.217  0.00  0.00    -0.016 A 
ATOM      8  C8  IND d   1      -4.099  -0.348   4.072  0.00  0.00    -0.047 A 
ATOM      9  C9  IND d   1      -3.798  -0.245   5.437  0.00  0.00    -0.096 A 
ATOM     10  HN1 IND d   1      -4.629  -1.993   3.054  0.00  0.00     0.298 HD
ENDROOT
TORSDOF 0
ENDMDL
