MODEL 1
REMARK minimizedAffinity 24.1504688
REMARK minimizedRMSD -1
REMARK  0 active torsions:
REMARK  status: ('A' for Active; 'I' for Inactive)
ROOT
ATOM      1  N1  IND d   1       3.471   0.440   0.758  0.00  0.00    -0.196 N 
ATOM      2  C2  IND d   1       4.291   1.308   0.092  0.00  0.00     0.054 A 
ATOM      3  C3  IND d   1       3.933   1.389  -1.209  0.00  0.00    -0.031 A 
ATOM      4  C4  IND d   1       1.970   0.264  -2.438  0.00  0.00     0.051 A 
ATOM      5  C5  IND d   1       0.965  -0.644  -2.259  0.00  0.00    -0.031 A 
ATOM      6  C6  IND d   1       0.738  -1.248  -1.039  0.00  0.00     0.015 A 
ATOM      7  C7  IND d   1       1.503  -0.956   0.055  0.00  0.00    -0.016 A 
ATOM      8  C8  IND d   1       2.529  -0.039  -0.126  0.00  0.00    -0.047 A 
ATOM      9  C9  IND d   1       2.792   0.545  -1.372  0.00  0.00    -0.096 A 
ATOM     10  HN1 IND d   1       3.533   0.229   1.589  0.00  0.00     0.298 HD
ENDROOT
TORSDOF 0
ENDMDL
