MODEL 1
REMARK minimizedAffinity 28.4754009
REMARK minimizedRMSD -1
REMARK  0 active torsions:
REMARK  status: ('A' for Active; 'I' for Inactive)
ROOT
ATOM      1  N1  IND d   1      -0.893  -4.037  -2.290  0.00  0.00    -0.196 N 
ATOM      2  C2  IND d   1      -1.109  -5.088  -3.136  0.00  0.00     0.054 A 
ATOM      3  C3  IND d   1      -0.111  -5.993  -3.027  0.00  0.00    -0.031 A 
ATOM      4  C4  IND d   1       1.925  -6.000  -1.451  0.00  0.00     0.051 A 
ATOM      5  C5  IND d   1       2.569  -5.234  -0.521  0.00  0.00    -0.031 A 
ATOM      6  C6  IND d   1       2.081  -4.006  -0.122  0.00  0.00     0.015 A 
ATOM      7  C7  IND d   1       0.919  -3.501  -0.634  0.00  0.00    -0.016 A 
ATOM      8  C8  IND d   1       0.266  -4.273  -1.584  0.00  0.00    -0.047 A 
ATOM      9  C9  IND d   1       0.779  -5.501  -2.023  0.00  0.00    -0.096 A 
ATOM     10  HN1 IND d   1      -1.397  -3.344  -2.212  0.00  0.00     0.298 HD
ENDROOT
TORSDOF 0
ENDMDL
