MODEL 1
REMARK minimizedAffinity 14.8229713
REMARK minimizedRMSD -1
REMARK  0 active torsions:
REMARK  status: ('A' for Active; 'I' for Inactive)
ROOT
ATOM      1  N1  IND d   1       1.664   1.885   2.810  0.00  0.00    -0.196 N 
ATOM      2  C2  IND d   1       0.390   1.452   3.051  0.00  0.00     0.054 A 
ATOM      3  C3  IND d   1      -0.036   0.659   2.042  0.00  0.00    -0.031 A 
ATOM      4  C4  IND d   1       1.229  -0.142  -0.053  0.00  0.00     0.051 A 
ATOM      5  C5  IND d   1       2.407   0.018  -0.727  0.00  0.00    -0.031 A 
ATOM      6  C6  IND d   1       3.419   0.823  -0.246  0.00  0.00     0.015 A 
ATOM      7  C7  IND d   1       3.294   1.492   0.939  0.00  0.00    -0.016 A 
ATOM      8  C8  IND d   1       2.097   1.337   1.623  0.00  0.00    -0.047 A 
ATOM      9  C9  IND d   1       1.050   0.555   1.118  0.00  0.00    -0.096 A 
ATOM     10  HN1 IND d   1       2.118   2.412   3.315  0.00  0.00     0.298 HD
ENDROOT
TORSDOF 0
ENDMDL
