MODEL 1
REMARK minimizedAffinity 11.381114
REMARK minimizedRMSD -1
REMARK  0 active torsions:
REMARK  status: ('A' for Active; 'I' for Inactive)
ROOT
ATOM      1  N1  IND d   1       4.310  -0.901  -0.300  0.00  0.00    -0.196 N 
ATOM      2  C2  IND d   1       4.239   0.432  -0.595  0.00  0.00     0.054 A 
ATOM      3  C3  IND d   1       3.069   0.715  -1.211  0.00  0.00    -0.031 A 
ATOM      4  C4  IND d   1       1.083  -0.834  -1.741  0.00  0.00     0.051 A 
ATOM      5  C5  IND d   1       0.696  -2.144  -1.693  0.00  0.00    -0.031 A 
ATOM      6  C6  IND d   1       1.509  -3.126  -1.166  0.00  0.00     0.015 A 
ATOM      7  C7  IND d   1       2.741  -2.831  -0.654  0.00  0.00    -0.016 A 
ATOM      8  C8  IND d   1       3.140  -1.503  -0.706  0.00  0.00    -0.047 A 
ATOM      9  C9  IND d   1       2.336  -0.509  -1.279  0.00  0.00    -0.096 A 
ATOM     10  HN1 IND d   1       4.974  -1.297   0.077  0.00  0.00     0.298 HD
ENDROOT
TORSDOF 0
ENDMDL
