MODEL 1
REMARK minimizedAffinity 11.4218054
REMARK minimizedRMSD -1
REMARK  0 active torsions:
REMARK  status: ('A' for Active; 'I' for Inactive)
ROOT
ATOM      1  N1  IND d   1       4.177  -0.838   0.484  0.00  0.00    -0.196 N 
ATOM      2  C2  IND d   1       4.593   0.385   0.037  0.00  0.00     0.054 A 
ATOM      3  C3  IND d   1       3.774   0.832  -0.941  0.00  0.00    -0.031 A 
ATOM      4  C4  IND d   1       1.633  -0.231  -1.895  0.00  0.00     0.051 A 
ATOM      5  C5  IND d   1       0.871  -1.364  -1.829  0.00  0.00    -0.031 A 
ATOM      6  C6  IND d   1       1.177  -2.399  -0.969  0.00  0.00     0.015 A 
ATOM      7  C7  IND d   1       2.254  -2.335  -0.131  0.00  0.00    -0.016 A 
ATOM      8  C8  IND d   1       3.034  -1.189  -0.201  0.00  0.00    -0.047 A 
ATOM      9  C9  IND d   1       2.753  -0.154  -1.102  0.00  0.00    -0.096 A 
ATOM     10  HN1 IND d   1       4.563  -1.309   1.091  0.00  0.00     0.298 HD
ENDROOT
TORSDOF 0
ENDMDL
