MODEL 1
REMARK minimizedAffinity 24.1543655
REMARK minimizedRMSD -1
REMARK  0 active torsions:
REMARK  status: ('A' for Active; 'I' for Inactive)
ROOT
ATOM      1  N1  IND d   1       2.605   2.582  -1.589  0.00  0.00    -0.196 N 
ATOM      2  C2  IND d   1       2.494   1.629  -0.616  0.00  0.00     0.054 A 
ATOM      3  C3  IND d   1       1.925   2.153   0.493  0.00  0.00    -0.031 A 
ATOM      4  C4  IND d   1       1.005   4.523   0.895  0.00  0.00     0.051 A 
ATOM      5  C5  IND d   1       0.913   5.756   0.312  0.00  0.00    -0.031 A 
ATOM      6  C6  IND d   1       1.387   5.998  -0.961  0.00  0.00     0.015 A 
ATOM      7  C7  IND d   1       1.964   5.009  -1.706  0.00  0.00    -0.016 A 
ATOM      8  C8  IND d   1       2.065   3.757  -1.115  0.00  0.00    -0.047 A 
ATOM      9  C9  IND d   1       1.624   3.516   0.192  0.00  0.00    -0.096 A 
ATOM     10  HN1 IND d   1       2.953   2.467  -2.367  0.00  0.00     0.298 HD
ENDROOT
TORSDOF 0
ENDMDL
