MODEL 1
REMARK minimizedAffinity 24.5271187
REMARK minimizedRMSD -1
REMARK  0 active torsions:
REMARK  status: ('A' for Active; 'I' for Inactive)
ROOT
ATOM      1  N1  IND d   1      -3.654   1.590  -4.868  0.00  0.00    -0.196 N 
ATOM      2  C2  IND d   1      -2.304   1.490  -4.675  0.00  0.00     0.054 A 
ATOM      3  C3  IND d   1      -1.700   2.666  -4.957  0.00  0.00    -0.031 A 
ATOM      4  C4  IND d   1      -2.743   4.915  -5.651  0.00  0.00     0.051 A 
ATOM      5  C5  IND d   1      -3.935   5.490  -5.991  0.00  0.00    -0.031 A 
ATOM      6  C6  IND d   1      -5.119   4.782  -5.971  0.00  0.00     0.015 A 
ATOM      7  C7  IND d   1      -5.156   3.468  -5.598  0.00  0.00    -0.016 A 
ATOM      8  C8  IND d   1      -3.946   2.878  -5.259  0.00  0.00    -0.047 A 
ATOM      9  C9  IND d   1      -2.736   3.581  -5.318  0.00  0.00    -0.096 A 
ATOM     10  HN1 IND d   1      -4.224   0.955  -4.763  0.00  0.00     0.298 HD
ENDROOT
TORSDOF 0
ENDMDL
