MODEL 1
REMARK minimizedAffinity 12.9362497
REMARK minimizedRMSD -1
REMARK  0 active torsions:
REMARK  status: ('A' for Active; 'I' for Inactive)
ROOT
ATOM      1  N1  IND d   1       4.180  -1.434  -0.184  0.00  0.00    -0.196 N 
ATOM      2  C2  IND d   1       4.389  -0.133  -0.548  0.00  0.00     0.054 A 
ATOM      3  C3  IND d   1       3.362   0.314  -1.306  0.00  0.00    -0.031 A 
ATOM      4  C4  IND d   1       1.188  -0.885  -1.986  0.00  0.00     0.051 A 
ATOM      5  C5  IND d   1       0.561  -2.098  -1.923  0.00  0.00    -0.031 A 
ATOM      6  C6  IND d   1       1.119  -3.173  -1.260  0.00  0.00     0.015 A 
ATOM      7  C7  IND d   1       2.324  -3.071  -0.625  0.00  0.00    -0.016 A 
ATOM      8  C8  IND d   1       2.966  -1.842  -0.693  0.00  0.00    -0.047 A 
ATOM      9  C9  IND d   1       2.426  -0.761  -1.400  0.00  0.00    -0.096 A 
ATOM     10  HN1 IND d   1       4.716  -1.917   0.284  0.00  0.00     0.298 HD
ENDROOT
TORSDOF 0
ENDMDL
