MODEL 1
REMARK minimizedAffinity 5.95083284
REMARK minimizedRMSD -1
REMARK  0 active torsions:
REMARK  status: ('A' for Active; 'I' for Inactive)
ROOT
ATOM      1  N1  IND d   1       2.914  -0.160  -1.152  0.00  0.00    -0.196 N 
ATOM      2  C2  IND d   1       2.053   0.767  -1.669  0.00  0.00     0.054 A 
ATOM      3  C3  IND d   1       0.890   0.179  -2.029  0.00  0.00    -0.031 A 
ATOM      4  C4  IND d   1       0.146  -2.271  -1.765  0.00  0.00     0.051 A 
ATOM      5  C5  IND d   1       0.603  -3.500  -1.379  0.00  0.00    -0.031 A 
ATOM      6  C6  IND d   1       1.878  -3.681  -0.885  0.00  0.00     0.015 A 
ATOM      7  C7  IND d   1       2.744  -2.634  -0.747  0.00  0.00    -0.016 A 
ATOM      8  C8  IND d   1       2.286  -1.386  -1.145  0.00  0.00    -0.047 A 
ATOM      9  C9  IND d   1       1.008  -1.203  -1.687  0.00  0.00    -0.096 A 
ATOM     10  HN1 IND d   1       3.714  -0.003  -0.877  0.00  0.00     0.298 HD
ENDROOT
TORSDOF 0
ENDMDL
