MODEL 1
REMARK minimizedAffinity 19.7005787
REMARK minimizedRMSD -1
REMARK  0 active torsions:
REMARK  status: ('A' for Active; 'I' for Inactive)
ROOT
ATOM      1  N1  IND d   1       1.780  -4.443  -0.560  0.00  0.00    -0.196 N 
ATOM      2  C2  IND d   1       1.685  -3.089  -0.399  0.00  0.00     0.054 A 
ATOM      3  C3  IND d   1       2.909  -2.520  -0.467  0.00  0.00    -0.031 A 
ATOM      4  C4  IND d   1       5.195  -3.607  -0.936  0.00  0.00     0.051 A 
ATOM      5  C5  IND d   1       5.793  -4.823  -1.113  0.00  0.00    -0.031 A 
ATOM      6  C6  IND d   1       5.069  -5.998  -1.118  0.00  0.00     0.015 A 
ATOM      7  C7  IND d   1       3.713  -6.000  -0.956  0.00  0.00    -0.016 A 
ATOM      8  C8  IND d   1       3.103  -4.768  -0.769  0.00  0.00    -0.047 A 
ATOM      9  C9  IND d   1       3.837  -3.576  -0.721  0.00  0.00    -0.096 A 
ATOM     10  HN1 IND d   1       1.125  -4.999  -0.535  0.00  0.00     0.298 HD
ENDROOT
TORSDOF 0
ENDMDL
