MODEL 1
REMARK minimizedAffinity 14.774435
REMARK minimizedRMSD -1
REMARK  0 active torsions:
REMARK  status: ('A' for Active; 'I' for Inactive)
ROOT
ATOM      1  N1  IND d   1       0.566  -2.813  -0.279  0.00  0.00    -0.196 N 
ATOM      2  C2  IND d   1      -0.351  -3.276  -1.181  0.00  0.00     0.054 A 
ATOM      3  C3  IND d   1      -0.364  -2.493  -2.283  0.00  0.00    -0.031 A 
ATOM      4  C4  IND d   1       1.107  -0.462  -2.863  0.00  0.00     0.051 A 
ATOM      5  C5  IND d   1       2.064   0.360  -2.338  0.00  0.00    -0.031 A 
ATOM      6  C6  IND d   1       2.583   0.161  -1.075  0.00  0.00     0.015 A 
ATOM      7  C7  IND d   1       2.171  -0.879  -0.291  0.00  0.00    -0.016 A 
ATOM      8  C8  IND d   1       1.194  -1.712  -0.819  0.00  0.00    -0.047 A 
ATOM      9  C9  IND d   1       0.633  -1.490  -2.083  0.00  0.00    -0.096 A 
ATOM     10  HN1 IND d   1       0.724  -3.153   0.495  0.00  0.00     0.298 HD
ENDROOT
TORSDOF 0
ENDMDL
