MODEL 1
REMARK minimizedAffinity 18.983242
REMARK minimizedRMSD -1
REMARK  0 active torsions:
REMARK  status: ('A' for Active; 'I' for Inactive)
ROOT
ATOM      1  N1  IND d   1       1.866   1.744  -2.693  0.00  0.00    -0.196 N 
ATOM      2  C2  IND d   1       1.308   0.677  -3.339  0.00  0.00     0.054 A 
ATOM      3  C3  IND d   1       1.840  -0.480  -2.884  0.00  0.00    -0.031 A 
ATOM      4  C4  IND d   1       3.566  -0.861  -1.012  0.00  0.00     0.051 A 
ATOM      5  C5  IND d   1       4.391  -0.190  -0.155  0.00  0.00    -0.031 A 
ATOM      6  C6  IND d   1       4.416   1.189  -0.096  0.00  0.00     0.015 A 
ATOM      7  C7  IND d   1       3.604   1.950  -0.889  0.00  0.00    -0.016 A 
ATOM      8  C8  IND d   1       2.769   1.272  -1.766  0.00  0.00    -0.047 A 
ATOM      9  C9  IND d   1       2.771  -0.126  -1.860  0.00  0.00    -0.096 A 
ATOM     10  HN1 IND d   1       1.684   2.571  -2.840  0.00  0.00     0.298 HD
ENDROOT
TORSDOF 0
ENDMDL
