MODEL 1
REMARK minimizedAffinity 19.3739433
REMARK minimizedRMSD -1
REMARK  0 active torsions:
REMARK  status: ('A' for Active; 'I' for Inactive)
ROOT
ATOM      1  N1  IND d   1       0.447  -1.059  -0.403  0.00  0.00    -0.196 N 
ATOM      2  C2  IND d   1       1.291  -0.007  -0.632  0.00  0.00     0.054 A 
ATOM      3  C3  IND d   1       1.870  -0.126  -1.847  0.00  0.00    -0.031 A 
ATOM      4  C4  IND d   1       1.504  -1.909  -3.668  0.00  0.00     0.051 A 
ATOM      5  C5  IND d   1       0.855  -3.088  -3.905  0.00  0.00    -0.031 A 
ATOM      6  C6  IND d   1       0.019  -3.662  -2.970  0.00  0.00     0.015 A 
ATOM      7  C7  IND d   1      -0.210  -3.068  -1.760  0.00  0.00    -0.016 A 
ATOM      8  C8  IND d   1       0.452  -1.874  -1.513  0.00  0.00    -0.047 A 
ATOM      9  C9  IND d   1       1.335  -1.309  -2.442  0.00  0.00    -0.096 A 
ATOM     10  HN1 IND d   1      -0.009  -1.189   0.314  0.00  0.00     0.298 HD
ENDROOT
TORSDOF 0
ENDMDL
