MODEL 1
REMARK minimizedAffinity 7.95803833
REMARK minimizedRMSD -1
REMARK  0 active torsions:
REMARK  status: ('A' for Active; 'I' for Inactive)
ROOT
ATOM      1  N1  IND d   1      -1.360   1.124   2.336  0.00  0.00    -0.196 N 
ATOM      2  C2  IND d   1      -2.623   1.556   2.628  0.00  0.00     0.054 A 
ATOM      3  C3  IND d   1      -2.725   1.855   3.943  0.00  0.00    -0.031 A 
ATOM      4  C4  IND d   1      -0.919   1.807   5.776  0.00  0.00     0.051 A 
ATOM      5  C5  IND d   1       0.380   1.446   6.000  0.00  0.00    -0.031 A 
ATOM      6  C6  IND d   1       1.183   0.952   4.992  0.00  0.00     0.015 A 
ATOM      7  C7  IND d   1       0.717   0.810   3.715  0.00  0.00    -0.016 A 
ATOM      8  C8  IND d   1      -0.604   1.169   3.486  0.00  0.00    -0.047 A 
ATOM      9  C9  IND d   1      -1.436   1.631   4.514  0.00  0.00    -0.096 A 
ATOM     10  HN1 IND d   1      -1.084   0.867   1.563  0.00  0.00     0.298 HD
ENDROOT
TORSDOF 0
ENDMDL
