MODEL 1
REMARK minimizedAffinity 16.330843
REMARK minimizedRMSD -1
REMARK  0 active torsions:
REMARK  status: ('A' for Active; 'I' for Inactive)
ROOT
ATOM      1  N1  IND d   1      -0.872   1.136   1.026  0.00  0.00    -0.196 N 
ATOM      2  C2  IND d   1       0.411   1.095   1.497  0.00  0.00     0.054 A 
ATOM      3  C3  IND d   1       0.423   1.237   2.841  0.00  0.00    -0.031 A 
ATOM      4  C4  IND d   1      -1.550   1.450   4.482  0.00  0.00     0.051 A 
ATOM      5  C5  IND d   1      -2.910   1.573   4.520  0.00  0.00    -0.031 A 
ATOM      6  C6  IND d   1      -3.677   1.554   3.373  0.00  0.00     0.015 A 
ATOM      7  C7  IND d   1      -3.109   1.399   2.139  0.00  0.00    -0.016 A 
ATOM      8  C8  IND d   1      -1.727   1.280   2.096  0.00  0.00    -0.047 A 
ATOM      9  C9  IND d   1      -0.941   1.342   3.254  0.00  0.00    -0.096 A 
ATOM     10  HN1 IND d   1      -1.105   1.082   0.200  0.00  0.00     0.298 HD
ENDROOT
TORSDOF 0
ENDMDL
