MODEL 1
REMARK minimizedAffinity -0.999690831
REMARK minimizedRMSD -1
REMARK  2 active torsions:
REMARK  status: ('A' for Active; 'I' for Inactive)
REMARK    1  A    between atoms: C1_2  and  C2_3 
REMARK    2  A    between atoms: C2_3  and  C3_4 
ROOT
ATOM      1  C3  UNL d   1       4.922  -0.784   4.049  0.00  0.00    -0.075 A 
ATOM      2  C4  UNL d   1       5.889  -0.722   5.062  0.00  0.00     0.002 A 
ATOM      3  C5  UNL d   1       6.000  -1.749   6.000  0.00  0.00     0.002 A 
ATOM      4  C6  UNL d   1       5.141  -2.844   5.942  0.00  0.00    -0.004 A 
ATOM      5  C7  UNL d   1       4.165  -2.908   4.950  0.00  0.00     0.002 A 
ATOM      6  C8  UNL d   1       4.055  -1.884   4.008  0.00  0.00     0.002 A 
ENDROOT
BRANCH   1   7
ATOM      7  C2  UNL d   1       4.816   0.310   3.014  0.00  0.00     0.056 C 
BRANCH   7   8
ATOM      8  C1  UNL d   1       3.456   1.015   2.988  0.00  0.00     0.007 C 
ATOM      9  C   UNL d   1       3.374   2.124   1.947  0.00  0.00     0.009 C 
ENDBRANCH   7   8
ENDBRANCH   1   7
TORSDOF 2
ENDMDL
