MODEL 1
REMARK minimizedAffinity -3.93545222
REMARK minimizedRMSD -1
REMARK  2 active torsions:
REMARK  status: ('A' for Active; 'I' for Inactive)
REMARK    1  A    between atoms: C1_2  and  C2_3 
REMARK    2  A    between atoms: C2_3  and  C3_4 
ROOT
ATOM      1  C3  UNL d   1      -1.690   0.637   1.811  0.00  0.00    -0.075 A 
ATOM      2  C4  UNL d   1      -1.803  -0.334   2.816  0.00  0.00     0.002 A 
ATOM      3  C5  UNL d   1      -2.429  -0.032   4.026  0.00  0.00     0.002 A 
ATOM      4  C6  UNL d   1      -2.940   1.244   4.249  0.00  0.00    -0.004 A 
ATOM      5  C7  UNL d   1      -2.819   2.222   3.264  0.00  0.00     0.002 A 
ATOM      6  C8  UNL d   1      -2.197   1.922   2.051  0.00  0.00     0.002 A 
ENDROOT
BRANCH   1   7
ATOM      7  C2  UNL d   1      -1.040   0.309   0.488  0.00  0.00     0.056 C 
BRANCH   7   8
ATOM      8  C1  UNL d   1      -0.698  -1.175   0.313  0.00  0.00     0.007 C 
ATOM      9  C   UNL d   1       0.702  -1.407  -0.239  0.00  0.00     0.009 C 
ENDBRANCH   7   8
ENDBRANCH   1   7
TORSDOF 2
ENDMDL
