MODEL 1
REMARK minimizedAffinity 1.88333881
REMARK minimizedRMSD -1
REMARK  2 active torsions:
REMARK  status: ('A' for Active; 'I' for Inactive)
REMARK    1  A    between atoms: C1_2  and  C2_3 
REMARK    2  A    between atoms: C2_3  and  C3_4 
ROOT
ATOM      1  C3  UNL d   1      -0.083  -1.946  -0.879  0.00  0.00    -0.075 A 
ATOM      2  C4  UNL d   1      -0.433  -0.835  -0.098  0.00  0.00     0.002 A 
ATOM      3  C5  UNL d   1      -0.091   0.454  -0.507  0.00  0.00     0.002 A 
ATOM      4  C6  UNL d   1       0.613   0.648  -1.693  0.00  0.00    -0.004 A 
ATOM      5  C7  UNL d   1       0.981  -0.449  -2.468  0.00  0.00     0.002 A 
ATOM      6  C8  UNL d   1       0.636  -1.740  -2.064  0.00  0.00     0.002 A 
ENDROOT
BRANCH   1   7
ATOM      7  C2  UNL d   1      -0.475  -3.342  -0.457  0.00  0.00     0.056 C 
BRANCH   7   8
ATOM      8  C1  UNL d   1      -1.936  -3.696  -0.755  0.00  0.00     0.007 C 
ATOM      9  C   UNL d   1      -2.301  -5.121  -0.360  0.00  0.00     0.009 C 
ENDBRANCH   7   8
ENDBRANCH   1   7
TORSDOF 2
ENDMDL
