MODEL 1
REMARK minimizedAffinity 5.83664083
REMARK minimizedRMSD -1
REMARK  2 active torsions:
REMARK  status: ('A' for Active; 'I' for Inactive)
REMARK    1  A    between atoms: C1_2  and  C2_3 
REMARK    2  A    between atoms: C2_3  and  C3_4 
ROOT
ATOM      1  C3  UNL d   1       4.535   1.281   3.445  0.00  0.00    -0.075 A 
ATOM      2  C4  UNL d   1       4.460   0.003   2.872  0.00  0.00     0.002 A 
ATOM      3  C5  UNL d   1       5.137  -1.073   3.448  0.00  0.00     0.002 A 
ATOM      4  C6  UNL d   1       5.905  -0.883   4.595  0.00  0.00    -0.004 A 
ATOM      5  C7  UNL d   1       6.000   0.386   5.163  0.00  0.00     0.002 A 
ATOM      6  C8  UNL d   1       5.320   1.462   4.592  0.00  0.00     0.002 A 
ENDROOT
BRANCH   1   7
ATOM      7  C2  UNL d   1       3.781   2.442   2.844  0.00  0.00     0.056 C 
BRANCH   7   8
ATOM      8  C1  UNL d   1       4.596   3.737   2.757  0.00  0.00     0.007 C 
ATOM      9  C   UNL d   1       4.238   4.592   1.548  0.00  0.00     0.009 C 
ENDBRANCH   7   8
ENDBRANCH   1   7
TORSDOF 2
ENDMDL
