MODEL 1
REMARK minimizedAffinity -1.02800739
REMARK minimizedRMSD -1
REMARK  2 active torsions:
REMARK  status: ('A' for Active; 'I' for Inactive)
REMARK    1  A    between atoms: C1_2  and  C2_3 
REMARK    2  A    between atoms: C2_3  and  C3_4 
ROOT
ATOM      1  C3  UNL d   1       5.947  -2.042  -5.168  0.00  0.00    -0.075 A 
ATOM      2  C4  UNL d   1       6.000  -2.105  -3.768  0.00  0.00     0.002 A 
ATOM      3  C5  UNL d   1       5.967  -0.938  -3.004  0.00  0.00     0.002 A 
ATOM      4  C6  UNL d   1       5.891   0.305  -3.629  0.00  0.00    -0.004 A 
ATOM      5  C7  UNL d   1       5.855   0.381  -5.019  0.00  0.00     0.002 A 
ATOM      6  C8  UNL d   1       5.884  -0.786  -5.786  0.00  0.00     0.002 A 
ENDROOT
BRANCH   1   7
ATOM      7  C2  UNL d   1       5.953  -3.302  -5.999  0.00  0.00     0.056 C 
BRANCH   7   8
ATOM      8  C1  UNL d   1       5.527  -4.558  -5.231  0.00  0.00     0.007 C 
ATOM      9  C   UNL d   1       5.927  -5.852  -5.927  0.00  0.00     0.009 C 
ENDBRANCH   7   8
ENDBRANCH   1   7
TORSDOF 2
ENDMDL
