MODEL 1
REMARK minimizedAffinity -5.84004831
REMARK minimizedRMSD -1
REMARK  2 active torsions:
REMARK  status: ('A' for Active; 'I' for Inactive)
REMARK    1  A    between atoms: C1_2  and  C2_3 
REMARK    2  A    between atoms: C2_3  and  C3_4 
ROOT
ATOM      1  C3  UNL d   1      -3.327   3.138   5.027  0.00  0.00    -0.075 A 
ATOM      2  C4  UNL d   1      -3.516   4.131   5.999  0.00  0.00     0.002 A 
ATOM      3  C5  UNL d   1      -3.731   5.458   5.624  0.00  0.00     0.002 A 
ATOM      4  C6  UNL d   1      -3.750   5.810   4.276  0.00  0.00    -0.004 A 
ATOM      5  C7  UNL d   1      -3.547   4.834   3.302  0.00  0.00     0.002 A 
ATOM      6  C8  UNL d   1      -3.336   3.505   3.674  0.00  0.00     0.002 A 
ENDROOT
BRANCH   1   7
ATOM      7  C2  UNL d   1      -3.122   1.696   5.425  0.00  0.00     0.056 C 
BRANCH   7   8
ATOM      8  C1  UNL d   1      -3.508   0.688   4.337  0.00  0.00     0.007 C 
ATOM      9  C   UNL d   1      -2.943  -0.705   4.583  0.00  0.00     0.009 C 
ENDBRANCH   7   8
ENDBRANCH   1   7
TORSDOF 2
ENDMDL
