MODEL 1
REMARK minimizedAffinity 4.7235198
REMARK minimizedRMSD -1
REMARK  2 active torsions:
REMARK  status: ('A' for Active; 'I' for Inactive)
REMARK    1  A    between atoms: C1_2  and  C2_3 
REMARK    2  A    between atoms: C2_3  and  C3_4 
ROOT
ATOM      1  C3  UNL d   1       4.511   0.722   2.953  0.00  0.00    -0.075 A 
ATOM      2  C4  UNL d   1       4.531  -0.674   3.086  0.00  0.00     0.002 A 
ATOM      3  C5  UNL d   1       5.268  -1.277   4.106  0.00  0.00     0.002 A 
ATOM      4  C6  UNL d   1       5.999  -0.495   4.997  0.00  0.00    -0.004 A 
ATOM      5  C7  UNL d   1       6.000   0.891   4.864  0.00  0.00     0.002 A 
ATOM      6  C8  UNL d   1       5.260   1.498   3.847  0.00  0.00     0.002 A 
ENDROOT
BRANCH   1   7
ATOM      7  C2  UNL d   1       3.692   1.383   1.870  0.00  0.00     0.056 C 
BRANCH   7   8
ATOM      8  C1  UNL d   1       3.724   2.915   1.911  0.00  0.00     0.007 C 
ATOM      9  C   UNL d   1       2.668   3.561   1.024  0.00  0.00     0.009 C 
ENDBRANCH   7   8
ENDBRANCH   1   7
TORSDOF 2
ENDMDL
