MODEL 1
REMARK minimizedAffinity 6.43493366
REMARK minimizedRMSD -1
REMARK  2 active torsions:
REMARK  status: ('A' for Active; 'I' for Inactive)
REMARK    1  A    between atoms: C1_2  and  C2_3 
REMARK    2  A    between atoms: C2_3  and  C3_4 
ROOT
ATOM      1  C3  UNL d   1       1.586   0.361  -1.814  0.00  0.00    -0.075 A 
ATOM      2  C4  UNL d   1       2.924   0.744  -1.644  0.00  0.00     0.002 A 
ATOM      3  C5  UNL d   1       3.271   1.708  -0.697  0.00  0.00     0.002 A 
ATOM      4  C6  UNL d   1       2.285   2.308   0.083  0.00  0.00    -0.004 A 
ATOM      5  C7  UNL d   1       0.950   1.948  -0.089  0.00  0.00     0.002 A 
ATOM      6  C8  UNL d   1       0.601   0.980  -1.032  0.00  0.00     0.002 A 
ENDROOT
BRANCH   1   7
ATOM      7  C2  UNL d   1       1.208  -0.703  -2.816  0.00  0.00     0.056 C 
BRANCH   7   8
ATOM      8  C1  UNL d   1       1.746  -2.097  -2.479  0.00  0.00     0.007 C 
ATOM      9  C   UNL d   1       0.757  -3.213  -2.788  0.00  0.00     0.009 C 
ENDBRANCH   7   8
ENDBRANCH   1   7
TORSDOF 2
ENDMDL
