MODEL 1
REMARK minimizedAffinity 8.90586567
REMARK minimizedRMSD -1
REMARK  2 active torsions:
REMARK  status: ('A' for Active; 'I' for Inactive)
REMARK    1  A    between atoms: C1_2  and  C2_3 
REMARK    2  A    between atoms: C2_3  and  C3_4 
ROOT
ATOM      1  C3  UNL d   1       0.341  -0.932  -1.530  0.00  0.00    -0.075 A 
ATOM      2  C4  UNL d   1       0.491  -2.218  -2.070  0.00  0.00     0.002 A 
ATOM      3  C5  UNL d   1       0.903  -2.388  -3.391  0.00  0.00     0.002 A 
ATOM      4  C6  UNL d   1       1.161  -1.277  -4.192  0.00  0.00    -0.004 A 
ATOM      5  C7  UNL d   1       1.000   0.005  -3.671  0.00  0.00     0.002 A 
ATOM      6  C8  UNL d   1       0.592   0.178  -2.348  0.00  0.00     0.002 A 
ENDROOT
BRANCH   1   7
ATOM      7  C2  UNL d   1      -0.076  -0.742  -0.091  0.00  0.00     0.056 C 
BRANCH   7   8
ATOM      8  C1  UNL d   1      -0.833  -1.935   0.502  0.00  0.00     0.007 C 
ATOM      9  C   UNL d   1      -0.926  -1.892   2.021  0.00  0.00     0.009 C 
ENDBRANCH   7   8
ENDBRANCH   1   7
TORSDOF 2
ENDMDL
