MODEL 1
REMARK minimizedAffinity 10.0603123
REMARK minimizedRMSD -1
REMARK  2 active torsions:
REMARK  status: ('A' for Active; 'I' for Inactive)
REMARK    1  A    between atoms: C1_2  and  C2_3 
REMARK    2  A    between atoms: C2_3  and  C3_4 
ROOT
ATOM      1  C3  UNL d   1       1.278  -0.232  -2.739  0.00  0.00    -0.075 A 
ATOM      2  C4  UNL d   1       1.149   0.912  -3.540  0.00  0.00     0.002 A 
ATOM      3  C5  UNL d   1       0.600   2.083  -3.018  0.00  0.00     0.002 A 
ATOM      4  C6  UNL d   1       0.164   2.123  -1.695  0.00  0.00    -0.004 A 
ATOM      5  C7  UNL d   1       0.273   0.987  -0.896  0.00  0.00     0.002 A 
ATOM      6  C8  UNL d   1       0.826  -0.185  -1.414  0.00  0.00     0.002 A 
ENDROOT
BRANCH   1   7
ATOM      7  C2  UNL d   1       1.899  -1.494  -3.290  0.00  0.00     0.056 C 
BRANCH   7   8
ATOM      8  C1  UNL d   1       0.880  -2.521  -3.796  0.00  0.00     0.007 C 
ATOM      9  C   UNL d   1       0.429  -3.500  -2.720  0.00  0.00     0.009 C 
ENDBRANCH   7   8
ENDBRANCH   1   7
TORSDOF 2
ENDMDL
