MODEL 1
REMARK minimizedAffinity 0.106168486
REMARK minimizedRMSD -1
REMARK  2 active torsions:
REMARK  status: ('A' for Active; 'I' for Inactive)
REMARK    1  A    between atoms: C1_2  and  C2_3 
REMARK    2  A    between atoms: C2_3  and  C3_4 
ROOT
ATOM      1  C3  UNL d   1       5.255   3.232  -5.000  0.00  0.00    -0.075 A 
ATOM      2  C4  UNL d   1       4.018   3.709  -5.457  0.00  0.00     0.002 A 
ATOM      3  C5  UNL d   1       3.369   4.748  -4.788  0.00  0.00     0.002 A 
ATOM      4  C6  UNL d   1       3.941   5.313  -3.651  0.00  0.00    -0.004 A 
ATOM      5  C7  UNL d   1       5.162   4.836  -3.179  0.00  0.00     0.002 A 
ATOM      6  C8  UNL d   1       5.816   3.800  -3.848  0.00  0.00     0.002 A 
ENDROOT
BRANCH   1   7
ATOM      7  C2  UNL d   1       5.976   2.128  -5.736  0.00  0.00     0.056 C 
BRANCH   7   8
ATOM      8  C1  UNL d   1       5.311   0.754  -5.609  0.00  0.00     0.007 C 
ATOM      9  C   UNL d   1       5.946  -0.124  -4.539  0.00  0.00     0.009 C 
ENDBRANCH   7   8
ENDBRANCH   1   7
TORSDOF 2
ENDMDL
