MODEL 1
REMARK minimizedAffinity 8.01582432
REMARK minimizedRMSD -1
REMARK  2 active torsions:
REMARK  status: ('A' for Active; 'I' for Inactive)
REMARK    1  A    between atoms: C1_2  and  C2_3 
REMARK    2  A    between atoms: C2_3  and  C3_4 
ROOT
ATOM      1  C3  UNL d   1       3.635   3.699  -5.313  0.00  0.00    -0.075 A 
ATOM      2  C4  UNL d   1       2.962   2.678  -4.626  0.00  0.00     0.002 A 
ATOM      3  C5  UNL d   1       1.568   2.616  -4.638  0.00  0.00     0.002 A 
ATOM      4  C6  UNL d   1       0.831   3.577  -5.327  0.00  0.00    -0.004 A 
ATOM      5  C7  UNL d   1       1.489   4.605  -5.999  0.00  0.00     0.002 A 
ATOM      6  C8  UNL d   1       2.884   4.667  -5.993  0.00  0.00     0.002 A 
ENDROOT
BRANCH   1   7
ATOM      7  C2  UNL d   1       5.144   3.754  -5.328  0.00  0.00     0.056 C 
BRANCH   7   8
ATOM      8  C1  UNL d   1       5.821   2.458  -4.872  0.00  0.00     0.007 C 
ATOM      9  C   UNL d   1       5.999   1.445  -5.996  0.00  0.00     0.009 C 
ENDBRANCH   7   8
ENDBRANCH   1   7
TORSDOF 2
ENDMDL
