MODEL 1
REMARK minimizedAffinity 8.16447163
REMARK minimizedRMSD -1
REMARK  2 active torsions:
REMARK  status: ('A' for Active; 'I' for Inactive)
REMARK    1  A    between atoms: C1_2  and  C2_3 
REMARK    2  A    between atoms: C2_3  and  C3_4 
ROOT
ATOM      1  C3  UNL d   1       3.802   4.001  -5.038  0.00  0.00    -0.075 A 
ATOM      2  C4  UNL d   1       3.001   2.850  -5.035  0.00  0.00     0.002 A 
ATOM      3  C5  UNL d   1       1.693   2.896  -5.517  0.00  0.00     0.002 A 
ATOM      4  C6  UNL d   1       1.166   4.093  -5.997  0.00  0.00    -0.004 A 
ATOM      5  C7  UNL d   1       1.947   5.246  -5.989  0.00  0.00     0.002 A 
ATOM      6  C8  UNL d   1       3.258   5.202  -5.512  0.00  0.00     0.002 A 
ENDROOT
BRANCH   1   7
ATOM      7  C2  UNL d   1       5.229   3.951  -4.545  0.00  0.00     0.056 C 
BRANCH   7   8
ATOM      8  C1  UNL d   1       6.000   2.705  -4.993  0.00  0.00     0.007 C 
ATOM      9  C   UNL d   1       6.000   1.593  -3.953  0.00  0.00     0.009 C 
ENDBRANCH   7   8
ENDBRANCH   1   7
TORSDOF 2
ENDMDL
