MODEL 1
REMARK minimizedAffinity 9.23439407
REMARK minimizedRMSD -1
REMARK  2 active torsions:
REMARK  status: ('A' for Active; 'I' for Inactive)
REMARK    1  A    between atoms: C1_2  and  C2_3 
REMARK    2  A    between atoms: C2_3  and  C3_4 
ROOT
ATOM      1  C3  UNL d   1       4.035   4.786  -4.246  0.00  0.00    -0.075 A 
ATOM      2  C4  UNL d   1       5.166   3.956  -4.244  0.00  0.00     0.002 A 
ATOM      3  C5  UNL d   1       5.252   2.873  -5.120  0.00  0.00     0.002 A 
ATOM      4  C6  UNL d   1       4.207   2.601  -6.000  0.00  0.00    -0.004 A 
ATOM      5  C7  UNL d   1       3.072   3.409  -5.999  0.00  0.00     0.002 A 
ATOM      6  C8  UNL d   1       2.985   4.495  -5.127  0.00  0.00     0.002 A 
ENDROOT
BRANCH   1   7
ATOM      7  C2  UNL d   1       3.949   5.976  -3.321  0.00  0.00     0.056 C 
BRANCH   7   8
ATOM      8  C1  UNL d   1       3.987   5.614  -1.833  0.00  0.00     0.007 C 
ATOM      9  C   UNL d   1       2.623   5.231  -1.273  0.00  0.00     0.009 C 
ENDBRANCH   7   8
ENDBRANCH   1   7
TORSDOF 2
ENDMDL
