MODEL 1
REMARK minimizedAffinity 0.232188776
REMARK minimizedRMSD -1
REMARK  2 active torsions:
REMARK  status: ('A' for Active; 'I' for Inactive)
REMARK    1  A    between atoms: C1_2  and  C2_3 
REMARK    2  A    between atoms: C2_3  and  C3_4 
ROOT
ATOM      1  C3  UNL d   1       0.900   0.221  -0.746  0.00  0.00    -0.075 A 
ATOM      2  C4  UNL d   1       1.951   0.519   0.135  0.00  0.00     0.002 A 
ATOM      3  C5  UNL d   1       2.487   1.805   0.188  0.00  0.00     0.002 A 
ATOM      4  C6  UNL d   1       1.990   2.806  -0.644  0.00  0.00    -0.004 A 
ATOM      5  C7  UNL d   1       0.958   2.518  -1.534  0.00  0.00     0.002 A 
ATOM      6  C8  UNL d   1       0.415   1.232  -1.586  0.00  0.00     0.002 A 
ENDROOT
BRANCH   1   7
ATOM      7  C2  UNL d   1       0.295  -1.161  -0.787  0.00  0.00     0.056 C 
BRANCH   7   8
ATOM      8  C1  UNL d   1       1.080  -2.210   0.009  0.00  0.00     0.007 C 
ATOM      9  C   UNL d   1       0.343  -2.698   1.249  0.00  0.00     0.009 C 
ENDBRANCH   7   8
ENDBRANCH   1   7
TORSDOF 2
ENDMDL
