MODEL 1
REMARK minimizedAffinity -2.83927655
REMARK minimizedRMSD -1
REMARK  0 active torsions:
REMARK  status: ('A' for Active; 'I' for Inactive)
ROOT
ATOM      1  C   UNL d   1       1.635  -2.688   1.115  0.00  0.00     0.172 C 
ATOM      2  N   UNL d   1       0.833  -1.529   0.800  0.00  0.00    -0.070 N 
ATOM      3  C1  UNL d   1      -0.427  -1.277   1.273  0.00  0.00    -0.004 A 
ATOM      4  C2  UNL d   1      -0.845  -0.076   0.742  0.00  0.00    -0.047 A 
ATOM      5  C3  UNL d   1       0.200   0.410  -0.080  0.00  0.00    -0.047 A 
ATOM      6  C4  UNL d   1       1.227  -0.509  -0.026  0.00  0.00    -0.004 A 
ENDROOT
TORSDOF 0
ENDMDL
