MODEL 1
REMARK minimizedAffinity -3.65831351
REMARK minimizedRMSD -1
REMARK  0 active torsions:
REMARK  status: ('A' for Active; 'I' for Inactive)
ROOT
ATOM      1  C   UNL d   1      -0.358  -0.224  -0.756  0.00  0.00     0.172 C 
ATOM      2  N   UNL d   1      -0.088  -0.875   0.504  0.00  0.00    -0.070 N 
ATOM      3  C1  UNL d   1      -0.820  -0.728   1.652  0.00  0.00    -0.004 A 
ATOM      4  C2  UNL d   1      -0.241  -1.513   2.626  0.00  0.00    -0.047 A 
ATOM      5  C3  UNL d   1       0.878  -2.153   2.043  0.00  0.00    -0.047 A 
ATOM      6  C4  UNL d   1       0.950  -1.741   0.730  0.00  0.00    -0.004 A 
ENDROOT
TORSDOF 0
ENDMDL
