MODEL 1
REMARK minimizedAffinity -3.78067207
REMARK minimizedRMSD -1
REMARK  0 active torsions:
REMARK  status: ('A' for Active; 'I' for Inactive)
ROOT
ATOM      1  C   UNL d   1      -0.216   0.182  -0.044  0.00  0.00     0.172 C 
ATOM      2  N   UNL d   1       0.214  -1.041   0.592  0.00  0.00    -0.070 N 
ATOM      3  C1  UNL d   1      -0.233  -1.514   1.797  0.00  0.00    -0.004 A 
ATOM      4  C2  UNL d   1       0.418  -2.702   2.052  0.00  0.00    -0.047 A 
ATOM      5  C3  UNL d   1       1.286  -2.951   0.963  0.00  0.00    -0.047 A 
ATOM      6  C4  UNL d   1       1.140  -1.907   0.074  0.00  0.00    -0.004 A 
ENDROOT
TORSDOF 0
ENDMDL
