MODEL 1
REMARK minimizedAffinity -3.69659448
REMARK minimizedRMSD -1
REMARK  0 active torsions:
REMARK  status: ('A' for Active; 'I' for Inactive)
ROOT
ATOM      1  C   UNL d   1      -0.885   1.372   0.139  0.00  0.00     0.172 C 
ATOM      2  N   UNL d   1      -1.202   1.379  -1.270  0.00  0.00    -0.070 N 
ATOM      3  C1  UNL d   1      -1.378   2.495  -2.043  0.00  0.00    -0.004 A 
ATOM      4  C2  UNL d   1      -1.665   2.079  -3.326  0.00  0.00    -0.047 A 
ATOM      5  C3  UNL d   1      -1.663   0.664  -3.322  0.00  0.00    -0.047 A 
ATOM      6  C4  UNL d   1      -1.373   0.257  -2.037  0.00  0.00    -0.004 A 
ENDROOT
TORSDOF 0
ENDMDL
