MODEL 1
REMARK minimizedAffinity -3.16156363
REMARK minimizedRMSD -1
REMARK  0 active torsions:
REMARK  status: ('A' for Active; 'I' for Inactive)
ROOT
ATOM      1  C   UNL d   1      -0.955   0.111   0.825  0.00  0.00     0.172 C 
ATOM      2  N   UNL d   1       0.064  -0.842   1.195  0.00  0.00    -0.070 N 
ATOM      3  C1  UNL d   1       1.201  -1.113   0.481  0.00  0.00    -0.004 A 
ATOM      4  C2  UNL d   1       1.910  -2.076   1.166  0.00  0.00    -0.047 A 
ATOM      5  C3  UNL d   1       1.174  -2.395   2.332  0.00  0.00    -0.047 A 
ATOM      6  C4  UNL d   1       0.035  -1.617   2.324  0.00  0.00    -0.004 A 
ENDROOT
TORSDOF 0
ENDMDL
