MODEL 1
REMARK minimizedAffinity -3.89315915
REMARK minimizedRMSD -1
REMARK  0 active torsions:
REMARK  status: ('A' for Active; 'I' for Inactive)
ROOT
ATOM      1  C   UNL d   1      -0.794  -0.104   0.741  0.00  0.00     0.172 C 
ATOM      2  N   UNL d   1       0.086  -1.202   1.065  0.00  0.00    -0.070 N 
ATOM      3  C1  UNL d   1       1.217  -1.549   0.375  0.00  0.00    -0.004 A 
ATOM      4  C2  UNL d   1       1.772  -2.645   0.998  0.00  0.00    -0.047 A 
ATOM      5  C3  UNL d   1       0.946  -2.969   2.101  0.00  0.00    -0.047 A 
ATOM      6  C4  UNL d   1      -0.090  -2.059   2.118  0.00  0.00    -0.004 A 
ENDROOT
TORSDOF 0
ENDMDL
