MODEL 1
REMARK minimizedAffinity -3.93760753
REMARK minimizedRMSD -1
REMARK  0 active torsions:
REMARK  status: ('A' for Active; 'I' for Inactive)
ROOT
ATOM      1  C   UNL d   1      -0.544   0.162  -0.016  0.00  0.00     0.172 C 
ATOM      2  N   UNL d   1       0.012  -0.952   0.715  0.00  0.00    -0.070 N 
ATOM      3  C1  UNL d   1       1.126  -1.665   0.359  0.00  0.00    -0.004 A 
ATOM      4  C2  UNL d   1       1.326  -2.639   1.313  0.00  0.00    -0.047 A 
ATOM      5  C3  UNL d   1       0.297  -2.508   2.275  0.00  0.00    -0.047 A 
ATOM      6  C4  UNL d   1      -0.502  -1.455   1.881  0.00  0.00    -0.004 A 
ENDROOT
TORSDOF 0
ENDMDL
