MODEL 1
REMARK minimizedAffinity -3.11607766
REMARK minimizedRMSD -1
REMARK  0 active torsions:
REMARK  status: ('A' for Active; 'I' for Inactive)
ROOT
ATOM      1  C   UNL d   1       1.236   0.256  -0.614  0.00  0.00     0.172 C 
ATOM      2  N   UNL d   1       0.977  -0.838   0.292  0.00  0.00    -0.070 N 
ATOM      3  C1  UNL d   1       1.926  -1.636   0.873  0.00  0.00    -0.004 A 
ATOM      4  C2  UNL d   1       1.275  -2.556   1.667  0.00  0.00    -0.047 A 
ATOM      5  C3  UNL d   1      -0.113  -2.303   1.558  0.00  0.00    -0.047 A 
ATOM      6  C4  UNL d   1      -0.269  -1.234   0.701  0.00  0.00    -0.004 A 
ENDROOT
TORSDOF 0
ENDMDL
