MODEL 1
REMARK minimizedAffinity -3.64245081
REMARK minimizedRMSD -1
REMARK  0 active torsions:
REMARK  status: ('A' for Active; 'I' for Inactive)
ROOT
ATOM      1  C   UNL d   1      -0.356   0.556   0.077  0.00  0.00     0.172 C 
ATOM      2  N   UNL d   1       0.232  -0.618   0.678  0.00  0.00    -0.070 N 
ATOM      3  C1  UNL d   1       1.456  -1.147   0.365  0.00  0.00    -0.004 A 
ATOM      4  C2  UNL d   1       1.649  -2.259   1.156  0.00  0.00    -0.047 A 
ATOM      5  C3  UNL d   1       0.502  -2.404   1.972  0.00  0.00    -0.047 A 
ATOM      6  C4  UNL d   1      -0.360  -1.374   1.655  0.00  0.00    -0.004 A 
ENDROOT
TORSDOF 0
ENDMDL
