MODEL 1
REMARK minimizedAffinity -1.86934078
REMARK minimizedRMSD -1
REMARK  0 active torsions:
REMARK  status: ('A' for Active; 'I' for Inactive)
ROOT
ATOM      1  C   UNL d   1      -1.129   1.536   0.407  0.00  0.00     0.172 C 
ATOM      2  N   UNL d   1      -1.611   1.551  -0.954  0.00  0.00    -0.070 N 
ATOM      3  C1  UNL d   1      -1.035   2.225  -1.998  0.00  0.00    -0.004 A 
ATOM      4  C2  UNL d   1      -1.792   1.987  -3.124  0.00  0.00    -0.047 A 
ATOM      5  C3  UNL d   1      -2.861   1.141  -2.744  0.00  0.00    -0.047 A 
ATOM      6  C4  UNL d   1      -2.725   0.887  -1.396  0.00  0.00    -0.004 A 
ENDROOT
TORSDOF 0
ENDMDL
