MODEL 1
REMARK minimizedAffinity -3.88369894
REMARK minimizedRMSD -1
REMARK  0 active torsions:
REMARK  status: ('A' for Active; 'I' for Inactive)
ROOT
ATOM      1  C   UNL d   1      -0.600   0.788   0.015  0.00  0.00     0.172 C 
ATOM      2  N   UNL d   1      -0.453  -0.504   0.643  0.00  0.00    -0.070 N 
ATOM      3  C1  UNL d   1       0.372  -1.510   0.218  0.00  0.00    -0.004 A 
ATOM      4  C2  UNL d   1       0.223  -2.572   1.082  0.00  0.00    -0.047 A 
ATOM      5  C3  UNL d   1      -0.726  -2.192   2.061  0.00  0.00    -0.047 A 
ATOM      6  C4  UNL d   1      -1.129  -0.907   1.765  0.00  0.00    -0.004 A 
ENDROOT
TORSDOF 0
ENDMDL
