MODEL 1
REMARK minimizedAffinity -3.88059354
REMARK minimizedRMSD -1
REMARK  0 active torsions:
REMARK  status: ('A' for Active; 'I' for Inactive)
ROOT
ATOM      1  C   UNL d   1      -0.827   0.638   1.090  0.00  0.00     0.172 C 
ATOM      2  N   UNL d   1      -0.055  -0.577   1.202  0.00  0.00    -0.070 N 
ATOM      3  C1  UNL d   1       0.805  -1.067   0.255  0.00  0.00    -0.004 A 
ATOM      4  C2  UNL d   1       1.343  -2.240   0.739  0.00  0.00    -0.047 A 
ATOM      5  C3  UNL d   1       0.786  -2.463   2.021  0.00  0.00    -0.047 A 
ATOM      6  C4  UNL d   1      -0.076  -1.419   2.282  0.00  0.00    -0.004 A 
ENDROOT
TORSDOF 0
ENDMDL
