MODEL 1
REMARK minimizedAffinity 1.56854892
REMARK minimizedRMSD -1
REMARK  1 active torsions:
REMARK  status: ('A' for Active; 'I' for Inactive)
REMARK    1  A    between atoms: C1_2  and  C2_3 
ROOT
ATOM      1  C2  UNL d   1       3.305   2.356   5.475  0.00  0.00    -0.081 A 
ATOM      2  C3  UNL d   1       2.006   2.375   5.998  0.00  0.00     0.006 A 
ATOM      3  C4  UNL d   1       1.258   3.555   5.993  0.00  0.00     0.002 A 
ATOM      4  C5  UNL d   1       1.793   4.732   5.458  0.00  0.00    -0.080 A 
ATOM      5  C6  UNL d   1       0.989   5.998   5.419  0.00  0.00     0.076 C 
ATOM      6  C7  UNL d   1       3.097   4.717   4.951  0.00  0.00     0.002 A 
ATOM      7  C8  UNL d   1       3.845   3.538   4.957  0.00  0.00     0.006 A 
ENDROOT
BRANCH   1   8
ATOM      8  C1  UNL d   1       4.090   1.070   5.420  0.00  0.00     0.054 C 
ATOM      9  C   UNL d   1       3.174  -0.130   5.233  0.00  0.00     0.018 C 
ENDBRANCH   1   8
TORSDOF 1
ENDMDL
