MODEL 1
REMARK minimizedAffinity 8.05265427
REMARK minimizedRMSD -1
REMARK  1 active torsions:
REMARK  status: ('A' for Active; 'I' for Inactive)
REMARK    1  A    between atoms: C1_2  and  C2_3 
ROOT
ATOM      1  C2  UNL d   1       1.436   5.040   5.611  0.00  0.00    -0.081 A 
ATOM      2  C3  UNL d   1       2.703   5.506   5.239  0.00  0.00     0.006 A 
ATOM      3  C4  UNL d   1       3.803   4.644   5.240  0.00  0.00     0.002 A 
ATOM      4  C5  UNL d   1       3.653   3.302   5.605  0.00  0.00    -0.080 A 
ATOM      5  C6  UNL d   1       4.819   2.360   5.581  0.00  0.00     0.076 C 
ATOM      6  C7  UNL d   1       2.390   2.841   5.993  0.00  0.00     0.002 A 
ATOM      7  C8  UNL d   1       1.291   3.702   5.993  0.00  0.00     0.006 A 
ENDROOT
BRANCH   1   8
ATOM      8  C1  UNL d   1       0.236   5.951   5.548  0.00  0.00     0.054 C 
ATOM      9  C   UNL d   1      -0.351   5.996   4.145  0.00  0.00     0.018 C 
ENDBRANCH   1   8
TORSDOF 1
ENDMDL
