MODEL 1
REMARK minimizedAffinity 0.574017823
REMARK minimizedRMSD -1
REMARK  1 active torsions:
REMARK  status: ('A' for Active; 'I' for Inactive)
REMARK    1  A    between atoms: C1_2  and  C2_3 
ROOT
ATOM      1  C2  UNL d   1       2.296   1.035   5.607  0.00  0.00    -0.081 A 
ATOM      2  C3  UNL d   1       1.385   2.023   5.998  0.00  0.00     0.006 A 
ATOM      3  C4  UNL d   1       1.739   3.374   5.950  0.00  0.00     0.002 A 
ATOM      4  C5  UNL d   1       3.008   3.759   5.503  0.00  0.00    -0.080 A 
ATOM      5  C6  UNL d   1       3.391   5.206   5.417  0.00  0.00     0.076 C 
ATOM      6  C7  UNL d   1       3.925   2.771   5.128  0.00  0.00     0.002 A 
ATOM      7  C8  UNL d   1       3.571   1.421   5.177  0.00  0.00     0.006 A 
ENDROOT
BRANCH   1   8
ATOM      8  C1  UNL d   1       1.895  -0.417   5.596  0.00  0.00     0.054 C 
ATOM      9  C   UNL d   1       2.142  -1.050   4.234  0.00  0.00     0.018 C 
ENDBRANCH   1   8
TORSDOF 1
ENDMDL
