MODEL 1
REMARK minimizedAffinity -0.797924578
REMARK minimizedRMSD -1
REMARK  1 active torsions:
REMARK  status: ('A' for Active; 'I' for Inactive)
REMARK    1  A    between atoms: C1_2  and  C2_3 
ROOT
ATOM      1  C2  UNL d   1       3.702   4.144   5.943  0.00  0.00    -0.081 A 
ATOM      2  C3  UNL d   1       4.768   3.235   5.962  0.00  0.00     0.006 A 
ATOM      3  C4  UNL d   1       4.525   1.860   5.993  0.00  0.00     0.002 A 
ATOM      4  C5  UNL d   1       3.215   1.370   5.997  0.00  0.00    -0.080 A 
ATOM      5  C6  UNL d   1       2.941  -0.105   5.999  0.00  0.00     0.076 C 
ATOM      6  C7  UNL d   1       2.150   2.278   5.996  0.00  0.00     0.002 A 
ATOM      7  C8  UNL d   1       2.392   3.653   5.966  0.00  0.00     0.006 A 
ENDROOT
BRANCH   1   8
ATOM      8  C1  UNL d   1       3.960   5.625   5.845  0.00  0.00     0.054 C 
ATOM      9  C   UNL d   1       4.678   5.977   4.550  0.00  0.00     0.018 C 
ENDBRANCH   1   8
TORSDOF 1
ENDMDL
