MODEL 1
REMARK minimizedAffinity -2.32386613
REMARK minimizedRMSD -1
REMARK  1 active torsions:
REMARK  status: ('A' for Active; 'I' for Inactive)
REMARK    1  A    between atoms: C1_2  and  C2_3 
ROOT
ATOM      1  C2  UNL d   1       1.907   4.356   5.926  0.00  0.00    -0.081 A 
ATOM      2  C3  UNL d   1       2.193   2.986   5.985  0.00  0.00     0.006 A 
ATOM      3  C4  UNL d   1       3.516   2.537   5.976  0.00  0.00     0.002 A 
ATOM      4  C5  UNL d   1       4.574   3.450   5.916  0.00  0.00    -0.080 A 
ATOM      5  C6  UNL d   1       6.000   2.983   5.937  0.00  0.00     0.076 C 
ATOM      6  C7  UNL d   1       4.289   4.817   5.839  0.00  0.00     0.002 A 
ATOM      7  C8  UNL d   1       2.966   5.267   5.847  0.00  0.00     0.006 A 
ENDROOT
BRANCH   1   8
ATOM      8  C1  UNL d   1       0.484   4.846   6.000  0.00  0.00     0.054 C 
ATOM      9  C   UNL d   1       0.243   5.996   5.033  0.00  0.00     0.018 C 
ENDBRANCH   1   8
TORSDOF 1
ENDMDL
