MODEL 1
REMARK minimizedAffinity 1.76955342
REMARK minimizedRMSD -1
REMARK  1 active torsions:
REMARK  status: ('A' for Active; 'I' for Inactive)
REMARK    1  A    between atoms: C1_2  and  C2_3 
ROOT
ATOM      1  C2  UNL d   1       2.878   0.236   5.159  0.00  0.00    -0.081 A 
ATOM      2  C3  UNL d   1       2.101   1.042   6.000  0.00  0.00     0.006 A 
ATOM      3  C4  UNL d   1       2.264   2.429   5.999  0.00  0.00     0.002 A 
ATOM      4  C5  UNL d   1       3.200   3.034   5.153  0.00  0.00    -0.080 A 
ATOM      5  C6  UNL d   1       3.364   4.524   5.121  0.00  0.00     0.076 C 
ATOM      6  C7  UNL d   1       3.989   2.227   4.326  0.00  0.00     0.002 A 
ATOM      7  C8  UNL d   1       3.826   0.839   4.326  0.00  0.00     0.006 A 
ENDROOT
BRANCH   1   8
ATOM      8  C1  UNL d   1       2.659  -1.255   5.110  0.00  0.00     0.054 C 
ATOM      9  C   UNL d   1       2.367  -1.725   3.693  0.00  0.00     0.018 C 
ENDBRANCH   1   8
TORSDOF 1
ENDMDL
