MODEL 1
REMARK minimizedAffinity 4.79925537
REMARK minimizedRMSD -1
REMARK  1 active torsions:
REMARK  status: ('A' for Active; 'I' for Inactive)
REMARK    1  A    between atoms: C1_2  and  C2_3 
ROOT
ATOM      1  C2  UNL d   1       2.529   4.374   5.515  0.00  0.00    -0.081 A 
ATOM      2  C3  UNL d   1       2.698   3.071   5.999  0.00  0.00     0.006 A 
ATOM      3  C4  UNL d   1       3.792   2.302   5.594  0.00  0.00     0.002 A 
ATOM      4  C5  UNL d   1       4.737   2.825   4.705  0.00  0.00    -0.080 A 
ATOM      5  C6  UNL d   1       5.931   2.021   4.285  0.00  0.00     0.076 C 
ATOM      6  C7  UNL d   1       4.558   4.120   4.207  0.00  0.00     0.002 A 
ATOM      7  C8  UNL d   1       3.465   4.889   4.612  0.00  0.00     0.006 A 
ENDROOT
BRANCH   1   8
ATOM      8  C1  UNL d   1       1.386   5.229   6.000  0.00  0.00     0.054 C 
ATOM      9  C   UNL d   1       0.690   5.932   4.843  0.00  0.00     0.018 C 
ENDBRANCH   1   8
TORSDOF 1
ENDMDL
