MODEL 1
REMARK minimizedAffinity -6.09839106
REMARK minimizedRMSD -1
REMARK  0 active torsions:
REMARK  status: ('A' for Active; 'I' for Inactive)
ROOT
ATOM      1  O1  BZF d   1      -0.152  -0.774   0.596  0.00  0.00    -0.204 OA
ATOM      2  C2  BZF d   1      -0.147   0.559   0.962  0.00  0.00     0.174 A 
ATOM      3  C3  BZF d   1       0.598   1.287   0.105  0.00  0.00    -0.012 A 
ATOM      4  C3A BZF d   1       1.014   0.366  -0.908  0.00  0.00    -0.107 A 
ATOM      5  C4  BZF d   1       1.764   0.494  -2.042  0.00  0.00     0.055 A 
ATOM      6  C5  BZF d   1       2.047  -0.614  -2.775  0.00  0.00    -0.016 A 
ATOM      7  C6  BZF d   1       1.601  -1.865  -2.402  0.00  0.00     0.022 A 
ATOM      8  C7  BZF d   1       0.850  -2.041  -1.288  0.00  0.00     0.029 A 
ATOM      9  C7A BZF d   1       0.534  -0.918  -0.563  0.00  0.00     0.058 A 
ENDROOT
TORSDOF 0
ENDMDL
