MODEL 1
REMARK minimizedAffinity -2.04015183
REMARK minimizedRMSD -1
REMARK  0 active torsions:
REMARK  status: ('A' for Active; 'I' for Inactive)
ROOT
ATOM      1  O1  BZF d   1      -0.238  -1.324   1.556  0.00  0.00    -0.204 OA
ATOM      2  C2  BZF d   1      -0.461   0.009   1.841  0.00  0.00     0.174 A 
ATOM      3  C3  BZF d   1      -0.352   0.760   0.726  0.00  0.00    -0.012 A 
ATOM      4  C3A BZF d   1      -0.132  -0.172  -0.337  0.00  0.00    -0.107 A 
ATOM      5  C4  BZF d   1       0.039  -0.036  -1.685  0.00  0.00     0.055 A 
ATOM      6  C5  BZF d   1       0.305  -1.140  -2.431  0.00  0.00    -0.016 A 
ATOM      7  C6  BZF d   1       0.412  -2.392  -1.863  0.00  0.00     0.022 A 
ATOM      8  C7  BZF d   1       0.246  -2.578  -0.531  0.00  0.00     0.029 A 
ATOM      9  C7A BZF d   1      -0.056  -1.469   0.222  0.00  0.00     0.058 A 
ENDROOT
TORSDOF 0
ENDMDL
