MODEL 1
REMARK minimizedAffinity -5.23696804
REMARK minimizedRMSD -1
REMARK  0 active torsions:
REMARK  status: ('A' for Active; 'I' for Inactive)
ROOT
ATOM      1  O1  BZF d   1       0.254  -0.685   0.427  0.00  0.00    -0.204 OA
ATOM      2  C2  BZF d   1       0.046   0.662   0.651  0.00  0.00     0.174 A 
ATOM      3  C3  BZF d   1       0.575   1.401  -0.346  0.00  0.00    -0.012 A 
ATOM      4  C3A BZF d   1       1.069   0.451  -1.296  0.00  0.00    -0.107 A 
ATOM      5  C4  BZF d   1       1.690   0.571  -2.506  0.00  0.00     0.055 A 
ATOM      6  C5  BZF d   1       2.110  -0.552  -3.146  0.00  0.00    -0.016 A 
ATOM      7  C6  BZF d   1       1.931  -1.807  -2.604  0.00  0.00     0.022 A 
ATOM      8  C7  BZF d   1       1.315  -1.976  -1.408  0.00  0.00     0.029 A 
ATOM      9  C7A BZF d   1       0.860  -0.846  -0.774  0.00  0.00     0.058 A 
ENDROOT
TORSDOF 0
ENDMDL
