MODEL 1
REMARK minimizedAffinity -3.18442416
REMARK minimizedRMSD -1
REMARK  0 active torsions:
REMARK  status: ('A' for Active; 'I' for Inactive)
ROOT
ATOM      1  O1  BZF d   1       1.125  -1.585  -2.558  0.00  0.00    -0.204 OA
ATOM      2  C2  BZF d   1       1.458  -0.362  -3.108  0.00  0.00     0.174 A 
ATOM      3  C3  BZF d   1       1.149   0.643  -2.263  0.00  0.00    -0.012 A 
ATOM      4  C3A BZF d   1       0.673   0.002  -1.075  0.00  0.00    -0.107 A 
ATOM      5  C4  BZF d   1       0.229   0.469   0.129  0.00  0.00     0.055 A 
ATOM      6  C5  BZF d   1      -0.234  -0.417   1.050  0.00  0.00    -0.016 A 
ATOM      7  C6  BZF d   1      -0.271  -1.773   0.799  0.00  0.00     0.022 A 
ATOM      8  C7  BZF d   1       0.163  -2.283  -0.379  0.00  0.00     0.029 A 
ATOM      9  C7A BZF d   1       0.662  -1.394  -1.299  0.00  0.00     0.058 A 
ENDROOT
TORSDOF 0
ENDMDL
