MODEL 1
REMARK minimizedAffinity -6.36597967
REMARK minimizedRMSD -1
REMARK  0 active torsions:
REMARK  status: ('A' for Active; 'I' for Inactive)
ROOT
ATOM      1  O1  BZF d   1      -0.427  -1.029   0.419  0.00  0.00    -0.204 OA
ATOM      2  C2  BZF d   1      -0.640   0.312   0.675  0.00  0.00     0.174 A 
ATOM      3  C3  BZF d   1       0.072   1.080  -0.175  0.00  0.00    -0.012 A 
ATOM      4  C3A BZF d   1       0.702   0.162  -1.074  0.00  0.00    -0.107 A 
ATOM      5  C4  BZF d   1       1.527   0.320  -2.151  0.00  0.00     0.055 A 
ATOM      6  C5  BZF d   1       2.026  -0.784  -2.768  0.00  0.00    -0.016 A 
ATOM      7  C6  BZF d   1       1.725  -2.058  -2.331  0.00  0.00     0.022 A 
ATOM      8  C7  BZF d   1       0.907  -2.264  -1.271  0.00  0.00     0.029 A 
ATOM      9  C7A BZF d   1       0.375  -1.152  -0.666  0.00  0.00     0.058 A 
ENDROOT
TORSDOF 0
ENDMDL
