MODEL 1
REMARK minimizedAffinity -5.26674223
REMARK minimizedRMSD -1
REMARK  0 active torsions:
REMARK  status: ('A' for Active; 'I' for Inactive)
ROOT
ATOM      1  O1  BZF d   1      -0.102  -1.302   0.551  0.00  0.00    -0.204 OA
ATOM      2  C2  BZF d   1      -0.362   0.018   0.868  0.00  0.00     0.174 A 
ATOM      3  C3  BZF d   1       0.289   0.849   0.030  0.00  0.00    -0.012 A 
ATOM      4  C3A BZF d   1       0.927  -0.004  -0.926  0.00  0.00    -0.107 A 
ATOM      5  C4  BZF d   1       1.709   0.231  -2.020  0.00  0.00     0.055 A 
ATOM      6  C5  BZF d   1       2.233  -0.824  -2.697  0.00  0.00    -0.016 A 
ATOM      7  C6  BZF d   1       1.999  -2.126  -2.305  0.00  0.00     0.022 A 
ATOM      8  C7  BZF d   1       1.226  -2.410  -1.229  0.00  0.00     0.029 A 
ATOM      9  C7A BZF d   1       0.668  -1.346  -0.563  0.00  0.00     0.058 A 
ENDROOT
TORSDOF 0
ENDMDL
