MODEL 1
REMARK minimizedAffinity -4.68079042
REMARK minimizedRMSD -1
REMARK  0 active torsions:
REMARK  status: ('A' for Active; 'I' for Inactive)
ROOT
ATOM      1  O1  BZF d   1      -0.879  -1.617   0.612  0.00  0.00    -0.204 OA
ATOM      2  C2  BZF d   1      -1.104  -0.690   1.611  0.00  0.00     0.174 A 
ATOM      3  C3  BZF d   1      -0.453   0.461   1.351  0.00  0.00    -0.012 A 
ATOM      4  C3A BZF d   1       0.147   0.273   0.066  0.00  0.00    -0.107 A 
ATOM      5  C4  BZF d   1       0.912   1.068  -0.739  0.00  0.00     0.055 A 
ATOM      6  C5  BZF d   1       1.399   0.557  -1.900  0.00  0.00    -0.016 A 
ATOM      7  C6  BZF d   1       1.147  -0.743  -2.284  0.00  0.00     0.022 A 
ATOM      8  C7  BZF d   1       0.389  -1.568  -1.521  0.00  0.00     0.029 A 
ATOM      9  C7A BZF d   1      -0.132  -1.045  -0.363  0.00  0.00     0.058 A 
ENDROOT
TORSDOF 0
ENDMDL
