MODEL 1
REMARK minimizedAffinity -4.71507311
REMARK minimizedRMSD -1
REMARK  0 active torsions:
REMARK  status: ('A' for Active; 'I' for Inactive)
ROOT
ATOM      1  O1  BZF d   1      -0.107  -0.389   0.314  0.00  0.00    -0.204 OA
ATOM      2  C2  BZF d   1       0.050   0.979   0.428  0.00  0.00     0.174 A 
ATOM      3  C3  BZF d   1       0.869   1.448  -0.535  0.00  0.00    -0.012 A 
ATOM      4  C3A BZF d   1       1.174   0.316  -1.355  0.00  0.00    -0.107 A 
ATOM      5  C4  BZF d   1       1.929   0.147  -2.480  0.00  0.00     0.055 A 
ATOM      6  C5  BZF d   1       2.081  -1.102  -2.993  0.00  0.00    -0.016 A 
ATOM      7  C6  BZF d   1       1.498  -2.204  -2.403  0.00  0.00     0.022 A 
ATOM      8  C7  BZF d   1       0.736  -2.087  -1.288  0.00  0.00     0.029 A 
ATOM      9  C7A BZF d   1       0.553  -0.821  -0.787  0.00  0.00     0.058 A 
ENDROOT
TORSDOF 0
ENDMDL
