MODEL 1
REMARK minimizedAffinity -2.58883739
REMARK minimizedRMSD -1
REMARK  0 active torsions:
REMARK  status: ('A' for Active; 'I' for Inactive)
ROOT
ATOM      1  O1  BZF d   1       1.455   1.712  -1.256  0.00  0.00    -0.204 OA
ATOM      2  C2  BZF d   1       1.873   0.960  -2.336  0.00  0.00     0.174 A 
ATOM      3  C3  BZF d   1       1.557  -0.340  -2.164  0.00  0.00    -0.012 A 
ATOM      4  C3A BZF d   1       0.819  -0.390  -0.939  0.00  0.00    -0.107 A 
ATOM      5  C4  BZF d   1       0.222  -1.401  -0.243  0.00  0.00     0.055 A 
ATOM      6  C5  BZF d   1      -0.355  -1.127   0.956  0.00  0.00    -0.016 A 
ATOM      7  C6  BZF d   1      -0.348   0.144   1.492  0.00  0.00     0.022 A 
ATOM      8  C7  BZF d   1       0.229   1.181   0.836  0.00  0.00     0.029 A 
ATOM      9  C7A BZF d   1       0.783   0.914  -0.392  0.00  0.00     0.058 A 
ENDROOT
TORSDOF 0
ENDMDL
