MODEL 1
REMARK minimizedAffinity -3.61924911
REMARK minimizedRMSD -1
REMARK  0 active torsions:
REMARK  status: ('A' for Active; 'I' for Inactive)
ROOT
ATOM      1  O1  BZF d   1       0.494   1.114  -0.668  0.00  0.00    -0.204 OA
ATOM      2  C2  BZF d   1       0.859   0.644  -1.915  0.00  0.00     0.174 A 
ATOM      3  C3  BZF d   1       0.947  -0.702  -1.912  0.00  0.00    -0.012 A 
ATOM      4  C3A BZF d   1       0.526  -1.103  -0.605  0.00  0.00    -0.107 A 
ATOM      5  C4  BZF d   1       0.382  -2.317   0.004  0.00  0.00     0.055 A 
ATOM      6  C5  BZF d   1       0.022  -2.361   1.313  0.00  0.00    -0.016 A 
ATOM      7  C6  BZF d   1      -0.197  -1.213   2.045  0.00  0.00     0.022 A 
ATOM      8  C7  BZF d   1      -0.072   0.015   1.484  0.00  0.00     0.029 A 
ATOM      9  C7A BZF d   1       0.260   0.062   0.152  0.00  0.00     0.058 A 
ENDROOT
TORSDOF 0
ENDMDL
