MODEL 1
REMARK minimizedAffinity 1.08033288
REMARK minimizedRMSD -1
REMARK  0 active torsions:
REMARK  status: ('A' for Active; 'I' for Inactive)
ROOT
ATOM      1  O1  BZF d   1       2.493   0.771  -1.615  0.00  0.00    -0.204 OA
ATOM      2  C2  BZF d   1       2.267  -0.016  -2.728  0.00  0.00     0.174 A 
ATOM      3  C3  BZF d   1       1.138  -0.739  -2.581  0.00  0.00    -0.012 A 
ATOM      4  C3A BZF d   1       0.578  -0.313  -1.335  0.00  0.00    -0.107 A 
ATOM      5  C4  BZF d   1      -0.552  -0.655  -0.648  0.00  0.00     0.055 A 
ATOM      6  C5  BZF d   1      -0.771  -0.107   0.576  0.00  0.00    -0.016 A 
ATOM      7  C6  BZF d   1       0.119   0.779   1.145  0.00  0.00     0.022 A 
ATOM      8  C7  BZF d   1       1.251   1.153   0.500  0.00  0.00     0.029 A 
ATOM      9  C7A BZF d   1       1.459   0.626  -0.752  0.00  0.00     0.058 A 
ENDROOT
TORSDOF 0
ENDMDL
