MODEL 1
REMARK minimizedAffinity -2.43469524
REMARK minimizedRMSD -1
REMARK  0 active torsions:
REMARK  status: ('A' for Active; 'I' for Inactive)
ROOT
ATOM      1  O1  BZF d   1      -3.130   0.926  -5.844  0.00  0.00    -0.204 OA
ATOM      2  C2  BZF d   1      -4.083  -0.062  -5.997  0.00  0.00     0.174 A 
ATOM      3  C3  BZF d   1      -5.324   0.441  -5.838  0.00  0.00    -0.012 A 
ATOM      4  C3A BZF d   1      -5.139   1.849  -5.660  0.00  0.00    -0.107 A 
ATOM      5  C4  BZF d   1      -6.000   2.892  -5.470  0.00  0.00     0.055 A 
ATOM      6  C5  BZF d   1      -5.494   4.135  -5.257  0.00  0.00    -0.016 A 
ATOM      7  C6  BZF d   1      -4.135   4.370  -5.223  0.00  0.00     0.022 A 
ATOM      8  C7  BZF d   1      -3.242   3.368  -5.412  0.00  0.00     0.029 A 
ATOM      9  C7A BZF d   1      -3.751   2.116  -5.659  0.00  0.00     0.058 A 
ENDROOT
TORSDOF 0
ENDMDL
