MODEL 1
REMARK minimizedAffinity -5.30153799
REMARK minimizedRMSD -1
REMARK  0 active torsions:
REMARK  status: ('A' for Active; 'I' for Inactive)
ROOT
ATOM      1  O1  BZF d   1       0.417  -1.920  -0.515  0.00  0.00    -0.204 OA
ATOM      2  C2  BZF d   1      -0.147  -2.082   0.736  0.00  0.00     0.174 A 
ATOM      3  C3  BZF d   1      -0.033  -0.951   1.462  0.00  0.00    -0.012 A 
ATOM      4  C3A BZF d   1       0.562   0.005   0.579  0.00  0.00    -0.107 A 
ATOM      5  C4  BZF d   1       0.914   1.317   0.715  0.00  0.00     0.055 A 
ATOM      6  C5  BZF d   1       1.541   1.943  -0.315  0.00  0.00    -0.016 A 
ATOM      7  C6  BZF d   1       1.837   1.287  -1.492  0.00  0.00     0.022 A 
ATOM      8  C7  BZF d   1       1.504  -0.014  -1.676  0.00  0.00     0.029 A 
ATOM      9  C7A BZF d   1       0.840  -0.640  -0.649  0.00  0.00     0.058 A 
ENDROOT
TORSDOF 0
ENDMDL
