MODEL 1
REMARK minimizedAffinity -5.0516305
REMARK minimizedRMSD -1
REMARK  0 active torsions:
REMARK  status: ('A' for Active; 'I' for Inactive)
ROOT
ATOM      1  O1  BZF d   1      -0.356  -0.902   0.256  0.00  0.00    -0.204 OA
ATOM      2  C2  BZF d   1      -0.602   0.162   1.101  0.00  0.00     0.174 A 
ATOM      3  C3  BZF d   1      -0.081   1.301   0.601  0.00  0.00    -0.012 A 
ATOM      4  C3A BZF d   1       0.448   0.942  -0.679  0.00  0.00    -0.107 A 
ATOM      5  C4  BZF d   1       1.078   1.646  -1.665  0.00  0.00     0.055 A 
ATOM      6  C5  BZF d   1       1.534   0.984  -2.761  0.00  0.00    -0.016 A 
ATOM      7  C6  BZF d   1       1.382  -0.380  -2.901  0.00  0.00     0.022 A 
ATOM      8  C7  BZF d   1       0.758  -1.120  -1.952  0.00  0.00     0.029 A 
ATOM      9  C7A BZF d   1       0.267  -0.449  -0.859  0.00  0.00     0.058 A 
ENDROOT
TORSDOF 0
ENDMDL
