MODEL 1
REMARK minimizedAffinity -1.41325021
REMARK minimizedRMSD -1
REMARK  0 active torsions:
REMARK  status: ('A' for Active; 'I' for Inactive)
ROOT
ATOM      1  O1  BZF d   1       1.804  -1.106  -1.702  0.00  0.00    -0.204 OA
ATOM      2  C2  BZF d   1       2.715  -0.167  -2.143  0.00  0.00     0.174 A 
ATOM      3  C3  BZF d   1       2.531   1.011  -1.513  0.00  0.00    -0.012 A 
ATOM      4  C3A BZF d   1       1.496   0.768  -0.555  0.00  0.00    -0.107 A 
ATOM      5  C4  BZF d   1       0.883   1.548   0.383  0.00  0.00     0.055 A 
ATOM      6  C5  BZF d   1      -0.141   1.027   1.108  0.00  0.00    -0.016 A 
ATOM      7  C6  BZF d   1      -0.581  -0.267   0.918  0.00  0.00     0.022 A 
ATOM      8  C7  BZF d   1      -0.000  -1.081   0.003  0.00  0.00     0.029 A 
ATOM      9  C7A BZF d   1       1.057  -0.567  -0.709  0.00  0.00     0.058 A 
ENDROOT
TORSDOF 0
ENDMDL
