MODEL 1
REMARK minimizedAffinity -2.37576008
REMARK minimizedRMSD -1
REMARK  0 active torsions:
REMARK  status: ('A' for Active; 'I' for Inactive)
ROOT
ATOM      1  O1  BZF d   1      -3.856   3.210   3.749  0.00  0.00    -0.204 OA
ATOM      2  C2  BZF d   1      -2.906   3.578   4.682  0.00  0.00     0.174 A 
ATOM      3  C3  BZF d   1      -1.813   2.794   4.588  0.00  0.00    -0.012 A 
ATOM      4  C3A BZF d   1      -2.060   1.938   3.468  0.00  0.00    -0.107 A 
ATOM      5  C4  BZF d   1      -1.336   0.950   2.864  0.00  0.00     0.055 A 
ATOM      6  C5  BZF d   1      -1.893   0.256   1.837  0.00  0.00    -0.016 A 
ATOM      7  C6  BZF d   1      -3.172   0.521   1.392  0.00  0.00     0.022 A 
ATOM      8  C7  BZF d   1      -3.927   1.495   1.956  0.00  0.00     0.029 A 
ATOM      9  C7A BZF d   1      -3.354   2.219   2.973  0.00  0.00     0.058 A 
ENDROOT
TORSDOF 0
ENDMDL
