MODEL 1
REMARK minimizedAffinity 0.397392839
REMARK minimizedRMSD -1
REMARK  0 active torsions:
REMARK  status: ('A' for Active; 'I' for Inactive)
ROOT
ATOM      1  O1  BZF d   1       1.733  -1.589  -0.182  0.00  0.00    -0.204 OA
ATOM      2  C2  BZF d   1       2.692  -2.113  -1.027  0.00  0.00     0.174 A 
ATOM      3  C3  BZF d   1       3.134  -1.175  -1.889  0.00  0.00    -0.012 A 
ATOM      4  C3A BZF d   1       2.473   0.034  -1.502  0.00  0.00    -0.107 A 
ATOM      5  C4  BZF d   1       2.512   1.316  -1.968  0.00  0.00     0.055 A 
ATOM      6  C5  BZF d   1       1.689   2.246  -1.416  0.00  0.00    -0.016 A 
ATOM      7  C6  BZF d   1       0.811   1.926  -0.400  0.00  0.00     0.022 A 
ATOM      8  C7  BZF d   1       0.740   0.668   0.099  0.00  0.00     0.029 A 
ATOM      9  C7A BZF d   1       1.595  -0.266  -0.435  0.00  0.00     0.058 A 
ENDROOT
TORSDOF 0
ENDMDL
