MODEL 1
REMARK minimizedAffinity -3.14437819
REMARK minimizedRMSD -1
REMARK  0 active torsions:
REMARK  status: ('A' for Active; 'I' for Inactive)
ROOT
ATOM      1  O1  BZF d   1      -0.311  -1.073   0.351  0.00  0.00    -0.204 OA
ATOM      2  C2  BZF d   1      -0.473   0.246   0.729  0.00  0.00     0.174 A 
ATOM      3  C3  BZF d   1       0.283   1.059  -0.037  0.00  0.00    -0.012 A 
ATOM      4  C3A BZF d   1       0.889   0.203  -1.010  0.00  0.00    -0.107 A 
ATOM      5  C4  BZF d   1       1.737   0.424  -2.057  0.00  0.00     0.055 A 
ATOM      6  C5  BZF d   1       2.200  -0.637  -2.768  0.00  0.00    -0.016 A 
ATOM      7  C6  BZF d   1       1.841  -1.932  -2.457  0.00  0.00     0.022 A 
ATOM      8  C7  BZF d   1       0.999  -2.201  -1.430  0.00  0.00     0.029 A 
ATOM      9  C7A BZF d   1       0.503  -1.129  -0.730  0.00  0.00     0.058 A 
ENDROOT
TORSDOF 0
ENDMDL
