MODEL 1
REMARK minimizedAffinity -6.35355759
REMARK minimizedRMSD -1
REMARK  0 active torsions:
REMARK  status: ('A' for Active; 'I' for Inactive)
ROOT
ATOM      1  O1  BZF d   1      -0.233  -1.039   0.728  0.00  0.00    -0.204 OA
ATOM      2  C2  BZF d   1      -0.255   0.286   1.118  0.00  0.00     0.174 A 
ATOM      3  C3  BZF d   1       0.512   1.037   0.302  0.00  0.00    -0.012 A 
ATOM      4  C3A BZF d   1       0.973   0.140  -0.713  0.00  0.00    -0.107 A 
ATOM      5  C4  BZF d   1       1.761   0.297  -1.818  0.00  0.00     0.055 A 
ATOM      6  C5  BZF d   1       2.080  -0.795  -2.561  0.00  0.00    -0.016 A 
ATOM      7  C6  BZF d   1       1.634  -2.057  -2.227  0.00  0.00     0.022 A 
ATOM      8  C7  BZF d   1       0.846  -2.261  -1.143  0.00  0.00     0.029 A 
ATOM      9  C7A BZF d   1       0.494  -1.155  -0.409  0.00  0.00     0.058 A 
ENDROOT
TORSDOF 0
ENDMDL
