MODEL 1
REMARK minimizedAffinity -5.32929659
REMARK minimizedRMSD -1
REMARK  0 active torsions:
REMARK  status: ('A' for Active; 'I' for Inactive)
ROOT
ATOM      1  O1  BZF d   1      -0.540  -0.911   0.547  0.00  0.00    -0.204 OA
ATOM      2  C2  BZF d   1      -0.259   0.228   1.277  0.00  0.00     0.174 A 
ATOM      3  C3  BZF d   1       0.677   0.975   0.657  0.00  0.00    -0.012 A 
ATOM      4  C3A BZF d   1       0.935   0.304  -0.581  0.00  0.00    -0.107 A 
ATOM      5  C4  BZF d   1       1.758   0.568  -1.638  0.00  0.00     0.055 A 
ATOM      6  C5  BZF d   1       1.828  -0.325  -2.659  0.00  0.00    -0.016 A 
ATOM      7  C6  BZF d   1       1.094  -1.493  -2.654  0.00  0.00     0.022 A 
ATOM      8  C7  BZF d   1       0.260  -1.796  -1.630  0.00  0.00     0.029 A 
ATOM      9  C7A BZF d   1       0.162  -0.879  -0.611  0.00  0.00     0.058 A 
ENDROOT
TORSDOF 0
ENDMDL
