MODEL 1
REMARK minimizedAffinity -2.46988893
REMARK minimizedRMSD -1
REMARK  1 active torsions:
REMARK  status: ('A' for Active; 'I' for Inactive)
REMARK    1  A    between atoms: N_2  and  C1_3 
ROOT
ATOM      1  C1  UNL d   1      -0.809  -0.217   1.301  0.00  0.00     0.143 A 
ATOM      2  C2  UNL d   1      -2.046   0.186   0.787  0.00  0.00    -0.057 A 
ATOM      3  C3  UNL d   1      -2.131   0.969  -0.371  0.00  0.00     0.033 A 
ATOM      4  C4  UNL d   1      -0.975   1.387  -1.021  0.00  0.00    -0.042 A 
ATOM      5  C5  UNL d   1       0.266   1.019  -0.514  0.00  0.00     0.033 A 
ATOM      6  C6  UNL d   1       0.344   0.232   0.639  0.00  0.00    -0.057 A 
ENDROOT
BRANCH   1   7
ATOM      7  N   UNL d   1      -0.656  -0.912   2.503  0.00  0.00    -0.732 N 
ATOM      8  C   UNL d   1      -0.398  -0.202   3.737  0.00  0.00     0.284 C 
ATOM      9  H3  UNL d   1      -1.318  -1.679   2.595  0.00  0.00     0.395 HD
ENDBRANCH   1   7
TORSDOF 1
ENDMDL
