MODEL 1
REMARK minimizedAffinity -5.21837807
REMARK minimizedRMSD -1
REMARK  1 active torsions:
REMARK  status: ('A' for Active; 'I' for Inactive)
REMARK    1  A    between atoms: N_2  and  C1_3 
ROOT
ATOM      1  C1  UNL d   1      -0.109   0.025   0.090  0.00  0.00     0.143 A 
ATOM      2  C2  UNL d   1      -1.143  -0.447   0.906  0.00  0.00    -0.057 A 
ATOM      3  C3  UNL d   1      -0.951  -0.643   2.279  0.00  0.00     0.033 A 
ATOM      4  C4  UNL d   1       0.290  -0.398   2.857  0.00  0.00    -0.042 A 
ATOM      5  C5  UNL d   1       1.338   0.048   2.060  0.00  0.00     0.033 A 
ATOM      6  C6  UNL d   1       1.139   0.249   0.691  0.00  0.00    -0.057 A 
ENDROOT
BRANCH   1   7
ATOM      7  N   UNL d   1      -0.208   0.147  -1.298  0.00  0.00    -0.732 N 
ATOM      8  C   UNL d   1       0.758  -0.493  -2.165  0.00  0.00     0.284 C 
ATOM      9  H3  UNL d   1      -1.169   0.081  -1.627  0.00  0.00     0.395 HD
ENDBRANCH   1   7
TORSDOF 1
ENDMDL
