MODEL 1
REMARK minimizedAffinity -1.58140171
REMARK minimizedRMSD -1
REMARK  1 active torsions:
REMARK  status: ('A' for Active; 'I' for Inactive)
REMARK    1  A    between atoms: N_2  and  C1_3 
ROOT
ATOM      1  C1  UNL d   1       0.466  -0.681  -0.066  0.00  0.00     0.143 A 
ATOM      2  C2  UNL d   1       1.052   0.229   0.821  0.00  0.00    -0.057 A 
ATOM      3  C3  UNL d   1       0.660   0.289   2.163  0.00  0.00     0.033 A 
ATOM      4  C4  UNL d   1      -0.350  -0.542   2.637  0.00  0.00    -0.042 A 
ATOM      5  C5  UNL d   1      -0.964  -1.437   1.767  0.00  0.00     0.033 A 
ATOM      6  C6  UNL d   1      -0.562  -1.497   0.429  0.00  0.00    -0.057 A 
ENDROOT
BRANCH   1   7
ATOM      7  N   UNL d   1       0.744  -0.721  -1.435  0.00  0.00    -0.732 N 
ATOM      8  C   UNL d   1       1.181  -1.949  -2.062  0.00  0.00     0.284 C 
ATOM      9  H3  UNL d   1       0.071  -0.191  -1.984  0.00  0.00     0.395 HD
ENDBRANCH   1   7
TORSDOF 1
ENDMDL
