MODEL 1
REMARK minimizedAffinity -3.753088
REMARK minimizedRMSD -1
REMARK  1 active torsions:
REMARK  status: ('A' for Active; 'I' for Inactive)
REMARK    1  A    between atoms: N_2  and  C1_3 
ROOT
ATOM      1  C1  UNL d   1       0.030   0.166   0.117  0.00  0.00     0.143 A 
ATOM      2  C2  UNL d   1      -0.971  -0.754   0.449  0.00  0.00    -0.057 A 
ATOM      3  C3  UNL d   1      -1.240  -1.084   1.783  0.00  0.00     0.033 A 
ATOM      4  C4  UNL d   1      -0.492  -0.520   2.810  0.00  0.00    -0.042 A 
ATOM      5  C5  UNL d   1       0.525   0.378   2.503  0.00  0.00     0.033 A 
ATOM      6  C6  UNL d   1       0.785   0.708   1.169  0.00  0.00    -0.057 A 
ENDROOT
BRANCH   1   7
ATOM      7  N   UNL d   1       0.412   0.461  -1.194  0.00  0.00    -0.732 N 
ATOM      8  C   UNL d   1       0.366  -0.557  -2.222  0.00  0.00     0.284 C 
ATOM      9  H3  UNL d   1       0.083   1.374  -1.498  0.00  0.00     0.395 HD
ENDBRANCH   1   7
TORSDOF 1
ENDMDL
