MODEL 1
REMARK minimizedAffinity -2.98016691
REMARK minimizedRMSD -1
REMARK  1 active torsions:
REMARK  status: ('A' for Active; 'I' for Inactive)
REMARK    1  A    between atoms: N_2  and  C1_3 
ROOT
ATOM      1  C1  UNL d   1      -0.175  -0.095  -0.620  0.00  0.00     0.143 A 
ATOM      2  C2  UNL d   1       0.712  -0.026   0.459  0.00  0.00    -0.057 A 
ATOM      3  C3  UNL d   1       0.309  -0.373   1.754  0.00  0.00     0.033 A 
ATOM      4  C4  UNL d   1      -1.002  -0.768   1.998  0.00  0.00    -0.042 A 
ATOM      5  C5  UNL d   1      -1.908  -0.820   0.945  0.00  0.00     0.033 A 
ATOM      6  C6  UNL d   1      -1.497  -0.479  -0.347  0.00  0.00    -0.057 A 
ENDROOT
BRANCH   1   7
ATOM      7  N   UNL d   1       0.138   0.331  -1.913  0.00  0.00    -0.732 N 
ATOM      8  C   UNL d   1       0.600  -0.613  -2.908  0.00  0.00     0.284 C 
ATOM      9  H3  UNL d   1      -0.524   1.017  -2.268  0.00  0.00     0.395 HD
ENDBRANCH   1   7
TORSDOF 1
ENDMDL
