MODEL 1
REMARK minimizedAffinity -1.60955691
REMARK minimizedRMSD -1
REMARK  1 active torsions:
REMARK  status: ('A' for Active; 'I' for Inactive)
REMARK    1  A    between atoms: N_2  and  C1_3 
ROOT
ATOM      1  C1  UNL d   1       0.331  -0.223  -0.210  0.00  0.00     0.143 A 
ATOM      2  C2  UNL d   1      -0.966  -0.748  -0.249  0.00  0.00    -0.057 A 
ATOM      3  C3  UNL d   1      -1.746  -0.842   0.909  0.00  0.00     0.033 A 
ATOM      4  C4  UNL d   1      -1.231  -0.440   2.137  0.00  0.00    -0.042 A 
ATOM      5  C5  UNL d   1       0.064   0.062   2.204  0.00  0.00     0.033 A 
ATOM      6  C6  UNL d   1       0.836   0.160   1.042  0.00  0.00    -0.057 A 
ENDROOT
BRANCH   1   7
ATOM      7  N   UNL d   1       1.192  -0.194  -1.310  0.00  0.00    -0.732 N 
ATOM      8  C   UNL d   1       0.896  -0.965  -2.498  0.00  0.00     0.284 C 
ATOM      9  H3  UNL d   1       1.549   0.740  -1.499  0.00  0.00     0.395 HD
ENDBRANCH   1   7
TORSDOF 1
ENDMDL
