MODEL 1
REMARK minimizedAffinity -3.87143993
REMARK minimizedRMSD -1
REMARK  1 active torsions:
REMARK  status: ('A' for Active; 'I' for Inactive)
REMARK    1  A    between atoms: N_2  and  C1_3 
ROOT
ATOM      1  C1  UNL d   1       0.018   0.020   0.238  0.00  0.00     0.143 A 
ATOM      2  C2  UNL d   1       0.714   0.650   1.275  0.00  0.00    -0.057 A 
ATOM      3  C3  UNL d   1       0.426   0.371   2.617  0.00  0.00     0.033 A 
ATOM      4  C4  UNL d   1      -0.587  -0.523   2.945  0.00  0.00    -0.042 A 
ATOM      5  C5  UNL d   1      -1.309  -1.142   1.931  0.00  0.00     0.033 A 
ATOM      6  C6  UNL d   1      -1.012  -0.865   0.593  0.00  0.00    -0.057 A 
ENDROOT
BRANCH   1   7
ATOM      7  N   UNL d   1       0.192   0.328  -1.114  0.00  0.00    -0.732 N 
ATOM      8  C   UNL d   1       0.806  -0.625  -2.014  0.00  0.00     0.284 C 
ATOM      9  H3  UNL d   1      -0.611   0.813  -1.508  0.00  0.00     0.395 HD
ENDBRANCH   1   7
TORSDOF 1
ENDMDL
