MODEL 1
REMARK minimizedAffinity -5.17269993
REMARK minimizedRMSD -1
REMARK  1 active torsions:
REMARK  status: ('A' for Active; 'I' for Inactive)
REMARK    1  A    between atoms: N_2  and  C1_3 
ROOT
ATOM      1  C1  UNL d   1      -1.163   0.307   0.242  0.00  0.00     0.143 A 
ATOM      2  C2  UNL d   1      -0.183   0.163   1.230  0.00  0.00    -0.057 A 
ATOM      3  C3  UNL d   1      -0.527  -0.126   2.556  0.00  0.00     0.033 A 
ATOM      4  C4  UNL d   1      -1.863  -0.247   2.925  0.00  0.00    -0.042 A 
ATOM      5  C5  UNL d   1      -2.854  -0.082   1.964  0.00  0.00     0.033 A 
ATOM      6  C6  UNL d   1      -2.505   0.199   0.640  0.00  0.00    -0.057 A 
ENDROOT
BRANCH   1   7
ATOM      7  N   UNL d   1      -0.890   0.692  -1.073  0.00  0.00    -0.732 N 
ATOM      8  C   UNL d   1       0.222   0.111  -1.795  0.00  0.00     0.284 C 
ATOM      9  H3  UNL d   1      -1.735   0.801  -1.629  0.00  0.00     0.395 HD
ENDBRANCH   1   7
TORSDOF 1
ENDMDL
