MODEL 1
REMARK minimizedAffinity -4.88949108
REMARK minimizedRMSD -1
REMARK  1 active torsions:
REMARK  status: ('A' for Active; 'I' for Inactive)
REMARK    1  A    between atoms: N_2  and  C1_3 
ROOT
ATOM      1  C1  UNL d   1       0.292  -0.123  -0.130  0.00  0.00     0.143 A 
ATOM      2  C2  UNL d   1      -0.846  -0.757   0.382  0.00  0.00    -0.057 A 
ATOM      3  C3  UNL d   1      -1.078  -0.830   1.760  0.00  0.00     0.033 A 
ATOM      4  C4  UNL d   1      -0.159  -0.293   2.656  0.00  0.00    -0.042 A 
ATOM      5  C5  UNL d   1       0.991   0.320   2.171  0.00  0.00     0.033 A 
ATOM      6  C6  UNL d   1       1.214   0.396   0.793  0.00  0.00    -0.057 A 
ENDROOT
BRANCH   1   7
ATOM      7  N   UNL d   1       0.628  -0.104  -1.486  0.00  0.00    -0.732 N 
ATOM      8  C   UNL d   1       0.662  -1.330  -2.254  0.00  0.00     0.284 C 
ATOM      9  H3  UNL d   1       0.213   0.684  -1.978  0.00  0.00     0.395 HD
ENDBRANCH   1   7
TORSDOF 1
ENDMDL
