MODEL 1
REMARK minimizedAffinity -3.41962814
REMARK minimizedRMSD -1
REMARK  1 active torsions:
REMARK  status: ('A' for Active; 'I' for Inactive)
REMARK    1  A    between atoms: N_2  and  C1_3 
ROOT
ATOM      1  C1  UNL d   1       0.108  -0.408  -1.514  0.00  0.00     0.143 A 
ATOM      2  C2  UNL d   1       1.062   0.510  -1.965  0.00  0.00    -0.057 A 
ATOM      3  C3  UNL d   1       1.847   0.246  -3.094  0.00  0.00     0.033 A 
ATOM      4  C4  UNL d   1       1.711  -0.958  -3.777  0.00  0.00    -0.042 A 
ATOM      5  C5  UNL d   1       0.787  -1.896  -3.332  0.00  0.00     0.033 A 
ATOM      6  C6  UNL d   1       0.001  -1.623  -2.208  0.00  0.00    -0.057 A 
ENDROOT
BRANCH   1   7
ATOM      7  N   UNL d   1      -0.634  -0.246  -0.341  0.00  0.00    -0.732 N 
ATOM      8  C   UNL d   1       0.013  -0.295   0.952  0.00  0.00     0.284 C 
ATOM      9  H3  UNL d   1      -1.340   0.481  -0.426  0.00  0.00     0.395 HD
ENDBRANCH   1   7
TORSDOF 1
ENDMDL
