MODEL 1
REMARK minimizedAffinity -3.63157344
REMARK minimizedRMSD -1
REMARK  1 active torsions:
REMARK  status: ('A' for Active; 'I' for Inactive)
REMARK    1  A    between atoms: N_2  and  C1_3 
ROOT
ATOM      1  C1  UNL d   1       0.163   0.009  -0.014  0.00  0.00     0.143 A 
ATOM      2  C2  UNL d   1       1.101   0.231   0.999  0.00  0.00    -0.057 A 
ATOM      3  C3  UNL d   1       0.764   0.070   2.349  0.00  0.00     0.033 A 
ATOM      4  C4  UNL d   1      -0.530  -0.290   2.710  0.00  0.00    -0.042 A 
ATOM      5  C5  UNL d   1      -1.486  -0.492   1.721  0.00  0.00     0.033 A 
ATOM      6  C6  UNL d   1      -1.141  -0.336   0.375  0.00  0.00    -0.057 A 
ENDROOT
BRANCH   1   7
ATOM      7  N   UNL d   1       0.410   0.248  -1.368  0.00  0.00    -0.732 N 
ATOM      8  C   UNL d   1       0.961  -0.791  -2.212  0.00  0.00     0.284 C 
ATOM      9  H3  UNL d   1      -0.329   0.792  -1.808  0.00  0.00     0.395 HD
ENDBRANCH   1   7
TORSDOF 1
ENDMDL
