MODEL 1
REMARK minimizedAffinity -4.69280815
REMARK minimizedRMSD -1
REMARK  1 active torsions:
REMARK  status: ('A' for Active; 'I' for Inactive)
REMARK    1  A    between atoms: N_2  and  C1_3 
ROOT
ATOM      1  C1  UNL d   1      -0.048  -0.016  -0.472  0.00  0.00     0.143 A 
ATOM      2  C2  UNL d   1       1.077   0.086   0.353  0.00  0.00    -0.057 A 
ATOM      3  C3  UNL d   1       1.002  -0.196   1.722  0.00  0.00     0.033 A 
ATOM      4  C4  UNL d   1      -0.212  -0.559   2.298  0.00  0.00    -0.042 A 
ATOM      5  C5  UNL d   1      -1.349  -0.642   1.502  0.00  0.00     0.033 A 
ATOM      6  C6  UNL d   1      -1.265  -0.365   0.134  0.00  0.00    -0.057 A 
ENDROOT
BRANCH   1   7
ATOM      7  N   UNL d   1      -0.059   0.347  -1.821  0.00  0.00    -0.732 N 
ATOM      8  C   UNL d   1       0.335  -0.600  -2.842  0.00  0.00     0.284 C 
ATOM      9  H3  UNL d   1      -0.872   0.908  -2.066  0.00  0.00     0.395 HD
ENDBRANCH   1   7
TORSDOF 1
ENDMDL
