MODEL 1
REMARK minimizedAffinity -4.57382059
REMARK minimizedRMSD -1
REMARK  1 active torsions:
REMARK  status: ('A' for Active; 'I' for Inactive)
REMARK    1  A    between atoms: N_2  and  C1_3 
ROOT
ATOM      1  C1  UNL d   1      -0.370   0.012  -0.128  0.00  0.00     0.143 A 
ATOM      2  C2  UNL d   1       0.563   0.172   0.902  0.00  0.00    -0.057 A 
ATOM      3  C3  UNL d   1       0.222  -0.081   2.236  0.00  0.00     0.033 A 
ATOM      4  C4  UNL d   1      -1.071  -0.471   2.568  0.00  0.00    -0.042 A 
ATOM      5  C5  UNL d   1      -2.022  -0.613   1.564  0.00  0.00     0.033 A 
ATOM      6  C6  UNL d   1      -1.673  -0.366   0.232  0.00  0.00    -0.057 A 
ENDROOT
BRANCH   1   7
ATOM      7  N   UNL d   1      -0.120   0.342  -1.462  0.00  0.00    -0.732 N 
ATOM      8  C   UNL d   1       0.245  -0.681  -2.419  0.00  0.00     0.284 C 
ATOM      9  H3  UNL d   1      -0.777   1.031  -1.821  0.00  0.00     0.395 HD
ENDBRANCH   1   7
TORSDOF 1
ENDMDL
