MODEL 1
REMARK minimizedAffinity 8.07127762
REMARK minimizedRMSD -1
REMARK  3 active torsions:
REMARK  status: ('A' for Active; 'I' for Inactive)
REMARK    1  A    between atoms: C3'_2  and  C2'_3 
REMARK    2  A    between atoms: C2'_3  and  C1'_4 
REMARK    3  A    between atoms: C1'_4  and  C1_5 
ROOT
ATOM      1  C1  N4B d   1      -0.877   3.573  -5.929  0.00  0.00    -0.075 A 
ATOM      2  C2  N4B d   1      -2.286   3.498  -5.988  0.00  0.00     0.002 A 
ATOM      3  C3  N4B d   1      -3.038   4.647  -5.935  0.00  0.00     0.002 A 
ATOM      4  C4  N4B d   1      -2.406   5.874  -5.804  0.00  0.00    -0.004 A 
ATOM      5  C5  N4B d   1      -1.044   5.940  -5.773  0.00  0.00     0.002 A 
ATOM      6  C6  N4B d   1      -0.276   4.795  -5.829  0.00  0.00     0.002 A 
ENDROOT
BRANCH   1   7
ATOM      7  C1' N4B d   1      -0.017   2.340  -5.897  0.00  0.00     0.057 C 
BRANCH   7   8
ATOM      8  C2' N4B d   1       1.449   2.749  -5.999  0.00  0.00     0.009 C 
BRANCH   8   9
ATOM      9  C3' N4B d   1       2.343   1.885  -5.126  0.00  0.00     0.004 C 
ATOM     10  C4' N4B d   1       2.161   2.156  -3.662  0.00  0.00     0.003 C 
ENDBRANCH   8   9
ENDBRANCH   7   8
ENDBRANCH   1   7
TORSDOF 3
ENDMDL
