MODEL 1
REMARK minimizedAffinity 1.13367629
REMARK minimizedRMSD -1
REMARK  3 active torsions:
REMARK  status: ('A' for Active; 'I' for Inactive)
REMARK    1  A    between atoms: C3'_2  and  C2'_3 
REMARK    2  A    between atoms: C2'_3  and  C1'_4 
REMARK    3  A    between atoms: C1'_4  and  C1_5 
ROOT
ATOM      1  C1  N4B d   1      -0.019   4.240  -4.571  0.00  0.00    -0.075 A 
ATOM      2  C2  N4B d   1      -0.437   5.137  -3.564  0.00  0.00     0.002 A 
ATOM      3  C3  N4B d   1      -1.479   6.000  -3.802  0.00  0.00     0.002 A 
ATOM      4  C4  N4B d   1      -2.102   5.998  -5.041  0.00  0.00    -0.004 A 
ATOM      5  C5  N4B d   1      -1.709   5.111  -6.000  0.00  0.00     0.002 A 
ATOM      6  C6  N4B d   1      -0.666   4.235  -5.773  0.00  0.00     0.002 A 
ENDROOT
BRANCH   1   7
ATOM      7  C1' N4B d   1       1.170   3.337  -4.387  0.00  0.00     0.057 C 
BRANCH   7   8
ATOM      8  C2' N4B d   1       1.629   3.403  -2.934  0.00  0.00     0.009 C 
BRANCH   8   9
ATOM      9  C3' N4B d   1       2.614   2.297  -2.598  0.00  0.00     0.004 C 
ATOM     10  C4' N4B d   1       3.989   2.816  -2.299  0.00  0.00     0.003 C 
ENDBRANCH   8   9
ENDBRANCH   7   8
ENDBRANCH   1   7
TORSDOF 3
ENDMDL
