MODEL 1
REMARK minimizedAffinity 2.09670091
REMARK minimizedRMSD -1
REMARK  3 active torsions:
REMARK  status: ('A' for Active; 'I' for Inactive)
REMARK    1  A    between atoms: C3'_2  and  C2'_3 
REMARK    2  A    between atoms: C2'_3  and  C1'_4 
REMARK    3  A    between atoms: C1'_4  and  C1_5 
ROOT
ATOM      1  C1  N4B d   1       0.503   3.618  -5.994  0.00  0.00    -0.075 A 
ATOM      2  C2  N4B d   1      -0.617   2.758  -5.999  0.00  0.00     0.002 A 
ATOM      3  C3  N4B d   1      -1.886   3.283  -5.999  0.00  0.00     0.002 A 
ATOM      4  C4  N4B d   1      -2.059   4.659  -5.974  0.00  0.00    -0.004 A 
ATOM      5  C5  N4B d   1      -0.972   5.483  -5.994  0.00  0.00     0.002 A 
ATOM      6  C6  N4B d   1       0.309   4.969  -5.999  0.00  0.00     0.002 A 
ENDROOT
BRANCH   1   7
ATOM      7  C1' N4B d   1       1.909   3.091  -5.908  0.00  0.00     0.057 C 
BRANCH   7   8
ATOM      8  C2' N4B d   1       1.941   1.902  -4.953  0.00  0.00     0.009 C 
BRANCH   8   9
ATOM      9  C3' N4B d   1       2.183   2.334  -3.516  0.00  0.00     0.004 C 
ATOM     10  C4' N4B d   1       2.014   1.211  -2.536  0.00  0.00     0.003 C 
ENDBRANCH   8   9
ENDBRANCH   7   8
ENDBRANCH   1   7
TORSDOF 3
ENDMDL
