MODEL 1
REMARK minimizedAffinity 3.30507207
REMARK minimizedRMSD -1
REMARK  3 active torsions:
REMARK  status: ('A' for Active; 'I' for Inactive)
REMARK    1  A    between atoms: C3'_2  and  C2'_3 
REMARK    2  A    between atoms: C2'_3  and  C1'_4 
REMARK    3  A    between atoms: C1'_4  and  C1_5 
ROOT
ATOM      1  C1  N4B d   1       0.660   3.007  -5.930  0.00  0.00    -0.075 A 
ATOM      2  C2  N4B d   1       0.807   4.412  -5.907  0.00  0.00     0.002 A 
ATOM      3  C3  N4B d   1      -0.304   5.218  -5.932  0.00  0.00     0.002 A 
ATOM      4  C4  N4B d   1      -1.566   4.646  -6.000  0.00  0.00    -0.004 A 
ATOM      5  C5  N4B d   1      -1.700   3.288  -5.996  0.00  0.00     0.002 A 
ATOM      6  C6  N4B d   1      -0.592   2.465  -5.967  0.00  0.00     0.002 A 
ENDROOT
BRANCH   1   7
ATOM      7  C1' N4B d   1       1.848   2.086  -5.990  0.00  0.00     0.057 C 
BRANCH   7   8
ATOM      8  C2' N4B d   1       2.766   2.375  -4.806  0.00  0.00     0.009 C 
BRANCH   8   9
ATOM      9  C3' N4B d   1       2.369   1.583  -3.572  0.00  0.00     0.004 C 
ATOM     10  C4' N4B d   1       1.460   2.350  -2.658  0.00  0.00     0.003 C 
ENDBRANCH   8   9
ENDBRANCH   7   8
ENDBRANCH   1   7
TORSDOF 3
ENDMDL
