MODEL 1
REMARK minimizedAffinity 2.67513514
REMARK minimizedRMSD -1
REMARK  3 active torsions:
REMARK  status: ('A' for Active; 'I' for Inactive)
REMARK    1  A    between atoms: C3'_2  and  C2'_3 
REMARK    2  A    between atoms: C2'_3  and  C1'_4 
REMARK    3  A    between atoms: C1'_4  and  C1_5 
ROOT
ATOM      1  C1  N4B d   1      -1.008   4.233  -4.974  0.00  0.00    -0.075 A 
ATOM      2  C2  N4B d   1      -1.479   5.553  -4.798  0.00  0.00     0.002 A 
ATOM      3  C3  N4B d   1      -2.736   5.898  -5.230  0.00  0.00     0.002 A 
ATOM      4  C4  N4B d   1      -3.530   4.948  -5.855  0.00  0.00    -0.004 A 
ATOM      5  C5  N4B d   1      -3.078   3.669  -5.999  0.00  0.00     0.002 A 
ATOM      6  C6  N4B d   1      -1.818   3.308  -5.566  0.00  0.00     0.002 A 
ENDROOT
BRANCH   1   7
ATOM      7  C1' N4B d   1       0.391   3.832  -4.596  0.00  0.00     0.057 C 
BRANCH   7   8
ATOM      8  C2' N4B d   1       1.319   4.069  -5.784  0.00  0.00     0.009 C 
BRANCH   8   9
ATOM      9  C3' N4B d   1       2.276   2.910  -5.998  0.00  0.00     0.004 C 
ATOM     10  C4' N4B d   1       1.585   1.579  -5.998  0.00  0.00     0.003 C 
ENDBRANCH   8   9
ENDBRANCH   7   8
ENDBRANCH   1   7
TORSDOF 3
ENDMDL
