MODEL 1
REMARK minimizedAffinity 7.50752401
REMARK minimizedRMSD -1
REMARK  3 active torsions:
REMARK  status: ('A' for Active; 'I' for Inactive)
REMARK    1  A    between atoms: C3'_2  and  C2'_3 
REMARK    2  A    between atoms: C2'_3  and  C1'_4 
REMARK    3  A    between atoms: C1'_4  and  C1_5 
ROOT
ATOM      1  C1  N4B d   1       0.680  -2.184  -1.205  0.00  0.00    -0.075 A 
ATOM      2  C2  N4B d   1       1.423  -2.789  -2.242  0.00  0.00     0.002 A 
ATOM      3  C3  N4B d   1       0.800  -3.622  -3.138  0.00  0.00     0.002 A 
ATOM      4  C4  N4B d   1      -0.556  -3.879  -3.006  0.00  0.00    -0.004 A 
ATOM      5  C5  N4B d   1      -1.273  -3.271  -2.017  0.00  0.00     0.002 A 
ATOM      6  C6  N4B d   1      -0.660  -2.428  -1.112  0.00  0.00     0.002 A 
ENDROOT
BRANCH   1   7
ATOM      7  C1' N4B d   1       1.334  -1.334  -0.151  0.00  0.00     0.057 C 
BRANCH   7   8
ATOM      8  C2' N4B d   1       0.296  -0.955   0.902  0.00  0.00     0.009 C 
BRANCH   8   9
ATOM      9  C3' N4B d   1      -0.114   0.504   0.796  0.00  0.00     0.004 C 
ATOM     10  C4' N4B d   1      -1.549   0.732   1.167  0.00  0.00     0.003 C 
ENDBRANCH   8   9
ENDBRANCH   7   8
ENDBRANCH   1   7
TORSDOF 3
ENDMDL
