MODEL 1
REMARK minimizedAffinity -4.15726137
REMARK minimizedRMSD -1
REMARK  3 active torsions:
REMARK  status: ('A' for Active; 'I' for Inactive)
REMARK    1  A    between atoms: C3'_2  and  C2'_3 
REMARK    2  A    between atoms: C2'_3  and  C1'_4 
REMARK    3  A    between atoms: C1'_4  and  C1_5 
ROOT
ATOM      1  C1  N4B d   1      -0.231   3.342  -5.962  0.00  0.00    -0.075 A 
ATOM      2  C2  N4B d   1      -1.450   2.630  -5.974  0.00  0.00     0.002 A 
ATOM      3  C3  N4B d   1      -2.642   3.312  -5.995  0.00  0.00     0.002 A 
ATOM      4  C4  N4B d   1      -2.640   4.699  -5.986  0.00  0.00    -0.004 A 
ATOM      5  C5  N4B d   1      -1.457   5.378  -6.000  0.00  0.00     0.002 A 
ATOM      6  C6  N4B d   1      -0.251   4.706  -5.983  0.00  0.00     0.002 A 
ENDROOT
BRANCH   1   7
ATOM      7  C1' N4B d   1       1.096   2.641  -5.852  0.00  0.00     0.057 C 
BRANCH   7   8
ATOM      8  C2' N4B d   1       2.216   3.673  -5.942  0.00  0.00     0.009 C 
BRANCH   8   9
ATOM      9  C3' N4B d   1       3.576   3.063  -5.648  0.00  0.00     0.004 C 
ATOM     10  C4' N4B d   1       4.630   4.095  -5.378  0.00  0.00     0.003 C 
ENDBRANCH   8   9
ENDBRANCH   7   8
ENDBRANCH   1   7
TORSDOF 3
ENDMDL
