MODEL 1
REMARK minimizedAffinity 6.73628473
REMARK minimizedRMSD -1
REMARK  3 active torsions:
REMARK  status: ('A' for Active; 'I' for Inactive)
REMARK    1  A    between atoms: C3'_2  and  C2'_3 
REMARK    2  A    between atoms: C2'_3  and  C1'_4 
REMARK    3  A    between atoms: C1'_4  and  C1_5 
ROOT
ATOM      1  C1  N4B d   1      -1.751   3.848  -5.448  0.00  0.00    -0.075 A 
ATOM      2  C2  N4B d   1      -1.724   5.260  -5.459  0.00  0.00     0.002 A 
ATOM      3  C3  N4B d   1      -2.872   5.967  -5.722  0.00  0.00     0.002 A 
ATOM      4  C4  N4B d   1      -4.049   5.286  -5.995  0.00  0.00    -0.004 A 
ATOM      5  C5  N4B d   1      -4.072   3.922  -5.958  0.00  0.00     0.002 A 
ATOM      6  C6  N4B d   1      -2.927   3.199  -5.691  0.00  0.00     0.002 A 
ENDROOT
BRANCH   1   7
ATOM      7  C1' N4B d   1      -0.504   3.031  -5.250  0.00  0.00     0.057 C 
BRANCH   7   8
ATOM      8  C2' N4B d   1      -0.446   2.547  -3.805  0.00  0.00     0.009 C 
BRANCH   8   9
ATOM      9  C3' N4B d   1       0.979   2.283  -3.350  0.00  0.00     0.004 C 
ATOM     10  C4' N4B d   1       1.116   2.253  -1.857  0.00  0.00     0.003 C 
ENDBRANCH   8   9
ENDBRANCH   7   8
ENDBRANCH   1   7
TORSDOF 3
ENDMDL
