MODEL 1
REMARK minimizedAffinity 1.94370413
REMARK minimizedRMSD -1
REMARK  3 active torsions:
REMARK  status: ('A' for Active; 'I' for Inactive)
REMARK    1  A    between atoms: C3'_2  and  C2'_3 
REMARK    2  A    between atoms: C2'_3  and  C1'_4 
REMARK    3  A    between atoms: C1'_4  and  C1_5 
ROOT
ATOM      1  C1  N4B d   1      -1.462   3.504  -5.935  0.00  0.00    -0.075 A 
ATOM      2  C2  N4B d   1      -2.869   3.609  -5.998  0.00  0.00     0.002 A 
ATOM      3  C3  N4B d   1      -3.472   4.836  -5.865  0.00  0.00     0.002 A 
ATOM      4  C4  N4B d   1      -2.694   5.963  -5.649  0.00  0.00    -0.004 A 
ATOM      5  C5  N4B d   1      -1.334   5.856  -5.614  0.00  0.00     0.002 A 
ATOM      6  C6  N4B d   1      -0.714   4.631  -5.751  0.00  0.00     0.002 A 
ENDROOT
BRANCH   1   7
ATOM      7  C1' N4B d   1      -0.762   2.173  -5.989  0.00  0.00     0.057 C 
BRANCH   7   8
ATOM      8  C2' N4B d   1       0.509   2.241  -5.147  0.00  0.00     0.009 C 
BRANCH   8   9
ATOM      9  C3' N4B d   1       1.760   2.075  -5.993  0.00  0.00     0.004 C 
ATOM     10  C4' N4B d   1       2.624   3.301  -5.999  0.00  0.00     0.003 C 
ENDBRANCH   8   9
ENDBRANCH   7   8
ENDBRANCH   1   7
TORSDOF 3
ENDMDL
