MODEL 1
REMARK minimizedAffinity -1.17450321
REMARK minimizedRMSD -1
REMARK  3 active torsions:
REMARK  status: ('A' for Active; 'I' for Inactive)
REMARK    1  A    between atoms: C3'_2  and  C2'_3 
REMARK    2  A    between atoms: C2'_3  and  C1'_4 
REMARK    3  A    between atoms: C1'_4  and  C1_5 
ROOT
ATOM      1  C1  N4B d   1      -0.065   2.764  -5.934  0.00  0.00    -0.075 A 
ATOM      2  C2  N4B d   1       0.942   1.774  -5.919  0.00  0.00     0.002 A 
ATOM      3  C3  N4B d   1       2.266   2.141  -5.941  0.00  0.00     0.002 A 
ATOM      4  C4  N4B d   1       2.604   3.485  -5.997  0.00  0.00    -0.004 A 
ATOM      5  C5  N4B d   1       1.625   4.435  -5.986  0.00  0.00     0.002 A 
ATOM      6  C6  N4B d   1       0.291   4.081  -5.960  0.00  0.00     0.002 A 
ENDROOT
BRANCH   1   7
ATOM      7  C1' N4B d   1      -1.526   2.409  -5.998  0.00  0.00     0.057 C 
BRANCH   7   8
ATOM      8  C2' N4B d   1      -2.303   3.315  -5.048  0.00  0.00     0.009 C 
BRANCH   8   9
ATOM      9  C3' N4B d   1      -3.434   4.042  -5.754  0.00  0.00     0.004 C 
ATOM     10  C4' N4B d   1      -3.131   5.491  -5.995  0.00  0.00     0.003 C 
ENDBRANCH   8   9
ENDBRANCH   7   8
ENDBRANCH   1   7
TORSDOF 3
ENDMDL
