MODEL 1
REMARK minimizedAffinity 0.0267308466
REMARK minimizedRMSD -1
REMARK  3 active torsions:
REMARK  status: ('A' for Active; 'I' for Inactive)
REMARK    1  A    between atoms: C3'_2  and  C2'_3 
REMARK    2  A    between atoms: C2'_3  and  C1'_4 
REMARK    3  A    between atoms: C1'_4  and  C1_5 
ROOT
ATOM      1  C1  N4B d   1      -0.485   3.672  -5.948  0.00  0.00    -0.075 A 
ATOM      2  C2  N4B d   1      -1.868   3.386  -5.922  0.00  0.00     0.002 A 
ATOM      3  C3  N4B d   1      -2.780   4.412  -5.873  0.00  0.00     0.002 A 
ATOM      4  C4  N4B d   1      -2.334   5.724  -5.830  0.00  0.00    -0.004 A 
ATOM      5  C5  N4B d   1      -0.998   5.992  -5.880  0.00  0.00     0.002 A 
ATOM      6  C6  N4B d   1      -0.070   4.972  -5.934  0.00  0.00     0.002 A 
ENDROOT
BRANCH   1   7
ATOM      7  C1' N4B d   1       0.551   2.582  -5.915  0.00  0.00     0.057 C 
BRANCH   7   8
ATOM      8  C2' N4B d   1       1.937   3.212  -5.802  0.00  0.00     0.009 C 
BRANCH   8   9
ATOM      9  C3' N4B d   1       3.043   2.188  -5.985  0.00  0.00     0.004 C 
ATOM     10  C4' N4B d   1       2.534   0.777  -5.991  0.00  0.00     0.003 C 
ENDBRANCH   8   9
ENDBRANCH   7   8
ENDBRANCH   1   7
TORSDOF 3
ENDMDL
