MODEL 1
REMARK minimizedAffinity -3.22807288
REMARK minimizedRMSD -1
REMARK  1 active torsions:
REMARK  status: ('A' for Active; 'I' for Inactive)
REMARK    1  A    between atoms: C1_2  and  C2_3 
ROOT
ATOM      1  C2  UNL d   1      -2.190  -4.428   0.890  0.00  0.00    -0.077 A 
ATOM      2  C3  UNL d   1      -2.605  -5.517   0.111  0.00  0.00     0.002 A 
ATOM      3  C4  UNL d   1      -1.947  -5.823  -1.082  0.00  0.00     0.002 A 
ATOM      4  C5  UNL d   1      -0.869  -5.048  -1.504  0.00  0.00    -0.004 A 
ATOM      5  C6  UNL d   1      -0.450  -3.961  -0.737  0.00  0.00     0.002 A 
ATOM      6  C7  UNL d   1      -1.107  -3.653   0.455  0.00  0.00     0.002 A 
ENDROOT
BRANCH   1   7
ATOM      7  C1  UNL d   1      -2.866  -4.126   2.202  0.00  0.00     0.055 C 
ATOM      8  C   UNL d   1      -3.045  -5.387   3.036  0.00  0.00     0.019 C 
ENDBRANCH   1   7
TORSDOF 1
ENDMDL
