MODEL 1
REMARK minimizedAffinity 2.2169826
REMARK minimizedRMSD -1
REMARK  1 active torsions:
REMARK  status: ('A' for Active; 'I' for Inactive)
REMARK    1  A    between atoms: C1_2  and  C2_3 
ROOT
ATOM      1  C2  UNL d   1       1.254  -1.156   1.257  0.00  0.00    -0.077 A 
ATOM      2  C3  UNL d   1       1.156  -0.003   0.466  0.00  0.00     0.002 A 
ATOM      3  C4  UNL d   1       0.391  -0.011  -0.702  0.00  0.00     0.002 A 
ATOM      4  C5  UNL d   1      -0.285  -1.167  -1.086  0.00  0.00    -0.004 A 
ATOM      5  C6  UNL d   1      -0.192  -2.319  -0.307  0.00  0.00     0.002 A 
ATOM      6  C7  UNL d   1       0.573  -2.313   0.860  0.00  0.00     0.002 A 
ENDROOT
BRANCH   1   7
ATOM      7  C1  UNL d   1       2.039  -1.135   2.543  0.00  0.00     0.055 C 
ATOM      8  C   UNL d   1       3.536  -1.202   2.279  0.00  0.00     0.019 C 
ENDBRANCH   1   7
TORSDOF 1
ENDMDL
