MODEL 1
REMARK minimizedAffinity -4.73491144
REMARK minimizedRMSD -1
REMARK  1 active torsions:
REMARK  status: ('A' for Active; 'I' for Inactive)
REMARK    1  A    between atoms: C1_2  and  C2_3 
ROOT
ATOM      1  C2  UNL d   1      -2.584  -5.951  -1.092  0.00  0.00    -0.077 A 
ATOM      2  C3  UNL d   1      -1.281  -5.809  -1.591  0.00  0.00     0.002 A 
ATOM      3  C4  UNL d   1      -1.057  -5.718  -2.966  0.00  0.00     0.002 A 
ATOM      4  C5  UNL d   1      -2.131  -5.764  -3.853  0.00  0.00    -0.004 A 
ATOM      5  C6  UNL d   1      -3.430  -5.907  -3.367  0.00  0.00     0.002 A 
ATOM      6  C7  UNL d   1      -3.655  -5.999  -1.993  0.00  0.00     0.002 A 
ENDROOT
BRANCH   1   7
ATOM      7  C1  UNL d   1      -2.832  -6.000   0.393  0.00  0.00     0.055 C 
ATOM      8  C   UNL d   1      -2.900  -4.601   0.989  0.00  0.00     0.019 C 
ENDBRANCH   1   7
TORSDOF 1
ENDMDL
