MODEL 1
REMARK minimizedAffinity -3.27888656
REMARK minimizedRMSD -1
REMARK  1 active torsions:
REMARK  status: ('A' for Active; 'I' for Inactive)
REMARK    1  A    between atoms: C1_2  and  C2_3 
ROOT
ATOM      1  C2  UNL d   1      -1.485  -5.933  -2.920  0.00  0.00    -0.077 A 
ATOM      2  C3  UNL d   1      -1.458  -5.862  -1.520  0.00  0.00     0.002 A 
ATOM      3  C4  UNL d   1      -2.648  -5.854  -0.790  0.00  0.00     0.002 A 
ATOM      4  C5  UNL d   1      -3.873  -5.921  -1.450  0.00  0.00    -0.004 A 
ATOM      5  C6  UNL d   1      -3.910  -5.990  -2.842  0.00  0.00     0.002 A 
ATOM      6  C7  UNL d   1      -2.722  -5.997  -3.574  0.00  0.00     0.002 A 
ENDROOT
BRANCH   1   7
ATOM      7  C1  UNL d   1      -0.201  -5.991  -3.706  0.00  0.00     0.055 C 
ATOM      8  C   UNL d   1      -0.469  -5.987  -5.204  0.00  0.00     0.019 C 
ENDBRANCH   1   7
TORSDOF 1
ENDMDL
