MODEL 1
REMARK minimizedAffinity -0.449087262
REMARK minimizedRMSD -1
REMARK  1 active torsions:
REMARK  status: ('A' for Active; 'I' for Inactive)
REMARK    1  A    between atoms: C1_2  and  C2_3 
ROOT
ATOM      1  C2  UNL d   1      -4.245  -5.281  -0.046  0.00  0.00    -0.077 A 
ATOM      2  C3  UNL d   1      -5.183  -5.529   0.966  0.00  0.00     0.002 A 
ATOM      3  C4  UNL d   1      -4.951  -5.082   2.268  0.00  0.00     0.002 A 
ATOM      4  C5  UNL d   1      -3.785  -4.383   2.570  0.00  0.00    -0.004 A 
ATOM      5  C6  UNL d   1      -2.845  -4.133   1.570  0.00  0.00     0.002 A 
ATOM      6  C7  UNL d   1      -3.074  -4.580   0.268  0.00  0.00     0.002 A 
ENDROOT
BRANCH   1   7
ATOM      7  C1  UNL d   1      -4.516  -5.719  -1.462  0.00  0.00     0.055 C 
ATOM      8  C   UNL d   1      -5.998  -5.987  -1.684  0.00  0.00     0.019 C 
ENDBRANCH   1   7
TORSDOF 1
ENDMDL
