MODEL 1
REMARK minimizedAffinity -6.09583712
REMARK minimizedRMSD -1
REMARK  1 active torsions:
REMARK  status: ('A' for Active; 'I' for Inactive)
REMARK    1  A    between atoms: C1_2  and  C2_3 
ROOT
ATOM      1  C2  UNL d   1       1.218  -3.814   3.836  0.00  0.00    -0.077 A 
ATOM      2  C3  UNL d   1       0.508  -4.058   2.652  0.00  0.00     0.002 A 
ATOM      3  C4  UNL d   1       0.509  -3.117   1.620  0.00  0.00     0.002 A 
ATOM      4  C5  UNL d   1       1.222  -1.928   1.761  0.00  0.00    -0.004 A 
ATOM      5  C6  UNL d   1       1.929  -1.675   2.936  0.00  0.00     0.002 A 
ATOM      6  C7  UNL d   1       1.928  -2.614   3.968  0.00  0.00     0.002 A 
ENDROOT
BRANCH   1   7
ATOM      7  C1  UNL d   1       1.258  -4.849   4.929  0.00  0.00     0.055 C 
ATOM      8  C   UNL d   1       2.376  -4.564   5.921  0.00  0.00     0.019 C 
ENDBRANCH   1   7
TORSDOF 1
ENDMDL
