MODEL 1
REMARK minimizedAffinity -4.38281441
REMARK minimizedRMSD -1
REMARK  1 active torsions:
REMARK  status: ('A' for Active; 'I' for Inactive)
REMARK    1  A    between atoms: C1_2  and  C2_3 
ROOT
ATOM      1  C2  UNL d   1       1.563  -3.732   4.134  0.00  0.00    -0.077 A 
ATOM      2  C3  UNL d   1       2.519  -2.724   4.325  0.00  0.00     0.002 A 
ATOM      3  C4  UNL d   1       2.645  -1.686   3.400  0.00  0.00     0.002 A 
ATOM      4  C5  UNL d   1       1.818  -1.644   2.280  0.00  0.00    -0.004 A 
ATOM      5  C6  UNL d   1       0.866  -2.643   2.079  0.00  0.00     0.002 A 
ATOM      6  C7  UNL d   1       0.739  -3.682   3.003  0.00  0.00     0.002 A 
ENDROOT
BRANCH   1   7
ATOM      7  C1  UNL d   1       1.392  -4.825   5.156  0.00  0.00     0.055 C 
ATOM      8  C   UNL d   1       2.658  -5.019   5.977  0.00  0.00     0.019 C 
ENDBRANCH   1   7
TORSDOF 1
ENDMDL
