MODEL 1
REMARK minimizedAffinity -3.91196656
REMARK minimizedRMSD -1
REMARK  1 active torsions:
REMARK  status: ('A' for Active; 'I' for Inactive)
REMARK    1  A    between atoms: C1_2  and  C2_3 
ROOT
ATOM      1  C2  UNL d   1       1.870  -3.641   3.746  0.00  0.00    -0.077 A 
ATOM      2  C3  UNL d   1       1.766  -3.605   5.144  0.00  0.00     0.002 A 
ATOM      3  C4  UNL d   1       2.102  -4.726   5.906  0.00  0.00     0.002 A 
ATOM      4  C5  UNL d   1       2.549  -5.888   5.280  0.00  0.00    -0.004 A 
ATOM      5  C6  UNL d   1       2.654  -5.934   3.891  0.00  0.00     0.002 A 
ATOM      6  C7  UNL d   1       2.316  -4.815   3.127  0.00  0.00     0.002 A 
ENDROOT
BRANCH   1   7
ATOM      7  C1  UNL d   1       1.554  -2.418   2.926  0.00  0.00     0.055 C 
ATOM      8  C   UNL d   1       2.586  -1.322   3.147  0.00  0.00     0.019 C 
ENDBRANCH   1   7
TORSDOF 1
ENDMDL
