MODEL 1
REMARK minimizedAffinity -2.32731771
REMARK minimizedRMSD -1
REMARK  1 active torsions:
REMARK  status: ('A' for Active; 'I' for Inactive)
REMARK    1  A    between atoms: C1_2  and  C2_3 
ROOT
ATOM      1  C2  UNL d   1       1.771  -3.306   4.250  0.00  0.00    -0.077 A 
ATOM      2  C3  UNL d   1       2.936  -4.065   4.432  0.00  0.00     0.002 A 
ATOM      3  C4  UNL d   1       2.918  -5.203   5.240  0.00  0.00     0.002 A 
ATOM      4  C5  UNL d   1       1.738  -5.595   5.869  0.00  0.00    -0.004 A 
ATOM      5  C6  UNL d   1       0.575  -4.847   5.695  0.00  0.00     0.002 A 
ATOM      6  C7  UNL d   1       0.591  -3.708   4.889  0.00  0.00     0.002 A 
ENDROOT
BRANCH   1   7
ATOM      7  C1  UNL d   1       1.776  -2.106   3.340  0.00  0.00     0.055 C 
ATOM      8  C   UNL d   1       3.172  -1.517   3.208  0.00  0.00     0.019 C 
ENDBRANCH   1   7
TORSDOF 1
ENDMDL
