MODEL 1
REMARK minimizedAffinity -3.02529097
REMARK minimizedRMSD -1
REMARK  1 active torsions:
REMARK  status: ('A' for Active; 'I' for Inactive)
REMARK    1  A    between atoms: C1_2  and  C2_3 
ROOT
ATOM      1  C2  UNL d   1       1.953  -3.511   4.087  0.00  0.00    -0.077 A 
ATOM      2  C3  UNL d   1       2.578  -4.600   3.464  0.00  0.00     0.002 A 
ATOM      3  C4  UNL d   1       2.643  -5.838   4.106  0.00  0.00     0.002 A 
ATOM      4  C5  UNL d   1       2.082  -6.000   5.371  0.00  0.00    -0.004 A 
ATOM      5  C6  UNL d   1       1.460  -4.922   6.000  0.00  0.00     0.002 A 
ATOM      6  C7  UNL d   1       1.395  -3.683   5.360  0.00  0.00     0.002 A 
ENDROOT
BRANCH   1   7
ATOM      7  C1  UNL d   1       1.838  -2.188   3.376  0.00  0.00     0.055 C 
ATOM      8  C   UNL d   1       1.884  -2.365   1.865  0.00  0.00     0.019 C 
ENDBRANCH   1   7
TORSDOF 1
ENDMDL
