MODEL 1
REMARK minimizedAffinity 7.97484541
REMARK minimizedRMSD -1
REMARK  1 active torsions:
REMARK  status: ('A' for Active; 'I' for Inactive)
REMARK    1  A    between atoms: C1_2  and  C2_3 
ROOT
ATOM      1  C2  UNL d   1      -4.853   0.124  -0.522  0.00  0.00    -0.077 A 
ATOM      2  C3  UNL d   1      -4.887   1.339  -1.220  0.00  0.00     0.002 A 
ATOM      3  C4  UNL d   1      -4.876   1.352  -2.616  0.00  0.00     0.002 A 
ATOM      4  C5  UNL d   1      -4.836   0.154  -3.326  0.00  0.00    -0.004 A 
ATOM      5  C6  UNL d   1      -4.799  -1.060  -2.640  0.00  0.00     0.002 A 
ATOM      6  C7  UNL d   1      -4.809  -1.075  -1.245  0.00  0.00     0.002 A 
ENDROOT
BRANCH   1   7
ATOM      7  C1  UNL d   1      -4.914   0.106   0.983  0.00  0.00     0.055 C 
ATOM      8  C   UNL d   1      -5.995  -0.842   1.482  0.00  0.00     0.019 C 
ENDBRANCH   1   7
TORSDOF 1
ENDMDL
