MODEL 1
REMARK minimizedAffinity 5.94772053
REMARK minimizedRMSD -1
REMARK  1 active torsions:
REMARK  status: ('A' for Active; 'I' for Inactive)
REMARK    1  A    between atoms: C1_2  and  C2_3 
ROOT
ATOM      1  C2  UNL d   1       2.876  -1.137   2.068  0.00  0.00    -0.077 A 
ATOM      2  C3  UNL d   1       4.078  -0.738   1.468  0.00  0.00     0.002 A 
ATOM      3  C4  UNL d   1       5.243  -0.625   2.229  0.00  0.00     0.002 A 
ATOM      4  C5  UNL d   1       5.219  -0.913   3.592  0.00  0.00    -0.004 A 
ATOM      5  C6  UNL d   1       4.027  -1.310   4.198  0.00  0.00     0.002 A 
ATOM      6  C7  UNL d   1       2.861  -1.422   3.439  0.00  0.00     0.002 A 
ENDROOT
BRANCH   1   7
ATOM      7  C1  UNL d   1       1.629  -1.307   1.240  0.00  0.00     0.055 C 
ATOM      8  C   UNL d   1       1.054   0.039   0.822  0.00  0.00     0.019 C 
ENDBRANCH   1   7
TORSDOF 1
ENDMDL
