MODEL 1
REMARK minimizedAffinity 7.35549736
REMARK minimizedRMSD -1
REMARK  1 active torsions:
REMARK  status: ('A' for Active; 'I' for Inactive)
REMARK    1  A    between atoms: C1_2  and  C2_3 
ROOT
ATOM      1  C2  UNL d   1      -3.001   3.267   4.560  0.00  0.00    -0.077 A 
ATOM      2  C3  UNL d   1      -4.123   3.678   5.292  0.00  0.00     0.002 A 
ATOM      3  C4  UNL d   1      -4.103   4.882   6.000  0.00  0.00     0.002 A 
ATOM      4  C5  UNL d   1      -2.965   5.685   5.979  0.00  0.00    -0.004 A 
ATOM      5  C6  UNL d   1      -1.842   5.284   5.255  0.00  0.00     0.002 A 
ATOM      6  C7  UNL d   1      -1.861   4.080   4.548  0.00  0.00     0.002 A 
ENDROOT
BRANCH   1   7
ATOM      7  C1  UNL d   1      -3.038   1.994   3.756  0.00  0.00     0.055 C 
ATOM      8  C   UNL d   1      -4.349   1.858   2.994  0.00  0.00     0.019 C 
ENDBRANCH   1   7
TORSDOF 1
ENDMDL
