MODEL 1
REMARK minimizedAffinity 12.6194782
REMARK minimizedRMSD -1
REMARK  1 active torsions:
REMARK  status: ('A' for Active; 'I' for Inactive)
REMARK    1  A    between atoms: C1_2  and  C2_3 
ROOT
ATOM      1  C2  UNL d   1      -2.130   1.210  -2.073  0.00  0.00    -0.077 A 
ATOM      2  C3  UNL d   1      -2.911   1.384  -0.922  0.00  0.00     0.002 A 
ATOM      3  C4  UNL d   1      -3.424   0.276  -0.243  0.00  0.00     0.002 A 
ATOM      4  C5  UNL d   1      -3.157  -1.011  -0.704  0.00  0.00    -0.004 A 
ATOM      5  C6  UNL d   1      -2.383  -1.194  -1.849  0.00  0.00     0.002 A 
ATOM      6  C7  UNL d   1      -1.870  -0.088  -2.530  0.00  0.00     0.002 A 
ENDROOT
BRANCH   1   7
ATOM      7  C1  UNL d   1      -1.535   2.401  -2.779  0.00  0.00     0.055 C 
ATOM      8  C   UNL d   1      -1.682   2.280  -4.288  0.00  0.00     0.019 C 
ENDBRANCH   1   7
TORSDOF 1
ENDMDL
