MODEL 1
REMARK minimizedAffinity 9.89412117
REMARK minimizedRMSD -1
REMARK  1 active torsions:
REMARK  status: ('A' for Active; 'I' for Inactive)
REMARK    1  A    between atoms: C1_2  and  C2_3 
ROOT
ATOM      1  C2  UNL d   1      -1.862   1.668  -2.797  0.00  0.00    -0.077 A 
ATOM      2  C3  UNL d   1      -1.195   0.471  -2.502  0.00  0.00     0.002 A 
ATOM      3  C4  UNL d   1      -1.835  -0.533  -1.774  0.00  0.00     0.002 A 
ATOM      4  C5  UNL d   1      -3.146  -0.353  -1.338  0.00  0.00    -0.004 A 
ATOM      5  C6  UNL d   1      -3.818   0.835  -1.625  0.00  0.00     0.002 A 
ATOM      6  C7  UNL d   1      -3.179   1.841  -2.352  0.00  0.00     0.002 A 
ENDROOT
BRANCH   1   7
ATOM      7  C1  UNL d   1      -1.190   2.733  -3.625  0.00  0.00     0.055 C 
ATOM      8  C   UNL d   1       0.171   3.101  -3.053  0.00  0.00     0.019 C 
ENDBRANCH   1   7
TORSDOF 1
ENDMDL
