MODEL 1
REMARK minimizedAffinity 13.6137867
REMARK minimizedRMSD -1
REMARK  1 active torsions:
REMARK  status: ('A' for Active; 'I' for Inactive)
REMARK    1  A    between atoms: C1_2  and  C2_3 
ROOT
ATOM      1  C2  UNL d   1      -5.526  -1.155  -4.752  0.00  0.00    -0.077 A 
ATOM      2  C3  UNL d   1      -5.489  -0.459  -5.968  0.00  0.00     0.002 A 
ATOM      3  C4  UNL d   1      -5.707   0.920  -5.999  0.00  0.00     0.002 A 
ATOM      4  C5  UNL d   1      -5.958   1.614  -4.818  0.00  0.00    -0.004 A 
ATOM      5  C6  UNL d   1      -5.999   0.931  -3.604  0.00  0.00     0.002 A 
ATOM      6  C7  UNL d   1      -5.783  -0.448  -3.571  0.00  0.00     0.002 A 
ENDROOT
BRANCH   1   7
ATOM      7  C1  UNL d   1      -5.243  -2.634  -4.710  0.00  0.00     0.055 C 
ATOM      8  C   UNL d   1      -5.999  -3.310  -3.576  0.00  0.00     0.019 C 
ENDBRANCH   1   7
TORSDOF 1
ENDMDL
