MODEL 1
REMARK minimizedAffinity 11.884531
REMARK minimizedRMSD -1
REMARK  1 active torsions:
REMARK  status: ('A' for Active; 'I' for Inactive)
REMARK    1  A    between atoms: C1_2  and  C2_3 
ROOT
ATOM      1  C2  UNL d   1       1.902  -2.646   0.506  0.00  0.00    -0.077 A 
ATOM      2  C3  UNL d   1       2.457  -2.317   1.751  0.00  0.00     0.002 A 
ATOM      3  C4  UNL d   1       2.168  -1.089   2.350  0.00  0.00     0.002 A 
ATOM      4  C5  UNL d   1       1.320  -0.184   1.715  0.00  0.00    -0.004 A 
ATOM      5  C6  UNL d   1       0.765  -0.502   0.476  0.00  0.00     0.002 A 
ATOM      6  C7  UNL d   1       1.054  -1.727  -0.125  0.00  0.00     0.002 A 
ENDROOT
BRANCH   1   7
ATOM      7  C1  UNL d   1       2.173  -3.989  -0.119  0.00  0.00     0.055 C 
ATOM      8  C   UNL d   1       1.503  -5.110   0.663  0.00  0.00     0.019 C 
ENDBRANCH   1   7
TORSDOF 1
ENDMDL
