MODEL 1
REMARK minimizedAffinity -4.42889071
REMARK minimizedRMSD -1
REMARK  0 active torsions:
REMARK  status: ('A' for Active; 'I' for Inactive)
ROOT
ATOM      1  C4' PXY d   1       1.696   1.403  -0.332  0.00  0.00     0.077 C 
ATOM      2  C1' PXY d   1      -2.218  -2.649   0.965  0.00  0.00     0.077 C 
ATOM      3  C1  PXY d   1      -1.201  -1.579   0.620  0.00  0.00    -0.082 A 
ATOM      4  C2  PXY d   1       0.075  -1.906   0.494  0.00  0.00     0.003 A 
ATOM      5  C3  PXY d   1       1.013  -0.945   0.214  0.00  0.00     0.003 A 
ATOM      6  C4  PXY d   1       0.633   0.354   0.007  0.00  0.00    -0.082 A 
ATOM      7  C5  PXY d   1      -0.668   0.693   0.123  0.00  0.00     0.003 A 
ATOM      8  C6  PXY d   1      -1.599  -0.289   0.449  0.00  0.00     0.003 A 
ENDROOT
TORSDOF 0
ENDMDL
