MODEL 1
REMARK minimizedAffinity -4.48569822
REMARK minimizedRMSD -1
REMARK  0 active torsions:
REMARK  status: ('A' for Active; 'I' for Inactive)
ROOT
ATOM      1  C4' PXY d   1      -1.484  -2.663   1.473  0.00  0.00     0.077 C 
ATOM      2  C1' PXY d   1       1.350   1.776  -0.910  0.00  0.00     0.077 C 
ATOM      3  C1  PXY d   1       0.598   0.620  -0.281  0.00  0.00    -0.082 A 
ATOM      4  C2  PXY d   1       1.257  -0.466   0.088  0.00  0.00     0.003 A 
ATOM      5  C3  PXY d   1       0.587  -1.533   0.629  0.00  0.00     0.003 A 
ATOM      6  C4  PXY d   1      -0.763  -1.467   0.843  0.00  0.00    -0.082 A 
ATOM      7  C5  PXY d   1      -1.441  -0.358   0.479  0.00  0.00     0.003 A 
ATOM      8  C6  PXY d   1      -0.749   0.698  -0.106  0.00  0.00     0.003 A 
ENDROOT
TORSDOF 0
ENDMDL
