MODEL 1
REMARK minimizedAffinity -5.80504704
REMARK minimizedRMSD -1
REMARK  0 active torsions:
REMARK  status: ('A' for Active; 'I' for Inactive)
ROOT
ATOM      1  C4' PXY d   1       0.938   1.586  -0.274  0.00  0.00     0.077 C 
ATOM      2  C1' PXY d   1      -2.090  -2.876   1.810  0.00  0.00     0.077 C 
ATOM      3  C1  PXY d   1      -1.285  -1.712   1.265  0.00  0.00    -0.082 A 
ATOM      4  C2  PXY d   1      -1.809  -0.497   1.265  0.00  0.00     0.003 A 
ATOM      5  C3  PXY d   1      -1.107   0.561   0.747  0.00  0.00     0.003 A 
ATOM      6  C4  PXY d   1       0.165   0.383   0.274  0.00  0.00    -0.082 A 
ATOM      7  C5  PXY d   1       0.711  -0.851   0.281  0.00  0.00     0.003 A 
ATOM      8  C6  PXY d   1      -0.033  -1.919   0.773  0.00  0.00     0.003 A 
ENDROOT
TORSDOF 0
ENDMDL
