MODEL 1
REMARK minimizedAffinity -4.08268404
REMARK minimizedRMSD -1
REMARK  0 active torsions:
REMARK  status: ('A' for Active; 'I' for Inactive)
ROOT
ATOM      1  C4' PXY d   1      -1.585  -2.921   0.686  0.00  0.00     0.077 C 
ATOM      2  C1' PXY d   1       1.194   1.920  -0.818  0.00  0.00     0.077 C 
ATOM      3  C1  PXY d   1       0.477   0.644  -0.423  0.00  0.00    -0.082 A 
ATOM      4  C2  PXY d   1      -0.813   0.509  -0.690  0.00  0.00     0.003 A 
ATOM      5  C3  PXY d   1      -1.484  -0.625  -0.312  0.00  0.00     0.003 A 
ATOM      6  C4  PXY d   1      -0.818  -1.654   0.298  0.00  0.00    -0.082 A 
ATOM      7  C5  PXY d   1       0.500  -1.529   0.563  0.00  0.00     0.003 A 
ATOM      8  C6  PXY d   1       1.154  -0.353   0.208  0.00  0.00     0.003 A 
ENDROOT
TORSDOF 0
ENDMDL
