MODEL 1
REMARK minimizedAffinity -4.47265291
REMARK minimizedRMSD -1
REMARK  0 active torsions:
REMARK  status: ('A' for Active; 'I' for Inactive)
ROOT
ATOM      1  C4' PXY d   1       0.729   1.779  -0.914  0.00  0.00     0.077 C 
ATOM      2  C1' PXY d   1      -1.527  -2.911   1.603  0.00  0.00     0.077 C 
ATOM      3  C1  PXY d   1      -0.924  -1.685   0.945  0.00  0.00    -0.082 A 
ATOM      4  C2  PXY d   1      -1.627  -0.567   0.876  0.00  0.00     0.003 A 
ATOM      5  C3  PXY d   1      -1.109   0.541   0.257  0.00  0.00     0.003 A 
ATOM      6  C4  PXY d   1       0.163   0.520  -0.250  0.00  0.00    -0.082 A 
ATOM      7  C5  PXY d   1       0.891  -0.614  -0.175  0.00  0.00     0.003 A 
ATOM      8  C6  PXY d   1       0.331  -1.741   0.422  0.00  0.00     0.003 A 
ENDROOT
TORSDOF 0
ENDMDL
