MODEL 1
REMARK minimizedAffinity -4.35208607
REMARK minimizedRMSD -1
REMARK  0 active torsions:
REMARK  status: ('A' for Active; 'I' for Inactive)
ROOT
ATOM      1  C4' PXY d   1       1.405   1.655   0.187  0.00  0.00     0.077 C 
ATOM      2  C1' PXY d   1      -2.359  -2.699   0.730  0.00  0.00     0.077 C 
ATOM      3  C1  PXY d   1      -1.365  -1.562   0.598  0.00  0.00    -0.082 A 
ATOM      4  C2  PXY d   1      -1.738  -0.431   0.022  0.00  0.00     0.003 A 
ATOM      5  C3  PXY d   1      -0.843   0.596  -0.135  0.00  0.00     0.003 A 
ATOM      6  C4  PXY d   1       0.433   0.484   0.351  0.00  0.00    -0.082 A 
ATOM      7  C5  PXY d   1       0.818  -0.663   0.949  0.00  0.00     0.003 A 
ATOM      8  C6  PXY d   1      -0.094  -1.709   1.061  0.00  0.00     0.003 A 
ENDROOT
TORSDOF 0
ENDMDL
