MODEL 1
REMARK minimizedAffinity -5.19880295
REMARK minimizedRMSD -1
REMARK  0 active torsions:
REMARK  status: ('A' for Active; 'I' for Inactive)
ROOT
ATOM      1  C4' PXY d   1       1.270   1.717  -0.381  0.00  0.00     0.077 C 
ATOM      2  C1' PXY d   1      -2.292  -2.599   1.067  0.00  0.00     0.077 C 
ATOM      3  C1  PXY d   1      -1.368  -1.461   0.681  0.00  0.00    -0.082 A 
ATOM      4  C2  PXY d   1      -0.066  -1.678   0.590  0.00  0.00     0.003 A 
ATOM      5  C3  PXY d   1       0.788  -0.652   0.274  0.00  0.00     0.003 A 
ATOM      6  C4  PXY d   1       0.298   0.596  -0.004  0.00  0.00    -0.082 A 
ATOM      7  C5  PXY d   1      -1.030   0.823   0.076  0.00  0.00     0.003 A 
ATOM      8  C6  PXY d   1      -1.876  -0.222   0.439  0.00  0.00     0.003 A 
ENDROOT
TORSDOF 0
ENDMDL
