MODEL 1
REMARK minimizedAffinity -3.8328352
REMARK minimizedRMSD -1
REMARK  0 active torsions:
REMARK  status: ('A' for Active; 'I' for Inactive)
ROOT
ATOM      1  C4' PXY d   1       1.713   1.587  -0.678  0.00  0.00     0.077 C 
ATOM      2  C1' PXY d   1      -1.805  -2.614   1.163  0.00  0.00     0.077 C 
ATOM      3  C1  PXY d   1      -0.892  -1.507   0.673  0.00  0.00    -0.082 A 
ATOM      4  C2  PXY d   1       0.418  -1.692   0.673  0.00  0.00     0.003 A 
ATOM      5  C3  PXY d   1       1.260  -0.690   0.264  0.00  0.00     0.003 A 
ATOM      6  C4  PXY d   1       0.753   0.494  -0.201  0.00  0.00    -0.082 A 
ATOM      7  C5  PXY d   1      -0.583   0.686  -0.214  0.00  0.00     0.003 A 
ATOM      8  C6  PXY d   1      -1.419  -0.328   0.245  0.00  0.00     0.003 A 
ENDROOT
TORSDOF 0
ENDMDL
