MODEL 1
REMARK minimizedAffinity -5.54237413
REMARK minimizedRMSD -1
REMARK  0 active torsions:
REMARK  status: ('A' for Active; 'I' for Inactive)
ROOT
ATOM      1  C4' PXY d   1       0.482   0.614  -0.324  0.00  0.00     0.077 C 
ATOM      2  C1' PXY d   1      -3.379  -2.739   2.372  0.00  0.00     0.077 C 
ATOM      3  C1  PXY d   1      -2.357  -1.869   1.666  0.00  0.00    -0.082 A 
ATOM      4  C2  PXY d   1      -2.509  -0.555   1.661  0.00  0.00     0.003 A 
ATOM      5  C3  PXY d   1      -1.612   0.245   1.000  0.00  0.00     0.003 A 
ATOM      6  C4  PXY d   1      -0.519  -0.303   0.384  0.00  0.00    -0.082 A 
ATOM      7  C5  PXY d   1      -0.351  -1.642   0.394  0.00  0.00     0.003 A 
ATOM      8  C6  PXY d   1      -1.295  -2.439   1.035  0.00  0.00     0.003 A 
ENDROOT
TORSDOF 0
ENDMDL
