MODEL 1
REMARK minimizedAffinity -4.18803644
REMARK minimizedRMSD -1
REMARK  0 active torsions:
REMARK  status: ('A' for Active; 'I' for Inactive)
ROOT
ATOM      1  C4' PXY d   1      -2.040  -2.694   1.400  0.00  0.00     0.077 C 
ATOM      2  C1' PXY d   1       1.471   1.416  -0.647  0.00  0.00     0.077 C 
ATOM      3  C1  PXY d   1       0.559   0.329  -0.115  0.00  0.00    -0.082 A 
ATOM      4  C2  PXY d   1      -0.726   0.586   0.069  0.00  0.00     0.003 A 
ATOM      5  C3  PXY d   1      -1.560  -0.376   0.580  0.00  0.00     0.003 A 
ATOM      6  C4  PXY d   1      -1.083  -1.630   0.856  0.00  0.00    -0.082 A 
ATOM      7  C5  PXY d   1       0.224  -1.902   0.662  0.00  0.00     0.003 A 
ATOM      8  C6  PXY d   1       1.062  -0.900   0.181  0.00  0.00     0.003 A 
ENDROOT
TORSDOF 0
ENDMDL
