MODEL 1
REMARK minimizedAffinity -2.02238417
REMARK minimizedRMSD -1
REMARK  0 active torsions:
REMARK  status: ('A' for Active; 'I' for Inactive)
ROOT
ATOM      1  C4' PXY d   1      -1.860  -2.681   1.049  0.00  0.00     0.077 C 
ATOM      2  C1' PXY d   1       1.624   1.744  -0.255  0.00  0.00     0.077 C 
ATOM      3  C1  PXY d   1       0.702   0.592   0.091  0.00  0.00    -0.082 A 
ATOM      4  C2  PXY d   1       1.213  -0.598   0.360  0.00  0.00     0.003 A 
ATOM      5  C3  PXY d   1       0.392  -1.659   0.644  0.00  0.00     0.003 A 
ATOM      6  C4  PXY d   1      -0.965  -1.487   0.704  0.00  0.00    -0.082 A 
ATOM      7  C5  PXY d   1      -1.495  -0.273   0.441  0.00  0.00     0.003 A 
ATOM      8  C6  PXY d   1      -0.646   0.781   0.115  0.00  0.00     0.003 A 
ENDROOT
TORSDOF 0
ENDMDL
