MODEL 1
REMARK minimizedAffinity -0.428252041
REMARK minimizedRMSD -1
REMARK  0 active torsions:
REMARK  status: ('A' for Active; 'I' for Inactive)
ROOT
ATOM      1  C4' PXY d   1      -0.989  -2.621   1.471  0.00  0.00     0.077 C 
ATOM      2  C1' PXY d   1       0.893   1.949  -1.527  0.00  0.00     0.077 C 
ATOM      3  C1  PXY d   1       0.407   0.742  -0.748  0.00  0.00    -0.082 A 
ATOM      4  C2  PXY d   1      -0.772   0.782  -0.149  0.00  0.00     0.003 A 
ATOM      5  C3  PXY d   1      -1.213  -0.288   0.586  0.00  0.00     0.003 A 
ATOM      6  C4  PXY d   1      -0.462  -1.430   0.666  0.00  0.00    -0.082 A 
ATOM      7  C5  PXY d   1       0.737  -1.482   0.049  0.00  0.00     0.003 A 
ATOM      8  C6  PXY d   1       1.185  -0.370  -0.658  0.00  0.00     0.003 A 
ENDROOT
TORSDOF 0
ENDMDL
