MODEL 1
REMARK minimizedAffinity -3.79739738
REMARK minimizedRMSD -1
REMARK  0 active torsions:
REMARK  status: ('A' for Active; 'I' for Inactive)
ROOT
ATOM      1  C4' PXY d   1       1.312   1.474  -0.764  0.00  0.00     0.077 C 
ATOM      2  C1' PXY d   1      -1.794  -2.987   1.205  0.00  0.00     0.077 C 
ATOM      3  C1  PXY d   1      -0.969  -1.821   0.695  0.00  0.00    -0.082 A 
ATOM      4  C2  PXY d   1      -1.575  -0.712   0.305  0.00  0.00     0.003 A 
ATOM      5  C3  PXY d   1      -0.847   0.340  -0.188  0.00  0.00     0.003 A 
ATOM      6  C4  PXY d   1       0.520   0.275  -0.233  0.00  0.00    -0.082 A 
ATOM      7  C5  PXY d   1       1.147  -0.849   0.173  0.00  0.00     0.003 A 
ATOM      8  C6  PXY d   1       0.387  -1.921   0.632  0.00  0.00     0.003 A 
ENDROOT
TORSDOF 0
ENDMDL
