MODEL 1
REMARK minimizedAffinity -3.15691137
REMARK minimizedRMSD -1
REMARK  0 active torsions:
REMARK  status: ('A' for Active; 'I' for Inactive)
ROOT
ATOM      1  C4' PXY d   1       1.232   1.546  -1.203  0.00  0.00     0.077 C 
ATOM      2  C1' PXY d   1      -1.425  -2.845   1.457  0.00  0.00     0.077 C 
ATOM      3  C1  PXY d   1      -0.739  -1.690   0.754  0.00  0.00    -0.082 A 
ATOM      4  C2  PXY d   1       0.545  -1.778   0.451  0.00  0.00     0.003 A 
ATOM      5  C3  PXY d   1       1.188  -0.729  -0.155  0.00  0.00     0.003 A 
ATOM      6  C4  PXY d   1       0.497   0.400  -0.503  0.00  0.00    -0.082 A 
ATOM      7  C5  PXY d   1      -0.817   0.493  -0.206  0.00  0.00     0.003 A 
ATOM      8  C6  PXY d   1      -1.442  -0.566   0.446  0.00  0.00     0.003 A 
ENDROOT
TORSDOF 0
ENDMDL
