MODEL 1
REMARK minimizedAffinity -3.02657914
REMARK minimizedRMSD -1
REMARK  0 active torsions:
REMARK  status: ('A' for Active; 'I' for Inactive)
ROOT
ATOM      1  C4' PXY d   1      -0.905  -3.005   1.689  0.00  0.00     0.077 C 
ATOM      2  C1' PXY d   1       2.151   1.694   0.277  0.00  0.00     0.077 C 
ATOM      3  C1  PXY d   1       1.339   0.469   0.649  0.00  0.00    -0.082 A 
ATOM      4  C2  PXY d   1       1.951  -0.598   1.135  0.00  0.00     0.003 A 
ATOM      5  C3  PXY d   1       1.236  -1.726   1.446  0.00  0.00     0.003 A 
ATOM      6  C4  PXY d   1      -0.126  -1.742   1.309  0.00  0.00    -0.082 A 
ATOM      7  C5  PXY d   1      -0.759  -0.653   0.824  0.00  0.00     0.003 A 
ATOM      8  C6  PXY d   1      -0.010   0.467   0.474  0.00  0.00     0.003 A 
ENDROOT
TORSDOF 0
ENDMDL
