MODEL 1
REMARK minimizedAffinity -1.57097435
REMARK minimizedRMSD -1
REMARK  0 active torsions:
REMARK  status: ('A' for Active; 'I' for Inactive)
ROOT
ATOM      1  C4' PXY d   1      -1.333   0.746   0.508  0.00  0.00     0.077 C 
ATOM      2  C1' PXY d   1       2.968   2.262  -3.045  0.00  0.00     0.077 C 
ATOM      3  C1  PXY d   1       1.847   1.854  -2.109  0.00  0.00    -0.082 A 
ATOM      4  C2  PXY d   1       0.607   2.236  -2.368  0.00  0.00     0.003 A 
ATOM      5  C3  PXY d   1      -0.414   1.903  -1.515  0.00  0.00     0.003 A 
ATOM      6  C4  PXY d   1      -0.171   1.126  -0.414  0.00  0.00    -0.082 A 
ATOM      7  C5  PXY d   1       1.090   0.723  -0.149  0.00  0.00     0.003 A 
ATOM      8  C6  PXY d   1       2.118   1.106  -1.005  0.00  0.00     0.003 A 
ENDROOT
TORSDOF 0
ENDMDL
