MODEL 1
REMARK minimizedAffinity -5.20884466
REMARK minimizedRMSD -1
REMARK  0 active torsions:
REMARK  status: ('A' for Active; 'I' for Inactive)
ROOT
ATOM      1  C4' PXY d   1       0.896   1.385  -0.788  0.00  0.00     0.077 C 
ATOM      2  C1' PXY d   1      -2.072  -2.750   1.951  0.00  0.00     0.077 C 
ATOM      3  C1  PXY d   1      -1.283  -1.670   1.238  0.00  0.00    -0.082 A 
ATOM      4  C2  PXY d   1      -1.889  -0.554   0.866  0.00  0.00     0.003 A 
ATOM      5  C3  PXY d   1      -1.198   0.419   0.192  0.00  0.00     0.003 A 
ATOM      6  C4  PXY d   1       0.141   0.272  -0.057  0.00  0.00    -0.082 A 
ATOM      7  C5  PXY d   1       0.769  -0.859   0.329  0.00  0.00     0.003 A 
ATOM      8  C6  PXY d   1       0.040  -1.853   0.975  0.00  0.00     0.003 A 
ENDROOT
TORSDOF 0
ENDMDL
