MODEL 1
REMARK minimizedAffinity -3.88021731
REMARK minimizedRMSD -1
REMARK  0 active torsions:
REMARK  status: ('A' for Active; 'I' for Inactive)
ROOT
ATOM      1  C4' PXY d   1       1.127   1.439   0.212  0.00  0.00     0.077 C 
ATOM      2  C1' PXY d   1      -2.485  -2.972   1.165  0.00  0.00     0.077 C 
ATOM      3  C1  PXY d   1      -1.547  -1.809   0.909  0.00  0.00    -0.082 A 
ATOM      4  C2  PXY d   1      -0.241  -2.015   0.887  0.00  0.00     0.003 A 
ATOM      5  C3  PXY d   1       0.623  -0.969   0.688  0.00  0.00     0.003 A 
ATOM      6  C4  PXY d   1       0.142   0.292   0.458  0.00  0.00    -0.082 A 
ATOM      7  C5  PXY d   1      -1.190   0.509   0.468  0.00  0.00     0.003 A 
ATOM      8  C6  PXY d   1      -2.048  -0.560   0.712  0.00  0.00     0.003 A 
ENDROOT
TORSDOF 0
ENDMDL
