MODEL 1
REMARK minimizedAffinity -4.99384403
REMARK minimizedRMSD -1
REMARK  0 active torsions:
REMARK  status: ('A' for Active; 'I' for Inactive)
ROOT
ATOM      1  C4' PXY d   1      -3.479  -0.038   1.889  0.00  0.00     0.077 C 
ATOM      2  C1' PXY d   1       1.923  -1.313   0.274  0.00  0.00     0.077 C 
ATOM      3  C1  PXY d   1       0.503  -0.991   0.696  0.00  0.00    -0.082 A 
ATOM      4  C2  PXY d   1       0.046   0.244   0.568  0.00  0.00     0.003 A 
ATOM      5  C3  PXY d   1      -1.225   0.560   0.974  0.00  0.00     0.003 A 
ATOM      6  C4  PXY d   1      -2.055  -0.411   1.467  0.00  0.00    -0.082 A 
ATOM      7  C5  PXY d   1      -1.601  -1.676   1.591  0.00  0.00     0.003 A 
ATOM      8  C6  PXY d   1      -0.294  -1.966   1.211  0.00  0.00     0.003 A 
ENDROOT
TORSDOF 0
ENDMDL
