MODEL 1
REMARK minimizedAffinity -3.88959384
REMARK minimizedRMSD -1
REMARK  0 active torsions:
REMARK  status: ('A' for Active; 'I' for Inactive)
ROOT
ATOM      1  C4' PXY d   1      -0.668  -2.480   2.027  0.00  0.00     0.077 C 
ATOM      2  C1' PXY d   1       0.759   1.367  -2.045  0.00  0.00     0.077 C 
ATOM      3  C1  PXY d   1       0.372   0.359  -0.981  0.00  0.00    -0.082 A 
ATOM      4  C2  PXY d   1       1.146   0.199   0.081  0.00  0.00     0.003 A 
ATOM      5  C3  PXY d   1       0.828  -0.731   1.037  0.00  0.00     0.003 A 
ATOM      6  C4  PXY d   1      -0.322  -1.467   0.932  0.00  0.00    -0.082 A 
ATOM      7  C5  PXY d   1      -1.122  -1.303  -0.142  0.00  0.00     0.003 A 
ATOM      8  C6  PXY d   1      -0.760  -0.383  -1.123  0.00  0.00     0.003 A 
ENDROOT
TORSDOF 0
ENDMDL
