MODEL 1
REMARK minimizedAffinity -4.51398754
REMARK minimizedRMSD -1
REMARK  0 active torsions:
REMARK  status: ('A' for Active; 'I' for Inactive)
ROOT
ATOM      1  C   UNL d   1      -0.722   0.359  -1.643  0.00  0.00     0.077 C 
ATOM      2  C1  UNL d   1      -0.287   0.028  -0.246  0.00  0.00    -0.074 A 
ATOM      3  C2  UNL d   1      -1.225  -0.127   0.780  0.00  0.00    -0.005 A 
ATOM      4  C3  UNL d   1      -0.806  -0.443   2.073  0.00  0.00     0.006 A 
ATOM      5  C4  UNL d   1       0.551  -0.607   2.351  0.00  0.00    -0.005 A 
ATOM      6  C5  UNL d   1       1.503  -0.457   1.338  0.00  0.00    -0.074 A 
ATOM      7  C6  UNL d   1       2.965  -0.640   1.618  0.00  0.00     0.077 C 
ATOM      8  C7  UNL d   1       1.074  -0.146   0.040  0.00  0.00    -0.001 A 
ENDROOT
TORSDOF 0
ENDMDL
