MODEL 1
REMARK minimizedAffinity -3.14090347
REMARK minimizedRMSD -1
REMARK  0 active torsions:
REMARK  status: ('A' for Active; 'I' for Inactive)
ROOT
ATOM      1  C   UNL d   1      -3.430   3.040  -2.380  0.00  0.00     0.077 C 
ATOM      2  C1  UNL d   1      -1.989   2.646  -2.242  0.00  0.00    -0.074 A 
ATOM      3  C2  UNL d   1      -0.971   3.451  -2.763  0.00  0.00    -0.005 A 
ATOM      4  C3  UNL d   1       0.365   3.077  -2.619  0.00  0.00     0.006 A 
ATOM      5  C4  UNL d   1       0.696   1.895  -1.954  0.00  0.00    -0.005 A 
ATOM      6  C5  UNL d   1      -0.309   1.078  -1.426  0.00  0.00    -0.074 A 
ATOM      7  C6  UNL d   1       0.030  -0.190  -0.700  0.00  0.00     0.077 C 
ATOM      8  C7  UNL d   1      -1.648   1.465  -1.569  0.00  0.00    -0.001 A 
ENDROOT
TORSDOF 0
ENDMDL
