MODEL 1
REMARK minimizedAffinity -5.54742336
REMARK minimizedRMSD -1
REMARK  0 active torsions:
REMARK  status: ('A' for Active; 'I' for Inactive)
ROOT
ATOM      1  C   UNL d   1      -0.023  -0.217  -1.657  0.00  0.00     0.077 C 
ATOM      2  C1  UNL d   1       0.723  -0.680  -0.441  0.00  0.00    -0.074 A 
ATOM      3  C2  UNL d   1       1.850  -1.500  -0.559  0.00  0.00    -0.005 A 
ATOM      4  C3  UNL d   1       2.540  -1.915   0.581  0.00  0.00     0.006 A 
ATOM      5  C4  UNL d   1       2.110  -1.515   1.847  0.00  0.00    -0.005 A 
ATOM      6  C5  UNL d   1       0.985  -0.694   1.983  0.00  0.00    -0.074 A 
ATOM      7  C6  UNL d   1       0.516  -0.248   3.336  0.00  0.00     0.077 C 
ATOM      8  C7  UNL d   1       0.302  -0.276   0.833  0.00  0.00    -0.001 A 
ENDROOT
TORSDOF 0
ENDMDL
