MODEL 1
REMARK minimizedAffinity -5.84756851
REMARK minimizedRMSD -1
REMARK  0 active torsions:
REMARK  status: ('A' for Active; 'I' for Inactive)
ROOT
ATOM      1  C   UNL d   1      -0.626   0.179  -1.440  0.00  0.00     0.077 C 
ATOM      2  C1  UNL d   1       0.490  -0.382  -0.610  0.00  0.00    -0.074 A 
ATOM      3  C2  UNL d   1       1.549  -1.076  -1.205  0.00  0.00    -0.005 A 
ATOM      4  C3  UNL d   1       2.585  -1.584  -0.421  0.00  0.00     0.006 A 
ATOM      5  C4  UNL d   1       2.572  -1.404   0.963  0.00  0.00    -0.005 A 
ATOM      6  C5  UNL d   1       1.522  -0.712   1.575  0.00  0.00    -0.074 A 
ATOM      7  C6  UNL d   1       1.498  -0.501   3.059  0.00  0.00     0.077 C 
ATOM      8  C7  UNL d   1       0.489  -0.198   0.779  0.00  0.00    -0.001 A 
ENDROOT
TORSDOF 0
ENDMDL
