MODEL 1
REMARK minimizedAffinity -5.72853804
REMARK minimizedRMSD -1
REMARK  0 active torsions:
REMARK  status: ('A' for Active; 'I' for Inactive)
ROOT
ATOM      1  C   UNL d   1       2.579  -1.955   1.988  0.00  0.00     0.077 C 
ATOM      2  C1  UNL d   1       1.366  -1.111   1.735  0.00  0.00    -0.074 A 
ATOM      3  C2  UNL d   1       0.510  -0.750   2.780  0.00  0.00    -0.005 A 
ATOM      4  C3  UNL d   1      -0.610   0.043   2.531  0.00  0.00     0.006 A 
ATOM      5  C4  UNL d   1      -0.885   0.482   1.235  0.00  0.00    -0.005 A 
ATOM      6  C5  UNL d   1      -0.041   0.132   0.177  0.00  0.00    -0.074 A 
ATOM      7  C6  UNL d   1      -0.317   0.603  -1.220  0.00  0.00     0.077 C 
ATOM      8  C7  UNL d   1       1.086  -0.659   0.437  0.00  0.00    -0.001 A 
ENDROOT
TORSDOF 0
ENDMDL
