MODEL 1
REMARK minimizedAffinity -4.76714754
REMARK minimizedRMSD -1
REMARK  0 active torsions:
REMARK  status: ('A' for Active; 'I' for Inactive)
ROOT
ATOM      1  C   UNL d   1       3.193  -2.304   0.805  0.00  0.00     0.077 C 
ATOM      2  C1  UNL d   1       1.964  -1.529   1.174  0.00  0.00    -0.074 A 
ATOM      3  C2  UNL d   1       1.435  -1.592   2.467  0.00  0.00    -0.005 A 
ATOM      4  C3  UNL d   1       0.296  -0.858   2.798  0.00  0.00     0.006 A 
ATOM      5  C4  UNL d   1      -0.325  -0.054   1.841  0.00  0.00    -0.005 A 
ATOM      6  C5  UNL d   1       0.190   0.022   0.543  0.00  0.00    -0.074 A 
ATOM      7  C6  UNL d   1      -0.459   0.888  -0.495  0.00  0.00     0.077 C 
ATOM      8  C7  UNL d   1       1.339  -0.713   0.220  0.00  0.00    -0.001 A 
ENDROOT
TORSDOF 0
ENDMDL
