MODEL 1
REMARK minimizedAffinity -4.88055229
REMARK minimizedRMSD -1
REMARK  0 active torsions:
REMARK  status: ('A' for Active; 'I' for Inactive)
ROOT
ATOM      1  C   UNL d   1       1.856  -0.883  -1.871  0.00  0.00     0.077 C 
ATOM      2  C1  UNL d   1       1.122  -0.829  -0.564  0.00  0.00    -0.074 A 
ATOM      3  C2  UNL d   1      -0.195  -0.364  -0.498  0.00  0.00    -0.005 A 
ATOM      4  C3  UNL d   1      -0.868  -0.328   0.724  0.00  0.00     0.006 A 
ATOM      5  C4  UNL d   1      -0.231  -0.755   1.889  0.00  0.00    -0.005 A 
ATOM      6  C5  UNL d   1       1.086  -1.224   1.843  0.00  0.00    -0.074 A 
ATOM      7  C6  UNL d   1       1.781  -1.696   3.085  0.00  0.00     0.077 C 
ATOM      8  C7  UNL d   1       1.753  -1.264   0.611  0.00  0.00    -0.001 A 
ENDROOT
TORSDOF 0
ENDMDL
