MODEL 1
REMARK minimizedAffinity -5.88076115
REMARK minimizedRMSD -1
REMARK  0 active torsions:
REMARK  status: ('A' for Active; 'I' for Inactive)
ROOT
ATOM      1  C   UNL d   1      -0.624   0.614  -0.995  0.00  0.00     0.077 C 
ATOM      2  C1  UNL d   1      -0.070   0.026   0.269  0.00  0.00    -0.074 A 
ATOM      3  C2  UNL d   1      -0.709   0.228   1.497  0.00  0.00    -0.005 A 
ATOM      4  C3  UNL d   1      -0.187  -0.333   2.662  0.00  0.00     0.006 A 
ATOM      5  C4  UNL d   1       0.977  -1.101   2.612  0.00  0.00    -0.005 A 
ATOM      6  C5  UNL d   1       1.629  -1.315   1.393  0.00  0.00    -0.074 A 
ATOM      7  C6  UNL d   1       2.876  -2.146   1.320  0.00  0.00     0.077 C 
ATOM      8  C7  UNL d   1       1.095  -0.753   0.225  0.00  0.00    -0.001 A 
ENDROOT
TORSDOF 0
ENDMDL
