MODEL 1
REMARK minimizedAffinity -2.05531144
REMARK minimizedRMSD -1
REMARK  0 active torsions:
REMARK  status: ('A' for Active; 'I' for Inactive)
ROOT
ATOM      1  C   UNL d   1       0.983  -0.359  -0.894  0.00  0.00     0.020 A 
ATOM      2  C1  UNL d   1       0.010   0.445  -1.488  0.00  0.00     0.020 A 
ATOM      3  C2  UNL d   1      -0.910   1.131  -0.692  0.00  0.00     0.034 A 
ATOM      4  C3  UNL d   1      -0.859   1.015   0.702  0.00  0.00     0.017 A 
ATOM      5  C4  UNL d   1       0.117   0.208   1.297  0.00  0.00     0.017 A 
ATOM      6  C5  UNL d   1       1.036  -0.477   0.495  0.00  0.00     0.034 A 
ATOM      7 Cl   UNL d   1       0.243   0.015   3.010  0.00  0.00    -0.070 Cl
ATOM      8 Cl1  UNL d   1      -2.028   1.892   1.624  0.00  0.00    -0.070 Cl
ENDROOT
TORSDOF 0
ENDMDL
