MODEL 1
REMARK minimizedAffinity -1.0845691
REMARK minimizedRMSD -1
REMARK  0 active torsions:
REMARK  status: ('A' for Active; 'I' for Inactive)
ROOT
ATOM      1  C   UNL d   1       0.400  -0.745   0.953  0.00  0.00     0.020 A 
ATOM      2  C1  UNL d   1       0.286  -0.972  -0.417  0.00  0.00     0.020 A 
ATOM      3  C2  UNL d   1      -0.144   0.054  -1.262  0.00  0.00     0.034 A 
ATOM      4  C3  UNL d   1      -0.462   1.311  -0.736  0.00  0.00     0.017 A 
ATOM      5  C4  UNL d   1      -0.347   1.538   0.641  0.00  0.00     0.017 A 
ATOM      6  C5  UNL d   1       0.085   0.508   1.481  0.00  0.00     0.034 A 
ATOM      7 Cl   UNL d   1      -0.721   3.063   1.363  0.00  0.00    -0.070 Cl
ATOM      8 Cl1  UNL d   1      -0.988   2.534  -1.838  0.00  0.00    -0.070 Cl
ENDROOT
TORSDOF 0
ENDMDL
