MODEL 1
REMARK minimizedAffinity -2.28873396
REMARK minimizedRMSD -1
REMARK  0 active torsions:
REMARK  status: ('A' for Active; 'I' for Inactive)
ROOT
ATOM      1  C   UNL d   1       0.002   1.779  -2.145  0.00  0.00     0.020 A 
ATOM      2  C1  UNL d   1       0.697   0.899  -2.974  0.00  0.00     0.020 A 
ATOM      3  C2  UNL d   1       1.235  -0.277  -2.449  0.00  0.00     0.034 A 
ATOM      4  C3  UNL d   1       1.080  -0.577  -1.091  0.00  0.00     0.017 A 
ATOM      5  C4  UNL d   1       0.382   0.306  -0.259  0.00  0.00     0.017 A 
ATOM      6  C5  UNL d   1      -0.155   1.483  -0.790  0.00  0.00     0.034 A 
ATOM      7 Cl   UNL d   1       0.150   0.004   1.427  0.00  0.00    -0.070 Cl
ATOM      8 Cl1  UNL d   1       1.772  -2.050  -0.509  0.00  0.00    -0.070 Cl
ENDROOT
TORSDOF 0
ENDMDL
