MODEL 1
REMARK minimizedAffinity -4.53612661
REMARK minimizedRMSD -1
REMARK  0 active torsions:
REMARK  status: ('A' for Active; 'I' for Inactive)
ROOT
ATOM      1  C   UNL d   1      -2.018   2.432  -0.250  0.00  0.00     0.020 A 
ATOM      2  C1  UNL d   1      -1.811   2.551   1.124  0.00  0.00     0.020 A 
ATOM      3  C2  UNL d   1      -0.854   1.756   1.757  0.00  0.00     0.034 A 
ATOM      4  C3  UNL d   1      -0.100   0.837   1.017  0.00  0.00     0.017 A 
ATOM      5  C4  UNL d   1      -0.309   0.718  -0.362  0.00  0.00     0.017 A 
ATOM      6  C5  UNL d   1      -1.269   1.517  -0.991  0.00  0.00     0.034 A 
ATOM      7 Cl   UNL d   1       0.581  -0.393  -1.342  0.00  0.00    -0.070 Cl
ATOM      8 Cl1  UNL d   1       1.066  -0.115   1.865  0.00  0.00    -0.070 Cl
ENDROOT
TORSDOF 0
ENDMDL
