MODEL 1
REMARK minimizedAffinity -3.39641976
REMARK minimizedRMSD -1
REMARK  0 active torsions:
REMARK  status: ('A' for Active; 'I' for Inactive)
ROOT
ATOM      1  C   UNL d   1      -1.175   2.308   1.980  0.00  0.00     0.020 A 
ATOM      2  C1  UNL d   1      -1.765   2.146   0.727  0.00  0.00     0.020 A 
ATOM      3  C2  UNL d   1      -1.269   1.188  -0.159  0.00  0.00     0.034 A 
ATOM      4  C3  UNL d   1      -0.181   0.387   0.206  0.00  0.00     0.017 A 
ATOM      5  C4  UNL d   1       0.410   0.550   1.464  0.00  0.00     0.017 A 
ATOM      6  C5  UNL d   1      -0.090   1.511   2.348  0.00  0.00     0.034 A 
ATOM      7 Cl   UNL d   1       1.756  -0.401   1.986  0.00  0.00    -0.070 Cl
ATOM      8 Cl1  UNL d   1       0.380  -0.778  -0.940  0.00  0.00    -0.070 Cl
ENDROOT
TORSDOF 0
ENDMDL
