MODEL 1
REMARK minimizedAffinity -4.21069813
REMARK minimizedRMSD -1
REMARK  0 active torsions:
REMARK  status: ('A' for Active; 'I' for Inactive)
ROOT
ATOM      1  C   UNL d   1      -1.221   2.203   1.848  0.00  0.00     0.020 A 
ATOM      2  C1  UNL d   1      -1.630   2.047   0.524  0.00  0.00     0.020 A 
ATOM      3  C2  UNL d   1      -0.956   1.157  -0.315  0.00  0.00     0.034 A 
ATOM      4  C3  UNL d   1       0.130   0.419   0.169  0.00  0.00     0.017 A 
ATOM      5  C4  UNL d   1       0.540   0.576   1.498  0.00  0.00     0.017 A 
ATOM      6  C5  UNL d   1      -0.138   1.469   2.334  0.00  0.00     0.034 A 
ATOM      7 Cl   UNL d   1       1.871  -0.300   2.168  0.00  0.00    -0.070 Cl
ATOM      8 Cl1  UNL d   1       0.917  -0.664  -0.923  0.00  0.00    -0.070 Cl
ENDROOT
TORSDOF 0
ENDMDL
