MODEL 1
REMARK minimizedAffinity -0.60402751
REMARK minimizedRMSD -1
REMARK  0 active torsions:
REMARK  status: ('A' for Active; 'I' for Inactive)
ROOT
ATOM      1  C   UNL d   1      -0.079   1.134  -1.741  0.00  0.00     0.020 A 
ATOM      2  C1  UNL d   1       0.341  -0.173  -1.498  0.00  0.00     0.020 A 
ATOM      3  C2  UNL d   1       0.652  -0.577  -0.198  0.00  0.00     0.034 A 
ATOM      4  C3  UNL d   1       0.544   0.328   0.864  0.00  0.00     0.017 A 
ATOM      5  C4  UNL d   1       0.123   1.640   0.620  0.00  0.00     0.017 A 
ATOM      6  C5  UNL d   1      -0.187   2.038  -0.684  0.00  0.00     0.034 A 
ATOM      7 Cl   UNL d   1      -0.034   2.813   1.879  0.00  0.00    -0.070 Cl
ATOM      8 Cl1  UNL d   1       0.945  -0.239   2.447  0.00  0.00    -0.070 Cl
ENDROOT
TORSDOF 0
ENDMDL
