MODEL 1
REMARK minimizedAffinity -3.94425726
REMARK minimizedRMSD -1
REMARK  0 active torsions:
REMARK  status: ('A' for Active; 'I' for Inactive)
ROOT
ATOM      1  C   UNL d   1       0.318   0.440  -1.605  0.00  0.00     0.020 A 
ATOM      2  C1  UNL d   1      -0.219   1.725  -1.655  0.00  0.00     0.020 A 
ATOM      3  C2  UNL d   1      -0.480   2.419  -0.472  0.00  0.00     0.034 A 
ATOM      4  C3  UNL d   1      -0.205   1.827   0.767  0.00  0.00     0.017 A 
ATOM      5  C4  UNL d   1       0.334   0.537   0.816  0.00  0.00     0.017 A 
ATOM      6  C5  UNL d   1       0.594  -0.153  -0.373  0.00  0.00     0.034 A 
ATOM      7 Cl   UNL d   1       0.700  -0.259   2.306  0.00  0.00    -0.070 Cl
ATOM      8 Cl1  UNL d   1      -0.554   2.743   2.190  0.00  0.00    -0.070 Cl
ENDROOT
TORSDOF 0
ENDMDL
