MODEL 1
REMARK minimizedAffinity -1.20322061
REMARK minimizedRMSD -1
REMARK  0 active torsions:
REMARK  status: ('A' for Active; 'I' for Inactive)
ROOT
ATOM      1  C   UNL d   1      -1.992   2.620   0.097  0.00  0.00     0.020 A 
ATOM      2  C1  UNL d   1      -1.864   1.512  -0.740  0.00  0.00     0.020 A 
ATOM      3  C2  UNL d   1      -0.830   0.596  -0.533  0.00  0.00     0.034 A 
ATOM      4  C3  UNL d   1       0.081   0.788   0.513  0.00  0.00     0.017 A 
ATOM      5  C4  UNL d   1      -0.049   1.900   1.352  0.00  0.00     0.017 A 
ATOM      6  C5  UNL d   1      -1.087   2.813   1.140  0.00  0.00     0.034 A 
ATOM      7 Cl   UNL d   1       1.035   2.203   2.664  0.00  0.00    -0.070 Cl
ATOM      8 Cl1  UNL d   1       1.335  -0.384   0.711  0.00  0.00    -0.070 Cl
ENDROOT
TORSDOF 0
ENDMDL
