MODEL 1
REMARK minimizedAffinity -5.11468363
REMARK minimizedRMSD -1
REMARK  3 active torsions:
REMARK  status: ('A' for Active; 'I' for Inactive)
REMARK    1  A    between atoms: C3'_2  and  C2'_3 
REMARK    2  A    between atoms: C2'_3  and  C1'_4 
REMARK    3  A    between atoms: C1'_4  and  C1_5 
ROOT
ATOM      1  C1  N4B d   1      -0.104   0.156  -0.047  0.00  0.00    -0.075 A 
ATOM      2  C2  N4B d   1      -0.022  -1.237   0.172  0.00  0.00     0.002 A 
ATOM      3  C3  N4B d   1       1.113  -1.923  -0.185  0.00  0.00     0.002 A 
ATOM      4  C4  N4B d   1       2.167  -1.244  -0.778  0.00  0.00    -0.004 A 
ATOM      5  C5  N4B d   1       2.090   0.106  -0.963  0.00  0.00     0.002 A 
ATOM      6  C6  N4B d   1       0.957   0.809  -0.605  0.00  0.00     0.002 A 
ENDROOT
BRANCH   1   7
ATOM      7  C1' N4B d   1      -1.357   0.934   0.248  0.00  0.00     0.057 C 
BRANCH   7   8
ATOM      8  C2' N4B d   1      -2.039   0.338   1.475  0.00  0.00     0.009 C 
BRANCH   8   9
ATOM      9  C3' N4B d   1      -1.879   1.221   2.700  0.00  0.00     0.004 C 
ATOM     10  C4' N4B d   1      -1.695   0.434   3.964  0.00  0.00     0.003 C 
ENDBRANCH   8   9
ENDBRANCH   7   8
ENDBRANCH   1   7
TORSDOF 3
ENDMDL
