MODEL 1
REMARK minimizedAffinity -4.84345341
REMARK minimizedRMSD -1
REMARK  3 active torsions:
REMARK  status: ('A' for Active; 'I' for Inactive)
REMARK    1  A    between atoms: C3'_2  and  C2'_3 
REMARK    2  A    between atoms: C2'_3  and  C1'_4 
REMARK    3  A    between atoms: C1'_4  and  C1_5 
ROOT
ATOM      1  C1  N4B d   1       0.155   0.490  -0.636  0.00  0.00    -0.075 A 
ATOM      2  C2  N4B d   1       0.530  -0.845  -0.365  0.00  0.00     0.002 A 
ATOM      3  C3  N4B d   1       1.666  -1.367  -0.933  0.00  0.00     0.002 A 
ATOM      4  C4  N4B d   1       2.430  -0.583  -1.785  0.00  0.00    -0.004 A 
ATOM      5  C5  N4B d   1       2.074   0.713  -2.020  0.00  0.00     0.002 A 
ATOM      6  C6  N4B d   1       0.937   1.252  -1.454  0.00  0.00     0.002 A 
ENDROOT
BRANCH   1   7
ATOM      7  C1' N4B d   1      -1.125   1.078  -0.107  0.00  0.00     0.057 C 
BRANCH   7   8
ATOM      8  C2' N4B d   1      -1.660   0.188   1.011  0.00  0.00     0.009 C 
BRANCH   8   9
ATOM      9  C3' N4B d   1      -1.878   0.963   2.299  0.00  0.00     0.004 C 
ATOM     10  C4' N4B d   1      -2.559   0.150   3.359  0.00  0.00     0.003 C 
ENDBRANCH   8   9
ENDBRANCH   7   8
ENDBRANCH   1   7
TORSDOF 3
ENDMDL
