MODEL 1
REMARK minimizedAffinity -6.14235592
REMARK minimizedRMSD -1
REMARK  3 active torsions:
REMARK  status: ('A' for Active; 'I' for Inactive)
REMARK    1  A    between atoms: C3'_2  and  C2'_3 
REMARK    2  A    between atoms: C2'_3  and  C1'_4 
REMARK    3  A    between atoms: C1'_4  and  C1_5 
ROOT
ATOM      1  C1  N4B d   1       0.985  -0.050  -0.603  0.00  0.00    -0.075 A 
ATOM      2  C2  N4B d   1       2.149  -0.813  -0.843  0.00  0.00     0.002 A 
ATOM      3  C3  N4B d   1       3.023  -0.439  -1.834  0.00  0.00     0.002 A 
ATOM      4  C4  N4B d   1       2.746   0.679  -2.606  0.00  0.00    -0.004 A 
ATOM      5  C5  N4B d   1       1.633   1.425  -2.351  0.00  0.00     0.002 A 
ATOM      6  C6  N4B d   1       0.748   1.063  -1.356  0.00  0.00     0.002 A 
ENDROOT
BRANCH   1   7
ATOM      7  C1' N4B d   1      -0.043  -0.468   0.412  0.00  0.00     0.057 C 
BRANCH   7   8
ATOM      8  C2' N4B d   1      -1.326   0.326   0.182  0.00  0.00     0.009 C 
BRANCH   8   9
ATOM      9  C3' N4B d   1      -2.130   0.489   1.461  0.00  0.00     0.004 C 
ATOM     10  C4' N4B d   1      -1.471   1.406   2.448  0.00  0.00     0.003 C 
ENDBRANCH   8   9
ENDBRANCH   7   8
ENDBRANCH   1   7
TORSDOF 3
ENDMDL
