MODEL 1
REMARK minimizedAffinity -3.86767864
REMARK minimizedRMSD -1
REMARK  3 active torsions:
REMARK  status: ('A' for Active; 'I' for Inactive)
REMARK    1  A    between atoms: C3'_2  and  C2'_3 
REMARK    2  A    between atoms: C2'_3  and  C1'_4 
REMARK    3  A    between atoms: C1'_4  and  C1_5 
ROOT
ATOM      1  C1  N4B d   1      -0.090  -0.473  -0.134  0.00  0.00    -0.075 A 
ATOM      2  C2  N4B d   1       0.775  -0.129  -1.196  0.00  0.00     0.002 A 
ATOM      3  C3  N4B d   1       1.922  -0.853  -1.409  0.00  0.00     0.002 A 
ATOM      4  C4  N4B d   1       2.233  -1.909  -0.566  0.00  0.00    -0.004 A 
ATOM      5  C5  N4B d   1       1.379  -2.251   0.442  0.00  0.00     0.002 A 
ATOM      6  C6  N4B d   1       0.221  -1.534   0.665  0.00  0.00     0.002 A 
ENDROOT
BRANCH   1   7
ATOM      7  C1' N4B d   1      -1.311   0.343   0.191  0.00  0.00     0.057 C 
BRANCH   7   8
ATOM      8  C2' N4B d   1      -2.035  -0.289   1.376  0.00  0.00     0.009 C 
BRANCH   8   9
ATOM      9  C3' N4B d   1      -2.759   0.747   2.218  0.00  0.00     0.004 C 
ATOM     10  C4' N4B d   1      -1.821   1.674   2.932  0.00  0.00     0.003 C 
ENDBRANCH   8   9
ENDBRANCH   7   8
ENDBRANCH   1   7
TORSDOF 3
ENDMDL
