MODEL 1
REMARK minimizedAffinity -7.02833176
REMARK minimizedRMSD -1
REMARK  3 active torsions:
REMARK  status: ('A' for Active; 'I' for Inactive)
REMARK    1  A    between atoms: C3'_2  and  C2'_3 
REMARK    2  A    between atoms: C2'_3  and  C1'_4 
REMARK    3  A    between atoms: C1'_4  and  C1_5 
ROOT
ATOM      1  C1  N4B d   1       0.500   0.328  -0.954  0.00  0.00    -0.075 A 
ATOM      2  C2  N4B d   1       1.310   1.291  -1.594  0.00  0.00     0.002 A 
ATOM      3  C3  N4B d   1       2.598   0.976  -1.950  0.00  0.00     0.002 A 
ATOM      4  C4  N4B d   1       3.102  -0.283  -1.661  0.00  0.00    -0.004 A 
ATOM      5  C5  N4B d   1       2.305  -1.216  -1.065  0.00  0.00     0.002 A 
ATOM      6  C6  N4B d   1       1.006  -0.915  -0.705  0.00  0.00     0.002 A 
ENDROOT
BRANCH   1   7
ATOM      7  C1' N4B d   1      -0.887   0.653  -0.468  0.00  0.00     0.057 C 
BRANCH   7   8
ATOM      8  C2' N4B d   1      -1.024   0.213   0.986  0.00  0.00     0.009 C 
BRANCH   8   9
ATOM      9  C3' N4B d   1      -1.945   1.130   1.773  0.00  0.00     0.004 C 
ATOM     10  C4' N4B d   1      -1.448   1.400   3.161  0.00  0.00     0.003 C 
ENDBRANCH   8   9
ENDBRANCH   7   8
ENDBRANCH   1   7
TORSDOF 3
ENDMDL
