MODEL 1
REMARK minimizedAffinity -6.0373559
REMARK minimizedRMSD -1
REMARK  3 active torsions:
REMARK  status: ('A' for Active; 'I' for Inactive)
REMARK    1  A    between atoms: C3'_2  and  C2'_3 
REMARK    2  A    between atoms: C2'_3  and  C1'_4 
REMARK    3  A    between atoms: C1'_4  and  C1_5 
ROOT
ATOM      1  C1  N4B d   1       0.453   0.034  -0.543  0.00  0.00    -0.075 A 
ATOM      2  C2  N4B d   1       0.439   1.278  -1.211  0.00  0.00     0.002 A 
ATOM      3  C3  N4B d   1       1.552   1.702  -1.894  0.00  0.00     0.002 A 
ATOM      4  C4  N4B d   1       2.692   0.912  -1.907  0.00  0.00    -0.004 A 
ATOM      5  C5  N4B d   1       2.689  -0.299  -1.280  0.00  0.00     0.002 A 
ATOM      6  C6  N4B d   1       1.576  -0.741  -0.593  0.00  0.00     0.002 A 
ENDROOT
BRANCH   1   7
ATOM      7  C1' N4B d   1      -0.710  -0.434   0.289  0.00  0.00     0.057 C 
BRANCH   7   8
ATOM      8  C2' N4B d   1      -1.541   0.774   0.711  0.00  0.00     0.009 C 
BRANCH   8   9
ATOM      9  C3' N4B d   1      -1.907   0.724   2.185  0.00  0.00     0.004 C 
ATOM     10  C4' N4B d   1      -1.607   2.007   2.901  0.00  0.00     0.003 C 
ENDBRANCH   8   9
ENDBRANCH   7   8
ENDBRANCH   1   7
TORSDOF 3
ENDMDL
