MODEL 1
REMARK minimizedAffinity -6.09056044
REMARK minimizedRMSD -1
REMARK  3 active torsions:
REMARK  status: ('A' for Active; 'I' for Inactive)
REMARK    1  A    between atoms: C3'_2  and  C2'_3 
REMARK    2  A    between atoms: C2'_3  and  C1'_4 
REMARK    3  A    between atoms: C1'_4  and  C1_5 
ROOT
ATOM      1  C1  N4B d   1      -0.735   0.357   1.035  0.00  0.00    -0.075 A 
ATOM      2  C2  N4B d   1      -2.070  -0.060   0.842  0.00  0.00     0.002 A 
ATOM      3  C3  N4B d   1      -3.006   0.158   1.824  0.00  0.00     0.002 A 
ATOM      4  C4  N4B d   1      -2.627   0.771   3.009  0.00  0.00    -0.004 A 
ATOM      5  C5  N4B d   1      -1.340   1.193   3.177  0.00  0.00     0.002 A 
ATOM      6  C6  N4B d   1      -0.390   0.984   2.197  0.00  0.00     0.002 A 
ENDROOT
BRANCH   1   7
ATOM      7  C1' N4B d   1       0.342   0.063   0.026  0.00  0.00     0.057 C 
BRANCH   7   8
ATOM      8  C2' N4B d   1       0.687  -1.422   0.080  0.00  0.00     0.009 C 
BRANCH   8   9
ATOM      9  C3' N4B d   1       1.873  -1.763  -0.806  0.00  0.00     0.004 C 
ATOM     10  C4' N4B d   1       3.006  -0.792  -0.657  0.00  0.00     0.003 C 
ENDBRANCH   8   9
ENDBRANCH   7   8
ENDBRANCH   1   7
TORSDOF 3
ENDMDL
