MODEL 1
REMARK minimizedAffinity -6.12510204
REMARK minimizedRMSD -1
REMARK  3 active torsions:
REMARK  status: ('A' for Active; 'I' for Inactive)
REMARK    1  A    between atoms: C3'_2  and  C2'_3 
REMARK    2  A    between atoms: C2'_3  and  C1'_4 
REMARK    3  A    between atoms: C1'_4  and  C1_5 
ROOT
ATOM      1  C1  N4B d   1       0.393   0.285  -0.401  0.00  0.00    -0.075 A 
ATOM      2  C2  N4B d   1       0.757  -1.038  -0.065  0.00  0.00     0.002 A 
ATOM      3  C3  N4B d   1       1.873  -1.606  -0.627  0.00  0.00     0.002 A 
ATOM      4  C4  N4B d   1       2.627  -0.882  -1.538  0.00  0.00    -0.004 A 
ATOM      5  C5  N4B d   1       2.283   0.404  -1.838  0.00  0.00     0.002 A 
ATOM      6  C6  N4B d   1       1.166   0.990  -1.277  0.00  0.00     0.002 A 
ENDROOT
BRANCH   1   7
ATOM      7  C1' N4B d   1      -0.867   0.919   0.122  0.00  0.00     0.057 C 
BRANCH   7   8
ATOM      8  C2' N4B d   1      -1.474   0.018   1.194  0.00  0.00     0.009 C 
BRANCH   8   9
ATOM      9  C3' N4B d   1      -1.793   0.784   2.466  0.00  0.00     0.004 C 
ATOM     10  C4' N4B d   1      -1.474   0.007   3.708  0.00  0.00     0.003 C 
ENDBRANCH   8   9
ENDBRANCH   7   8
ENDBRANCH   1   7
TORSDOF 3
ENDMDL
