MODEL 1
REMARK minimizedAffinity -4.08684492
REMARK minimizedRMSD -1
REMARK  3 active torsions:
REMARK  status: ('A' for Active; 'I' for Inactive)
REMARK    1  A    between atoms: C3'_2  and  C2'_3 
REMARK    2  A    between atoms: C2'_3  and  C1'_4 
REMARK    3  A    between atoms: C1'_4  and  C1_5 
ROOT
ATOM      1  C1  N4B d   1       0.425   0.040  -0.640  0.00  0.00    -0.075 A 
ATOM      2  C2  N4B d   1       1.281  -1.079  -0.736  0.00  0.00     0.002 A 
ATOM      3  C3  N4B d   1       2.404  -1.018  -1.525  0.00  0.00     0.002 A 
ATOM      4  C4  N4B d   1       2.679   0.139  -2.238  0.00  0.00    -0.004 A 
ATOM      5  C5  N4B d   1       1.860   1.224  -2.120  0.00  0.00     0.002 A 
ATOM      6  C6  N4B d   1       0.731   1.178  -1.328  0.00  0.00     0.002 A 
ENDROOT
BRANCH   1   7
ATOM      7  C1' N4B d   1      -0.860  -0.008   0.142  0.00  0.00     0.057 C 
BRANCH   7   8
ATOM      8  C2' N4B d   1      -0.859   1.114   1.175  0.00  0.00     0.009 C 
BRANCH   8   9
ATOM      9  C3' N4B d   1      -1.701   0.768   2.391  0.00  0.00     0.004 C 
ATOM     10  C4' N4B d   1      -1.798   1.898   3.372  0.00  0.00     0.003 C 
ENDBRANCH   8   9
ENDBRANCH   7   8
ENDBRANCH   1   7
TORSDOF 3
ENDMDL
