MODEL 1
REMARK minimizedAffinity -2.63000536
REMARK minimizedRMSD -1
REMARK  3 active torsions:
REMARK  status: ('A' for Active; 'I' for Inactive)
REMARK    1  A    between atoms: C3'_2  and  C2'_3 
REMARK    2  A    between atoms: C2'_3  and  C1'_4 
REMARK    3  A    between atoms: C1'_4  and  C1_5 
ROOT
ATOM      1  C1  N4B d   1       0.796   0.660  -0.385  0.00  0.00    -0.075 A 
ATOM      2  C2  N4B d   1      -0.509   0.196  -0.109  0.00  0.00     0.002 A 
ATOM      3  C3  N4B d   1      -0.920   0.034   1.191  0.00  0.00     0.002 A 
ATOM      4  C4  N4B d   1      -0.041   0.312   2.227  0.00  0.00    -0.004 A 
ATOM      5  C5  N4B d   1       1.209   0.785   1.953  0.00  0.00     0.002 A 
ATOM      6  C6  N4B d   1       1.634   0.956   0.651  0.00  0.00     0.002 A 
ENDROOT
BRANCH   1   7
ATOM      7  C1' N4B d   1       1.319   0.771  -1.791  0.00  0.00     0.057 C 
BRANCH   7   8
ATOM      8  C2' N4B d   1       0.479  -0.112  -2.709  0.00  0.00     0.009 C 
BRANCH   8   9
ATOM      9  C3' N4B d   1       0.916  -1.566  -2.655  0.00  0.00     0.004 C 
ATOM     10  C4' N4B d   1       0.264  -2.407  -3.712  0.00  0.00     0.003 C 
ENDBRANCH   8   9
ENDBRANCH   7   8
ENDBRANCH   1   7
TORSDOF 3
ENDMDL
