MODEL 1
REMARK minimizedAffinity -4.27730322
REMARK minimizedRMSD -1
REMARK  3 active torsions:
REMARK  status: ('A' for Active; 'I' for Inactive)
REMARK    1  A    between atoms: C3'_2  and  C2'_3 
REMARK    2  A    between atoms: C2'_3  and  C1'_4 
REMARK    3  A    between atoms: C1'_4  and  C1_5 
ROOT
ATOM      1  C1  N4B d   1       0.010  -0.205   0.281  0.00  0.00    -0.075 A 
ATOM      2  C2  N4B d   1       0.665   0.680   1.166  0.00  0.00     0.002 A 
ATOM      3  C3  N4B d   1       0.613   0.460   2.520  0.00  0.00     0.002 A 
ATOM      4  C4  N4B d   1      -0.101  -0.623   3.012  0.00  0.00    -0.004 A 
ATOM      5  C5  N4B d   1      -0.709  -1.487   2.150  0.00  0.00     0.002 A 
ATOM      6  C6  N4B d   1      -0.662  -1.281   0.786  0.00  0.00     0.002 A 
ENDROOT
BRANCH   1   7
ATOM      7  C1' N4B d   1      -0.033   0.042  -1.202  0.00  0.00     0.057 C 
BRANCH   7   8
ATOM      8  C2' N4B d   1       0.384  -1.230  -1.934  0.00  0.00     0.009 C 
BRANCH   8   9
ATOM      9  C3' N4B d   1       1.230  -0.930  -3.160  0.00  0.00     0.004 C 
ATOM     10  C4' N4B d   1       2.021  -2.115  -3.625  0.00  0.00     0.003 C 
ENDBRANCH   8   9
ENDBRANCH   7   8
ENDBRANCH   1   7
TORSDOF 3
ENDMDL
