MODEL 1
REMARK minimizedAffinity -5.72258139
REMARK minimizedRMSD -1
REMARK  3 active torsions:
REMARK  status: ('A' for Active; 'I' for Inactive)
REMARK    1  A    between atoms: C3'_2  and  C2'_3 
REMARK    2  A    between atoms: C2'_3  and  C1'_4 
REMARK    3  A    between atoms: C1'_4  and  C1_5 
ROOT
ATOM      1  C1  N4B d   1       0.819   0.487  -0.686  0.00  0.00    -0.075 A 
ATOM      2  C2  N4B d   1      -0.381  -0.227  -0.475  0.00  0.00     0.002 A 
ATOM      3  C3  N4B d   1      -0.825  -0.459   0.804  0.00  0.00     0.002 A 
ATOM      4  C4  N4B d   1      -0.080  -0.006   1.882  0.00  0.00    -0.004 A 
ATOM      5  C5  N4B d   1       1.065   0.705   1.669  0.00  0.00     0.002 A 
ATOM      6  C6  N4B d   1       1.521   0.949   0.389  0.00  0.00     0.002 A 
ENDROOT
BRANCH   1   7
ATOM      7  C1' N4B d   1       1.390   0.692  -2.063  0.00  0.00     0.057 C 
BRANCH   7   8
ATOM      8  C2' N4B d   1       0.669  -0.227  -3.045  0.00  0.00     0.009 C 
BRANCH   8   9
ATOM      9  C3' N4B d   1       1.511  -1.438  -3.413  0.00  0.00     0.004 C 
ATOM     10  C4' N4B d   1       0.719  -2.711  -3.433  0.00  0.00     0.003 C 
ENDBRANCH   8   9
ENDBRANCH   7   8
ENDBRANCH   1   7
TORSDOF 3
ENDMDL
