MODEL 1
REMARK minimizedAffinity -4.04840326
REMARK minimizedRMSD -1
REMARK  3 active torsions:
REMARK  status: ('A' for Active; 'I' for Inactive)
REMARK    1  A    between atoms: C3'_2  and  C2'_3 
REMARK    2  A    between atoms: C2'_3  and  C1'_4 
REMARK    3  A    between atoms: C1'_4  and  C1_5 
ROOT
ATOM      1  C1  N4B d   1       1.630  -0.211  -3.186  0.00  0.00    -0.075 A 
ATOM      2  C2  N4B d   1       2.261   1.052  -3.215  0.00  0.00     0.002 A 
ATOM      3  C3  N4B d   1       3.506   1.185  -3.781  0.00  0.00     0.002 A 
ATOM      4  C4  N4B d   1       4.144   0.070  -4.304  0.00  0.00    -0.004 A 
ATOM      5  C5  N4B d   1       3.516  -1.141  -4.295  0.00  0.00     0.002 A 
ATOM      6  C6  N4B d   1       2.264  -1.288  -3.733  0.00  0.00     0.002 A 
ENDROOT
BRANCH   1   7
ATOM      7  C1' N4B d   1       0.307  -0.422  -2.502  0.00  0.00     0.057 C 
BRANCH   7   8
ATOM      8  C2' N4B d   1       0.291   0.358  -1.190  0.00  0.00     0.009 C 
BRANCH   8   9
ATOM      9  C3' N4B d   1      -0.086  -0.521  -0.011  0.00  0.00     0.004 C 
ATOM     10  C4' N4B d   1      -1.295  -0.021   0.723  0.00  0.00     0.003 C 
ENDBRANCH   8   9
ENDBRANCH   7   8
ENDBRANCH   1   7
TORSDOF 3
ENDMDL
