MODEL 1
REMARK minimizedAffinity -4.05629921
REMARK minimizedRMSD -1
REMARK  3 active torsions:
REMARK  status: ('A' for Active; 'I' for Inactive)
REMARK    1  A    between atoms: C3'_2  and  C2'_3 
REMARK    2  A    between atoms: C2'_3  and  C1'_4 
REMARK    3  A    between atoms: C1'_4  and  C1_5 
ROOT
ATOM      1  C1  N4B d   1      -0.036   0.567  -1.004  0.00  0.00    -0.075 A 
ATOM      2  C2  N4B d   1      -1.443   0.668  -0.923  0.00  0.00     0.002 A 
ATOM      3  C3  N4B d   1      -2.083   0.396   0.262  0.00  0.00     0.002 A 
ATOM      4  C4  N4B d   1      -1.342   0.007   1.368  0.00  0.00    -0.004 A 
ATOM      5  C5  N4B d   1       0.018  -0.063   1.288  0.00  0.00     0.002 A 
ATOM      6  C6  N4B d   1       0.675   0.210   0.105  0.00  0.00     0.002 A 
ENDROOT
BRANCH   1   7
ATOM      7  C1' N4B d   1       0.700   0.770  -2.300  0.00  0.00     0.057 C 
BRANCH   7   8
ATOM      8  C2' N4B d   1       0.307  -0.333  -3.278  0.00  0.00     0.009 C 
BRANCH   8   9
ATOM      9  C3' N4B d   1       1.323  -1.463  -3.298  0.00  0.00     0.004 C 
ATOM     10  C4' N4B d   1       0.715  -2.784  -3.663  0.00  0.00     0.003 C 
ENDBRANCH   8   9
ENDBRANCH   7   8
ENDBRANCH   1   7
TORSDOF 3
ENDMDL
