MODEL 1
REMARK minimizedAffinity -5.94894791
REMARK minimizedRMSD -1
REMARK  3 active torsions:
REMARK  status: ('A' for Active; 'I' for Inactive)
REMARK    1  A    between atoms: C3'_2  and  C2'_3 
REMARK    2  A    between atoms: C2'_3  and  C1'_4 
REMARK    3  A    between atoms: C1'_4  and  C1_5 
ROOT
ATOM      1  C1  N4B d   1       0.462   0.598  -1.384  0.00  0.00    -0.075 A 
ATOM      2  C2  N4B d   1      -0.610  -0.204  -0.934  0.00  0.00     0.002 A 
ATOM      3  C3  N4B d   1      -0.933  -0.234   0.400  0.00  0.00     0.002 A 
ATOM      4  C4  N4B d   1      -0.189   0.512   1.303  0.00  0.00    -0.004 A 
ATOM      5  C5  N4B d   1       0.828   1.304   0.857  0.00  0.00     0.002 A 
ATOM      6  C6  N4B d   1       1.161   1.347  -0.482  0.00  0.00     0.002 A 
ENDROOT
BRANCH   1   7
ATOM      7  C1' N4B d   1       0.907   0.596  -2.820  0.00  0.00     0.057 C 
BRANCH   7   8
ATOM      8  C2' N4B d   1       2.340   1.116  -2.902  0.00  0.00     0.009 C 
BRANCH   8   9
ATOM      9  C3' N4B d   1       3.095   0.518  -4.076  0.00  0.00     0.004 C 
ATOM     10  C4' N4B d   1       2.996  -0.977  -4.130  0.00  0.00     0.003 C 
ENDBRANCH   8   9
ENDBRANCH   7   8
ENDBRANCH   1   7
TORSDOF 3
ENDMDL
