MODEL 1
REMARK minimizedAffinity 4.72016239
REMARK minimizedRMSD -1
REMARK  3 active torsions:
REMARK  status: ('A' for Active; 'I' for Inactive)
REMARK    1  A    between atoms: C3'_2  and  C2'_3 
REMARK    2  A    between atoms: C2'_3  and  C1'_4 
REMARK    3  A    between atoms: C1'_4  and  C1_5 
ROOT
ATOM      1  C1  N4B d   1      -0.167   0.123   2.961  0.00  0.00    -0.075 A 
ATOM      2  C2  N4B d   1      -0.854   0.713   1.877  0.00  0.00     0.002 A 
ATOM      3  C3  N4B d   1      -1.907   0.054   1.292  0.00  0.00     0.002 A 
ATOM      4  C4  N4B d   1      -2.278  -1.198   1.759  0.00  0.00    -0.004 A 
ATOM      5  C5  N4B d   1      -1.626  -1.750   2.822  0.00  0.00     0.002 A 
ATOM      6  C6  N4B d   1      -0.568  -1.097   3.423  0.00  0.00     0.002 A 
ENDROOT
BRANCH   1   7
ATOM      7  C1' N4B d   1       1.045   0.766   3.577  0.00  0.00     0.057 C 
BRANCH   7   8
ATOM      8  C2' N4B d   1       2.279  -0.066   3.243  0.00  0.00     0.009 C 
BRANCH   8   9
ATOM      9  C3' N4B d   1       2.692   0.089   1.789  0.00  0.00     0.004 C 
ATOM     10  C4' N4B d   1       4.165   0.318   1.625  0.00  0.00     0.003 C 
ENDBRANCH   8   9
ENDBRANCH   7   8
ENDBRANCH   1   7
TORSDOF 3
ENDMDL
