MODEL 1
REMARK minimizedAffinity -2.99816227
REMARK minimizedRMSD -1
REMARK  3 active torsions:
REMARK  status: ('A' for Active; 'I' for Inactive)
REMARK    1  A    between atoms: C3'_2  and  C2'_3 
REMARK    2  A    between atoms: C2'_3  and  C1'_4 
REMARK    3  A    between atoms: C1'_4  and  C1_5 
ROOT
ATOM      1  C1  N4B d   1      -0.067   0.028   0.323  0.00  0.00    -0.075 A 
ATOM      2  C2  N4B d   1      -1.310  -0.432   0.810  0.00  0.00     0.002 A 
ATOM      3  C3  N4B d   1      -1.540  -0.485   2.163  0.00  0.00     0.002 A 
ATOM      4  C4  N4B d   1      -0.540  -0.103   3.044  0.00  0.00    -0.004 A 
ATOM      5  C5  N4B d   1       0.649   0.365   2.565  0.00  0.00     0.002 A 
ATOM      6  C6  N4B d   1       0.892   0.427   1.207  0.00  0.00     0.002 A 
ENDROOT
BRANCH   1   7
ATOM      7  C1' N4B d   1       0.261   0.023  -1.145  0.00  0.00     0.057 C 
BRANCH   7   8
ATOM      8  C2' N4B d   1       0.417  -1.419  -1.619  0.00  0.00     0.009 C 
BRANCH   8   9
ATOM      9  C3' N4B d   1       0.980  -1.497  -3.028  0.00  0.00     0.004 C 
ATOM     10  C4' N4B d   1       1.814  -2.723  -3.253  0.00  0.00     0.003 C 
ENDBRANCH   8   9
ENDBRANCH   7   8
ENDBRANCH   1   7
TORSDOF 3
ENDMDL
