MODEL 1
REMARK minimizedAffinity 6.69247818
REMARK minimizedRMSD -1
REMARK  1 active torsions:
REMARK  status: ('A' for Active; 'I' for Inactive)
REMARK    1  A    between atoms: C1_2  and  C2_3 
ROOT
ATOM      1  C2  UNL d   1       2.298   1.496   0.768  0.00  0.00    -0.073 A 
ATOM      2  C3  UNL d   1       2.874   2.055   1.915  0.00  0.00    -0.002 A 
ATOM      3  C4  UNL d   1       3.005   1.296   3.079  0.00  0.00     0.004 A 
ATOM      4  C5  UNL d   1       2.570  -0.029   3.106  0.00  0.00    -0.004 A 
ATOM      5  C6  UNL d   1       2.002  -0.608   1.966  0.00  0.00    -0.075 A 
ATOM      6  C7  UNL d   1       1.526  -2.032   1.980  0.00  0.00     0.076 C 
ATOM      7  C8  UNL d   1       1.871   0.161   0.802  0.00  0.00     0.001 A 
ENDROOT
BRANCH   1   8
ATOM      8  C1  UNL d   1       2.160   2.310  -0.493  0.00  0.00     0.053 C 
ATOM      9  C   UNL d   1       1.018   3.310  -0.403  0.00  0.00     0.018 C 
ENDBRANCH   1   8
TORSDOF 1
ENDMDL
