MODEL 1
REMARK minimizedAffinity 7.92067242
REMARK minimizedRMSD -1
REMARK  1 active torsions:
REMARK  status: ('A' for Active; 'I' for Inactive)
REMARK    1  A    between atoms: C1_2  and  C2_3 
ROOT
ATOM      1  C2  UNL d   1      -3.212   2.436  -1.616  0.00  0.00    -0.073 A 
ATOM      2  C3  UNL d   1      -2.762   1.115  -1.727  0.00  0.00    -0.002 A 
ATOM      3  C4  UNL d   1      -2.937   0.409  -2.918  0.00  0.00     0.004 A 
ATOM      4  C5  UNL d   1      -3.555   1.017  -4.010  0.00  0.00    -0.004 A 
ATOM      5  C6  UNL d   1      -4.001   2.340  -3.923  0.00  0.00    -0.075 A 
ATOM      6  C7  UNL d   1      -4.670   3.007  -5.088  0.00  0.00     0.076 C 
ATOM      7  C8  UNL d   1      -3.824   3.041  -2.722  0.00  0.00     0.001 A 
ENDROOT
BRANCH   1   8
ATOM      8  C1  UNL d   1      -3.020   3.205  -0.334  0.00  0.00     0.053 C 
ATOM      9  C   UNL d   1      -2.668   2.292   0.830  0.00  0.00     0.018 C 
ENDBRANCH   1   8
TORSDOF 1
ENDMDL
