MODEL 1
REMARK minimizedAffinity 14.8465071
REMARK minimizedRMSD -1
REMARK  1 active torsions:
REMARK  status: ('A' for Active; 'I' for Inactive)
REMARK    1  A    between atoms: C1_2  and  C2_3 
ROOT
ATOM      1  C2  UNL d   1       3.961  -0.889  -3.985  0.00  0.00    -0.073 A 
ATOM      2  C3  UNL d   1       4.488  -2.077  -4.505  0.00  0.00    -0.002 A 
ATOM      3  C4  UNL d   1       5.457  -2.040  -5.508  0.00  0.00     0.004 A 
ATOM      4  C5  UNL d   1       5.913  -0.816  -5.997  0.00  0.00    -0.004 A 
ATOM      5  C6  UNL d   1       5.408   0.383  -5.483  0.00  0.00    -0.075 A 
ATOM      6  C7  UNL d   1       5.887   1.707  -6.000  0.00  0.00     0.076 C 
ATOM      7  C8  UNL d   1       4.434   0.336  -4.477  0.00  0.00     0.001 A 
ENDROOT
BRANCH   1   8
ATOM      8  C1  UNL d   1       2.920  -0.925  -2.897  0.00  0.00     0.053 C 
ATOM      9  C   UNL d   1       1.883  -2.011  -3.136  0.00  0.00     0.018 C 
ENDBRANCH   1   8
TORSDOF 1
ENDMDL
