MODEL 1
REMARK minimizedAffinity 9.17208958
REMARK minimizedRMSD -1
REMARK  1 active torsions:
REMARK  status: ('A' for Active; 'I' for Inactive)
REMARK    1  A    between atoms: C1_2  and  C2_3 
ROOT
ATOM      1  C2  UNL d   1      -5.190  -3.628  -2.639  0.00  0.00    -0.073 A 
ATOM      2  C3  UNL d   1      -4.465  -4.459  -1.778  0.00  0.00    -0.002 A 
ATOM      3  C4  UNL d   1      -3.769  -5.559  -2.281  0.00  0.00     0.004 A 
ATOM      4  C5  UNL d   1      -3.785  -5.835  -3.648  0.00  0.00    -0.004 A 
ATOM      5  C6  UNL d   1      -4.493  -5.009  -4.526  0.00  0.00    -0.075 A 
ATOM      6  C7  UNL d   1      -4.522  -5.292  -5.999  0.00  0.00     0.076 C 
ATOM      7  C8  UNL d   1      -5.192  -3.907  -4.013  0.00  0.00     0.001 A 
ENDROOT
BRANCH   1   8
ATOM      8  C1  UNL d   1      -5.938  -2.435  -2.101  0.00  0.00     0.053 C 
ATOM      9  C   UNL d   1      -5.159  -1.143  -2.286  0.00  0.00     0.018 C 
ENDBRANCH   1   8
TORSDOF 1
ENDMDL
