MODEL 1
REMARK minimizedAffinity 13.7396317
REMARK minimizedRMSD -1
REMARK  1 active torsions:
REMARK  status: ('A' for Active; 'I' for Inactive)
REMARK    1  A    between atoms: C1_2  and  C2_3 
ROOT
ATOM      1  C2  UNL d   1       1.182  -2.769   0.637  0.00  0.00    -0.073 A 
ATOM      2  C3  UNL d   1       1.211  -1.493   0.062  0.00  0.00    -0.002 A 
ATOM      3  C4  UNL d   1       1.351  -0.361   0.866  0.00  0.00     0.004 A 
ATOM      4  C5  UNL d   1       1.469  -0.492   2.249  0.00  0.00    -0.004 A 
ATOM      5  C6  UNL d   1       1.455  -1.759   2.842  0.00  0.00    -0.075 A 
ATOM      6  C7  UNL d   1       1.579  -1.917   4.329  0.00  0.00     0.076 C 
ATOM      7  C8  UNL d   1       1.311  -2.891   2.028  0.00  0.00     0.001 A 
ENDROOT
BRANCH   1   8
ATOM      8  C1  UNL d   1       1.038  -3.995  -0.227  0.00  0.00     0.053 C 
ATOM      9  C   UNL d   1       1.299  -3.692  -1.694  0.00  0.00     0.018 C 
ENDBRANCH   1   8
TORSDOF 1
ENDMDL
