MODEL 1
REMARK minimizedAffinity 4.53738642
REMARK minimizedRMSD -1
REMARK  1 active torsions:
REMARK  status: ('A' for Active; 'I' for Inactive)
REMARK    1  A    between atoms: C1_2  and  C2_3 
ROOT
ATOM      1  C2  UNL d   1       3.726  -0.917  -4.948  0.00  0.00    -0.073 A 
ATOM      2  C3  UNL d   1       2.389  -0.555  -4.751  0.00  0.00    -0.002 A 
ATOM      3  C4  UNL d   1       1.509  -1.431  -4.113  0.00  0.00     0.004 A 
ATOM      4  C5  UNL d   1       1.958  -2.672  -3.661  0.00  0.00    -0.004 A 
ATOM      5  C6  UNL d   1       3.293  -3.046  -3.838  0.00  0.00    -0.075 A 
ATOM      6  C7  UNL d   1       3.791  -4.378  -3.359  0.00  0.00     0.076 C 
ATOM      7  C8  UNL d   1       4.170  -2.163  -4.482  0.00  0.00     0.001 A 
ENDROOT
BRANCH   1   8
ATOM      8  C1  UNL d   1       4.682   0.028  -5.631  0.00  0.00     0.053 C 
ATOM      9  C   UNL d   1       5.991  -0.653  -5.997  0.00  0.00     0.018 C 
ENDBRANCH   1   8
TORSDOF 1
ENDMDL
