MODEL 1
REMARK minimizedAffinity 10.6415577
REMARK minimizedRMSD -1
REMARK  1 active torsions:
REMARK  status: ('A' for Active; 'I' for Inactive)
REMARK    1  A    between atoms: C1_2  and  C2_3 
ROOT
ATOM      1  C2  UNL d   1       1.651  -0.619   1.802  0.00  0.00    -0.073 A 
ATOM      2  C3  UNL d   1       2.368  -0.554   0.602  0.00  0.00    -0.002 A 
ATOM      3  C4  UNL d   1       2.720   0.682   0.057  0.00  0.00     0.004 A 
ATOM      4  C5  UNL d   1       2.367   1.863   0.710  0.00  0.00    -0.004 A 
ATOM      5  C6  UNL d   1       1.661   1.818   1.916  0.00  0.00    -0.075 A 
ATOM      6  C7  UNL d   1       1.272   3.080   2.629  0.00  0.00     0.076 C 
ATOM      7  C8  UNL d   1       1.308   0.574   2.455  0.00  0.00     0.001 A 
ENDROOT
BRANCH   1   8
ATOM      8  C1  UNL d   1       1.274  -1.951   2.397  0.00  0.00     0.053 C 
ATOM      9  C   UNL d   1       2.031  -2.235   3.684  0.00  0.00     0.018 C 
ENDBRANCH   1   8
TORSDOF 1
ENDMDL
