MODEL 1
REMARK minimizedAffinity 1.4665997
REMARK minimizedRMSD -1
REMARK  1 active torsions:
REMARK  status: ('A' for Active; 'I' for Inactive)
REMARK    1  A    between atoms: C1_2  and  C2_3 
ROOT
ATOM      1  C2  UNL d   1       5.329  -2.035  -4.729  0.00  0.00    -0.073 A 
ATOM      2  C3  UNL d   1       6.000  -0.884  -4.302  0.00  0.00    -0.002 A 
ATOM      3  C4  UNL d   1       5.377   0.014  -3.434  0.00  0.00     0.004 A 
ATOM      4  C5  UNL d   1       4.082  -0.232  -2.980  0.00  0.00    -0.004 A 
ATOM      5  C6  UNL d   1       3.399  -1.384  -3.386  0.00  0.00    -0.075 A 
ATOM      6  C7  UNL d   1       2.004  -1.663  -2.907  0.00  0.00     0.076 C 
ATOM      7  C8  UNL d   1       4.030  -2.280  -4.259  0.00  0.00     0.001 A 
ENDROOT
BRANCH   1   8
ATOM      8  C1  UNL d   1       6.000  -3.011  -5.660  0.00  0.00     0.053 C 
ATOM      9  C   UNL d   1       5.751  -4.454  -5.250  0.00  0.00     0.018 C 
ENDBRANCH   1   8
TORSDOF 1
ENDMDL
