MODEL 1
REMARK minimizedAffinity -1.04898691
REMARK minimizedRMSD -1
REMARK  0 active torsions:
REMARK  status: ('A' for Active; 'I' for Inactive)
ROOT
ATOM      1  C4' PXY d   1      -3.000   4.489  -5.994  0.00  0.00     0.077 C 
ATOM      2  C1' PXY d   1      -4.478  -1.099  -5.985  0.00  0.00     0.077 C 
ATOM      3  C1  PXY d   1      -4.102   0.370  -5.993  0.00  0.00    -0.082 A 
ATOM      4  C2  PXY d   1      -2.826   0.718  -6.000  0.00  0.00     0.003 A 
ATOM      5  C3  PXY d   1      -2.468   2.041  -5.975  0.00  0.00     0.003 A 
ATOM      6  C4  PXY d   1      -3.426   3.019  -5.996  0.00  0.00    -0.082 A 
ATOM      7  C5  PXY d   1      -4.730   2.672  -6.000  0.00  0.00     0.003 A 
ATOM      8  C6  PXY d   1      -5.073   1.323  -5.984  0.00  0.00     0.003 A 
ENDROOT
TORSDOF 0
ENDMDL
