MODEL 1
REMARK minimizedAffinity 0.918049276
REMARK minimizedRMSD -1
REMARK  0 active torsions:
REMARK  status: ('A' for Active; 'I' for Inactive)
ROOT
ATOM      1  C4' PXY d   1      -4.930  -0.876  -5.953  0.00  0.00     0.077 C 
ATOM      2  C1' PXY d   1      -2.983   4.567  -5.994  0.00  0.00     0.077 C 
ATOM      3  C1  PXY d   1      -3.483   3.136  -5.989  0.00  0.00    -0.082 A 
ATOM      4  C2  PXY d   1      -4.784   2.897  -5.977  0.00  0.00     0.003 A 
ATOM      5  C3  PXY d   1      -5.252   1.609  -5.940  0.00  0.00     0.003 A 
ATOM      6  C4  PXY d   1      -4.380   0.553  -5.968  0.00  0.00    -0.082 A 
ATOM      7  C5  PXY d   1      -3.051   0.789  -5.991  0.00  0.00     0.003 A 
ATOM      8  C6  PXY d   1      -2.596   2.104  -5.987  0.00  0.00     0.003 A 
ENDROOT
TORSDOF 0
ENDMDL
