MODEL 1
REMARK minimizedAffinity -2.02852654
REMARK minimizedRMSD -1
REMARK  0 active torsions:
REMARK  status: ('A' for Active; 'I' for Inactive)
ROOT
ATOM      1  C4' PXY d   1      -3.001   4.499  -5.971  0.00  0.00     0.077 C 
ATOM      2  C1' PXY d   1      -3.755  -1.232  -5.995  0.00  0.00     0.077 C 
ATOM      3  C1  PXY d   1      -3.545   0.269  -5.984  0.00  0.00    -0.082 A 
ATOM      4  C2  PXY d   1      -4.594   1.076  -5.967  0.00  0.00     0.003 A 
ATOM      5  C3  PXY d   1      -4.423   2.436  -5.989  0.00  0.00     0.003 A 
ATOM      6  C4  PXY d   1      -3.165   2.977  -5.974  0.00  0.00    -0.082 A 
ATOM      7  C5  PXY d   1      -2.090   2.160  -5.980  0.00  0.00     0.003 A 
ATOM      8  C6  PXY d   1      -2.285   0.782  -6.000  0.00  0.00     0.003 A 
ENDROOT
TORSDOF 0
ENDMDL
