MODEL 1
REMARK minimizedAffinity 10.7468433
REMARK minimizedRMSD -1
REMARK  0 active torsions:
REMARK  status: ('A' for Active; 'I' for Inactive)
ROOT
ATOM      1  C4' PXY d   1      -0.693  -3.890  -3.359  0.00  0.00     0.077 C 
ATOM      2  C1' PXY d   1      -5.835  -3.913  -6.000  0.00  0.00     0.077 C 
ATOM      3  C1  PXY d   1      -4.485  -3.920  -5.310  0.00  0.00    -0.082 A 
ATOM      4  C2  PXY d   1      -4.224  -3.021  -4.374  0.00  0.00     0.003 A 
ATOM      5  C3  PXY d   1      -2.997  -2.993  -3.763  0.00  0.00     0.003 A 
ATOM      6  C4  PXY d   1      -2.046  -3.927  -4.075  0.00  0.00    -0.082 A 
ATOM      7  C5  PXY d   1      -2.308  -4.853  -5.022  0.00  0.00     0.003 A 
ATOM      8  C6  PXY d   1      -3.545  -4.839  -5.659  0.00  0.00     0.003 A 
ENDROOT
TORSDOF 0
ENDMDL
