MODEL 1
REMARK minimizedAffinity -1.76966751
REMARK minimizedRMSD -1
REMARK  0 active torsions:
REMARK  status: ('A' for Active; 'I' for Inactive)
ROOT
ATOM      1  C4' PXY d   1      -4.682   0.354  -5.994  0.00  0.00     0.077 C 
ATOM      2  C1' PXY d   1      -3.321   5.972  -5.977  0.00  0.00     0.077 C 
ATOM      3  C1  PXY d   1      -3.689   4.501  -5.977  0.00  0.00    -0.082 A 
ATOM      4  C2  PXY d   1      -2.733   3.587  -5.968  0.00  0.00     0.003 A 
ATOM      5  C3  PXY d   1      -3.048   2.253  -6.000  0.00  0.00     0.003 A 
ATOM      6  C4  PXY d   1      -4.357   1.850  -5.986  0.00  0.00    -0.082 A 
ATOM      7  C5  PXY d   1      -5.338   2.776  -5.983  0.00  0.00     0.003 A 
ATOM      8  C6  PXY d   1      -4.997   4.126  -5.993  0.00  0.00     0.003 A 
ENDROOT
TORSDOF 0
ENDMDL
