MODEL 1
REMARK minimizedAffinity 0.733212948
REMARK minimizedRMSD -1
REMARK  0 active torsions:
REMARK  status: ('A' for Active; 'I' for Inactive)
ROOT
ATOM      1  C4' PXY d   1       4.225  -2.339  -1.858  0.00  0.00     0.077 C 
ATOM      2  C1' PXY d   1       0.407   1.530   0.107  0.00  0.00     0.077 C 
ATOM      3  C1  PXY d   1       1.414   0.525  -0.415  0.00  0.00    -0.082 A 
ATOM      4  C2  PXY d   1       1.096  -0.758  -0.457  0.00  0.00     0.003 A 
ATOM      5  C3  PXY d   1       2.006  -1.685  -0.897  0.00  0.00     0.003 A 
ATOM      6  C4  PXY d   1       3.236  -1.287  -1.347  0.00  0.00    -0.082 A 
ATOM      7  C5  PXY d   1       3.565   0.022  -1.317  0.00  0.00     0.003 A 
ATOM      8  C6  PXY d   1       2.642   0.941  -0.829  0.00  0.00     0.003 A 
ENDROOT
TORSDOF 0
ENDMDL
