MODEL 1
REMARK minimizedAffinity -4.1031661
REMARK minimizedRMSD -1
REMARK  0 active torsions:
REMARK  status: ('A' for Active; 'I' for Inactive)
ROOT
ATOM      1  C4' PXY d   1      -2.630   4.496  -5.950  0.00  0.00     0.077 C 
ATOM      2  C1' PXY d   1      -5.255  -0.654  -5.996  0.00  0.00     0.077 C 
ATOM      3  C1  PXY d   1      -4.578   0.702  -5.989  0.00  0.00    -0.082 A 
ATOM      4  C2  PXY d   1      -3.256   0.773  -5.992  0.00  0.00     0.003 A 
ATOM      5  C3  PXY d   1      -2.627   1.991  -5.954  0.00  0.00     0.003 A 
ATOM      6  C4  PXY d   1      -3.357   3.149  -5.966  0.00  0.00    -0.082 A 
ATOM      7  C5  PXY d   1      -4.706   3.085  -5.974  0.00  0.00     0.003 A 
ATOM      8  C6  PXY d   1      -5.326   1.838  -5.972  0.00  0.00     0.003 A 
ENDROOT
TORSDOF 0
ENDMDL
