MODEL 1
REMARK minimizedAffinity -0.355189681
REMARK minimizedRMSD -1
REMARK  0 active torsions:
REMARK  status: ('A' for Active; 'I' for Inactive)
ROOT
ATOM      1  C4' PXY d   1      -4.872   3.398  -5.976  0.00  0.00     0.077 C 
ATOM      2  C1' PXY d   1      -3.277  -2.158  -5.999  0.00  0.00     0.077 C 
ATOM      3  C1  PXY d   1      -3.707  -0.704  -5.999  0.00  0.00    -0.082 A 
ATOM      4  C2  PXY d   1      -2.789   0.249  -5.998  0.00  0.00     0.003 A 
ATOM      5  C3  PXY d   1      -3.160   1.569  -5.965  0.00  0.00     0.003 A 
ATOM      6  C4  PXY d   1      -4.484   1.917  -5.986  0.00  0.00    -0.082 A 
ATOM      7  C5  PXY d   1      -5.426   0.950  -5.997  0.00  0.00     0.003 A 
ATOM      8  C6  PXY d   1      -5.029  -0.384  -5.989  0.00  0.00     0.003 A 
ENDROOT
TORSDOF 0
ENDMDL
