MODEL 1
REMARK minimizedAffinity -3.65238452
REMARK minimizedRMSD -1
REMARK  0 active torsions:
REMARK  status: ('A' for Active; 'I' for Inactive)
ROOT
ATOM      1  C4' PXY d   1      -5.181   3.748  -5.512  0.00  0.00     0.077 C 
ATOM      2  C1' PXY d   1      -4.316  -1.962  -5.761  0.00  0.00     0.077 C 
ATOM      3  C1  PXY d   1      -4.555  -0.467  -5.697  0.00  0.00    -0.082 A 
ATOM      4  C2  PXY d   1      -3.573   0.366  -5.999  0.00  0.00     0.003 A 
ATOM      5  C3  PXY d   1      -3.763   1.722  -5.916  0.00  0.00     0.003 A 
ATOM      6  C4  PXY d   1      -4.987   2.230  -5.572  0.00  0.00    -0.082 A 
ATOM      7  C5  PXY d   1      -5.997   1.386  -5.273  0.00  0.00     0.003 A 
ATOM      8  C6  PXY d   1      -5.772   0.014  -5.324  0.00  0.00     0.003 A 
ENDROOT
TORSDOF 0
ENDMDL
