MODEL 1
REMARK minimizedAffinity -2.85079861
REMARK minimizedRMSD -1
REMARK  0 active torsions:
REMARK  status: ('A' for Active; 'I' for Inactive)
ROOT
ATOM      1  C4' PXY d   1      -5.552  -1.929  -6.000  0.00  0.00     0.077 C 
ATOM      2  C1' PXY d   1      -0.784  -5.196  -5.951  0.00  0.00     0.077 C 
ATOM      3  C1  PXY d   1      -2.028  -4.330  -5.958  0.00  0.00    -0.082 A 
ATOM      4  C2  PXY d   1      -3.222  -4.899  -5.961  0.00  0.00     0.003 A 
ATOM      5  C3  PXY d   1      -4.357  -4.130  -6.000  0.00  0.00     0.003 A 
ATOM      6  C4  PXY d   1      -4.269  -2.764  -5.983  0.00  0.00    -0.082 A 
ATOM      7  C5  PXY d   1      -3.055  -2.176  -5.969  0.00  0.00     0.003 A 
ATOM      8  C6  PXY d   1      -1.914  -2.974  -5.971  0.00  0.00     0.003 A 
ENDROOT
TORSDOF 0
ENDMDL
