MODEL 1
REMARK minimizedAffinity 0.13827312
REMARK minimizedRMSD -1
REMARK  0 active torsions:
REMARK  status: ('A' for Active; 'I' for Inactive)
ROOT
ATOM      1  C4' PXY d   1      -4.891  -1.127  -5.999  0.00  0.00     0.077 C 
ATOM      2  C1' PXY d   1      -3.388   4.454  -5.976  0.00  0.00     0.077 C 
ATOM      3  C1  PXY d   1      -3.794   2.994  -5.977  0.00  0.00    -0.082 A 
ATOM      4  C2  PXY d   1      -2.861   2.056  -5.966  0.00  0.00     0.003 A 
ATOM      5  C3  PXY d   1      -3.210   0.730  -5.999  0.00  0.00     0.003 A 
ATOM      6  C4  PXY d   1      -4.528   0.360  -5.989  0.00  0.00    -0.082 A 
ATOM      7  C5  PXY d   1      -5.486   1.311  -5.990  0.00  0.00     0.003 A 
ATOM      8  C6  PXY d   1      -5.111   2.652  -5.998  0.00  0.00     0.003 A 
ENDROOT
TORSDOF 0
ENDMDL
