MODEL 1
REMARK minimizedAffinity -3.82760763
REMARK minimizedRMSD -1
REMARK  0 active torsions:
REMARK  status: ('A' for Active; 'I' for Inactive)
ROOT
ATOM      1  C4' PXY d   1      -4.714  -2.403  -6.000  0.00  0.00     0.077 C 
ATOM      2  C1' PXY d   1      -4.498   3.373  -5.977  0.00  0.00     0.077 C 
ATOM      3  C1  PXY d   1      -4.567   1.859  -5.978  0.00  0.00    -0.082 A 
ATOM      4  C2  PXY d   1      -3.447   1.154  -5.966  0.00  0.00     0.003 A 
ATOM      5  C3  PXY d   1      -3.491  -0.217  -5.999  0.00  0.00     0.003 A 
ATOM      6  C4  PXY d   1      -4.693  -0.872  -5.990  0.00  0.00    -0.082 A 
ATOM      7  C5  PXY d   1      -5.839  -0.160  -5.991  0.00  0.00     0.003 A 
ATOM      8  C6  PXY d   1      -5.773   1.231  -6.000  0.00  0.00     0.003 A 
ENDROOT
TORSDOF 0
ENDMDL
