MODEL 1
REMARK minimizedAffinity -4.03182554
REMARK minimizedRMSD -1
REMARK  0 active torsions:
REMARK  status: ('A' for Active; 'I' for Inactive)
ROOT
ATOM      1  C4' PXY d   1      -3.665   4.577  -5.996  0.00  0.00     0.077 C 
ATOM      2  C1' PXY d   1      -4.547  -1.135  -5.934  0.00  0.00     0.077 C 
ATOM      3  C1  PXY d   1      -4.304   0.361  -5.946  0.00  0.00    -0.082 A 
ATOM      4  C2  PXY d   1      -5.333   1.191  -5.913  0.00  0.00     0.003 A 
ATOM      5  C3  PXY d   1      -5.133   2.547  -5.955  0.00  0.00     0.003 A 
ATOM      6  C4  PXY d   1      -3.863   3.059  -5.977  0.00  0.00    -0.082 A 
ATOM      7  C5  PXY d   1      -2.807   2.218  -5.999  0.00  0.00     0.003 A 
ATOM      8  C6  PXY d   1      -3.033   0.845  -5.998  0.00  0.00     0.003 A 
ENDROOT
TORSDOF 0
ENDMDL
