MODEL 1
REMARK minimizedAffinity 3.35397673
REMARK minimizedRMSD -1
REMARK  0 active torsions:
REMARK  status: ('A' for Active; 'I' for Inactive)
ROOT
ATOM      1  C4' PXY d   1      -5.095  -0.366   1.180  0.00  0.00     0.077 C 
ATOM      2  C1' PXY d   1      -2.123   3.799   3.871  0.00  0.00     0.077 C 
ATOM      3  C1  PXY d   1      -2.906   2.702   3.177  0.00  0.00    -0.082 A 
ATOM      4  C2  PXY d   1      -2.563   2.326   1.956  0.00  0.00     0.003 A 
ATOM      5  C3  PXY d   1      -3.281   1.358   1.301  0.00  0.00     0.003 A 
ATOM      6  C4  PXY d   1      -4.327   0.731   1.923  0.00  0.00    -0.082 A 
ATOM      7  C5  PXY d   1      -4.676   1.102   3.173  0.00  0.00     0.003 A 
ATOM      8  C6  PXY d   1      -3.961   2.115   3.805  0.00  0.00     0.003 A 
ENDROOT
TORSDOF 0
ENDMDL
