MODEL 1
REMARK minimizedAffinity -2.91676736
REMARK minimizedRMSD -1
REMARK  0 active torsions:
REMARK  status: ('A' for Active; 'I' for Inactive)
ROOT
ATOM      1  C4' PXY d   1      -5.972  -1.283  -6.000  0.00  0.00     0.077 C 
ATOM      2  C1' PXY d   1      -3.359   3.867  -5.755  0.00  0.00     0.077 C 
ATOM      3  C1  PXY d   1      -4.034   2.512  -5.826  0.00  0.00    -0.082 A 
ATOM      4  C2  PXY d   1      -5.354   2.435  -5.783  0.00  0.00     0.003 A 
ATOM      5  C3  PXY d   1      -5.979   1.215  -5.813  0.00  0.00     0.003 A 
ATOM      6  C4  PXY d   1      -5.248   0.065  -5.942  0.00  0.00    -0.082 A 
ATOM      7  C5  PXY d   1      -3.901   0.135  -5.996  0.00  0.00     0.003 A 
ATOM      8  C6  PXY d   1      -3.284   1.381  -5.922  0.00  0.00     0.003 A 
ENDROOT
TORSDOF 0
ENDMDL
