MODEL 1
REMARK minimizedAffinity -2.62875128
REMARK minimizedRMSD -1
REMARK  0 active torsions:
REMARK  status: ('A' for Active; 'I' for Inactive)
ROOT
ATOM      1  C4' PXY d   1      -5.991  -0.994  -5.977  0.00  0.00     0.077 C 
ATOM      2  C1' PXY d   1      -2.947   3.920  -5.988  0.00  0.00     0.077 C 
ATOM      3  C1  PXY d   1      -3.735   2.625  -5.990  0.00  0.00    -0.082 A 
ATOM      4  C2  PXY d   1      -5.058   2.664  -5.989  0.00  0.00     0.003 A 
ATOM      5  C3  PXY d   1      -5.786   1.503  -5.959  0.00  0.00     0.003 A 
ATOM      6  C4  PXY d   1      -5.155   0.288  -5.984  0.00  0.00    -0.082 A 
ATOM      7  C5  PXY d   1      -3.806   0.240  -5.996  0.00  0.00     0.003 A 
ATOM      8  C6  PXY d   1      -3.084   1.430  -5.985  0.00  0.00     0.003 A 
ENDROOT
TORSDOF 0
ENDMDL
