MODEL 1
REMARK minimizedAffinity -2.39702606
REMARK minimizedRMSD -1
REMARK  0 active torsions:
REMARK  status: ('A' for Active; 'I' for Inactive)
ROOT
ATOM      1  C4' PXY d   1      -4.725  -1.441  -5.997  0.00  0.00     0.077 C 
ATOM      2  C1' PXY d   1      -3.875   4.233  -5.287  0.00  0.00     0.077 C 
ATOM      3  C1  PXY d   1      -4.110   2.747  -5.470  0.00  0.00    -0.082 A 
ATOM      4  C2  PXY d   1      -3.114   1.898  -5.279  0.00  0.00     0.003 A 
ATOM      5  C3  PXY d   1      -3.301   0.553  -5.472  0.00  0.00     0.003 A 
ATOM      6  C4  PXY d   1      -4.535   0.068  -5.813  0.00  0.00    -0.082 A 
ATOM      7  C5  PXY d   1      -5.560   0.927  -6.000  0.00  0.00     0.003 A 
ATOM      8  C6  PXY d   1      -5.339   2.291  -5.839  0.00  0.00     0.003 A 
ENDROOT
TORSDOF 0
ENDMDL
