MODEL 1
REMARK minimizedAffinity -2.91956663
REMARK minimizedRMSD -1
REMARK  0 active torsions:
REMARK  status: ('A' for Active; 'I' for Inactive)
ROOT
ATOM      1  C4' PXY d   1      -4.430  -1.332  -5.993  0.00  0.00     0.077 C 
ATOM      2  C1' PXY d   1      -4.488   4.448  -5.986  0.00  0.00     0.077 C 
ATOM      3  C1  PXY d   1      -4.461   2.933  -5.993  0.00  0.00    -0.082 A 
ATOM      4  C2  PXY d   1      -5.599   2.258  -6.000  0.00  0.00     0.003 A 
ATOM      5  C3  PXY d   1      -5.593   0.887  -5.974  0.00  0.00     0.003 A 
ATOM      6  C4  PXY d   1      -4.409   0.199  -5.996  0.00  0.00    -0.082 A 
ATOM      7  C5  PXY d   1      -3.244   0.880  -6.000  0.00  0.00     0.003 A 
ATOM      8  C6  PXY d   1      -3.271   2.272  -5.984  0.00  0.00     0.003 A 
ENDROOT
TORSDOF 0
ENDMDL
