MODEL 1
REMARK minimizedAffinity -3.34797692
REMARK minimizedRMSD -1
REMARK  0 active torsions:
REMARK  status: ('A' for Active; 'I' for Inactive)
ROOT
ATOM      1  C4' PXY d   1      -3.526  -2.251  -5.968  0.00  0.00     0.077 C 
ATOM      2  C1' PXY d   1      -4.102   3.501  -6.000  0.00  0.00     0.077 C 
ATOM      3  C1  PXY d   1      -3.939   1.994  -5.997  0.00  0.00    -0.082 A 
ATOM      4  C2  PXY d   1      -5.012   1.220  -5.992  0.00  0.00     0.003 A 
ATOM      5  C3  PXY d   1      -4.883  -0.145  -5.956  0.00  0.00     0.003 A 
ATOM      6  C4  PXY d   1      -3.643  -0.724  -5.981  0.00  0.00    -0.082 A 
ATOM      7  C5  PXY d   1      -2.543   0.058  -5.997  0.00  0.00     0.003 A 
ATOM      8  C6  PXY d   1      -2.695   1.442  -5.991  0.00  0.00     0.003 A 
ENDROOT
TORSDOF 0
ENDMDL
