MODEL 1
REMARK minimizedAffinity 1.38844454
REMARK minimizedRMSD -1
REMARK  0 active torsions:
REMARK  status: ('A' for Active; 'I' for Inactive)
ROOT
ATOM      1  C4' PXY d   1      -3.779   4.656  -5.977  0.00  0.00     0.077 C 
ATOM      2  C1' PXY d   1      -3.764  -1.125  -5.995  0.00  0.00     0.077 C 
ATOM      3  C1  PXY d   1      -3.756   0.391  -5.985  0.00  0.00    -0.082 A 
ATOM      4  C2  PXY d   1      -4.902   1.051  -5.971  0.00  0.00     0.003 A 
ATOM      5  C3  PXY d   1      -4.914   2.422  -5.994  0.00  0.00     0.003 A 
ATOM      6  C4  PXY d   1      -3.739   3.125  -5.978  0.00  0.00    -0.082 A 
ATOM      7  C5  PXY d   1      -2.565   2.459  -5.981  0.00  0.00     0.003 A 
ATOM      8  C6  PXY d   1      -2.575   1.067  -5.999  0.00  0.00     0.003 A 
ENDROOT
TORSDOF 0
ENDMDL
