MODEL 1
REMARK minimizedAffinity 1.11643684
REMARK minimizedRMSD -1
REMARK  0 active torsions:
REMARK  status: ('A' for Active; 'I' for Inactive)
ROOT
ATOM      1  N1  IND d   1      -0.474  -1.955   3.314  0.00  0.00    -0.196 N 
ATOM      2  C2  IND d   1      -0.377  -0.823   2.555  0.00  0.00     0.054 A 
ATOM      3  C3  IND d   1       0.802  -0.203   2.784  0.00  0.00    -0.031 A 
ATOM      4  C4  IND d   1       2.764  -0.924   4.287  0.00  0.00     0.051 A 
ATOM      5  C5  IND d   1       3.127  -1.869   5.205  0.00  0.00    -0.031 A 
ATOM      6  C6  IND d   1       2.292  -2.914   5.544  0.00  0.00     0.015 A 
ATOM      7  C7  IND d   1       1.063  -3.059   4.968  0.00  0.00    -0.016 A 
ATOM      8  C8  IND d   1       0.688  -2.098   4.040  0.00  0.00    -0.047 A 
ATOM      9  C9  IND d   1       1.513  -1.011   3.723  0.00  0.00    -0.096 A 
ATOM     10  HN1 IND d   1      -1.148  -2.489   3.335  0.00  0.00     0.298 HD
ENDROOT
TORSDOF 0
ENDMDL
