MODEL 1
REMARK minimizedAffinity 5.92196941
REMARK minimizedRMSD -1
REMARK  0 active torsions:
REMARK  status: ('A' for Active; 'I' for Inactive)
ROOT
ATOM      1  N1  IND d   1      -1.995  -0.706   1.232  0.00  0.00    -0.196 N 
ATOM      2  C2  IND d   1      -1.482   0.356   0.541  0.00  0.00     0.054 A 
ATOM      3  C3  IND d   1      -0.237   0.646   0.980  0.00  0.00    -0.031 A 
ATOM      4  C4  IND d   1       1.193  -0.555   2.753  0.00  0.00     0.051 A 
ATOM      5  C5  IND d   1       1.140  -1.556   3.681  0.00  0.00    -0.031 A 
ATOM      6  C6  IND d   1       0.018  -2.343   3.842  0.00  0.00     0.015 A 
ATOM      7  C7  IND d   1      -1.094  -2.164   3.070  0.00  0.00    -0.016 A 
ATOM      8  C8  IND d   1      -1.047  -1.144   2.130  0.00  0.00    -0.047 A 
ATOM      9  C9  IND d   1       0.074  -0.315   1.991  0.00  0.00    -0.096 A 
ATOM     10  HN1 IND d   1      -2.778  -1.044   1.124  0.00  0.00     0.298 HD
ENDROOT
TORSDOF 0
ENDMDL
