MODEL 1
REMARK minimizedAffinity -0.0201403797
REMARK minimizedRMSD -1
REMARK  0 active torsions:
REMARK  status: ('A' for Active; 'I' for Inactive)
ROOT
ATOM      1  N1  IND d   1       2.343  -1.825   3.723  0.00  0.00    -0.196 N 
ATOM      2  C2  IND d   1       1.805  -2.104   4.949  0.00  0.00     0.054 A 
ATOM      3  C3  IND d   1       0.540  -1.635   5.026  0.00  0.00    -0.031 A 
ATOM      4  C4  IND d   1      -0.885  -0.470   3.225  0.00  0.00     0.051 A 
ATOM      5  C5  IND d   1      -0.816   0.036   1.958  0.00  0.00    -0.031 A 
ATOM      6  C6  IND d   1       0.332  -0.056   1.197  0.00  0.00     0.015 A 
ATOM      7  C7  IND d   1       1.455  -0.671   1.674  0.00  0.00    -0.016 A 
ATOM      8  C8  IND d   1       1.391  -1.180   2.964  0.00  0.00    -0.047 A 
ATOM      9  C9  IND d   1       0.242  -1.052   3.756  0.00  0.00    -0.096 A 
ATOM     10  HN1 IND d   1       3.141  -2.019   3.469  0.00  0.00     0.298 HD
ENDROOT
TORSDOF 0
ENDMDL
