MODEL 1
REMARK minimizedAffinity 2.43457222
REMARK minimizedRMSD -1
REMARK  0 active torsions:
REMARK  status: ('A' for Active; 'I' for Inactive)
ROOT
ATOM      1  N1  IND d   1      -1.761  -0.902   2.020  0.00  0.00    -0.196 N 
ATOM      2  C2  IND d   1      -1.165   0.202   1.478  0.00  0.00     0.054 A 
ATOM      3  C3  IND d   1       0.091   0.342   1.959  0.00  0.00    -0.031 A 
ATOM      4  C4  IND d   1       1.407  -1.180   3.565  0.00  0.00     0.051 A 
ATOM      5  C5  IND d   1       1.270  -2.288   4.354  0.00  0.00    -0.031 A 
ATOM      6  C6  IND d   1       0.093  -3.007   4.403  0.00  0.00     0.015 A 
ATOM      7  C7  IND d   1      -0.992  -2.649   3.654  0.00  0.00    -0.016 A 
ATOM      8  C8  IND d   1      -0.859  -1.520   2.858  0.00  0.00    -0.047 A 
ATOM      9  C9  IND d   1       0.318  -0.762   2.836  0.00  0.00    -0.096 A 
ATOM     10  HN1 IND d   1      -2.564  -1.166   1.864  0.00  0.00     0.298 HD
ENDROOT
TORSDOF 0
ENDMDL
