MODEL 1
REMARK minimizedAffinity 2.64630246
REMARK minimizedRMSD -1
REMARK  0 active torsions:
REMARK  status: ('A' for Active; 'I' for Inactive)
ROOT
ATOM      1  N1  IND d   1       2.008  -1.636   3.496  0.00  0.00    -0.196 N 
ATOM      2  C2  IND d   1       1.265  -2.210   4.490  0.00  0.00     0.054 A 
ATOM      3  C3  IND d   1      -0.032  -1.845   4.378  0.00  0.00    -0.031 A 
ATOM      4  C4  IND d   1      -1.174  -0.399   2.580  0.00  0.00     0.051 A 
ATOM      5  C5  IND d   1      -0.902   0.376   1.488  0.00  0.00    -0.031 A 
ATOM      6  C6  IND d   1       0.379   0.521   0.998  0.00  0.00     0.015 A 
ATOM      7  C7  IND d   1       1.440  -0.116   1.578  0.00  0.00    -0.016 A 
ATOM      8  C8  IND d   1       1.168  -0.899   2.691  0.00  0.00    -0.047 A 
ATOM      9  C9  IND d   1      -0.124  -1.016   3.218  0.00  0.00    -0.096 A 
ATOM     10  HN1 IND d   1       2.857  -1.722   3.391  0.00  0.00     0.298 HD
ENDROOT
TORSDOF 0
ENDMDL
