MODEL 1
REMARK minimizedAffinity 2.88718772
REMARK minimizedRMSD -1
REMARK  0 active torsions:
REMARK  status: ('A' for Active; 'I' for Inactive)
ROOT
ATOM      1  N1  IND d   1      -1.234  -0.517  -5.997  0.00  0.00    -0.196 N 
ATOM      2  C2  IND d   1      -0.011   0.001  -5.672  0.00  0.00     0.054 A 
ATOM      3  C3  IND d   1      -0.109   0.784  -4.574  0.00  0.00    -0.031 A 
ATOM      4  C4  IND d   1      -2.155   1.274  -3.091  0.00  0.00     0.051 A 
ATOM      5  C5  IND d   1      -3.502   1.055  -3.007  0.00  0.00    -0.031 A 
ATOM      6  C6  IND d   1      -4.174   0.283  -3.933  0.00  0.00     0.015 A 
ATOM      7  C7  IND d   1      -3.520  -0.310  -4.975  0.00  0.00    -0.016 A 
ATOM      8  C8  IND d   1      -2.154  -0.085  -5.067  0.00  0.00    -0.047 A 
ATOM      9  C9  IND d   1      -1.473   0.732  -4.155  0.00  0.00    -0.096 A 
ATOM     10  HN1 IND d   1      -1.400  -1.027  -6.669  0.00  0.00     0.298 HD
ENDROOT
TORSDOF 0
ENDMDL
