MODEL 1
REMARK minimizedAffinity 0.260957003
REMARK minimizedRMSD -1
REMARK  0 active torsions:
REMARK  status: ('A' for Active; 'I' for Inactive)
ROOT
ATOM      1  N1  IND d   1      -2.473  -0.591   2.190  0.00  0.00    -0.196 N 
ATOM      2  C2  IND d   1      -2.993  -1.329   3.216  0.00  0.00     0.054 A 
ATOM      3  C3  IND d   1      -1.999  -1.843   3.976  0.00  0.00    -0.031 A 
ATOM      4  C4  IND d   1       0.547  -1.518   3.779  0.00  0.00     0.051 A 
ATOM      5  C5  IND d   1       1.502  -0.956   2.979  0.00  0.00    -0.031 A 
ATOM      6  C6  IND d   1       1.175  -0.227   1.854  0.00  0.00     0.015 A 
ATOM      7  C7  IND d   1      -0.127  -0.022   1.492  0.00  0.00    -0.016 A 
ATOM      8  C8  IND d   1      -1.099  -0.597   2.298  0.00  0.00    -0.047 A 
ATOM      9  C9  IND d   1      -0.772  -1.373   3.417  0.00  0.00    -0.096 A 
ATOM     10  HN1 IND d   1      -2.927  -0.190   1.580  0.00  0.00     0.298 HD
ENDROOT
TORSDOF 0
ENDMDL
