MODEL 1
REMARK minimizedAffinity 13.2677822
REMARK minimizedRMSD -1
REMARK  0 active torsions:
REMARK  status: ('A' for Active; 'I' for Inactive)
ROOT
ATOM      1  N1  IND d   1       0.134  -2.192   3.609  0.00  0.00    -0.196 N 
ATOM      2  C2  IND d   1       1.305  -1.752   4.162  0.00  0.00     0.054 A 
ATOM      3  C3  IND d   1       1.627  -0.534   3.674  0.00  0.00    -0.031 A 
ATOM      4  C4  IND d   1       0.327   0.968   2.036  0.00  0.00     0.051 A 
ATOM      5  C5  IND d   1      -0.779   0.982   1.234  0.00  0.00    -0.031 A 
ATOM      6  C6  IND d   1      -1.657  -0.082   1.183  0.00  0.00     0.015 A 
ATOM      7  C7  IND d   1      -1.466  -1.199   1.945  0.00  0.00    -0.016 A 
ATOM      8  C8  IND d   1      -0.340  -1.220   2.756  0.00  0.00    -0.047 A 
ATOM      9  C9  IND d   1       0.577  -0.161   2.780  0.00  0.00    -0.096 A 
ATOM     10  HN1 IND d   1      -0.243  -2.948   3.768  0.00  0.00     0.298 HD
ENDROOT
TORSDOF 0
ENDMDL
