MODEL 1
REMARK minimizedAffinity 1.28579271
REMARK minimizedRMSD -1
REMARK  0 active torsions:
REMARK  status: ('A' for Active; 'I' for Inactive)
ROOT
ATOM      1  N1  IND d   1      -0.135  -2.015   4.084  0.00  0.00    -0.196 N 
ATOM      2  C2  IND d   1       1.145  -2.382   4.396  0.00  0.00     0.054 A 
ATOM      3  C3  IND d   1       2.030  -1.670   3.664  0.00  0.00    -0.031 A 
ATOM      4  C4  IND d   1       1.605   0.221   1.970  0.00  0.00     0.051 A 
ATOM      5  C5  IND d   1       0.598   0.885   1.326  0.00  0.00    -0.031 A 
ATOM      6  C6  IND d   1      -0.731   0.612   1.576  0.00  0.00     0.015 A 
ATOM      7  C7  IND d   1      -1.105  -0.331   2.491  0.00  0.00    -0.016 A 
ATOM      8  C8  IND d   1      -0.085  -1.012   3.142  0.00  0.00    -0.047 A 
ATOM      9  C9  IND d   1       1.266  -0.769   2.861  0.00  0.00    -0.096 A 
ATOM     10  HN1 IND d   1      -0.850  -2.354   4.420  0.00  0.00     0.298 HD
ENDROOT
TORSDOF 0
ENDMDL
