MODEL 1
REMARK minimizedAffinity -0.430494696
REMARK minimizedRMSD -1
REMARK  0 active torsions:
REMARK  status: ('A' for Active; 'I' for Inactive)
ROOT
ATOM      1  C   UNL d   1      -0.087   2.721  -1.036  0.00  0.00     0.172 C 
ATOM      2  N   UNL d   1      -0.329   1.375  -1.499  0.00  0.00    -0.070 N 
ATOM      3  C1  UNL d   1      -0.034   0.895  -2.747  0.00  0.00    -0.004 A 
ATOM      4  C2  UNL d   1      -0.415  -0.429  -2.791  0.00  0.00    -0.047 A 
ATOM      5  C3  UNL d   1      -0.959  -0.755  -1.526  0.00  0.00    -0.047 A 
ATOM      6  C4  UNL d   1      -0.893   0.380  -0.745  0.00  0.00    -0.004 A 
ENDROOT
TORSDOF 0
ENDMDL
