MODEL 1
REMARK minimizedAffinity 2.1784606
REMARK minimizedRMSD -1
REMARK  0 active torsions:
REMARK  status: ('A' for Active; 'I' for Inactive)
ROOT
ATOM      1  C   UNL d   1       1.003   5.374  -2.163  0.00  0.00     0.172 C 
ATOM      2  N   UNL d   1       1.054   4.777  -0.849  0.00  0.00    -0.070 N 
ATOM      3  C1  UNL d   1       1.903   5.142   0.161  0.00  0.00    -0.004 A 
ATOM      4  C2  UNL d   1       1.637   4.338   1.248  0.00  0.00    -0.047 A 
ATOM      5  C3  UNL d   1       0.592   3.458   0.877  0.00  0.00    -0.047 A 
ATOM      6  C4  UNL d   1       0.250   3.752  -0.426  0.00  0.00    -0.004 A 
ENDROOT
TORSDOF 0
ENDMDL
