MODEL 1
REMARK minimizedAffinity 0.34125945
REMARK minimizedRMSD -1
REMARK  0 active torsions:
REMARK  status: ('A' for Active; 'I' for Inactive)
ROOT
ATOM      1  C   UNL d   1       0.418  -3.591  -0.940  0.00  0.00     0.172 C 
ATOM      2  N   UNL d   1      -0.177  -3.304  -2.224  0.00  0.00    -0.070 N 
ATOM      3  C1  UNL d   1      -1.485  -3.525  -2.565  0.00  0.00    -0.004 A 
ATOM      4  C2  UNL d   1      -1.655  -3.120  -3.871  0.00  0.00    -0.047 A 
ATOM      5  C3  UNL d   1      -0.406  -2.641  -4.332  0.00  0.00    -0.047 A 
ATOM      6  C4  UNL d   1       0.491  -2.766  -3.292  0.00  0.00    -0.004 A 
ENDROOT
TORSDOF 0
ENDMDL
