MODEL 1
REMARK minimizedAffinity 2.82863688
REMARK minimizedRMSD -1
REMARK  0 active torsions:
REMARK  status: ('A' for Active; 'I' for Inactive)
ROOT
ATOM      1  C   UNL d   1      -2.104  -4.022  -2.520  0.00  0.00     0.172 C 
ATOM      2  N   UNL d   1      -0.880  -3.962  -1.756  0.00  0.00    -0.070 N 
ATOM      3  C1  UNL d   1      -0.250  -5.030  -1.174  0.00  0.00    -0.004 A 
ATOM      4  C2  UNL d   1       0.880  -4.559  -0.541  0.00  0.00    -0.047 A 
ATOM      5  C3  UNL d   1       0.930  -3.160  -0.749  0.00  0.00    -0.047 A 
ATOM      6  C4  UNL d   1      -0.171  -2.818  -1.504  0.00  0.00    -0.004 A 
ENDROOT
TORSDOF 0
ENDMDL
