MODEL 1
REMARK minimizedAffinity 2.91418815
REMARK minimizedRMSD -1
REMARK  0 active torsions:
REMARK  status: ('A' for Active; 'I' for Inactive)
ROOT
ATOM      1  C   UNL d   1       1.184   5.159  -1.479  0.00  0.00     0.172 C 
ATOM      2  N   UNL d   1       0.643   4.196  -0.548  0.00  0.00    -0.070 N 
ATOM      3  C1  UNL d   1       1.356   3.524   0.409  0.00  0.00    -0.004 A 
ATOM      4  C2  UNL d   1       0.481   2.703   1.087  0.00  0.00    -0.047 A 
ATOM      5  C3  UNL d   1      -0.801   2.888   0.518  0.00  0.00    -0.047 A 
ATOM      6  C4  UNL d   1      -0.672   3.817  -0.492  0.00  0.00    -0.004 A 
ENDROOT
TORSDOF 0
ENDMDL
