MODEL 1
REMARK minimizedAffinity 2.02564096
REMARK minimizedRMSD -1
REMARK  0 active torsions:
REMARK  status: ('A' for Active; 'I' for Inactive)
ROOT
ATOM      1  C   UNL d   1      -0.748   2.656   0.492  0.00  0.00     0.172 C 
ATOM      2  N   UNL d   1      -0.330   3.882  -0.146  0.00  0.00    -0.070 N 
ATOM      3  C1  UNL d   1      -1.014   5.069  -0.120  0.00  0.00    -0.004 A 
ATOM      4  C2  UNL d   1      -0.287   5.990  -0.842  0.00  0.00    -0.047 A 
ATOM      5  C3  UNL d   1       0.873   5.335  -1.319  0.00  0.00    -0.047 A 
ATOM      6  C4  UNL d   1       0.821   4.031  -0.873  0.00  0.00    -0.004 A 
ENDROOT
TORSDOF 0
ENDMDL
