MODEL 1
REMARK minimizedAffinity 7.44526768
REMARK minimizedRMSD -1
REMARK  0 active torsions:
REMARK  status: ('A' for Active; 'I' for Inactive)
ROOT
ATOM      1  C   UNL d   1      -0.344   2.664   1.693  0.00  0.00     0.172 C 
ATOM      2  N   UNL d   1       0.155   3.593   0.706  0.00  0.00    -0.070 N 
ATOM      3  C1  UNL d   1      -0.515   4.687   0.228  0.00  0.00    -0.004 A 
ATOM      4  C2  UNL d   1       0.297   5.310  -0.694  0.00  0.00    -0.047 A 
ATOM      5  C3  UNL d   1       1.498   4.564  -0.774  0.00  0.00    -0.047 A 
ATOM      6  C4  UNL d   1       1.383   3.507   0.104  0.00  0.00    -0.004 A 
ENDROOT
TORSDOF 0
ENDMDL
