MODEL 1
REMARK minimizedAffinity -4.08463049
REMARK minimizedRMSD -1
REMARK  0 active torsions:
REMARK  status: ('A' for Active; 'I' for Inactive)
ROOT
ATOM      1  C1  BNZ d   1      -1.388   1.759  -0.297  0.00  0.00     0.000 A 
ATOM      2  C2  BNZ d   1      -0.447   0.831  -0.655  0.00  0.00     0.000 A 
ATOM      3  C3  BNZ d   1      -0.045  -0.135   0.225  0.00  0.00     0.000 A 
ATOM      4  C4  BNZ d   1      -0.556  -0.148   1.473  0.00  0.00     0.000 A 
ATOM      5  C5  BNZ d   1      -1.499   0.787   1.852  0.00  0.00     0.000 A 
ATOM      6  C6  BNZ d   1      -1.929   1.733   0.951  0.00  0.00     0.000 A 
ENDROOT
TORSDOF 0
ENDMDL
