MODEL 1
REMARK minimizedAffinity -5.24003792
REMARK minimizedRMSD -1
REMARK  0 active torsions:
REMARK  status: ('A' for Active; 'I' for Inactive)
ROOT
ATOM      1  C1  BNZ d   1      -0.892   2.043  -0.354  0.00  0.00     0.000 A 
ATOM      2  C2  BNZ d   1      -0.192   0.895  -0.615  0.00  0.00     0.000 A 
ATOM      3  C3  BNZ d   1      -0.139  -0.116   0.303  0.00  0.00     0.000 A 
ATOM      4  C4  BNZ d   1      -0.751   0.037   1.494  0.00  0.00     0.000 A 
ATOM      5  C5  BNZ d   1      -1.453   1.192   1.777  0.00  0.00     0.000 A 
ATOM      6  C6  BNZ d   1      -1.537   2.192   0.835  0.00  0.00     0.000 A 
ENDROOT
TORSDOF 0
ENDMDL
