MODEL 1
REMARK minimizedAffinity -4.93715239
REMARK minimizedRMSD -1
REMARK  0 active torsions:
REMARK  status: ('A' for Active; 'I' for Inactive)
ROOT
ATOM      1  C1  BNZ d   1      -0.505  -0.228   1.896  0.00  0.00     0.000 A 
ATOM      2  C2  BNZ d   1       0.234  -0.152   0.745  0.00  0.00     0.000 A 
ATOM      3  C3  BNZ d   1       0.114   0.921  -0.093  0.00  0.00     0.000 A 
ATOM      4  C4  BNZ d   1      -0.772   1.895   0.198  0.00  0.00     0.000 A 
ATOM      5  C5  BNZ d   1      -1.531   1.828   1.349  0.00  0.00     0.000 A 
ATOM      6  C6  BNZ d   1      -1.380   0.766   2.211  0.00  0.00     0.000 A 
ENDROOT
TORSDOF 0
ENDMDL
