MODEL 1
REMARK minimizedAffinity -4.59502554
REMARK minimizedRMSD -1
REMARK  0 active torsions:
REMARK  status: ('A' for Active; 'I' for Inactive)
ROOT
ATOM      1  C1  BNZ d   1      -0.741  -0.234   1.616  0.00  0.00     0.000 A 
ATOM      2  C2  BNZ d   1      -1.458   0.882   1.956  0.00  0.00     0.000 A 
ATOM      3  C3  BNZ d   1      -1.677   1.878   1.046  0.00  0.00     0.000 A 
ATOM      4  C4  BNZ d   1      -1.146   1.775  -0.190  0.00  0.00     0.000 A 
ATOM      5  C5  BNZ d   1      -0.413   0.660  -0.545  0.00  0.00     0.000 A 
ATOM      6  C6  BNZ d   1      -0.228  -0.358   0.361  0.00  0.00     0.000 A 
ENDROOT
TORSDOF 0
ENDMDL
