MODEL 1
REMARK minimizedAffinity -2.21629596
REMARK minimizedRMSD -1
REMARK  0 active torsions:
REMARK  status: ('A' for Active; 'I' for Inactive)
ROOT
ATOM      1  C1  BNZ d   1       0.928  -0.394  -1.101  0.00  0.00     0.000 A 
ATOM      2  C2  BNZ d   1       1.149  -1.205  -0.020  0.00  0.00     0.000 A 
ATOM      3  C3  BNZ d   1       0.408  -1.067   1.121  0.00  0.00     0.000 A 
ATOM      4  C4  BNZ d   1      -0.524  -0.095   1.193  0.00  0.00     0.000 A 
ATOM      5  C5  BNZ d   1      -0.752   0.736   0.114  0.00  0.00     0.000 A 
ATOM      6  C6  BNZ d   1      -0.031   0.570  -1.046  0.00  0.00     0.000 A 
ENDROOT
TORSDOF 0
ENDMDL
