MODEL 1
REMARK minimizedAffinity -4.36892319
REMARK minimizedRMSD -1
REMARK  0 active torsions:
REMARK  status: ('A' for Active; 'I' for Inactive)
ROOT
ATOM      1  C1  BNZ d   1      -0.474  -0.283   1.362  0.00  0.00     0.000 A 
ATOM      2  C2  BNZ d   1      -1.209   0.869   1.452  0.00  0.00     0.000 A 
ATOM      3  C3  BNZ d   1      -1.086   1.853   0.512  0.00  0.00     0.000 A 
ATOM      4  C4  BNZ d   1      -0.200   1.701  -0.494  0.00  0.00     0.000 A 
ATOM      5  C5  BNZ d   1       0.554   0.549  -0.594  0.00  0.00     0.000 A 
ATOM      6  C6  BNZ d   1       0.399  -0.456   0.333  0.00  0.00     0.000 A 
ENDROOT
TORSDOF 0
ENDMDL
