MODEL 1
REMARK minimizedAffinity -5.0911994
REMARK minimizedRMSD -1
REMARK  0 active torsions:
REMARK  status: ('A' for Active; 'I' for Inactive)
ROOT
ATOM      1  C1  BNZ d   1      -1.820   1.939   0.048  0.00  0.00     0.000 A 
ATOM      2  C2  BNZ d   1      -0.691   1.356  -0.461  0.00  0.00     0.000 A 
ATOM      3  C3  BNZ d   1      -0.046   0.363   0.222  0.00  0.00     0.000 A 
ATOM      4  C4  BNZ d   1      -0.509  -0.018   1.430  0.00  0.00     0.000 A 
ATOM      5  C5  BNZ d   1      -1.641   0.566   1.962  0.00  0.00     0.000 A 
ATOM      6  C6  BNZ d   1      -2.309   1.539   1.253  0.00  0.00     0.000 A 
ENDROOT
TORSDOF 0
ENDMDL
