MODEL 1
REMARK minimizedAffinity -4.08232212
REMARK minimizedRMSD -1
REMARK  0 active torsions:
REMARK  status: ('A' for Active; 'I' for Inactive)
ROOT
ATOM      1  C1  BNZ d   1       0.901   0.076  -0.587  0.00  0.00     0.000 A 
ATOM      2  C2  BNZ d   1       1.602   1.116  -1.135  0.00  0.00     0.000 A 
ATOM      3  C3  BNZ d   1       0.985   2.301  -1.424  0.00  0.00     0.000 A 
ATOM      4  C4  BNZ d   1      -0.339   2.430  -1.203  0.00  0.00     0.000 A 
ATOM      5  C5  BNZ d   1      -1.062   1.387  -0.660  0.00  0.00     0.000 A 
ATOM      6  C6  BNZ d   1      -0.430   0.209  -0.334  0.00  0.00     0.000 A 
ENDROOT
TORSDOF 0
ENDMDL
