MODEL 1
REMARK minimizedAffinity -2.16830635
REMARK minimizedRMSD -1
REMARK  0 active torsions:
REMARK  status: ('A' for Active; 'I' for Inactive)
ROOT
ATOM      1  C1  BNZ d   1      -0.259   2.019  -0.306  0.00  0.00     0.000 A 
ATOM      2  C2  BNZ d   1      -0.826   3.026   0.428  0.00  0.00     0.000 A 
ATOM      3  C3  BNZ d   1      -1.474   2.758   1.601  0.00  0.00     0.000 A 
ATOM      4  C4  BNZ d   1      -1.589   1.480   2.018  0.00  0.00     0.000 A 
ATOM      5  C5  BNZ d   1      -1.031   0.452   1.284  0.00  0.00     0.000 A 
ATOM      6  C6  BNZ d   1      -0.346   0.730   0.124  0.00  0.00     0.000 A 
ENDROOT
TORSDOF 0
ENDMDL
