MODEL 1
REMARK minimizedAffinity -3.48575354
REMARK minimizedRMSD -1
REMARK  0 active torsions:
REMARK  status: ('A' for Active; 'I' for Inactive)
ROOT
ATOM      1  C1  BNZ d   1      -2.116   1.824   1.582  0.00  0.00     0.000 A 
ATOM      2  C2  BNZ d   1      -1.052   1.961   0.730  0.00  0.00     0.000 A 
ATOM      3  C3  BNZ d   1      -0.188   0.925   0.517  0.00  0.00     0.000 A 
ATOM      4  C4  BNZ d   1      -0.363  -0.234   1.185  0.00  0.00     0.000 A 
ATOM      5  C5  BNZ d   1      -1.425  -0.385   2.054  0.00  0.00     0.000 A 
ATOM      6  C6  BNZ d   1      -2.316   0.648   2.237  0.00  0.00     0.000 A 
ENDROOT
TORSDOF 0
ENDMDL
