MODEL 1
REMARK minimizedAffinity -2.4234581
REMARK minimizedRMSD -1
REMARK  0 active torsions:
REMARK  status: ('A' for Active; 'I' for Inactive)
ROOT
ATOM      1  C1  BNZ d   1       1.333  -3.887  -1.856  0.00  0.00     0.000 A 
ATOM      2  C2  BNZ d   1       1.501  -2.845  -0.983  0.00  0.00     0.000 A 
ATOM      3  C3  BNZ d   1       0.939  -1.624  -1.234  0.00  0.00     0.000 A 
ATOM      4  C4  BNZ d   1       0.244  -1.436  -2.375  0.00  0.00     0.000 A 
ATOM      5  C5  BNZ d   1       0.074  -2.475  -3.269  0.00  0.00     0.000 A 
ATOM      6  C6  BNZ d   1       0.608  -3.713  -2.994  0.00  0.00     0.000 A 
ENDROOT
TORSDOF 0
ENDMDL
