MODEL 1
REMARK minimizedAffinity -3.28390837
REMARK minimizedRMSD -1
REMARK  0 active torsions:
REMARK  status: ('A' for Active; 'I' for Inactive)
ROOT
ATOM      1  C1  BNZ d   1       0.771  -0.984   0.414  0.00  0.00     0.000 A 
ATOM      2  C2  BNZ d   1       0.124  -0.303  -0.583  0.00  0.00     0.000 A 
ATOM      3  C3  BNZ d   1      -0.624   0.805  -0.302  0.00  0.00     0.000 A 
ATOM      4  C4  BNZ d   1      -0.758   1.208   0.979  0.00  0.00     0.000 A 
ATOM      5  C5  BNZ d   1      -0.119   0.527   1.996  0.00  0.00     0.000 A 
ATOM      6  C6  BNZ d   1       0.665  -0.566   1.704  0.00  0.00     0.000 A 
ENDROOT
TORSDOF 0
ENDMDL
