MODEL 1
REMARK minimizedAffinity -3.06528854
REMARK minimizedRMSD -1
REMARK  0 active torsions:
REMARK  status: ('A' for Active; 'I' for Inactive)
ROOT
ATOM      1  C1  BNZ d   1       0.506  -3.526  -1.705  0.00  0.00     0.000 A 
ATOM      2  C2  BNZ d   1       0.893  -2.534  -0.844  0.00  0.00     0.000 A 
ATOM      3  C3  BNZ d   1       1.098  -1.259  -1.292  0.00  0.00     0.000 A 
ATOM      4  C4  BNZ d   1       0.956  -0.987  -2.606  0.00  0.00     0.000 A 
ATOM      5  C5  BNZ d   1       0.576  -1.979  -3.488  0.00  0.00     0.000 A 
ATOM      6  C6  BNZ d   1       0.332  -3.252  -3.026  0.00  0.00     0.000 A 
ENDROOT
TORSDOF 0
ENDMDL
