MODEL 1
REMARK minimizedAffinity -3.2872982
REMARK minimizedRMSD -1
REMARK  0 active torsions:
REMARK  status: ('A' for Active; 'I' for Inactive)
ROOT
ATOM      1  C1  BNZ d   1      -0.409  -2.134  -1.868  0.00  0.00     0.000 A 
ATOM      2  C2  BNZ d   1      -1.236  -1.626  -0.903  0.00  0.00     0.000 A 
ATOM      3  C3  BNZ d   1      -0.746  -0.818   0.085  0.00  0.00     0.000 A 
ATOM      4  C4  BNZ d   1       0.576  -0.552   0.128  0.00  0.00     0.000 A 
ATOM      5  C5  BNZ d   1       1.424  -1.064  -0.833  0.00  0.00     0.000 A 
ATOM      6  C6  BNZ d   1       0.921  -1.846  -1.847  0.00  0.00     0.000 A 
ENDROOT
TORSDOF 0
ENDMDL
