MODEL 1
REMARK minimizedAffinity -4.7575264
REMARK minimizedRMSD -1
REMARK  0 active torsions:
REMARK  status: ('A' for Active; 'I' for Inactive)
ROOT
ATOM      1  C1  BNZ d   1      -0.741   1.881  -0.560  0.00  0.00     0.000 A 
ATOM      2  C2  BNZ d   1      -1.461   1.917   0.604  0.00  0.00     0.000 A 
ATOM      3  C3  BNZ d   1      -1.203   1.032   1.614  0.00  0.00     0.000 A 
ATOM      4  C4  BNZ d   1      -0.254   0.090   1.443  0.00  0.00     0.000 A 
ATOM      5  C5  BNZ d   1       0.475   0.035   0.272  0.00  0.00     0.000 A 
ATOM      6  C6  BNZ d   1       0.239   0.952  -0.727  0.00  0.00     0.000 A 
ENDROOT
TORSDOF 0
ENDMDL
