MODEL 1
REMARK minimizedAffinity -3.10783672
REMARK minimizedRMSD -1
REMARK  0 active torsions:
REMARK  status: ('A' for Active; 'I' for Inactive)
ROOT
ATOM      1  C1  BNZ d   1      -1.919  -0.244   2.161  0.00  0.00     0.000 A 
ATOM      2  C2  BNZ d   1      -2.120   1.066   2.506  0.00  0.00     0.000 A 
ATOM      3  C3  BNZ d   1      -1.250   2.039   2.100  0.00  0.00     0.000 A 
ATOM      4  C4  BNZ d   1      -0.160   1.696   1.384  0.00  0.00     0.000 A 
ATOM      5  C5  BNZ d   1       0.063   0.379   1.036  0.00  0.00     0.000 A 
ATOM      6  C6  BNZ d   1      -0.836  -0.593   1.414  0.00  0.00     0.000 A 
ENDROOT
TORSDOF 0
ENDMDL
