MODEL 1
REMARK minimizedAffinity -4.55946445
REMARK minimizedRMSD -1
REMARK  0 active torsions:
REMARK  status: ('A' for Active; 'I' for Inactive)
ROOT
ATOM      1  C1  BNZ d   1       1.157   0.272   1.361  0.00  0.00     0.000 A 
ATOM      2  C2  BNZ d   1       0.743  -0.170   2.589  0.00  0.00     0.000 A 
ATOM      3  C3  BNZ d   1      -0.523  -0.652   2.770  0.00  0.00     0.000 A 
ATOM      4  C4  BNZ d   1      -1.385  -0.655   1.733  0.00  0.00     0.000 A 
ATOM      5  C5  BNZ d   1      -0.987  -0.204   0.491  0.00  0.00     0.000 A 
ATOM      6  C6  BNZ d   1       0.301   0.244   0.303  0.00  0.00     0.000 A 
ENDROOT
TORSDOF 0
ENDMDL
