MODEL 1
REMARK minimizedAffinity -5.19790506
REMARK minimizedRMSD -1
REMARK  0 active torsions:
REMARK  status: ('A' for Active; 'I' for Inactive)
ROOT
ATOM      1  C1  BNZ d   1      -0.801  -0.098   0.765  0.00  0.00     0.000 A 
ATOM      2  C2  BNZ d   1      -2.126   0.197   0.952  0.00  0.00     0.000 A 
ATOM      3  C3  BNZ d   1      -2.674   0.194   2.204  0.00  0.00     0.000 A 
ATOM      4  C4  BNZ d   1      -1.909  -0.143   3.262  0.00  0.00     0.000 A 
ATOM      5  C5  BNZ d   1      -0.574  -0.452   3.089  0.00  0.00     0.000 A 
ATOM      6  C6  BNZ d   1      -0.016  -0.409   1.832  0.00  0.00     0.000 A 
ENDROOT
TORSDOF 0
ENDMDL
