MODEL 1
REMARK minimizedAffinity -4.50586605
REMARK minimizedRMSD -1
REMARK  0 active torsions:
REMARK  status: ('A' for Active; 'I' for Inactive)
ROOT
ATOM      1  C1  BNZ d   1      -1.019  -0.162   0.605  0.00  0.00     0.000 A 
ATOM      2  C2  BNZ d   1      -1.588  -0.645   1.753  0.00  0.00     0.000 A 
ATOM      3  C3  BNZ d   1      -0.860  -0.747   2.906  0.00  0.00     0.000 A 
ATOM      4  C4  BNZ d   1       0.444  -0.402   2.899  0.00  0.00     0.000 A 
ATOM      5  C5  BNZ d   1       1.034   0.078   1.747  0.00  0.00     0.000 A 
ATOM      6  C6  BNZ d   1       0.288   0.215   0.599  0.00  0.00     0.000 A 
ENDROOT
TORSDOF 0
ENDMDL
