MODEL 1
REMARK minimizedAffinity -3.76699781
REMARK minimizedRMSD -1
REMARK  0 active torsions:
REMARK  status: ('A' for Active; 'I' for Inactive)
ROOT
ATOM      1  C1  BNZ d   1       1.267   1.098  -0.174  0.00  0.00     0.000 A 
ATOM      2  C2  BNZ d   1       1.443   0.530   1.059  0.00  0.00     0.000 A 
ATOM      3  C3  BNZ d   1       0.394  -0.045   1.721  0.00  0.00     0.000 A 
ATOM      4  C4  BNZ d   1      -0.836  -0.016   1.167  0.00  0.00     0.000 A 
ATOM      5  C5  BNZ d   1      -1.031   0.562  -0.071  0.00  0.00     0.000 A 
ATOM      6  C6  BNZ d   1       0.035   1.106  -0.751  0.00  0.00     0.000 A 
ENDROOT
TORSDOF 0
ENDMDL
