MODEL 1
REMARK minimizedAffinity -4.91421127
REMARK minimizedRMSD -1
REMARK  0 active torsions:
REMARK  status: ('A' for Active; 'I' for Inactive)
ROOT
ATOM      1  C1  BNZ d   1      -0.046   0.516  -0.856  0.00  0.00     0.000 A 
ATOM      2  C2  BNZ d   1      -1.407   0.655  -0.896  0.00  0.00     0.000 A 
ATOM      3  C3  BNZ d   1      -2.198   0.085   0.062  0.00  0.00     0.000 A 
ATOM      4  C4  BNZ d   1      -1.630  -0.656   1.035  0.00  0.00     0.000 A 
ATOM      5  C5  BNZ d   1      -0.259  -0.814   1.084  0.00  0.00     0.000 A 
ATOM      6  C6  BNZ d   1       0.536  -0.206   0.140  0.00  0.00     0.000 A 
ENDROOT
TORSDOF 0
ENDMDL
