MODEL 1
REMARK minimizedAffinity -1.47588718
REMARK minimizedRMSD -1
REMARK  0 active torsions:
REMARK  status: ('A' for Active; 'I' for Inactive)
ROOT
ATOM      1  C1  BNZ d   1      -0.875  -1.063   0.609  0.00  0.00     0.000 A 
ATOM      2  C2  BNZ d   1      -1.334  -1.234   1.887  0.00  0.00     0.000 A 
ATOM      3  C3  BNZ d   1      -1.014  -0.341   2.872  0.00  0.00     0.000 A 
ATOM      4  C4  BNZ d   1      -0.203   0.698   2.586  0.00  0.00     0.000 A 
ATOM      5  C5  BNZ d   1       0.275   0.880   1.304  0.00  0.00     0.000 A 
ATOM      6  C6  BNZ d   1      -0.081   0.001   0.307  0.00  0.00     0.000 A 
ENDROOT
TORSDOF 0
ENDMDL
