MODEL 1
REMARK minimizedAffinity -4.83100891
REMARK minimizedRMSD -1
REMARK  0 active torsions:
REMARK  status: ('A' for Active; 'I' for Inactive)
ROOT
ATOM      1  C1  BNZ d   1       1.201   0.302   0.834  0.00  0.00     0.000 A 
ATOM      2  C2  BNZ d   1       0.465   0.518  -0.301  0.00  0.00     0.000 A 
ATOM      3  C3  BNZ d   1      -0.899   0.437  -0.276  0.00  0.00     0.000 A 
ATOM      4  C4  BNZ d   1      -1.523   0.102   0.871  0.00  0.00     0.000 A 
ATOM      5  C5  BNZ d   1      -0.795  -0.129   2.021  0.00  0.00     0.000 A 
ATOM      6  C6  BNZ d   1       0.576  -0.009   2.002  0.00  0.00     0.000 A 
ENDROOT
TORSDOF 0
ENDMDL
