MODEL 1
REMARK minimizedAffinity -2.86845779
REMARK minimizedRMSD -1
REMARK  0 active torsions:
REMARK  status: ('A' for Active; 'I' for Inactive)
ROOT
ATOM      1  C1  BNZ d   1      -1.010   0.737  -1.227  0.00  0.00     0.000 A 
ATOM      2  C2  BNZ d   1      -0.925   0.622   0.135  0.00  0.00     0.000 A 
ATOM      3  C3  BNZ d   1       0.212   0.150   0.728  0.00  0.00     0.000 A 
ATOM      4  C4  BNZ d   1       1.247  -0.244  -0.042  0.00  0.00     0.000 A 
ATOM      5  C5  BNZ d   1       1.173  -0.143  -1.417  0.00  0.00     0.000 A 
ATOM      6  C6  BNZ d   1       0.042   0.370  -2.008  0.00  0.00     0.000 A 
ENDROOT
TORSDOF 0
ENDMDL
