MODEL 1
REMARK minimizedAffinity -5.49795628
REMARK minimizedRMSD -1
REMARK  0 active torsions:
REMARK  status: ('A' for Active; 'I' for Inactive)
ROOT
ATOM      1  C1  BNZ d   1      -2.322  -0.115   0.989  0.00  0.00     0.000 A 
ATOM      2  C2  BNZ d   1      -1.055  -0.494   0.633  0.00  0.00     0.000 A 
ATOM      3  C3  BNZ d   1      -0.089  -0.684   1.581  0.00  0.00     0.000 A 
ATOM      4  C4  BNZ d   1      -0.379  -0.456   2.878  0.00  0.00     0.000 A 
ATOM      5  C5  BNZ d   1      -1.648  -0.064   3.252  0.00  0.00     0.000 A 
ATOM      6  C6  BNZ d   1      -2.629   0.088   2.299  0.00  0.00     0.000 A 
ENDROOT
TORSDOF 0
ENDMDL
