MODEL 1
REMARK minimizedAffinity -5.14795446
REMARK minimizedRMSD -1
REMARK  0 active torsions:
REMARK  status: ('A' for Active; 'I' for Inactive)
ROOT
ATOM      1  C1  BNZ d   1      -1.656  -0.356   1.838  0.00  0.00     0.000 A 
ATOM      2  C2  BNZ d   1      -1.103  -0.068   0.618  0.00  0.00     0.000 A 
ATOM      3  C3  BNZ d   1       0.248   0.083   0.480  0.00  0.00     0.000 A 
ATOM      4  C4  BNZ d   1       1.041  -0.015   1.567  0.00  0.00     0.000 A 
ATOM      5  C5  BNZ d   1       0.498  -0.296   2.805  0.00  0.00     0.000 A 
ATOM      6  C6  BNZ d   1      -0.859  -0.485   2.934  0.00  0.00     0.000 A 
ENDROOT
TORSDOF 0
ENDMDL
