MODEL 1
REMARK minimizedAffinity -2.64448476
REMARK minimizedRMSD -1
REMARK  0 active torsions:
REMARK  status: ('A' for Active; 'I' for Inactive)
ROOT
ATOM      1  C1  BNZ d   1      -0.961  -0.078   0.767  0.00  0.00     0.000 A 
ATOM      2  C2  BNZ d   1      -0.412   0.367  -0.406  0.00  0.00     0.000 A 
ATOM      3  C3  BNZ d   1       0.903   0.736  -0.467  0.00  0.00     0.000 A 
ATOM      4  C4  BNZ d   1       1.655   0.698   0.651  0.00  0.00     0.000 A 
ATOM      5  C5  BNZ d   1       1.114   0.261   1.843  0.00  0.00     0.000 A 
ATOM      6  C6  BNZ d   1      -0.199  -0.147   1.893  0.00  0.00     0.000 A 
ENDROOT
TORSDOF 0
ENDMDL
