MODEL 1
REMARK minimizedAffinity -2.88978529
REMARK minimizedRMSD -1
REMARK  0 active torsions:
REMARK  status: ('A' for Active; 'I' for Inactive)
ROOT
ATOM      1  C1  BNZ d   1      -1.158   0.088  -0.494  0.00  0.00     0.000 A 
ATOM      2  C2  BNZ d   1      -1.569  -0.492   0.676  0.00  0.00     0.000 A 
ATOM      3  C3  BNZ d   1      -0.738  -0.545   1.761  0.00  0.00     0.000 A 
ATOM      4  C4  BNZ d   1       0.514  -0.056   1.661  0.00  0.00     0.000 A 
ATOM      5  C5  BNZ d   1       0.947   0.524   0.485  0.00  0.00     0.000 A 
ATOM      6  C6  BNZ d   1       0.095   0.611  -0.592  0.00  0.00     0.000 A 
ENDROOT
TORSDOF 0
ENDMDL
