MODEL 1
REMARK minimizedAffinity -4.49463129
REMARK minimizedRMSD -1
REMARK  0 active torsions:
REMARK  status: ('A' for Active; 'I' for Inactive)
ROOT
ATOM      1  C1  BNZ d   1       0.084   0.044   0.418  0.00  0.00     0.000 A 
ATOM      2  C2  BNZ d   1      -1.175   0.444   0.781  0.00  0.00     0.000 A 
ATOM      3  C3  BNZ d   1      -1.639   0.231   2.049  0.00  0.00     0.000 A 
ATOM      4  C4  BNZ d   1      -0.861  -0.417   2.939  0.00  0.00     0.000 A 
ATOM      5  C5  BNZ d   1       0.407  -0.835   2.586  0.00  0.00     0.000 A 
ATOM      6  C6  BNZ d   1       0.885  -0.584   1.321  0.00  0.00     0.000 A 
ENDROOT
TORSDOF 0
ENDMDL
