MODEL 1
REMARK minimizedAffinity -4.77696562
REMARK minimizedRMSD -1
REMARK  0 active torsions:
REMARK  status: ('A' for Active; 'I' for Inactive)
ROOT
ATOM      1  C1  BNZ d   1       0.031  -0.317   2.886  0.00  0.00     0.000 A 
ATOM      2  C2  BNZ d   1       0.824  -0.234   1.772  0.00  0.00     0.000 A 
ATOM      3  C3  BNZ d   1       0.277  -0.276   0.520  0.00  0.00     0.000 A 
ATOM      4  C4  BNZ d   1      -1.054  -0.443   0.383  0.00  0.00     0.000 A 
ATOM      5  C5  BNZ d   1      -1.865  -0.538   1.496  0.00  0.00     0.000 A 
ATOM      6  C6  BNZ d   1      -1.316  -0.456   2.755  0.00  0.00     0.000 A 
ENDROOT
TORSDOF 0
ENDMDL
