MODEL 1
REMARK minimizedAffinity -1.67781472
REMARK minimizedRMSD -1
REMARK  0 active torsions:
REMARK  status: ('A' for Active; 'I' for Inactive)
ROOT
ATOM      1  C1  BNZ d   1       0.805   0.349  -0.941  0.00  0.00     0.000 A 
ATOM      2  C2  BNZ d   1      -0.165   0.683  -1.850  0.00  0.00     0.000 A 
ATOM      3  C3  BNZ d   1      -1.451   0.912  -1.448  0.00  0.00     0.000 A 
ATOM      4  C4  BNZ d   1      -1.775   0.767  -0.147  0.00  0.00     0.000 A 
ATOM      5  C5  BNZ d   1      -0.811   0.422   0.779  0.00  0.00     0.000 A 
ATOM      6  C6  BNZ d   1       0.491   0.231   0.377  0.00  0.00     0.000 A 
ENDROOT
TORSDOF 0
ENDMDL
