MODEL 1
REMARK minimizedAffinity -2.92195296
REMARK minimizedRMSD -1
REMARK  0 active torsions:
REMARK  status: ('A' for Active; 'I' for Inactive)
ROOT
ATOM      1  C1  BNZ d   1      -0.733  -0.607  -0.180  0.00  0.00     0.000 A 
ATOM      2  C2  BNZ d   1      -1.206  -0.874   1.077  0.00  0.00     0.000 A 
ATOM      3  C3  BNZ d   1      -0.691  -0.233   2.169  0.00  0.00     0.000 A 
ATOM      4  C4  BNZ d   1       0.322   0.642   2.008  0.00  0.00     0.000 A 
ATOM      5  C5  BNZ d   1       0.816   0.915   0.748  0.00  0.00     0.000 A 
ATOM      6  C6  BNZ d   1       0.269   0.298  -0.353  0.00  0.00     0.000 A 
ENDROOT
TORSDOF 0
ENDMDL
