MODEL 1
REMARK minimizedAffinity -3.29914689
REMARK minimizedRMSD -1
REMARK  0 active torsions:
REMARK  status: ('A' for Active; 'I' for Inactive)
ROOT
ATOM      1  C1  BNZ d   1      -1.798  -0.163   0.399  0.00  0.00     0.000 A 
ATOM      2  C2  BNZ d   1      -1.370   0.427  -0.760  0.00  0.00     0.000 A 
ATOM      3  C3  BNZ d   1      -0.059   0.777  -0.925  0.00  0.00     0.000 A 
ATOM      4  C4  BNZ d   1       0.814   0.574   0.083  0.00  0.00     0.000 A 
ATOM      5  C5  BNZ d   1       0.396  -0.012   1.261  0.00  0.00     0.000 A 
ATOM      6  C6  BNZ d   1      -0.916  -0.399   1.409  0.00  0.00     0.000 A 
ENDROOT
TORSDOF 0
ENDMDL
