MODEL 1
REMARK minimizedAffinity 6.08273602
REMARK minimizedRMSD -1
REMARK  0 active torsions:
REMARK  status: ('A' for Active; 'I' for Inactive)
ROOT
ATOM      1  C   UNL d   1       5.275  -5.998   1.779  0.00  0.00     0.172 C 
ATOM      2  N   UNL d   1       5.457  -5.102   0.662  0.00  0.00    -0.070 N 
ATOM      3  C1  UNL d   1       6.000  -3.846   0.725  0.00  0.00    -0.004 A 
ATOM      4  C2  UNL d   1       5.998  -3.320  -0.549  0.00  0.00    -0.047 A 
ATOM      5  C3  UNL d   1       5.434  -4.293  -1.407  0.00  0.00    -0.047 A 
ATOM      6  C4  UNL d   1       5.107  -5.386  -0.632  0.00  0.00    -0.004 A 
ENDROOT
TORSDOF 0
ENDMDL
