MODEL 1
REMARK minimizedAffinity -2.54786921
REMARK minimizedRMSD -1
REMARK  0 active torsions:
REMARK  status: ('A' for Active; 'I' for Inactive)
ROOT
ATOM      1  C   UNL d   1       0.949  -0.259  -0.600  0.00  0.00     0.172 C 
ATOM      2  N   UNL d   1      -0.029   0.324   0.289  0.00  0.00    -0.070 N 
ATOM      3  C1  UNL d   1      -0.856   1.373  -0.012  0.00  0.00    -0.004 A 
ATOM      4  C2  UNL d   1      -1.636   1.627   1.095  0.00  0.00    -0.047 A 
ATOM      5  C3  UNL d   1      -1.265   0.698   2.097  0.00  0.00    -0.047 A 
ATOM      6  C4  UNL d   1      -0.268  -0.096   1.571  0.00  0.00    -0.004 A 
ENDROOT
TORSDOF 0
ENDMDL
