MODEL 1
REMARK minimizedAffinity -3.32146525
REMARK minimizedRMSD -1
REMARK  0 active torsions:
REMARK  status: ('A' for Active; 'I' for Inactive)
ROOT
ATOM      1  C   UNL d   1      -0.469  -0.074   0.821  0.00  0.00     0.172 C 
ATOM      2  N   UNL d   1      -0.778   1.285   0.443  0.00  0.00    -0.070 N 
ATOM      3  C1  UNL d   1      -1.456   2.193   1.212  0.00  0.00    -0.004 A 
ATOM      4  C2  UNL d   1      -1.543   3.369   0.499  0.00  0.00    -0.047 A 
ATOM      5  C3  UNL d   1      -0.897   3.160  -0.743  0.00  0.00    -0.047 A 
ATOM      6  C4  UNL d   1      -0.432   1.862  -0.750  0.00  0.00    -0.004 A 
ENDROOT
TORSDOF 0
ENDMDL
