MODEL 1
REMARK minimizedAffinity -2.45505309
REMARK minimizedRMSD -1
REMARK  0 active torsions:
REMARK  status: ('A' for Active; 'I' for Inactive)
ROOT
ATOM      1  C   UNL d   1       0.005   1.909  -1.542  0.00  0.00     0.172 C 
ATOM      2  N   UNL d   1      -0.566   1.506  -0.279  0.00  0.00    -0.070 N 
ATOM      3  C1  UNL d   1      -0.137   0.461   0.495  0.00  0.00    -0.004 A 
ATOM      4  C2  UNL d   1      -0.939   0.407   1.615  0.00  0.00    -0.047 A 
ATOM      5  C3  UNL d   1      -1.884   1.456   1.510  0.00  0.00    -0.047 A 
ATOM      6  C4  UNL d   1      -1.630   2.120   0.328  0.00  0.00    -0.004 A 
ENDROOT
TORSDOF 0
ENDMDL
