MODEL 1
REMARK minimizedAffinity -2.56133628
REMARK minimizedRMSD -1
REMARK  0 active torsions:
REMARK  status: ('A' for Active; 'I' for Inactive)
ROOT
ATOM      1  C   UNL d   1      -1.799   2.164  -0.353  0.00  0.00     0.172 C 
ATOM      2  N   UNL d   1      -0.766   1.174  -0.165  0.00  0.00    -0.070 N 
ATOM      3  C1  UNL d   1       0.254   0.908  -1.039  0.00  0.00    -0.004 A 
ATOM      4  C2  UNL d   1       1.024  -0.098  -0.496  0.00  0.00    -0.047 A 
ATOM      5  C3  UNL d   1       0.446  -0.449   0.747  0.00  0.00    -0.047 A 
ATOM      6  C4  UNL d   1      -0.660   0.354   0.928  0.00  0.00    -0.004 A 
ENDROOT
TORSDOF 0
ENDMDL
