MODEL 1
REMARK minimizedAffinity -2.76579905
REMARK minimizedRMSD -1
REMARK  0 active torsions:
REMARK  status: ('A' for Active; 'I' for Inactive)
ROOT
ATOM      1  C   UNL d   1       0.695   1.879  -1.246  0.00  0.00     0.172 C 
ATOM      2  N   UNL d   1       0.346   0.662  -0.551  0.00  0.00    -0.070 N 
ATOM      3  C1  UNL d   1       0.217  -0.576  -1.123  0.00  0.00    -0.004 A 
ATOM      4  C2  UNL d   1      -0.123  -1.467  -0.128  0.00  0.00    -0.047 A 
ATOM      5  C3  UNL d   1      -0.203  -0.739   1.083  0.00  0.00    -0.047 A 
ATOM      6  C4  UNL d   1       0.092   0.576   0.793  0.00  0.00    -0.004 A 
ENDROOT
TORSDOF 0
ENDMDL
