MODEL 1
REMARK minimizedAffinity -2.2414093
REMARK minimizedRMSD -1
REMARK  0 active torsions:
REMARK  status: ('A' for Active; 'I' for Inactive)
ROOT
ATOM      1  C   UNL d   1       0.805   1.978  -1.182  0.00  0.00     0.172 C 
ATOM      2  N   UNL d   1       0.139   1.346  -0.067  0.00  0.00    -0.070 N 
ATOM      3  C1  UNL d   1      -0.488   1.998   0.961  0.00  0.00    -0.004 A 
ATOM      4  C2  UNL d   1      -0.996   1.044   1.818  0.00  0.00    -0.047 A 
ATOM      5  C3  UNL d   1      -0.661  -0.224   1.286  0.00  0.00    -0.047 A 
ATOM      6  C4  UNL d   1       0.041  -0.007   0.119  0.00  0.00    -0.004 A 
ENDROOT
TORSDOF 0
ENDMDL
