MODEL 1
REMARK minimizedAffinity -3.92065215
REMARK minimizedRMSD -1
REMARK  0 active torsions:
REMARK  status: ('A' for Active; 'I' for Inactive)
ROOT
ATOM      1  C   UNL d   1       0.307  -0.299  -0.761  0.00  0.00     0.172 C 
ATOM      2  N   UNL d   1      -0.379   0.698   0.026  0.00  0.00    -0.070 N 
ATOM      3  C1  UNL d   1      -0.651   1.980  -0.370  0.00  0.00    -0.004 A 
ATOM      4  C2  UNL d   1      -1.316   2.609   0.660  0.00  0.00    -0.047 A 
ATOM      5  C3  UNL d   1      -1.448   1.672   1.713  0.00  0.00    -0.047 A 
ATOM      6  C4  UNL d   1      -0.859   0.498   1.294  0.00  0.00    -0.004 A 
ENDROOT
TORSDOF 0
ENDMDL
