MODEL 1
REMARK minimizedAffinity 1.13292181
REMARK minimizedRMSD -1
REMARK  0 active torsions:
REMARK  status: ('A' for Active; 'I' for Inactive)
ROOT
ATOM      1  C   UNL d   1      -0.902  -1.255   0.417  0.00  0.00     0.172 C 
ATOM      2  N   UNL d   1      -0.722   0.014   1.082  0.00  0.00    -0.070 N 
ATOM      3  C1  UNL d   1      -0.251   1.160   0.500  0.00  0.00    -0.004 A 
ATOM      4  C2  UNL d   1      -0.229   2.145   1.464  0.00  0.00    -0.047 A 
ATOM      5  C3  UNL d   1      -0.700   1.569   2.668  0.00  0.00    -0.047 A 
ATOM      6  C4  UNL d   1      -0.998   0.249   2.403  0.00  0.00    -0.004 A 
ENDROOT
TORSDOF 0
ENDMDL
