MODEL 1
REMARK minimizedAffinity 3.11561251
REMARK minimizedRMSD -1
REMARK  0 active torsions:
REMARK  status: ('A' for Active; 'I' for Inactive)
ROOT
ATOM      1  C   UNL d   1      -1.195   1.899   2.640  0.00  0.00     0.172 C 
ATOM      2  N   UNL d   1      -0.559   1.050   1.660  0.00  0.00    -0.070 N 
ATOM      3  C1  UNL d   1       0.026   1.474   0.496  0.00  0.00    -0.004 A 
ATOM      4  C2  UNL d   1       0.516   0.364  -0.158  0.00  0.00    -0.047 A 
ATOM      5  C3  UNL d   1       0.215  -0.765   0.639  0.00  0.00    -0.047 A 
ATOM      6  C4  UNL d   1      -0.451  -0.312   1.759  0.00  0.00    -0.004 A 
ENDROOT
TORSDOF 0
ENDMDL
