MODEL 1
REMARK minimizedAffinity -3.17944145
REMARK minimizedRMSD -1
REMARK  0 active torsions:
REMARK  status: ('A' for Active; 'I' for Inactive)
ROOT
ATOM      1  C   UNL d   1       0.534  -0.166  -0.779  0.00  0.00     0.172 C 
ATOM      2  N   UNL d   1      -0.453   0.680  -0.151  0.00  0.00    -0.070 N 
ATOM      3  C1  UNL d   1      -0.662   2.005  -0.429  0.00  0.00    -0.004 A 
ATOM      4  C2  UNL d   1      -1.687   2.449   0.378  0.00  0.00    -0.047 A 
ATOM      5  C3  UNL d   1      -2.108   1.353   1.170  0.00  0.00    -0.047 A 
ATOM      6  C4  UNL d   1      -1.327   0.271   0.822  0.00  0.00    -0.004 A 
ENDROOT
TORSDOF 0
ENDMDL
