MODEL 1
REMARK minimizedAffinity -2.64170289
REMARK minimizedRMSD -1
REMARK  0 active torsions:
REMARK  status: ('A' for Active; 'I' for Inactive)
ROOT
ATOM      1  C   UNL d   1       0.236  -0.506  -0.645  0.00  0.00     0.172 C 
ATOM      2  N   UNL d   1      -0.499   0.465   0.132  0.00  0.00    -0.070 N 
ATOM      3  C1  UNL d   1      -1.566   1.199  -0.311  0.00  0.00    -0.004 A 
ATOM      4  C2  UNL d   1      -1.983   2.005   0.726  0.00  0.00    -0.047 A 
ATOM      5  C3  UNL d   1      -1.137   1.747   1.830  0.00  0.00    -0.047 A 
ATOM      6  C4  UNL d   1      -0.227   0.789   1.435  0.00  0.00    -0.004 A 
ENDROOT
TORSDOF 0
ENDMDL
