MODEL 1
REMARK minimizedAffinity -3.42328143
REMARK minimizedRMSD -1
REMARK  0 active torsions:
REMARK  status: ('A' for Active; 'I' for Inactive)
ROOT
ATOM      1  C   UNL d   1       0.945   1.066  -0.795  0.00  0.00     0.172 C 
ATOM      2  N   UNL d   1      -0.197   0.675  -0.003  0.00  0.00    -0.070 N 
ATOM      3  C1  UNL d   1      -0.565   1.228   1.195  0.00  0.00    -0.004 A 
ATOM      4  C2  UNL d   1      -1.702   0.581   1.627  0.00  0.00    -0.047 A 
ATOM      5  C3  UNL d   1      -2.029  -0.395   0.656  0.00  0.00    -0.047 A 
ATOM      6  C4  UNL d   1      -1.080  -0.315  -0.342  0.00  0.00    -0.004 A 
ENDROOT
TORSDOF 0
ENDMDL
