MODEL 1
REMARK minimizedAffinity -3.03405833
REMARK minimizedRMSD -1
REMARK  0 active torsions:
REMARK  status: ('A' for Active; 'I' for Inactive)
ROOT
ATOM      1  C   UNL d   1       0.709   1.469  -1.059  0.00  0.00     0.172 C 
ATOM      2  N   UNL d   1       0.091   0.869   0.100  0.00  0.00    -0.070 N 
ATOM      3  C1  UNL d   1      -0.818   1.476   0.924  0.00  0.00    -0.004 A 
ATOM      4  C2  UNL d   1      -1.165   0.574   1.907  0.00  0.00    -0.047 A 
ATOM      5  C3  UNL d   1      -0.438  -0.616   1.666  0.00  0.00    -0.047 A 
ATOM      6  C4  UNL d   1       0.332  -0.406   0.541  0.00  0.00    -0.004 A 
ENDROOT
TORSDOF 0
ENDMDL
