MODEL 1
REMARK minimizedAffinity -3.25320363
REMARK minimizedRMSD -1
REMARK  0 active torsions:
REMARK  status: ('A' for Active; 'I' for Inactive)
ROOT
ATOM      1  C   UNL d   1      -2.287   2.811   0.922  0.00  0.00     0.172 C 
ATOM      2  N   UNL d   1      -1.370   1.696   0.951  0.00  0.00    -0.070 N 
ATOM      3  C1  UNL d   1      -0.915   1.065   2.078  0.00  0.00    -0.004 A 
ATOM      4  C2  UNL d   1      -0.063   0.057   1.683  0.00  0.00    -0.047 A 
ATOM      5  C3  UNL d   1      -0.002   0.084   0.269  0.00  0.00    -0.047 A 
ATOM      6  C4  UNL d   1      -0.820   1.108  -0.158  0.00  0.00    -0.004 A 
ENDROOT
TORSDOF 0
ENDMDL
