MODEL 1
REMARK minimizedAffinity -3.29295206
REMARK minimizedRMSD -1
REMARK  0 active torsions:
REMARK  status: ('A' for Active; 'I' for Inactive)
ROOT
ATOM      1  C   UNL d   1      -1.267   1.528  -0.811  0.00  0.00     0.172 C 
ATOM      2  N   UNL d   1      -1.004   0.998   0.507  0.00  0.00    -0.070 N 
ATOM      3  C1  UNL d   1      -0.544  -0.261   0.784  0.00  0.00    -0.004 A 
ATOM      4  C2  UNL d   1      -0.423  -0.376   2.152  0.00  0.00    -0.047 A 
ATOM      5  C3  UNL d   1      -0.826   0.858   2.717  0.00  0.00    -0.047 A 
ATOM      6  C4  UNL d   1      -1.180   1.690   1.676  0.00  0.00    -0.004 A 
ENDROOT
TORSDOF 0
ENDMDL
