MODEL 1
REMARK minimizedAffinity -0.768987358
REMARK minimizedRMSD -1
REMARK  0 active torsions:
REMARK  status: ('A' for Active; 'I' for Inactive)
ROOT
ATOM      1  C   UNL d   1       0.046  -1.429   0.018  0.00  0.00     0.172 C 
ATOM      2  N   UNL d   1       0.699  -0.142  -0.028  0.00  0.00    -0.070 N 
ATOM      3  C1  UNL d   1       2.034   0.084   0.174  0.00  0.00    -0.004 A 
ATOM      4  C2  UNL d   1       2.257   1.438   0.046  0.00  0.00    -0.047 A 
ATOM      5  C3  UNL d   1       1.013   2.047  -0.243  0.00  0.00    -0.047 A 
ATOM      6  C4  UNL d   1       0.065   1.046  -0.282  0.00  0.00    -0.004 A 
ENDROOT
TORSDOF 0
ENDMDL
