MODEL 1
REMARK minimizedAffinity -2.14501572
REMARK minimizedRMSD -1
REMARK  0 active torsions:
REMARK  status: ('A' for Active; 'I' for Inactive)
ROOT
ATOM      1  C   UNL d   1      -0.134  -1.800  -0.483  0.00  0.00     0.172 C 
ATOM      2  N   UNL d   1       0.736  -0.648  -0.440  0.00  0.00    -0.070 N 
ATOM      3  C1  UNL d   1       1.937  -0.579   0.213  0.00  0.00    -0.004 A 
ATOM      4  C2  UNL d   1       2.455   0.683   0.012  0.00  0.00    -0.047 A 
ATOM      5  C3  UNL d   1       1.533   1.396  -0.789  0.00  0.00    -0.047 A 
ATOM      6  C4  UNL d   1       0.478   0.549  -1.055  0.00  0.00    -0.004 A 
ENDROOT
TORSDOF 0
ENDMDL
