MODEL 1
REMARK minimizedAffinity -1.96128154
REMARK minimizedRMSD -1
REMARK  0 active torsions:
REMARK  status: ('A' for Active; 'I' for Inactive)
ROOT
ATOM      1  C   UNL d   1       0.869  -1.346  -0.011  0.00  0.00     0.172 C 
ATOM      2  N   UNL d   1       0.132  -2.279  -0.829  0.00  0.00    -0.070 N 
ATOM      3  C1  UNL d   1       0.510  -2.728  -2.067  0.00  0.00    -0.004 A 
ATOM      4  C2  UNL d   1      -0.458  -3.602  -2.512  0.00  0.00    -0.047 A 
ATOM      5  C3  UNL d   1      -1.453  -3.680  -1.509  0.00  0.00    -0.047 A 
ATOM      6  C4  UNL d   1      -1.063  -2.852  -0.478  0.00  0.00    -0.004 A 
ENDROOT
TORSDOF 0
ENDMDL
