MODEL 1
REMARK minimizedAffinity -3.80905151
REMARK minimizedRMSD -1
REMARK  0 active torsions:
REMARK  status: ('A' for Active; 'I' for Inactive)
ROOT
ATOM      1  C   UNL d   1       0.231  -0.324  -0.008  0.00  0.00     0.172 C 
ATOM      2  N   UNL d   1       0.017   1.082   0.241  0.00  0.00    -0.070 N 
ATOM      3  C1  UNL d   1      -1.126   1.638   0.750  0.00  0.00    -0.004 A 
ATOM      4  C2  UNL d   1      -0.930   3.000   0.836  0.00  0.00    -0.047 A 
ATOM      5  C3  UNL d   1       0.375   3.271   0.362  0.00  0.00    -0.047 A 
ATOM      6  C4  UNL d   1       0.939   2.066   0.000  0.00  0.00    -0.004 A 
ENDROOT
TORSDOF 0
ENDMDL
