MODEL 1
REMARK minimizedAffinity -3.15254736
REMARK minimizedRMSD -1
REMARK  0 active torsions:
REMARK  status: ('A' for Active; 'I' for Inactive)
ROOT
ATOM      1  C   UNL d   1       0.635  -1.875   0.374  0.00  0.00     0.172 C 
ATOM      2  N   UNL d   1      -0.291  -2.435  -0.583  0.00  0.00    -0.070 N 
ATOM      3  C1  UNL d   1      -1.653  -2.470  -0.449  0.00  0.00    -0.004 A 
ATOM      4  C2  UNL d   1      -2.171  -3.082  -1.570  0.00  0.00    -0.047 A 
ATOM      5  C3  UNL d   1      -1.083  -3.428  -2.405  0.00  0.00    -0.047 A 
ATOM      6  C4  UNL d   1       0.069  -3.016  -1.770  0.00  0.00    -0.004 A 
ENDROOT
TORSDOF 0
ENDMDL
