MODEL 1
REMARK minimizedAffinity -3.92145562
REMARK minimizedRMSD -1
REMARK  0 active torsions:
REMARK  status: ('A' for Active; 'I' for Inactive)
ROOT
ATOM      1  C   UNL d   1      -0.737   0.126   0.359  0.00  0.00     0.172 C 
ATOM      2  N   UNL d   1      -0.175   1.419   0.049  0.00  0.00    -0.070 N 
ATOM      3  C1  UNL d   1      -0.227   2.526   0.855  0.00  0.00    -0.004 A 
ATOM      4  C2  UNL d   1       0.422   3.552   0.203  0.00  0.00    -0.047 A 
ATOM      5  C3  UNL d   1       0.878   3.046  -1.037  0.00  0.00    -0.047 A 
ATOM      6  C4  UNL d   1       0.495   1.723  -1.106  0.00  0.00    -0.004 A 
ENDROOT
TORSDOF 0
ENDMDL
