MODEL 1
REMARK minimizedAffinity -3.77650428
REMARK minimizedRMSD -1
REMARK  0 active torsions:
REMARK  status: ('A' for Active; 'I' for Inactive)
ROOT
ATOM      1  C   UNL d   1      -0.040  -1.279  -0.175  0.00  0.00     0.172 C 
ATOM      2  N   UNL d   1      -0.173   0.155  -0.068  0.00  0.00    -0.070 N 
ATOM      3  C1  UNL d   1       0.786   1.073  -0.401  0.00  0.00    -0.004 A 
ATOM      4  C2  UNL d   1       0.272   2.328  -0.156  0.00  0.00    -0.047 A 
ATOM      5  C3  UNL d   1      -1.041   2.158   0.343  0.00  0.00    -0.047 A 
ATOM      6  C4  UNL d   1      -1.291   0.803   0.387  0.00  0.00    -0.004 A 
ENDROOT
TORSDOF 0
ENDMDL
