MODEL 1
REMARK minimizedAffinity -0.555920243
REMARK minimizedRMSD -1
REMARK  0 active torsions:
REMARK  status: ('A' for Active; 'I' for Inactive)
ROOT
ATOM      1  C   UNL d   1       0.356  -0.686  -0.145  0.00  0.00     0.172 C 
ATOM      2  N   UNL d   1      -0.056  -1.957  -0.693  0.00  0.00    -0.070 N 
ATOM      3  C1  UNL d   1      -0.048  -3.154  -0.028  0.00  0.00    -0.004 A 
ATOM      4  C2  UNL d   1      -0.512  -4.121  -0.893  0.00  0.00    -0.047 A 
ATOM      5  C3  UNL d   1      -0.808  -3.483  -2.121  0.00  0.00    -0.047 A 
ATOM      6  C4  UNL d   1      -0.517  -2.144  -1.970  0.00  0.00    -0.004 A 
ENDROOT
TORSDOF 0
ENDMDL
