MODEL 1
REMARK minimizedAffinity -1.67740631
REMARK minimizedRMSD -1
REMARK  0 active torsions:
REMARK  status: ('A' for Active; 'I' for Inactive)
ROOT
ATOM      1  C   UNL d   1      -0.331  -0.677  -0.069  0.00  0.00     0.172 C 
ATOM      2  N   UNL d   1      -0.494   0.661   0.449  0.00  0.00    -0.070 N 
ATOM      3  C1  UNL d   1      -1.557   1.106   1.189  0.00  0.00    -0.004 A 
ATOM      4  C2  UNL d   1      -1.336   2.433   1.488  0.00  0.00    -0.047 A 
ATOM      5  C3  UNL d   1      -0.098   2.798   0.907  0.00  0.00    -0.047 A 
ATOM      6  C4  UNL d   1       0.401   1.682   0.270  0.00  0.00    -0.004 A 
ENDROOT
TORSDOF 0
ENDMDL
