MODEL 1
REMARK minimizedAffinity -3.99321032
REMARK minimizedRMSD -1
REMARK  0 active torsions:
REMARK  status: ('A' for Active; 'I' for Inactive)
ROOT
ATOM      1  C   UNL d   1      -0.248  -0.569   0.095  0.00  0.00     0.172 C 
ATOM      2  N   UNL d   1      -0.248   0.873   0.175  0.00  0.00    -0.070 N 
ATOM      3  C1  UNL d   1       0.643   1.708  -0.445  0.00  0.00    -0.004 A 
ATOM      4  C2  UNL d   1       0.305   3.003  -0.121  0.00  0.00    -0.047 A 
ATOM      5  C3  UNL d   1      -0.829   2.946   0.724  0.00  0.00    -0.047 A 
ATOM      6  C4  UNL d   1      -1.150   1.615   0.891  0.00  0.00    -0.004 A 
ENDROOT
TORSDOF 0
ENDMDL
