MODEL 1
REMARK minimizedAffinity -3.66613674
REMARK minimizedRMSD -1
REMARK  0 active torsions:
REMARK  status: ('A' for Active; 'I' for Inactive)
ROOT
ATOM      1  C   UNL d   1       2.566   1.814   1.165  0.00  0.00     0.172 C 
ATOM      2  N   UNL d   1       1.168   1.631   0.851  0.00  0.00    -0.070 N 
ATOM      3  C1  UNL d   1       0.626   0.535   0.235  0.00  0.00    -0.004 A 
ATOM      4  C2  UNL d   1      -0.731   0.745   0.119  0.00  0.00    -0.047 A 
ATOM      5  C3  UNL d   1      -1.014   2.011   0.684  0.00  0.00    -0.047 A 
ATOM      6  C4  UNL d   1       0.180   2.538   1.130  0.00  0.00    -0.004 A 
ENDROOT
TORSDOF 0
ENDMDL
