MODEL 1
REMARK minimizedAffinity -3.2229135
REMARK minimizedRMSD -1
REMARK  0 active torsions:
REMARK  status: ('A' for Active; 'I' for Inactive)
ROOT
ATOM      1  C   UNL d   1       2.280   2.680   1.654  0.00  0.00     0.172 C 
ATOM      2  N   UNL d   1       1.128   1.937   1.201  0.00  0.00    -0.070 N 
ATOM      3  C1  UNL d   1      -0.158   2.405   1.160  0.00  0.00    -0.004 A 
ATOM      4  C2  UNL d   1      -0.959   1.396   0.669  0.00  0.00    -0.047 A 
ATOM      5  C3  UNL d   1      -0.125   0.283   0.407  0.00  0.00    -0.047 A 
ATOM      6  C4  UNL d   1       1.162   0.645   0.746  0.00  0.00    -0.004 A 
ENDROOT
TORSDOF 0
ENDMDL
