MODEL 1
REMARK minimizedAffinity -4.31082296
REMARK minimizedRMSD -1
REMARK  0 active torsions:
REMARK  status: ('A' for Active; 'I' for Inactive)
ROOT
ATOM      1  C   UNL d   1       0.032  -1.167  -0.896  0.00  0.00     0.172 C 
ATOM      2  N   UNL d   1       0.068   0.217  -0.487  0.00  0.00    -0.070 N 
ATOM      3  C1  UNL d   1      -0.995   1.080  -0.499  0.00  0.00    -0.004 A 
ATOM      4  C2  UNL d   1      -0.553   2.301  -0.037  0.00  0.00    -0.047 A 
ATOM      5  C3  UNL d   1       0.823   2.167   0.263  0.00  0.00    -0.047 A 
ATOM      6  C4  UNL d   1       1.182   0.867  -0.025  0.00  0.00    -0.004 A 
ENDROOT
TORSDOF 0
ENDMDL
