MODEL 1
REMARK minimizedAffinity 1.92484653
REMARK minimizedRMSD -1
REMARK  0 active torsions:
REMARK  status: ('A' for Active; 'I' for Inactive)
ROOT
ATOM      1  C   UNL d   1      -0.130  -0.851   1.547  0.00  0.00     0.020 A 
ATOM      2  C1  UNL d   1       0.198   0.415   1.064  0.00  0.00     0.020 A 
ATOM      3  C2  UNL d   1       0.564   0.579  -0.274  0.00  0.00     0.034 A 
ATOM      4  C3  UNL d   1       0.604  -0.525  -1.133  0.00  0.00     0.017 A 
ATOM      5  C4  UNL d   1       0.274  -1.796  -0.647  0.00  0.00     0.017 A 
ATOM      6  C5  UNL d   1      -0.092  -1.954   0.693  0.00  0.00     0.034 A 
ATOM      7 Cl   UNL d   1       0.299  -3.205  -1.647  0.00  0.00    -0.070 Cl
ATOM      8 Cl1  UNL d   1       1.065  -0.249  -2.775  0.00  0.00    -0.070 Cl
ENDROOT
TORSDOF 0
ENDMDL
