MODEL 1
REMARK minimizedAffinity -2.2695682
REMARK minimizedRMSD -1
REMARK  0 active torsions:
REMARK  status: ('A' for Active; 'I' for Inactive)
ROOT
ATOM      1  C   UNL d   1       0.368   0.781   0.399  0.00  0.00     0.020 A 
ATOM      2  C1  UNL d   1      -0.052  -0.548   0.367  0.00  0.00     0.020 A 
ATOM      3  C2  UNL d   1      -1.375  -0.870   0.677  0.00  0.00     0.034 A 
ATOM      4  C3  UNL d   1      -2.283   0.138   1.022  0.00  0.00     0.017 A 
ATOM      5  C4  UNL d   1      -1.860   1.472   1.054  0.00  0.00     0.017 A 
ATOM      6  C5  UNL d   1      -0.535   1.789   0.741  0.00  0.00     0.034 A 
ATOM      7 Cl   UNL d   1      -2.923   2.770   1.469  0.00  0.00    -0.070 Cl
ATOM      8 Cl1  UNL d   1      -3.903  -0.333   1.394  0.00  0.00    -0.070 Cl
ENDROOT
TORSDOF 0
ENDMDL
