MODEL 1
REMARK minimizedAffinity -4.45492697
REMARK minimizedRMSD -1
REMARK  0 active torsions:
REMARK  status: ('A' for Active; 'I' for Inactive)
ROOT
ATOM      1  C   UNL d   1       0.621  -0.903  -2.388  0.00  0.00     0.020 A 
ATOM      2  C1  UNL d   1       1.742  -0.081  -2.505  0.00  0.00     0.020 A 
ATOM      3  C2  UNL d   1       2.022   0.863  -1.515  0.00  0.00     0.034 A 
ATOM      4  C3  UNL d   1       1.181   0.988  -0.403  0.00  0.00     0.017 A 
ATOM      5  C4  UNL d   1       0.056   0.163  -0.286  0.00  0.00     0.017 A 
ATOM      6  C5  UNL d   1      -0.219  -0.781  -1.281  0.00  0.00     0.034 A 
ATOM      7 Cl   UNL d   1      -1.028   0.258   1.056  0.00  0.00    -0.070 Cl
ATOM      8 Cl1  UNL d   1       1.588   2.176   0.783  0.00  0.00    -0.070 Cl
ENDROOT
TORSDOF 0
ENDMDL
