MODEL 1
REMARK minimizedAffinity -2.14935017
REMARK minimizedRMSD -1
REMARK  0 active torsions:
REMARK  status: ('A' for Active; 'I' for Inactive)
ROOT
ATOM      1  C   UNL d   1      -6.000   3.608  -6.000  0.00  0.00     0.020 A 
ATOM      2  C1  UNL d   1      -4.929   4.441  -5.679  0.00  0.00     0.020 A 
ATOM      3  C2  UNL d   1      -3.688   3.889  -5.354  0.00  0.00     0.034 A 
ATOM      4  C3  UNL d   1      -3.515   2.500  -5.350  0.00  0.00     0.017 A 
ATOM      5  C4  UNL d   1      -4.590   1.665  -5.672  0.00  0.00     0.017 A 
ATOM      6  C5  UNL d   1      -5.831   2.223  -5.997  0.00  0.00     0.034 A 
ATOM      7 Cl   UNL d   1      -4.454  -0.058  -5.689  0.00  0.00    -0.070 Cl
ATOM      8 Cl1  UNL d   1      -1.953   1.886  -4.939  0.00  0.00    -0.070 Cl
ENDROOT
TORSDOF 0
ENDMDL
