MODEL 1
REMARK minimizedAffinity -1.57573974
REMARK minimizedRMSD -1
REMARK  0 active torsions:
REMARK  status: ('A' for Active; 'I' for Inactive)
ROOT
ATOM      1  C   UNL d   1       0.924   0.979   0.663  0.00  0.00     0.020 A 
ATOM      2  C1  UNL d   1       0.439  -0.155   1.313  0.00  0.00     0.020 A 
ATOM      3  C2  UNL d   1      -0.014  -1.246   0.569  0.00  0.00     0.034 A 
ATOM      4  C3  UNL d   1       0.017  -1.205  -0.830  0.00  0.00     0.017 A 
ATOM      5  C4  UNL d   1       0.504  -0.067  -1.482  0.00  0.00     0.017 A 
ATOM      6  C5  UNL d   1       0.957   1.023  -0.731  0.00  0.00     0.034 A 
ATOM      7 Cl   UNL d   1       0.574   0.057  -3.204  0.00  0.00    -0.070 Cl
ATOM      8 Cl1  UNL d   1      -0.559  -2.591  -1.687  0.00  0.00    -0.070 Cl
ENDROOT
TORSDOF 0
ENDMDL
