MODEL 1
REMARK minimizedAffinity -2.8669951
REMARK minimizedRMSD -1
REMARK  0 active torsions:
REMARK  status: ('A' for Active; 'I' for Inactive)
ROOT
ATOM      1  C   UNL d   1       1.124  -0.314  -2.208  0.00  0.00     0.020 A 
ATOM      2  C1  UNL d   1       2.275   0.455  -2.045  0.00  0.00     0.020 A 
ATOM      3  C2  UNL d   1       2.537   1.067  -0.817  0.00  0.00     0.034 A 
ATOM      4  C3  UNL d   1       1.647   0.910   0.252  0.00  0.00     0.017 A 
ATOM      5  C4  UNL d   1       0.492   0.137   0.087  0.00  0.00     0.017 A 
ATOM      6  C5  UNL d   1       0.234  -0.473  -1.145  0.00  0.00     0.034 A 
ATOM      7 Cl   UNL d   1      -0.652  -0.103   1.360  0.00  0.00    -0.070 Cl
ATOM      8 Cl1  UNL d   1       2.035   1.694   1.742  0.00  0.00    -0.070 Cl
ENDROOT
TORSDOF 0
ENDMDL
