MODEL 1
REMARK minimizedAffinity -4.66437435
REMARK minimizedRMSD -1
REMARK  0 active torsions:
REMARK  status: ('A' for Active; 'I' for Inactive)
ROOT
ATOM      1  C   UNL d   1       1.718   1.141  -2.272  0.00  0.00     0.020 A 
ATOM      2  C1  UNL d   1       2.138  -0.047  -2.869  0.00  0.00     0.020 A 
ATOM      3  C2  UNL d   1       1.794  -1.275  -2.300  0.00  0.00     0.034 A 
ATOM      4  C3  UNL d   1       1.028  -1.318  -1.130  0.00  0.00     0.017 A 
ATOM      5  C4  UNL d   1       0.606  -0.126  -0.531  0.00  0.00     0.017 A 
ATOM      6  C5  UNL d   1       0.953   1.101  -1.105  0.00  0.00     0.034 A 
ATOM      7 Cl   UNL d   1      -0.343  -0.099   0.913  0.00  0.00    -0.070 Cl
ATOM      8 Cl1  UNL d   1       0.639  -2.872  -0.482  0.00  0.00    -0.070 Cl
ENDROOT
TORSDOF 0
ENDMDL
