MODEL 1
REMARK minimizedAffinity -3.80269837
REMARK minimizedRMSD -1
REMARK  0 active torsions:
REMARK  status: ('A' for Active; 'I' for Inactive)
ROOT
ATOM      1  C   UNL d   1       1.633   0.772  -2.266  0.00  0.00     0.020 A 
ATOM      2  C1  UNL d   1       1.281   1.788  -1.378  0.00  0.00     0.020 A 
ATOM      3  C2  UNL d   1       0.551   1.487  -0.226  0.00  0.00     0.034 A 
ATOM      4  C3  UNL d   1       0.170   0.167   0.041  0.00  0.00     0.017 A 
ATOM      5  C4  UNL d   1       0.524  -0.853  -0.851  0.00  0.00     0.017 A 
ATOM      6  C5  UNL d   1       1.255  -0.546  -2.003  0.00  0.00     0.034 A 
ATOM      7 Cl   UNL d   1       0.091  -2.505  -0.589  0.00  0.00    -0.070 Cl
ATOM      8 Cl1  UNL d   1      -0.731  -0.133   1.484  0.00  0.00    -0.070 Cl
ENDROOT
TORSDOF 0
ENDMDL
