MODEL 1
REMARK minimizedAffinity -4.63636065
REMARK minimizedRMSD -1
REMARK  0 active torsions:
REMARK  status: ('A' for Active; 'I' for Inactive)
ROOT
ATOM      1  C   UNL d   1       2.391  -1.501  -2.680  0.00  0.00     0.020 A 
ATOM      2  C1  UNL d   1       2.164  -0.134  -2.524  0.00  0.00     0.020 A 
ATOM      3  C2  UNL d   1       1.297   0.320  -1.528  0.00  0.00     0.034 A 
ATOM      4  C3  UNL d   1       0.654  -0.593  -0.685  0.00  0.00     0.017 A 
ATOM      5  C4  UNL d   1       0.882  -1.964  -0.842  0.00  0.00     0.017 A 
ATOM      6  C5  UNL d   1       1.752  -2.414  -1.841  0.00  0.00     0.034 A 
ATOM      7 Cl   UNL d   1       0.125  -3.151   0.161  0.00  0.00    -0.070 Cl
ATOM      8 Cl1  UNL d   1      -0.405   0.040   0.525  0.00  0.00    -0.070 Cl
ENDROOT
TORSDOF 0
ENDMDL
