MODEL 1
REMARK minimizedAffinity -4.72785902
REMARK minimizedRMSD -1
REMARK  0 active torsions:
REMARK  status: ('A' for Active; 'I' for Inactive)
ROOT
ATOM      1  C   UNL d   1       0.184   0.524   0.802  0.00  0.00     0.020 A 
ATOM      2  C1  UNL d   1       0.872   1.504   0.087  0.00  0.00     0.020 A 
ATOM      3  C2  UNL d   1       1.455   1.191  -1.142  0.00  0.00     0.034 A 
ATOM      4  C3  UNL d   1       1.352  -0.105  -1.661  0.00  0.00     0.017 A 
ATOM      5  C4  UNL d   1       0.662  -1.088  -0.942  0.00  0.00     0.017 A 
ATOM      6  C5  UNL d   1       0.079  -0.769   0.288  0.00  0.00     0.034 A 
ATOM      7 Cl   UNL d   1       0.492  -2.709  -1.518  0.00  0.00    -0.070 Cl
ATOM      8 Cl1  UNL d   1       2.097  -0.422  -3.187  0.00  0.00    -0.070 Cl
ENDROOT
TORSDOF 0
ENDMDL
